data_PCOD8192650
_publ_section_title
;
Structure prediction by ZEFSAII (Michael W. Deem and Ramdas Pophale) SiO2 
 PCOD8192650
Probable space group: I M A 2
;
_chemical_formula_sum "Si O2"
_cell_formula_units_Z 48
_cell_length_a 9.803471
_cell_length_b 8.976671
_cell_length_c 27.256302
_cell_angle_alpha 90.000000
_cell_angle_beta 90.000000
_cell_angle_gamma 90.000000
_cell_volume 2398.623639
_symmetry_space_group_name_H-M "I M A 2"
_symmetry_group_IT_number 46
_symmetry_cell_setting 'orthorhombic'
loop_
_space_group_symop_operation_xyz
x,y,z
-x,-y,z
1/2-x,y,z
1/2+x,-y,z
1/2+x,1/2+y,1/2+z
1/2-x,1/2-y,1/2+z
-x,1/2+y,1/2+z
x,1/2-y,1/2+z
loop_
_atom_site_type_symbol
_atom_site_label
_atom_site_fract_x
_atom_site_fract_y
_atom_site_fract_z
Si Si1 0.404442 0.640099 0.038300
Si Si2 0.600982 0.766739 0.861961
Si Si3 0.100608 0.770110 0.228053
Si Si4 0.911398 0.360376 0.624861
Si Si5 0.500000 0.500000 0.802975
Si Si6 0.500000 0.500000 0.288388
Si Si7 0.410089 0.644536 0.447100
O O1 0.500000 0.500000 0.031665
O O2 0.250000 0.581558 0.039368
O O3 0.440773 0.725430 0.088011
O O4 0.427125 0.747446 0.992442
O O5 0.750000 0.775339 0.887934
O O6 0.593978 0.606638 0.835766
O O7 0.474251 0.778203 0.898968
O O8 0.598854 0.901927 0.822729
O O9 0.250000 0.763412 0.206452
O O10 0.021613 0.810715 0.177669
O O11 0.075423 0.610585 0.251772
O O12 0.093415 0.897744 0.268845
O O13 0.750000 0.402702 0.624557
O O14 0.000000 0.500000 0.606359
O O15 0.500000 0.500000 0.458570
O O16 0.250000 0.606214 0.437222
#
# Coordination Sequence:
#
# PCOD8192650 Si02
#       7
#     8   8   8   8   4   4   8
#     4  10  24  43  65  94 124 155 196 249 306 362
#     4  11  23  39  61  90 123 162 208 253 302 359
#     4  10  20  37  59  86 123 162 200 249 299 354
#     4  10  21  40  64  91 123 159 202 246 300 361
#     4  10  22  38  58  88 122 166 202 254 296 360
#     4  10  22  36  58  88 122 164 204 252 294 362
#     4  11  24  42  64  91 122 160 203 250 303 364
#
# _framework density 20.011475000000001
#
# number of rings (size 3 to 8) (size 9 to 14) (size 15 to 20)
#    0.000    1.667    1.667    2.000    2.333    5.333 
#    0.000    0.833    0.000    0.000    0.000    0.000 
#    0.000    0.000    0.000    0.000    0.000    0.000 
#
# Total GULP energy -297447.134284 kJ/mol
# GULP energy per Si atom -12393.630595 kJ/mol
# Density = 1.996593 g / cm^3
# Si number density = 20.011475 Si / 1000 Ang^3
#
#
#
# Elastic Constant Matrix: (Units=GPa)
#
#
# Indices 1 2 3 4 5 6 
#
# 1 123.2035 59.0742 50.4403 0.0000 0.0000 0.0000
# 2 59.0742 136.6053 54.9963 0.0000 0.0000 0.0000
# 3 50.4403 54.9963 107.1404 0.0000 0.0000 0.0000
# 4 0.0000 0.0000 0.0000 217.8235 0.0000 0.0000
# 5 0.0000 0.0000 0.0000 0.0000 27.3122 0.0000
# 6 0.0000 0.0000 0.0000 0.0000 0.0000 25.5376
#
#
#
# Elastic Compliance Matrix: (Units=1/GPa)
#
#
# Indices 1 2 3 4 5 6 
#
# 1 0.011199 -0.003429 -0.003512 0.000000 0.000000 0.000000
# 2 -0.003429 0.010277 -0.003661 0.000000 0.000000 0.000000
# 3 -0.003512 -0.003661 0.012866 0.000000 0.000000 0.000000
# 4 0.000000 0.000000 0.000000 0.004591 0.000000 0.000000
# 5 0.000000 0.000000 0.000000 0.000000 0.036614 0.000000
# 6 0.000000 0.000000 0.000000 0.000000 0.000000 0.039158
#
#
# Mechanical properties :
#
#
# Convention : Reuss Voigt Hill
#
# Bulk Modulus (GPa) = 76.11556 77.33010 76.72283
# Shear Modulus (GPa) = 35.64105 67.63056 51.63580
#
# Velocity S-wave (km/s) = 4.22480 5.81973 5.08519
# Velocity P-wave (km/s) = 7.86875 9.15892 8.53824
#
# Compressibility (1/GPa) = 0.01313792
#
# Stress axis : x y z
#
# Youngs Moduli (GPa) = 89.29694 97.30405 77.72265
#
# Poissons Ratio (x) = 0.33364 0.27297
# Poissons Ratio (y) = 0.30618 0.28455
# Poissons Ratio (z) = 0.31362 0.35624
#
# Static dielectric constant tensor:
#      x y z
#    x 3.540010 0.000000 0.000000 
#    y 0.000000 2.728670 0.000000 
#    z 0.000000 0.000000 3.754380 
# 
# 
# High freq. dielectric constant tensor:
#      x y z
#    x 1.772970 0.000000 0.000000 
#    y 0.000000 1.788850 0.000000 
#    z 0.000000 0.000000 1.792620 
# 
# From -- ./inp_files/25056.got.cif
#   From: 2010.03.12/outbox.cif.g09.slc.cpg/sg46_13_cif.got.tgz:25056.got - 2010.04.14 02:56:35.
