data_PCOD8192537
_publ_section_title
;
Structure prediction by ZEFSAII (Michael W. Deem and Ramdas Pophale) SiO2 
 PCOD8192537
Probable space group: I M A 2
;
_chemical_formula_sum "Si O2"
_cell_formula_units_Z 64
_cell_length_a 14.664371
_cell_length_b 8.952732
_cell_length_c 21.960283
_cell_angle_alpha 90.000000
_cell_angle_beta 90.000000
_cell_angle_gamma 90.000000
_cell_volume 2883.081744
_symmetry_space_group_name_H-M "I M A 2"
_symmetry_group_IT_number 46
_symmetry_cell_setting 'orthorhombic'
loop_
_space_group_symop_operation_xyz
x,y,z
-x,-y,z
1/2-x,y,z
1/2+x,-y,z
1/2+x,1/2+y,1/2+z
1/2-x,1/2-y,1/2+z
-x,1/2+y,1/2+z
x,1/2-y,1/2+z
loop_
_atom_site_type_symbol
_atom_site_label
_atom_site_fract_x
_atom_site_fract_y
_atom_site_fract_z
Si Si1 0.910903 0.092316 0.641240
Si Si2 0.354231 0.895506 0.426320
Si Si3 0.851287 0.848402 0.337705
Si Si4 0.146288 0.737429 0.256857
Si Si5 0.970700 0.657536 0.592936
Si Si6 0.851973 0.895930 0.534455
Si Si7 0.646016 0.946770 0.206676
Si Si8 0.476785 0.832533 0.871216
O O1 0.852713 0.117786 0.702041
O O2 0.939191 0.249256 0.610138
O O3 0.850485 0.997018 0.594818
O O4 0.000000 0.000000 0.659238
O O5 0.250000 0.848706 0.440188
O O6 0.416665 0.747604 0.423769
O O7 0.363733 0.980087 0.361073
O O8 0.391371 0.006543 0.478645
O O9 0.750000 0.793533 0.357611
O O10 0.860630 0.839109 0.265066
O O11 0.925331 0.744688 0.368295
O O12 0.250000 0.755111 0.282163
O O13 0.079388 0.675925 0.308497
O O14 0.108527 0.892133 0.228408
O O15 0.912674 0.748406 0.543167
O O16 0.913195 0.625264 0.653855
O O17 0.000000 0.500000 0.563132
O O18 0.750000 0.842984 0.519342
O O19 0.750000 0.962074 0.183597
O O20 0.500000 0.000000 0.890471
#
# Coordination Sequence:
#
# PCOD8192537 Si02
#       8
#     8   8   8   8   8   8   8   8
#     4  10  21  36  57  89 131 179 223 263 325 397
#     4  10  22  45  72  93 123 175 231 274 325 401
#     4  10  22  40  65  94 126 176 226 267 323 396
#     4  11  21  36  60  94 136 178 222 267 327 402
#     4  11  21  36  61  95 132 165 214 277 334 396
#     4  10  23  44  66  91 127 175 225 274 331 398
#     4  10  20  35  60  93 131 174 218 263 325 395
#     4  12  25  39  64 100 134 171 213 280 342 393
#
# _framework density 22.198467999999998
#
# number of rings (size 3 to 8) (size 9 to 14) (size 15 to 20)
#    0.000    1.500    2.500    2.625    0.000    5.000 
#    0.000    5.000    0.000    3.000    0.000    0.875 
#    0.000    0.000    0.000    0.000    0.000    0.000 
#
# Total GULP energy -396860.309152 kJ/mol
# GULP energy per Si atom -12401.884661 kJ/mol
# Density = 2.214794 g / cm^3
# Si number density = 22.198468 Si / 1000 Ang^3
#
#
#
# Elastic Constant Matrix: (Units=GPa)
#
#
# Indices 1 2 3 4 5 6 
#
# 1 106.3306 61.2376 29.6343 0.0000 0.0000 0.0000
# 2 61.2376 146.9607 35.9303 0.0000 0.0000 0.0000
# 3 29.6343 35.9303 81.8748 0.0000 0.0000 0.0000
# 4 0.0000 0.0000 0.0000 34.5725 0.0000 0.0000
# 5 0.0000 0.0000 0.0000 0.0000 28.0835 0.0000
# 6 0.0000 0.0000 0.0000 0.0000 0.0000 24.0480
#
#
#
# Elastic Compliance Matrix: (Units=1/GPa)
#
#
# Indices 1 2 3 4 5 6 
#
# 1 0.012842 -0.004721 -0.002576 0.000000 0.000000 0.000000
# 2 -0.004721 0.009358 -0.002398 0.000000 0.000000 0.000000
# 3 -0.002576 -0.002398 0.014199 0.000000 0.000000 0.000000
# 4 0.000000 0.000000 0.000000 0.028925 0.000000 0.000000
# 5 0.000000 0.000000 0.000000 0.000000 0.035608 0.000000
# 6 0.000000 0.000000 0.000000 0.000000 0.000000 0.041583
#
#
# Mechanical properties :
#
#
# Convention : Reuss Voigt Hill
#
# Bulk Modulus (GPa) = 58.79672 65.41895 62.10784
# Shear Modulus (GPa) = 29.83753 31.23173 30.53463
#
# Velocity S-wave (km/s) = 3.67021 3.75498 3.71284
# Velocity P-wave (km/s) = 6.67120 6.95225 6.81318
#
# Compressibility (1/GPa) = 0.01700775
#
# Stress axis : x y z
#
# Youngs Moduli (GPa) = 77.87189 106.85938 70.42993
#
# Poissons Ratio (x) = 0.50450 0.18144
# Poissons Ratio (y) = 0.36765 0.16889
# Poissons Ratio (z) = 0.20061 0.25624
#
# Static dielectric constant tensor:
#      x y z
#    x 4.069380 0.000000 0.000000 
#    y 0.000000 3.979810 0.000000 
#    z 0.000000 0.000000 3.853100 
# 
# 
# High freq. dielectric constant tensor:
#      x y z
#    x 1.881280 0.000000 0.000000 
#    y 0.000000 1.859650 0.000000 
#    z 0.000000 0.000000 1.863740 
# 
# From -- ./inp_files/23645.got.cif
#   From: 2010.03.12/outbox.cif.g09.slc.cpg/sg46_12_cif.got.tgz:23645.got - 2010.04.14 02:56:35.
