data_PCOD8192327
_publ_section_title
;
Structure prediction by ZEFSAII (Michael W. Deem and Ramdas Pophale) SiO2 
 PCOD8192327
Probable space group: I M A 2
;
_chemical_formula_sum "Si O2"
_cell_formula_units_Z 64
_cell_length_a 9.136784
_cell_length_b 16.051190
_cell_length_c 22.619533
_cell_angle_alpha 90.000000
_cell_angle_beta 90.000000
_cell_angle_gamma 90.000000
_cell_volume 3317.296022
_symmetry_space_group_name_H-M "I M A 2"
_symmetry_group_IT_number 46
_symmetry_cell_setting 'orthorhombic'
loop_
_space_group_symop_operation_xyz
x,y,z
-x,-y,z
1/2-x,y,z
1/2+x,-y,z
1/2+x,1/2+y,1/2+z
1/2-x,1/2-y,1/2+z
-x,1/2+y,1/2+z
x,1/2-y,1/2+z
loop_
_atom_site_type_symbol
_atom_site_label
_atom_site_fract_x
_atom_site_fract_y
_atom_site_fract_z
Si Si1 0.918820 0.253921 0.990250
Si Si2 0.087632 0.614615 0.782436
Si Si3 0.917434 0.578778 0.318072
Si Si4 0.077874 0.421170 0.667090
Si Si5 0.915544 0.266687 0.622230
Si Si6 0.576847 0.415518 0.916682
Si Si7 0.576246 0.585781 0.453742
Si Si8 0.591063 0.301547 0.244247
O O1 0.750000 0.235430 0.973289
O O2 0.977759 0.333107 0.952603
O O3 0.011088 0.169147 0.982745
O O4 0.935044 0.278395 0.059324
O O5 0.250000 0.575274 0.772297
O O6 0.030858 0.595823 0.848386
O O7 0.099560 0.712054 0.773483
O O8 0.971418 0.579398 0.735779
O O9 0.750000 0.558906 0.312524
O O10 0.962908 0.596755 0.385107
O O11 0.000000 0.500000 0.291839
O O12 0.958199 0.655292 0.277026
O O13 0.250000 0.429979 0.663087
O O14 0.000000 0.500000 0.636198
O O15 0.029049 0.341682 0.629584
O O16 0.750000 0.302206 0.629595
O O17 0.945282 0.200369 0.674348
O O18 0.500000 0.500000 0.940980
O O19 0.750000 0.425200 0.924840
O O20 0.500000 0.500000 0.477294
O O21 0.750000 0.580403 0.466028
O O22 0.750000 0.345244 0.254272
#
# Coordination Sequence:
#
# PCOD8192327 Si02
#       8
#     8   8   8   8   8   8   8   8
#     4  10  21  39  60  79 106 146 188 228 271 319
#     4   9  18  33  53  79 110 140 171 210 262 321
#     4  10  20  33  51  77 107 137 171 213 263 319
#     4  11  21  33  52  78 108 139 172 211 259 315
#     4   9  20  38  56  74 100 137 179 219 261 313
#     4  10  21  36  56  82 110 144 184 226 273 323
#     4  10  21  36  56  84 115 145 179 220 269 326
#     4   9  17  32  54  77 103 134 169 215 268 318
#
# _framework density 19.292821
#
# number of rings (size 3 to 8) (size 9 to 14) (size 15 to 20)
#    0.000    2.250    0.000    3.750    0.000    7.500 
#    0.000    0.625    0.000    1.500    0.000    0.000 
#    0.000    0.000    0.000    0.000    0.000    0.000 
#
# Total GULP energy -396667.473945 kJ/mol
# GULP energy per Si atom -12395.858561 kJ/mol
# Density = 1.924891 g / cm^3
# Si number density = 19.292821 Si / 1000 Ang^3
#
#
#
# Elastic Constant Matrix: (Units=GPa)
#
#
# Indices 1 2 3 4 5 6 
#
# 1 75.6716 28.4112 26.7259 0.0000 0.0000 0.0000
# 2 28.4112 79.4180 32.5208 0.0000 0.0000 0.0000
# 3 26.7259 32.5208 76.2316 0.0000 0.0000 0.0000
# 4 0.0000 0.0000 0.0000 7.4552 0.0000 0.0000
# 5 0.0000 0.0000 0.0000 0.0000 16.6946 0.0000
# 6 0.0000 0.0000 0.0000 0.0000 0.0000 36.6721
#
#
#
# Elastic Compliance Matrix: (Units=1/GPa)
#
#
# Indices 1 2 3 4 5 6 
#
# 1 0.016158 -0.004193 -0.003876 0.000000 0.000000 0.000000
# 2 -0.004193 0.016345 -0.005503 0.000000 0.000000 0.000000
# 3 -0.003876 -0.005503 0.016824 0.000000 0.000000 0.000000
# 4 0.000000 0.000000 0.000000 0.134134 0.000000 0.000000
# 5 0.000000 0.000000 0.000000 0.000000 0.059899 0.000000
# 6 0.000000 0.000000 0.000000 0.000000 0.000000 0.027269
#
#
# Mechanical properties :
#
#
# Convention : Reuss Voigt Hill
#
# Bulk Modulus (GPa) = 45.07857 45.18188 45.13023
# Shear Modulus (GPa) = 16.38440 21.74196 19.06318
#
# Velocity S-wave (km/s) = 2.91735 3.36064 3.14681
# Velocity P-wave (km/s) = 5.89611 6.20713 6.05361
#
# Compressibility (1/GPa) = 0.02218349
#
# Stress axis : x y z
#
# Youngs Moduli (GPa) = 61.88749 61.18059 59.43782
#
# Poissons Ratio (x) = 0.25655 0.23038
# Poissons Ratio (y) = 0.25952 0.32707
# Poissons Ratio (z) = 0.23988 0.33666
#
# Static dielectric constant tensor:
#      x y z
#    x 3.629530 0.000000 0.000000 
#    y 0.000000 3.622980 0.000000 
#    z 0.000000 0.000000 3.576970 
# 
# 
# High freq. dielectric constant tensor:
#      x y z
#    x 1.748780 0.000000 0.000000 
#    y 0.000000 1.741050 0.000000 
#    z 0.000000 0.000000 1.745800 
# 
# From -- ./inp_files/23167.got.cif
#   From: 2010.03.12/outbox.cif.g09.slc.cpg/sg46_12_cif.got.tgz:23167.got - 2010.04.14 02:56:35.
