data_PCOD8192751
_publ_section_title
;
Structure prediction by ZEFSAII (Michael W. Deem and Ramdas Pophale) SiO2 
 PCOD8192751
Probable space group: I M A 2
;
_chemical_formula_sum "Si O2"
_cell_formula_units_Z 36
_cell_length_a 9.504837
_cell_length_b 11.048704
_cell_length_c 17.210455
_cell_angle_alpha 90.000000
_cell_angle_beta 90.000000
_cell_angle_gamma 90.000000
_cell_volume 1807.375390
_symmetry_space_group_name_H-M "I M A 2"
_symmetry_group_IT_number 46
_symmetry_cell_setting 'orthorhombic'
loop_
_space_group_symop_operation_xyz
x,y,z
-x,-y,z
1/2-x,y,z
1/2+x,-y,z
1/2+x,1/2+y,1/2+z
1/2-x,1/2-y,1/2+z
-x,1/2+y,1/2+z
x,1/2-y,1/2+z
loop_
_atom_site_type_symbol
_atom_site_label
_atom_site_fract_x
_atom_site_fract_y
_atom_site_fract_z
Si Si1 0.902186 0.157206 0.395410
Si Si2 0.500000 0.500000 0.031738
Si Si3 0.092544 0.263899 0.107965
Si Si4 0.912683 0.889296 0.250383
Si Si5 0.089386 0.883787 0.991848
O O1 0.750000 0.135730 0.355204
O O2 0.917358 0.297463 0.417182
O O3 0.028514 0.126709 0.337552
O O4 0.901240 0.077828 0.474540
O O5 0.420627 0.406784 0.089386
O O6 0.250000 0.223470 0.083364
O O7 0.069670 0.233210 0.199493
O O8 0.978727 0.183298 0.064745
O O9 0.750000 0.925886 0.257965
O O10 0.000000 0.000000 0.211027
O O11 0.250000 0.918570 0.012960
O O12 0.000000 0.000000 0.968999
#
# Coordination Sequence:
#
# PCOD8192751 Si02
#       5
#     8   4   8   8   8
#     4  10  21  37  60  88 116 154 203 249 300 355
#     4  10  20  38  66  90 120 154 206 248 296 356
#     4  10  22  39  60  89 121 158 199 245 301 356
#     4  11  23  38  59  86 121 158 199 248 302 358
#     4  10  21  37  59  87 117 154 198 246 299 355
#
# _framework density 19.918384
#
# number of rings (size 3 to 8) (size 9 to 14) (size 15 to 20)
#    0.000    1.778    1.111    2.667    0.000    8.889 
#    2.000    0.000    0.000    0.000    0.000    0.000 
#    0.000    0.000    0.000    0.000    0.000    0.000 
#
# Total GULP energy -223072.328188 kJ/mol
# GULP energy per Si atom -12392.907122 kJ/mol
# Density = 1.987305 g / cm^3
# Si number density = 19.918384 Si / 1000 Ang^3
#
#
#
# Elastic Constant Matrix: (Units=GPa)
#
#
# Indices 1 2 3 4 5 6 
#
# 1 167.0668 59.8650 47.4062 0.0000 0.0000 0.0000
# 2 59.8650 133.5701 49.6860 0.0000 0.0000 0.0000
# 3 47.4062 49.6860 91.5814 0.0000 0.0000 0.0000
# 4 0.0000 0.0000 0.0000 35.8762 0.0000 0.0000
# 5 0.0000 0.0000 0.0000 0.0000 25.0975 0.0000
# 6 0.0000 0.0000 0.0000 0.0000 0.0000 27.6659
#
#
#
# Elastic Compliance Matrix: (Units=1/GPa)
#
#
# Indices 1 2 3 4 5 6 
#
# 1 0.007599 -0.002434 -0.002613 0.000000 0.000000 0.000000
# 2 -0.002434 0.010159 -0.004252 0.000000 0.000000 0.000000
# 3 -0.002613 -0.004252 0.014579 0.000000 0.000000 0.000000
# 4 0.000000 0.000000 0.000000 0.027874 0.000000 0.000000
# 5 0.000000 0.000000 0.000000 0.000000 0.039845 0.000000
# 6 0.000000 0.000000 0.000000 0.000000 0.000000 0.036146
#
#
# Mechanical properties :
#
#
# Convention : Reuss Voigt Hill
#
# Bulk Modulus (GPa) = 72.78381 78.45920 75.62151
# Shear Modulus (GPa) = 31.37184 33.41199 32.39192
#
# Velocity S-wave (km/s) = 3.97296 4.10011 4.03703
# Velocity P-wave (km/s) = 7.59383 7.86704 7.73164
#
# Compressibility (1/GPa) = 0.01373932
#
# Stress axis : x y z
#
# Youngs Moduli (GPa) = 131.59160 98.43348 68.59306
#
# Poissons Ratio (x) = 0.23957 0.17925
# Poissons Ratio (y) = 0.32027 0.29165
# Poissons Ratio (z) = 0.34388 0.41852
#
# Static dielectric constant tensor:
#      x y z
#    x 3.719470 0.000000 0.000000 
#    y 0.000000 3.963020 0.000000 
#    z 0.000000 0.000000 3.393170 
# 
# 
# High freq. dielectric constant tensor:
#      x y z
#    x 1.789690 0.000000 0.000000 
#    y 0.000000 1.782020 0.000000 
#    z 0.000000 0.000000 1.755410 
# 
# From -- ./inp_files/17968.got.cif
#   From: 2010.03.12/outbox.cif.g09.slc.cpg/sg46_9_cif.got.tgz:17968.got - 2010.04.14 02:56:35.
