data_PCOD8192171
_publ_section_title
;
Structure prediction by ZEFSAII (Michael W. Deem and Ramdas Pophale) SiO2 
 PCOD8192171
Probable space group: I M A 2
;
_chemical_formula_sum "Si O2"
_cell_formula_units_Z 64
_cell_length_a 8.631409
_cell_length_b 24.887780
_cell_length_c 15.114652
_cell_angle_alpha 90.000000
_cell_angle_beta 90.000000
_cell_angle_gamma 90.000000
_cell_volume 3246.878278
_symmetry_space_group_name_H-M "I M A 2"
_symmetry_group_IT_number 46
_symmetry_cell_setting 'orthorhombic'
loop_
_space_group_symop_operation_xyz
x,y,z
-x,-y,z
1/2-x,y,z
1/2+x,-y,z
1/2+x,1/2+y,1/2+z
1/2-x,1/2-y,1/2+z
-x,1/2+y,1/2+z
x,1/2-y,1/2+z
loop_
_atom_site_type_symbol
_atom_site_label
_atom_site_fract_x
_atom_site_fract_y
_atom_site_fract_z
Si Si1 0.073006 0.255833 0.737060
Si Si2 0.567314 0.942233 0.655359
Si Si3 0.067188 0.645304 0.646871
Si Si4 0.568672 0.145824 0.782302
Si Si5 0.573819 0.780943 0.436478
Si Si6 0.066848 0.942729 0.287188
Si Si7 0.065609 0.163894 0.968414
Si Si8 0.567218 0.602773 0.965253
O O1 0.250000 0.241371 0.714108
O O2 0.058175 0.284645 0.831125
O O3 0.007674 0.296799 0.665256
O O4 0.976265 0.201160 0.734036
O O5 0.750000 0.939664 0.672657
O O6 0.479699 0.901977 0.719092
O O7 0.526309 0.928447 0.554231
O O8 0.500000 0.000000 0.677874
O O9 0.250000 0.649934 0.652261
O O10 0.005753 0.600753 0.715799
O O11 0.011930 0.630007 0.547784
O O12 0.750000 0.144692 0.800699
O O13 0.480605 0.137862 0.875169
O O14 0.750000 0.778869 0.467618
O O15 0.497850 0.725456 0.471112
O O16 0.499433 0.836081 0.473978
O O17 0.250000 0.945868 0.285918
O O18 0.013296 0.928103 0.385379
O O19 0.000000 0.000000 0.258418
O O20 0.250000 0.162542 0.976312
O O21 0.750000 0.604724 0.945944
#
# Coordination Sequence:
#
# PCOD8192171 Si02
#       8
#     8   8   8   8   8   8   8   8
#     4  10  19  35  60  87 120 161 203 242 294 366
#     4  11  24  41  63  89 120 159 207 257 307 366
#     4  11  23  38  57  90 126 159 202 255 309 359
#     4  11  23  41  63  89 123 158 201 258 313 362
#     4   8  16  32  55  86 118 154 197 237 284 351
#     4  11  24  40  60  86 122 162 205 250 299 359
#     4  10  21  38  62  90 122 162 205 247 303 369
#     4  10  20  37  61  89 122 159 200 246 297 357
#
# _framework density 19.711241999999999
#
# number of rings (size 3 to 8) (size 9 to 14) (size 15 to 20)
#    0.000    1.750    1.250    4.125    1.750    3.500 
#    0.000    1.250    0.000    1.500    0.000    0.000 
#    0.000    0.000    0.000    0.000    0.000    0.000 
#
# Total GULP energy -396828.432582 kJ/mol
# GULP energy per Si atom -12400.888518 kJ/mol
# Density = 1.966638 g / cm^3
# Si number density = 19.711242 Si / 1000 Ang^3
#
#
#
# Elastic Constant Matrix: (Units=GPa)
#
#
# Indices 1 2 3 4 5 6 
#
# 1 58.5737 25.1701 19.2813 0.0002 0.0000 0.0000
# 2 25.1701 107.9522 44.4038 -0.0002 0.0000 -0.0001
# 3 19.2813 44.4038 94.7204 -0.0018 -0.0003 -0.0002
# 4 0.0002 -0.0002 -0.0018 31.8906 -0.0002 -0.0001
# 5 0.0000 0.0000 -0.0003 -0.0002 30.6168 -0.0002
# 6 0.0000 -0.0001 -0.0002 -0.0001 -0.0002 29.1940
#
#
#
# Elastic Compliance Matrix: (Units=1/GPa)
#
#
# Indices 1 2 3 4 5 6 
#
# 1 0.019356 -0.003583 -0.002260 0.000000 0.000000 0.000000
# 2 -0.003583 0.012140 -0.004961 0.000000 0.000000 0.000000
# 3 -0.002260 -0.004961 0.013343 0.000001 0.000000 0.000000
# 4 0.000000 0.000000 0.000001 0.031357 0.000000 0.000000
# 5 0.000000 0.000000 0.000000 0.000000 0.032662 0.000000
# 6 0.000000 0.000000 0.000000 0.000000 0.000000 0.034254
#
#
# Mechanical properties :
#
#
# Convention : Reuss Voigt Hill
#
# Bulk Modulus (GPa) = 43.04961 48.77296 45.91128
# Shear Modulus (GPa) = 28.99130 29.83303 29.41217
#
# Velocity S-wave (km/s) = 3.83926 3.89460 3.86703
# Velocity P-wave (km/s) = 6.44521 6.70979 6.57883
#
# Compressibility (1/GPa) = 0.02322902
#
# Stress axis : x y z
#
# Youngs Moduli (GPa) = 51.66251 82.37463 74.94343
#
# Poissons Ratio (x) = 0.29518 0.16940
# Poissons Ratio (y) = 0.18513 0.37183
# Poissons Ratio (z) = 0.11677 0.40870
#
# Static dielectric constant tensor:
#      x y z
#    x 3.497150 0.000000 0.000000 
#    y 0.000000 3.708150 0.000000 
#    z 0.000000 0.000000 3.609010 
# 
# 
# High freq. dielectric constant tensor:
#      x y z
#    x 1.761760 0.000000 0.000000 
#    y 0.000000 1.765460 0.000000 
#    z 0.000000 0.000000 1.771850 
# 
# From -- ./inp_files/14457.got.cif
#   From: 2010.03.12/outbox.cif.g09.slc.cpg/sg46_8_cif.got.tgz:14457.got - 2010.04.14 02:56:35.
