data_PCOD8192410
_publ_section_title
;
Structure prediction by ZEFSAII (Michael W. Deem and Ramdas Pophale) SiO2 
 PCOD8192410
Probable space group: I M A 2
;
_chemical_formula_sum "Si O2"
_cell_formula_units_Z 48
_cell_length_a 8.966833
_cell_length_b 27.936322
_cell_length_c 9.690486
_cell_angle_alpha 90.000000
_cell_angle_beta 90.000000
_cell_angle_gamma 90.000000
_cell_volume 2427.469980
_symmetry_space_group_name_H-M "I M A 2"
_symmetry_group_IT_number 46
_symmetry_cell_setting 'orthorhombic'
loop_
_space_group_symop_operation_xyz
x,y,z
-x,-y,z
1/2-x,y,z
1/2+x,-y,z
1/2+x,1/2+y,1/2+z
1/2-x,1/2-y,1/2+z
-x,1/2+y,1/2+z
x,1/2-y,1/2+z
loop_
_atom_site_type_symbol
_atom_site_label
_atom_site_fract_x
_atom_site_fract_y
_atom_site_fract_z
Si Si1 0.072618 0.291881 0.388770
Si Si2 0.080991 0.394716 0.303756
Si Si3 0.572431 0.604608 0.825607
Si Si4 0.072582 0.205335 0.201551
Si Si5 0.573365 0.448589 0.069165
Si Si6 0.416288 0.046159 0.069863
O O1 0.250000 0.290442 0.398201
O O2 0.023853 0.340057 0.307757
O O3 0.010083 0.248124 0.297504
O O4 0.008037 0.289930 0.545411
O O5 0.250000 0.398604 0.244153
O O6 0.077478 0.411074 0.461611
O O7 0.970936 0.428919 0.219199
O O8 0.750000 0.603710 0.849113
O O9 0.519211 0.656459 0.773498
O O10 0.518706 0.565748 0.713349
O O11 0.487232 0.591537 0.964961
O O12 0.250000 0.207002 0.195115
O O13 0.500000 0.500000 0.040186
O O14 0.750000 0.454264 0.058110
O O15 0.250000 0.028735 0.095865
O O16 0.500000 0.000000 0.013514
#
# Coordination Sequence:
#
# PCOD8192410 Si02
#       6
#     8   8   8   8   8   8
#     4   9  17  30  53  89 123 150 187 236 288 340
#     4  10  20  37  59  86 120 153 189 240 292 343
#     4  10  20  37  59  86 120 153 189 240 292 343
#     4   9  17  30  53  89 123 150 187 236 288 340
#     4  12  26  42  59  84 116 154 201 244 293 352
#     4  10  20  34  55  82 112 144 185 232 285 344
#
# _framework density 19.773674
#
# number of rings (size 3 to 8) (size 9 to 14) (size 15 to 20)
#    0.000    2.000    1.667    2.500    2.333    4.000 
#    0.000    0.000    0.000    1.000    0.000    0.000 
#    0.000    0.000    0.000    0.000    0.000    0.000 
#
# Total GULP energy -297582.774263 kJ/mol
# GULP energy per Si atom -12399.282261 kJ/mol
# Density = 1.972867 g / cm^3
# Si number density = 19.773674 Si / 1000 Ang^3
#
#
#
# Elastic Constant Matrix: (Units=GPa)
#
#
# Indices 1 2 3 4 5 6 
#
# 1 56.7206 33.9229 23.3621 0.0000 -0.0020 -0.0001
# 2 33.9229 136.4339 34.3678 0.0050 -0.0006 -0.0011
# 3 23.3621 34.3678 85.0211 -0.0044 -0.0092 -0.0010
# 4 0.0000 0.0050 -0.0044 36.1393 -0.0007 -0.0007
# 5 -0.0020 -0.0006 -0.0092 -0.0007 21.7638 0.0004
# 6 -0.0001 -0.0011 -0.0010 -0.0007 0.0004 17.8720
#
#
#
# Elastic Compliance Matrix: (Units=1/GPa)
#
#
# Indices 1 2 3 4 5 6 
#
# 1 0.022021 -0.004399 -0.004273 0.000000 0.000000 0.000000
# 2 -0.004399 0.009039 -0.002445 -0.000002 -0.000001 0.000000
# 3 -0.004273 -0.002445 0.013924 0.000002 0.000005 0.000001
# 4 0.000000 -0.000002 0.000002 0.027671 0.000001 0.000001
# 5 0.000000 -0.000001 0.000005 0.000001 0.045948 -0.000001
# 6 0.000000 0.000000 0.000001 0.000001 -0.000001 0.055954
#
#
# Mechanical properties :
#
#
# Convention : Reuss Voigt Hill
#
# Bulk Modulus (GPa) = 43.95462 51.27570 47.61516
# Shear Modulus (GPa) = 24.46494 27.58987 26.02741
#
# Velocity S-wave (km/s) = 3.52127 3.73940 3.63197
# Velocity P-wave (km/s) = 6.22973 6.68070 6.45915
#
# Compressibility (1/GPa) = 0.02275074
#
# Stress axis : x y z
#
# Youngs Moduli (GPa) = 45.41111 110.62858 71.81715
#
# Poissons Ratio (x) = 0.48666 0.30686
# Poissons Ratio (y) = 0.19976 0.17560
# Poissons Ratio (z) = 0.19403 0.27050
#
# Static dielectric constant tensor:
#      x y z
#    x 3.116020 0.000000 0.000000 
#    y 0.000000 3.742800 -0.000010 
#    z 0.000000 -0.000010 3.650590 
# 
# 
# High freq. dielectric constant tensor:
#      x y z
#    x 1.715200 0.000000 0.000000 
#    y 0.000000 1.785830 0.000000 
#    z 0.000000 0.000000 1.782470 
# 
# From -- ./inp_files/3888.got.cif
#   From: 2010.03.12/outbox.cif.g09.slc.cpg/sg46_2_cif.got.tgz:3888.got - 2010.04.14 02:56:35.
