data_PCOD8192867
_publ_section_title
;
Structure prediction by ZEFSAII (Michael W. Deem and Ramdas Pophale) SiO2 
 PCOD8192867
Probable space group: I M A 2
;
_chemical_formula_sum "Si O2"
_cell_formula_units_Z 56
_cell_length_a 13.910431
_cell_length_b 9.606769
_cell_length_c 20.068625
_cell_angle_alpha 90.000000
_cell_angle_beta 90.000000
_cell_angle_gamma 90.000000
_cell_volume 2681.856600
_symmetry_space_group_name_H-M "I M A 2"
_symmetry_group_IT_number 46
_symmetry_cell_setting 'orthorhombic'
loop_
_space_group_symop_operation_xyz
x,y,z
-x,-y,z
1/2-x,y,z
1/2+x,-y,z
1/2+x,1/2+y,1/2+z
1/2-x,1/2-y,1/2+z
-x,1/2+y,1/2+z
x,1/2-y,1/2+z
loop_
_atom_site_type_symbol
_atom_site_label
_atom_site_fract_x
_atom_site_fract_y
_atom_site_fract_z
Si Si1 0.138691 0.616845 0.549510
Si Si2 0.637103 0.652276 0.631844
Si Si3 0.975828 0.840756 0.539072
Si Si4 0.453130 0.279301 0.252328
Si Si5 0.143687 0.636037 0.404726
Si Si6 0.016563 0.156193 0.388953
Si Si7 0.360050 0.560216 0.262870
O O1 0.250000 0.660025 0.561595
O O2 0.106701 0.493823 0.598482
O O3 0.123015 0.556179 0.474201
O O4 0.071628 0.751970 0.556947
O O5 0.750000 0.657881 0.645951
O O6 0.609805 0.782208 0.584563
O O7 0.578338 0.659354 0.701193
O O8 0.935991 0.831491 0.462586
O O9 0.000000 0.000000 0.557594
O O10 0.427970 0.232600 0.328187
O O11 0.389827 0.413618 0.231395
O O12 0.566782 0.315906 0.241650
O O13 0.250000 0.695013 0.403648
O O14 0.087348 0.778401 0.397626
O O15 0.125444 0.533951 0.342466
O O16 0.000000 0.000000 0.365770
O O17 0.250000 0.600391 0.243805
#
# Coordination Sequence:
#
# PCOD8192867 Si02
#       7
#     8   8   8   8   8   8   8
#     4   9  19  37  62  90 122 159 202 250 306 364
#     4  11  24  40  58  87 124 163 208 259 304 363
#     4  10  22  39  63  90 121 161 205 253 309 368
#     4  10  21  36  59  85 122 160 198 251 308 360
#     4   8  15  31  57  86 114 148 195 246 292 356
#     4   9  19  36  56  85 118 154 195 244 304 363
#     4   9  18  34  59  89 117 152 202 250 302 363
#
# _framework density 20.881057999999999
#
# number of rings (size 3 to 8) (size 9 to 14) (size 15 to 20)
#    0.000    2.571    0.000    0.857    4.000    1.714 
#    0.000    5.000    0.000    7.714    0.000    0.000 
#    0.000    0.000    0.000    0.000    0.000    0.000 
#
# Total GULP energy -346946.272576 kJ/mol
# GULP energy per Si atom -12390.938306 kJ/mol
# Density = 2.083353 g / cm^3
# Si number density = 20.881058 Si / 1000 Ang^3
#
#
#
# Elastic Constant Matrix: (Units=GPa)
#
#
# Indices 1 2 3 4 5 6 
#
# 1 100.7378 38.4462 48.1419 0.0000 0.0000 0.0000
# 2 38.4462 109.9855 49.3022 0.0000 0.0000 0.0000
# 3 48.1419 49.3022 111.6935 0.0000 0.0000 0.0000
# 4 0.0000 0.0000 0.0000 31.8335 0.0000 0.0000
# 5 0.0000 0.0000 0.0000 0.0000 28.3994 0.0000
# 6 0.0000 0.0000 0.0000 0.0000 0.0000 23.1017
#
#
#
# Elastic Compliance Matrix: (Units=1/GPa)
#
#
# Indices 1 2 3 4 5 6 
#
# 1 0.013049 -0.002543 -0.004502 0.000000 0.000000 0.000000
# 2 -0.002543 0.011831 -0.004126 0.000000 0.000000 0.000000
# 3 -0.004502 -0.004126 0.012715 0.000000 0.000000 0.000000
# 4 0.000000 0.000000 0.000000 0.031413 0.000000 0.000000
# 5 0.000000 0.000000 0.000000 0.000000 0.035212 0.000000
# 6 0.000000 0.000000 0.000000 0.000000 0.000000 0.043287
#
#
# Mechanical properties :
#
#
# Convention : Reuss Voigt Hill
#
# Bulk Modulus (GPa) = 65.56425 66.02192 65.79309
# Shear Modulus (GPa) = 28.58254 29.10201 28.84227
#
# Velocity S-wave (km/s) = 3.70378 3.73728 3.72057
# Velocity P-wave (km/s) = 7.05391 7.09294 7.07345
#
# Compressibility (1/GPa) = 0.01525221
#
# Stress axis : x y z
#
# Youngs Moduli (GPa) = 76.63596 84.52629 78.65026
#
# Poissons Ratio (x) = 0.21498 0.35405
# Poissons Ratio (y) = 0.19491 0.32450
# Poissons Ratio (z) = 0.34498 0.34874
#
# Static dielectric constant tensor:
#      x y z
#    x 3.760940 0.000000 0.000000 
#    y 0.000000 3.549970 0.000000 
#    z 0.000000 0.000000 4.055460 
# 
# 
# High freq. dielectric constant tensor:
#      x y z
#    x 1.807420 0.000000 0.000000 
#    y 0.000000 1.800890 0.000000 
#    z 0.000000 0.000000 1.826090 
# 
# From -- ./inp_files/22026.got.cif
#   From: 2010.03.12/outbox.cif.g09.slc.cpg/sg46_12_cif.got.tgz:22026.got - 2010.04.14 02:56:35.
