data_PCOD8192472
_publ_section_title
;
Structure prediction by ZEFSAII (Michael W. Deem and Ramdas Pophale) SiO2 
 PCOD8192472
Probable space group: I M A 2
;
_chemical_formula_sum "Si O2"
_cell_formula_units_Z 64
_cell_length_a 15.637605
_cell_length_b 9.250326
_cell_length_c 20.999879
_cell_angle_alpha 90.000000
_cell_angle_beta 90.000000
_cell_angle_gamma 90.000000
_cell_volume 3037.694323
_symmetry_space_group_name_H-M "I M A 2"
_symmetry_group_IT_number 46
_symmetry_cell_setting 'orthorhombic'
loop_
_space_group_symop_operation_xyz
x,y,z
-x,-y,z
1/2-x,y,z
1/2+x,-y,z
1/2+x,1/2+y,1/2+z
1/2-x,1/2-y,1/2+z
-x,1/2+y,1/2+z
x,1/2-y,1/2+z
loop_
_atom_site_type_symbol
_atom_site_label
_atom_site_fract_x
_atom_site_fract_y
_atom_site_fract_z
Si Si1 0.906893 0.432666 0.304610
Si Si2 0.349638 0.615553 0.657010
Si Si3 0.406893 0.432666 0.905531
Si Si4 0.154591 0.627146 0.798393
Si Si5 0.406520 0.429256 0.045572
Si Si6 0.849638 0.884447 0.053131
Si Si7 0.845409 0.872854 0.911748
Si Si8 0.906520 0.070744 0.664569
O O1 0.909922 0.259017 0.314258
O O2 0.849461 0.502605 0.359151
O O3 0.865945 0.461794 0.234190
O O4 0.000000 0.500000 0.310808
O O5 0.250000 0.653039 0.644551
O O6 0.363871 0.555686 0.729004
O O7 0.382501 0.500000 0.605071
O O8 0.407653 0.758276 0.650875
O O9 0.500000 0.500000 0.899333
O O10 0.349461 0.502605 0.850990
O O11 0.409922 0.259017 0.895884
O O12 0.365945 0.461794 0.975951
O O13 0.250000 0.693010 0.798424
O O14 0.500000 0.500000 0.044954
O O15 0.407653 0.258276 0.059267
O O16 0.354562 0.500000 0.105071
O O17 0.750000 0.846962 0.065590
O O18 0.863871 0.944314 0.981137
O O19 0.750000 0.806991 0.911717
O O20 0.000000 0.000000 0.665188
#
# Coordination Sequence:
#
# PCOD8192472 Si02
#       8
#     8   8   8   8   8   8   8   8
#     4  10  20  35  55  78 108 144 180 221 269 323
#     4   9  19  36  56  80 111 145 181 223 272 326
#     4  10  20  35  55  78 108 144 180 221 269 323
#     4  10  20  35  55  81 112 142 179 225 269 318
#     4   9  19  36  55  78 108 141 181 226 271 321
#     4   9  19  36  56  80 111 145 181 223 272 326
#     4  10  20  35  55  81 112 142 179 225 269 318
#     4   9  19  36  55  78 108 141 181 226 271 321
#
# _framework density 21.068611000000001
#
# number of rings (size 3 to 8) (size 9 to 14) (size 15 to 20)
#    0.000    2.500    0.000    1.500    0.000    3.500 
#    0.000   10.000    0.000    0.000    0.000    0.000 
#    0.000    0.000    0.000    0.000    0.000    0.000 
#
# Total GULP energy -396459.657715 kJ/mol
# GULP energy per Si atom -12389.364304 kJ/mol
# Density = 2.102066 g / cm^3
# Si number density = 21.068611 Si / 1000 Ang^3
#
#
#
# Elastic Constant Matrix: (Units=GPa)
#
#
# Indices 1 2 3 4 5 6 
#
# 1 45.8801 31.4562 20.1341 0.0000 0.0000 0.0000
# 2 31.4562 124.6672 101.4785 0.0000 0.0000 0.0000
# 3 20.1341 101.4785 210.8780 0.0000 0.0000 0.0000
# 4 0.0000 0.0000 0.0000 46.9113 0.0000 0.0000
# 5 0.0000 0.0000 0.0000 0.0000 21.1142 0.0000
# 6 0.0000 0.0000 0.0000 0.0000 0.0000 29.9295
#
#
#
# Elastic Compliance Matrix: (Units=1/GPa)
#
#
# Indices 1 2 3 4 5 6 
#
# 1 0.026518 -0.007612 0.001131 0.000000 0.000000 0.000000
# 2 -0.007612 0.015372 -0.006670 0.000000 0.000000 0.000000
# 3 0.001131 -0.006670 0.007844 0.000000 0.000000 0.000000
# 4 0.000000 0.000000 0.000000 0.021317 0.000000 0.000000
# 5 0.000000 0.000000 0.000000 0.000000 0.047361 0.000000
# 6 0.000000 0.000000 0.000000 0.000000 0.000000 0.033412
#
#
# Mechanical properties :
#
#
# Convention : Reuss Voigt Hill
#
# Bulk Modulus (GPa) = 42.67715 76.39588 59.53651
# Shear Modulus (GPa) = 26.89081 34.81478 30.85279
#
# Velocity S-wave (km/s) = 3.57647 4.06944 3.83089
# Velocity P-wave (km/s) = 6.11188 7.64328 6.92007
#
# Compressibility (1/GPa) = 0.02343174
#
# Stress axis : x y z
#
# Youngs Moduli (GPa) = 37.70962 65.05483 127.48601
#
# Poissons Ratio (x) = 0.49519 -0.14419
# Poissons Ratio (y) = 0.28704 0.85038
# Poissons Ratio (z) = -0.04265 0.43394
#
# Static dielectric constant tensor:
#      x y z
#    x 3.435820 0.000000 0.000000 
#    y 0.000000 3.605930 0.000000 
#    z 0.000000 0.000000 4.716710 
# 
# 
# High freq. dielectric constant tensor:
#      x y z
#    x 1.795340 0.000000 0.000000 
#    y 0.000000 1.809680 0.000000 
#    z 0.000000 0.000000 1.855410 
# 
# From -- ./inp_files/23685.got.cif
#   From: 2010.03.12/outbox.cif.g09.slc.cpg/sg46_12_cif.got.tgz:23685.got - 2010.04.14 02:56:35.
