data_PCOD8192102
_publ_section_title
;
Structure prediction by ZEFSAII (Michael W. Deem and Ramdas Pophale) SiO2 
 PCOD8192102
Probable space group: I M A 2
;
_chemical_formula_sum "Si O2"
_cell_formula_units_Z 64
_cell_length_a 8.698847
_cell_length_b 18.453874
_cell_length_c 20.663155
_cell_angle_alpha 90.000000
_cell_angle_beta 90.000000
_cell_angle_gamma 90.000000
_cell_volume 3317.003095
_symmetry_space_group_name_H-M "I M A 2"
_symmetry_group_IT_number 46
_symmetry_cell_setting 'orthorhombic'
loop_
_space_group_symop_operation_xyz
x,y,z
-x,-y,z
1/2-x,y,z
1/2+x,-y,z
1/2+x,1/2+y,1/2+z
1/2-x,1/2-y,1/2+z
-x,1/2+y,1/2+z
x,1/2-y,1/2+z
loop_
_atom_site_type_symbol
_atom_site_label
_atom_site_fract_x
_atom_site_fract_y
_atom_site_fract_z
Si Si1 0.430525 0.690322 0.915740
Si Si2 0.565843 0.651408 0.685958
Si Si3 0.068763 0.422030 0.279449
Si Si4 0.931879 0.654697 0.409886
Si Si5 0.068747 0.924178 0.307038
Si Si6 0.419849 0.185711 0.548395
Si Si7 0.068612 0.808326 0.681294
Si Si8 0.082228 0.357386 0.547287
O O1 0.250000 0.696344 0.924586
O O2 0.493425 0.768185 0.894017
O O3 0.478516 0.635159 0.859662
O O4 0.499365 0.659376 0.982593
O O5 0.750000 0.654573 0.684342
O O6 0.506824 0.595573 0.738678
O O7 0.505279 0.731668 0.700435
O O8 0.500396 0.622683 0.615550
O O9 0.250000 0.421065 0.266210
O O10 0.029482 0.401653 0.353552
O O11 0.000000 0.500000 0.264290
O O12 0.985597 0.365393 0.233837
O O13 0.750000 0.667702 0.417549
O O14 0.999217 0.622075 0.478642
O O15 0.250000 0.929970 0.298207
O O16 0.000000 0.000000 0.330813
O O17 0.250000 0.150370 0.553216
O O18 0.518265 0.162431 0.610864
O O19 0.404268 0.271246 0.546518
O O20 0.250000 0.799556 0.683421
O O21 0.250000 0.394058 0.547826
#
# Coordination Sequence:
#
# PCOD8192102 Si02
#       8
#     8   8   8   8   8   8   8   8
#     4  10  20  34  55  83 110 137 176 226 276 326
#     4  10  19  34  58  84 111 144 183 225 271 325
#     4  11  23  38  55  77 108 147 188 230 278 327
#     4   9  18  34  57  81 107 142 181 219 266 326
#     4  11  24  39  54  76 109 147 187 230 276 327
#     4   9  17  32  55  82 110 139 175 220 271 324
#     4  11  21  35  57  84 113 143 180 225 271 324
#     4   7  13  28  51  79 106 133 169 215 263 315
#
# _framework density 19.294525
#
# number of rings (size 3 to 8) (size 9 to 14) (size 15 to 20)
#    0.000    2.250    0.000    5.250    0.000    5.000 
#    0.000    1.875    0.000    3.000    0.000    0.000 
#    0.000    0.000    0.000    0.000    0.000    0.000 
#
# Total GULP energy -396631.495225 kJ/mol
# GULP energy per Si atom -12394.734226 kJ/mol
# Density = 1.925061 g / cm^3
# Si number density = 19.294525 Si / 1000 Ang^3
#
#
#
# Elastic Constant Matrix: (Units=GPa)
#
#
# Indices 1 2 3 4 5 6 
#
# 1 79.4124 12.5245 25.4824 0.0000 0.0000 0.0000
# 2 12.5245 34.4672 1.2290 0.0000 0.0000 0.0000
# 3 25.4824 1.2290 94.6692 0.0000 0.0000 0.0000
# 4 0.0000 0.0000 0.0000 -0.2896 0.0000 0.0000
# 5 0.0000 0.0000 0.0000 0.0000 29.6434 0.0000
# 6 0.0000 0.0000 0.0000 0.0000 0.0000 26.3552
#
#
#
# Elastic Compliance Matrix: (Units=1/GPa)
#
#
# Indices 1 2 3 4 5 6 
#
# 1 0.014655 -0.005187 -0.003877 0.000000 0.000000 0.000000
# 2 -0.005187 0.030862 0.000996 -0.000001 0.000000 0.000000
# 3 -0.003877 0.000996 0.011594 0.000000 0.000000 0.000000
# 4 0.000000 -0.000001 0.000000 -3.453026 0.000000 0.000000
# 5 0.000000 0.000000 0.000000 0.000000 0.033734 0.000000
# 6 0.000000 0.000000 0.000000 0.000000 0.000000 0.037943
#
#
# Mechanical properties :
#
#
# Convention : Reuss Voigt Hill
#
# Bulk Modulus (GPa) = 24.40600 31.89118 28.14859
# Shear Modulus (GPa) = -1.51771 22.42932 10.45581
#
# Velocity S-wave (km/s) = -0.88787 3.41320 2.33041
# Velocity P-wave (km/s) = 3.40963 5.66549 4.67565
#
# Compressibility (1/GPa) = 0.04097354
#
# Stress axis : x y z
#
# Youngs Moduli (GPa) = 68.23738 32.40190 86.25264
#
# Poissons Ratio (x) = 0.16807 0.33443
# Poissons Ratio (y) = 0.35394 -0.08586
# Poissons Ratio (z) = 0.26458 -0.03226
#
# Static dielectric constant tensor:
#      x y z
#    x 3.527810 0.000000 0.000000 
#    y 0.000000 3.174910 0.000000 
#    z 0.000000 0.000000 4.162320 
# 
# 
# High freq. dielectric constant tensor:
#      x y z
#    x 1.748460 0.000000 0.000000 
#    y 0.000000 1.712910 0.000000 
#    z 0.000000 0.000000 1.776520 
# 
# From -- ./inp_files/21303.got.cif
#   From: 2010.03.12/outbox.cif.g09.slc.cpg/sg46_11_cif.got.tgz:21303.got - 2010.04.14 02:56:35.
