data_PCOD8192189
_publ_section_title
;
Structure prediction by ZEFSAII (Michael W. Deem and Ramdas Pophale) SiO2 
 PCOD8192189
Probable space group: I M A 2
;
_chemical_formula_sum "Si O2"
_cell_formula_units_Z 64
_cell_length_a 17.163639
_cell_length_b 10.785730
_cell_length_c 18.116849
_cell_angle_alpha 90.000000
_cell_angle_beta 90.000000
_cell_angle_gamma 90.000000
_cell_volume 3353.834134
_symmetry_space_group_name_H-M "I M A 2"
_symmetry_group_IT_number 46
_symmetry_cell_setting 'orthorhombic'
loop_
_space_group_symop_operation_xyz
x,y,z
-x,-y,z
1/2-x,y,z
1/2+x,-y,z
1/2+x,1/2+y,1/2+z
1/2-x,1/2-y,1/2+z
-x,1/2+y,1/2+z
x,1/2-y,1/2+z
loop_
_atom_site_type_symbol
_atom_site_label
_atom_site_fract_x
_atom_site_fract_y
_atom_site_fract_z
Si Si1 0.544363 0.806762 0.888150
Si Si2 0.023496 0.139290 0.251700
Si Si3 0.336737 0.956280 0.036820
Si Si4 0.615275 0.060426 0.877963
Si Si5 0.339691 0.947092 0.716413
Si Si6 0.839055 0.722483 0.180449
Si Si7 0.077141 0.742868 0.630132
Si Si8 0.081521 0.211616 0.046322
O O1 0.536288 0.698136 0.830687
O O2 0.461283 0.867567 0.903155
O O3 0.602005 0.914797 0.861461
O O4 0.580098 0.744774 0.961807
O O5 0.103999 0.165694 0.207054
O O6 0.948579 0.190451 0.209221
O O7 0.000000 0.000000 0.265581
O O8 0.250000 0.999916 0.060932
O O9 0.358984 0.840328 0.088471
O O10 0.401667 0.063043 0.048793
O O11 0.329956 0.921081 0.949473
O O12 0.648414 0.109116 0.799333
O O13 0.250000 0.936175 0.694645
O O14 0.386943 0.876083 0.652102
O O15 0.365988 0.091204 0.714253
O O16 0.750000 0.753618 0.201386
O O17 0.850384 0.717701 0.091407
O O18 0.001709 0.750666 0.578950
#
# Coordination Sequence:
#
# PCOD8192189 Si02
#       8
#     8   8   8   8   8   8   8   8
#     4  10  19  36  58  86 114 150 202 247 287 345
#     4  11  22  37  61  86 116 156 200 245 294 353
#     4  11  21  36  59  89 122 154 194 253 308 350
#     4  10  19  36  61  85 118 153 196 250 295 346
#     4  11  22  37  60  89 119 155 195 241 303 364
#     4  10  22  41  62  88 121 153 193 246 302 360
#     4  11  21  36  56  85 118 151 196 247 294 356
#     4  10  21  36  58  83 113 157 200 238 290 355
#
# _framework density 19.082636999999998
#
# number of rings (size 3 to 8) (size 9 to 14) (size 15 to 20)
#    0.000    1.500    3.750    3.000    0.000    2.000 
#    2.250    1.250    0.000    0.000    0.000    0.000 
#    0.000    0.000    0.000    0.000    0.000    0.000 
#
# Total GULP energy -396527.079747 kJ/mol
# GULP energy per Si atom -12391.471242 kJ/mol
# Density = 1.903920 g / cm^3
# Si number density = 19.082637 Si / 1000 Ang^3
#
#
#
# Elastic Constant Matrix: (Units=GPa)
#
#
# Indices 1 2 3 4 5 6 
#
# 1 90.2127 41.2820 37.9053 0.0000 0.0000 0.0000
# 2 41.2820 76.2598 46.2766 0.0000 0.0000 0.0000
# 3 37.9053 46.2766 121.3859 0.0000 0.0000 0.0000
# 4 0.0000 0.0000 0.0000 35.3632 0.0000 0.0000
# 5 0.0000 0.0000 0.0000 0.0000 19.3567 0.0000
# 6 0.0000 0.0000 0.0000 0.0000 0.0000 26.3564
#
#
#
# Elastic Compliance Matrix: (Units=1/GPa)
#
#
# Indices 1 2 3 4 5 6 
#
# 1 0.015130 -0.006925 -0.002084 0.000000 0.000000 0.000000
# 2 -0.006925 0.020230 -0.005550 0.000000 0.000000 0.000000
# 3 -0.002084 -0.005550 0.011005 0.000000 0.000000 0.000000
# 4 0.000000 0.000000 0.000000 0.028278 0.000000 0.000000
# 5 0.000000 0.000000 0.000000 0.000000 0.051662 0.000000
# 6 0.000000 0.000000 0.000000 0.000000 0.000000 0.037941
#
#
# Mechanical properties :
#
#
# Convention : Reuss Voigt Hill
#
# Bulk Modulus (GPa) = 57.98648 59.86513 58.92581
# Shear Modulus (GPa) = 25.11137 27.04157 26.07647
#
# Velocity S-wave (km/s) = 3.63151 3.76849 3.70063
# Velocity P-wave (km/s) = 6.93086 7.09754 7.01469
#
# Compressibility (1/GPa) = 0.01724540
#
# Stress axis : x y z
#
# Youngs Moduli (GPa) = 66.09454 49.43219 90.86928
#
# Poissons Ratio (x) = 0.34234 0.18941
# Poissons Ratio (y) = 0.45773 0.50430
# Poissons Ratio (z) = 0.13777 0.27433
#
# Static dielectric constant tensor:
#      x y z
#    x 3.415250 0.000000 0.000000 
#    y 0.000000 3.263150 0.000000 
#    z 0.000000 0.000000 3.720460 
# 
# 
# High freq. dielectric constant tensor:
#      x y z
#    x 1.740480 0.000000 0.000000 
#    y 0.000000 1.710880 0.000000 
#    z 0.000000 0.000000 1.755390 
# 
# From -- ./inp_files/20058.got.cif
#   From: 2010.03.12/outbox.cif.g09.slc.cpg/sg46_11_cif.got.tgz:20058.got - 2010.04.14 02:56:35.
