data_PCOD8192522
_publ_section_title
;
Structure prediction by ZEFSAII (Michael W. Deem and Ramdas Pophale) SiO2 
 PCOD8192522
Probable space group: I M A 2
;
_chemical_formula_sum "Si O2"
_cell_formula_units_Z 64
_cell_length_a 15.760992
_cell_length_b 9.277363
_cell_length_c 20.869038
_cell_angle_alpha 90.000000
_cell_angle_beta 90.000000
_cell_angle_gamma 90.000000
_cell_volume 3051.480003
_symmetry_space_group_name_H-M "I M A 2"
_symmetry_group_IT_number 46
_symmetry_cell_setting 'orthorhombic'
loop_
_space_group_symop_operation_xyz
x,y,z
-x,-y,z
1/2-x,y,z
1/2+x,-y,z
1/2+x,1/2+y,1/2+z
1/2-x,1/2-y,1/2+z
-x,1/2+y,1/2+z
x,1/2-y,1/2+z
loop_
_atom_site_type_symbol
_atom_site_label
_atom_site_fract_x
_atom_site_fract_y
_atom_site_fract_z
Si Si1 0.085373 0.410411 0.838970
Si Si2 0.849350 0.618914 0.974632
Si Si3 0.094417 0.064573 0.976816
Si Si4 0.594417 0.935427 0.701125
Si Si5 0.587618 0.923130 0.838970
Si Si6 0.653801 0.093909 0.581693
Si Si7 0.653801 0.406091 0.596247
Si Si8 0.150650 0.118914 0.203308
O O1 0.139013 0.445349 0.903104
O O2 0.063035 0.243465 0.838970
O O3 0.139014 0.445349 0.774836
O O4 0.000000 0.500000 0.838970
O O5 0.750000 0.652196 0.986672
O O6 0.904107 0.763188 0.987319
O O7 0.887042 0.502331 0.025137
O O8 0.152744 0.988896 0.028923
O O9 0.135138 0.035243 0.905439
O O10 0.000000 0.000000 0.982897
O O11 0.635138 0.964757 0.772501
O O12 0.595893 0.763188 0.690622
O O13 0.500000 0.000000 0.695044
O O14 0.652744 0.011104 0.649017
O O15 0.500000 0.000000 0.838970
O O16 0.750000 0.121852 0.560748
O O17 0.607659 0.250000 0.588970
O O18 0.750000 0.378149 0.617193
O O19 0.612958 0.502332 0.652803
O O20 0.250000 0.152196 0.191268
#
# Coordination Sequence:
#
# PCOD8192522 Si02
#       8
#     8   8   8   8   8   8   8   8
#     4  10  21  35  58  89 117 146 191 246 292 343
#     4  10  21  39  61  84 117 161 202 241 297 365
#     4  10  20  35  58  85 112 146 192 247 301 355
#     4  10  20  35  58  85 112 146 192 247 301 355
#     4   8  18  35  52  79 112 142 177 226 289 349
#     4  10  22  38  55  80 115 154 199 247 294 353
#     4  10  22  38  55  80 115 154 199 247 294 353
#     4  10  21  39  61  84 117 161 202 241 297 365
#
# _framework density 20.973428999999999
#
# number of rings (size 3 to 8) (size 9 to 14) (size 15 to 20)
#    0.000    2.250    0.000    1.875    0.000   11.000 
#    0.000    1.875    0.000    3.000    0.000    1.750 
#    0.000    0.000    0.000    0.000    0.000    0.000 
#
# Total GULP energy -396512.007763 kJ/mol
# GULP energy per Si atom -12391.000243 kJ/mol
# Density = 2.092569 g / cm^3
# Si number density = 20.973429 Si / 1000 Ang^3
#
#
#
# Elastic Constant Matrix: (Units=GPa)
#
#
# Indices 1 2 3 4 5 6 
#
# 1 51.4561 28.0194 11.0178 0.0000 0.0000 0.0000
# 2 28.0194 126.8922 99.3197 0.0000 0.0000 0.0000
# 3 11.0178 99.3197 195.6453 0.0000 0.0000 0.0000
# 4 0.0000 0.0000 0.0000 29.3322 0.0000 0.0000
# 5 0.0000 0.0000 0.0000 0.0000 27.5319 0.0000
# 6 0.0000 0.0000 0.0000 0.0000 0.0000 31.1322
#
#
#
# Elastic Compliance Matrix: (Units=1/GPa)
#
#
# Indices 1 2 3 4 5 6 
#
# 1 0.022594 -0.006626 0.002091 0.000000 0.000000 0.000000
# 2 -0.006626 0.015020 -0.007252 0.000000 0.000000 0.000000
# 3 0.002091 -0.007252 0.008675 0.000000 0.000000 0.000000
# 4 0.000000 0.000000 0.000000 0.034092 0.000000 0.000000
# 5 0.000000 0.000000 0.000000 0.000000 0.036322 0.000000
# 6 0.000000 0.000000 0.000000 0.000000 0.000000 0.032121
#
#
# Mechanical properties :
#
#
# Convention : Reuss Voigt Hill
#
# Bulk Modulus (GPa) = 44.02149 72.30083 58.16116
# Shear Modulus (GPa) = 27.78263 33.30836 30.54550
#
# Velocity S-wave (km/s) = 3.64353 3.98945 3.82041
# Velocity P-wave (km/s) = 6.22376 7.46782 6.87399
#
# Compressibility (1/GPa) = 0.02271618
#
# Stress axis : x y z
#
# Youngs Moduli (GPa) = 44.25898 66.57900 115.27587
#
# Poissons Ratio (x) = 0.44115 -0.24108
# Poissons Ratio (y) = 0.29326 0.83594
# Poissons Ratio (z) = -0.09256 0.48281
#
# Static dielectric constant tensor:
#      x y z
#    x 3.256440 0.000000 0.000000 
#    y 0.000000 3.985280 0.000000 
#    z 0.000000 0.000000 4.643540 
# 
# 
# High freq. dielectric constant tensor:
#      x y z
#    x 1.784020 0.000000 0.000000 
#    y 0.000000 1.822830 0.000000 
#    z 0.000000 0.000000 1.847710 
# 
# From -- ./inp_files/22259.got.cif
#   From: 2010.03.12/outbox.cif.g09.slc.cpg/sg46_12_cif.got.tgz:22259.got - 2010.04.14 02:56:35.
