data_PCOD8192728
_publ_section_title
;
Structure prediction by ZEFSAII (Michael W. Deem and Ramdas Pophale) SiO2 
 PCOD8192728
Probable space group: I M A 2
;
_chemical_formula_sum "Si O2"
_cell_formula_units_Z 48
_cell_length_a 23.490528
_cell_length_b 11.777314
_cell_length_c 7.480531
_cell_angle_alpha 90.000000
_cell_angle_beta 90.000000
_cell_angle_gamma 90.000000
_cell_volume 2069.528730
_symmetry_space_group_name_H-M "I M A 2"
_symmetry_group_IT_number 46
_symmetry_cell_setting 'orthorhombic'
loop_
_space_group_symop_operation_xyz
x,y,z
-x,-y,z
1/2-x,y,z
1/2+x,-y,z
1/2+x,1/2+y,1/2+z
1/2-x,1/2-y,1/2+z
-x,1/2+y,1/2+z
x,1/2-y,1/2+z
loop_
_atom_site_type_symbol
_atom_site_label
_atom_site_fract_x
_atom_site_fract_y
_atom_site_fract_z
Si Si1 0.591775 0.559921 0.674170
Si Si2 0.354069 0.018922 0.541713
Si Si3 0.750000 0.121374 0.975371
Si Si4 0.750000 0.117036 0.391055
Si Si5 0.538462 0.401503 0.154498
Si Si6 0.813272 0.580960 0.392351
Si Si7 0.975205 0.149917 0.056002
O O1 0.638163 0.611864 0.535733
O O2 0.534257 0.632520 0.660606
O O3 0.575580 0.426237 0.643734
O O4 0.616993 0.579851 0.872182
O O5 0.304807 0.937362 0.477004
O O6 0.397166 0.941918 0.653859
O O7 0.331810 0.112043 0.687666
O O8 0.750000 0.094236 0.183747
O O9 0.750000 0.250504 0.926513
O O10 0.694221 0.057378 0.896249
O O11 0.500000 0.500000 0.059330
O O12 0.538368 0.282802 0.049959
O O13 0.515106 0.388575 0.353838
O O14 0.750000 0.635837 0.435603
#
# Coordination Sequence:
#
# PCOD8192728 Si02
#       7
#     8   8   4   4   8   8   8
#     4  11  23  44  65  98 139 184 228 285 346 409
#     4  12  23  37  66  94 137 181 224 279 350 421
#     4  10  22  34  54  85 140 178 222 277 342 416
#     4  12  22  36  54  95 132 182 230 275 350 424
#     4  12  26  44  70 101 138 182 233 286 354 405
#     4  10  20  38  61  92 137 177 221 284 342 415
#     4  11  25  45  67  97 142 180 237 287 340 420
#
# _framework density 23.193686
#
# number of rings (size 3 to 8) (size 9 to 14) (size 15 to 20)
#    0.500    0.333    5.833    2.000    7.000    2.667 
#    0.000    0.000    0.000    0.000    2.167    0.000 
#    0.000    0.000    0.000    0.000    0.000    0.000 
#
# Total GULP energy -297449.103466 kJ/mol
# GULP energy per Si atom -12393.712644 kJ/mol
# Density = 2.314090 g / cm^3
# Si number density = 23.193686 Si / 1000 Ang^3
#
#
#
# Elastic Constant Matrix: (Units=GPa)
#
#
# Indices 1 2 3 4 5 6 
#
# 1 129.2844 -1.8636 30.3991 0.0000 0.0000 0.0000
# 2 -1.8636 32.9626 -6.4409 0.0000 0.0000 0.0000
# 3 30.3991 -6.4409 121.6227 0.0000 0.0000 0.0000
# 4 0.0000 0.0000 0.0000 16.9470 0.0000 0.0000
# 5 0.0000 0.0000 0.0000 0.0000 -18.0715 0.0000
# 6 0.0000 0.0000 0.0000 0.0000 0.0000 16.5838
#
#
#
# Elastic Compliance Matrix: (Units=1/GPa)
#
#
# Indices 1 2 3 4 5 6 
#
# 1 0.008218 0.000064 -0.002051 0.000000 0.000000 0.000000
# 2 0.000064 0.030655 0.001607 0.000000 0.000000 0.000000
# 3 -0.002051 0.001607 0.008820 0.000000 0.000000 0.000000
# 4 0.000000 0.000000 0.000000 0.059008 0.000000 0.000000
# 5 0.000000 0.000000 0.000000 0.000000 -0.055336 0.000000
# 6 0.000000 0.000000 0.000000 0.000000 0.000000 0.060300
#
#
# Mechanical properties :
#
#
# Convention : Reuss Voigt Hill
#
# Bulk Modulus (GPa) = 21.30637 36.45100 28.87869
# Shear Modulus (GPa) = 39.04181 20.54354 29.79267
#
# Velocity S-wave (km/s) = 4.10725 2.97936 3.58790
# Velocity P-wave (km/s) = 5.63018 5.25219 5.44446
#
# Compressibility (1/GPa) = 0.04693432
#
# Stress axis : x y z
#
# Youngs Moduli (GPa) = 121.68434 32.62101 113.38087
#
# Poissons Ratio (x) = -0.00209 0.23251
# Poissons Ratio (y) = -0.00778 -0.18225
# Poissons Ratio (z) = 0.24953 -0.05244
#
# Static dielectric constant tensor:
#      x y z
#    x 4.303200 0.000000 0.000000 
#    y 0.000000 3.850620 0.000000 
#    z 0.000000 0.000000 4.392640 
# 
# 
# High freq. dielectric constant tensor:
#      x y z
#    x 1.931260 0.000000 0.000000 
#    y 0.000000 1.875180 0.000000 
#    z 0.000000 0.000000 1.934830 
# 
# From -- ./inp_files/7890.got.cif
#   From: 2010.03.12/outbox.cif.g09.slc.cpg/sg46_4_cif.got.tgz:7890.got - 2010.04.14 02:56:35.
