data_PCOD8192863
_publ_section_title
;
Structure prediction by ZEFSAII (Michael W. Deem and Ramdas Pophale) SiO2 
 PCOD8192863
Probable space group: I M A 2
;
_chemical_formula_sum "Si O2"
_cell_formula_units_Z 64
_cell_length_a 9.000445
_cell_length_b 24.673643
_cell_length_c 15.034764
_cell_angle_alpha 90.000000
_cell_angle_beta 90.000000
_cell_angle_gamma 90.000000
_cell_volume 3338.826674
_symmetry_space_group_name_H-M "I M A 2"
_symmetry_group_IT_number 46
_symmetry_cell_setting 'orthorhombic'
loop_
_space_group_symop_operation_xyz
x,y,z
-x,-y,z
1/2-x,y,z
1/2+x,-y,z
1/2+x,1/2+y,1/2+z
1/2-x,1/2-y,1/2+z
-x,1/2+y,1/2+z
x,1/2-y,1/2+z
loop_
_atom_site_type_symbol
_atom_site_label
_atom_site_fract_x
_atom_site_fract_y
_atom_site_fract_z
Si Si1 0.426290 0.161656 0.531480
Si Si2 0.580556 0.232848 0.241274
Si Si3 0.074789 0.058165 0.211822
Si Si4 0.075093 0.945073 0.851695
Si Si5 0.423575 0.866196 0.356726
Si Si6 0.424028 0.853406 0.714489
Si Si7 0.422483 0.281304 0.564867
Si Si8 0.421673 0.102515 0.017271
O O1 0.250000 0.155061 0.524522
O O2 0.503657 0.127387 0.453665
O O3 0.482504 0.137747 0.624867
O O4 0.478813 0.224733 0.522762
O O5 0.750000 0.229261 0.211252
O O6 0.550133 0.196365 0.327773
O O7 0.536425 0.295350 0.259035
O O8 0.490167 0.207420 0.160838
O O9 0.250000 0.053014 0.228215
O O10 0.039146 0.085371 0.117282
O O11 0.004221 0.093826 0.289454
O O12 0.000000 0.000000 0.214821
O O13 0.250000 0.952739 0.852880
O O14 0.024054 0.898167 0.784658
O O15 0.000000 0.000000 0.817711
O O16 0.022949 0.931651 0.951155
O O17 0.250000 0.880979 0.361130
O O18 0.250000 0.858237 0.691834
O O19 0.250000 0.276680 0.582924
O O20 0.458956 0.333427 0.503759
O O21 0.250000 0.090448 0.995330
#
# Coordination Sequence:
#
# PCOD8192863 Si02
#       8
#     8   8   8   8   8   8   8   8
#     4  10  21  36  58  87 120 156 193 239 295 350
#     4   9  18  33  55  83 114 149 189 232 283 344
#     4  11  23  40  61  84 118 157 199 246 292 347
#     4  11  24  40  61  85 115 152 197 246 292 346
#     4  11  22  36  58  87 120 157 197 241 292 348
#     4   9  20  40  60  83 114 151 195 244 295 348
#     4   9  18  34  54  83 119 154 189 229 284 344
#     4  10  21  37  58  86 120 156 193 236 286 346
#
# _framework density 19.168410999999999
#
# number of rings (size 3 to 8) (size 9 to 14) (size 15 to 20)
#    0.000    2.000    1.250    1.875    1.750    4.500 
#    0.000    0.625    0.000    1.500    0.000    0.000 
#    0.000    0.000    0.000    0.000    0.000    0.000 
#
# Total GULP energy -396818.440405 kJ/mol
# GULP energy per Si atom -12400.576263 kJ/mol
# Density = 1.912478 g / cm^3
# Si number density = 19.168411 Si / 1000 Ang^3
#
#
#
# Elastic Constant Matrix: (Units=GPa)
#
#
# Indices 1 2 3 4 5 6 
#
# 1 75.4597 49.8381 51.5254 0.0000 0.0000 0.0000
# 2 49.8381 105.8628 50.8509 0.0001 0.0000 0.0000
# 3 51.5254 50.8509 100.5828 0.0004 0.0001 -0.0001
# 4 0.0000 0.0001 0.0004 27.6087 0.0000 0.0000
# 5 0.0000 0.0000 0.0001 0.0000 32.1750 0.0000
# 6 0.0000 0.0000 -0.0001 0.0000 0.0000 30.0814
#
#
#
# Elastic Compliance Matrix: (Units=1/GPa)
#
#
# Indices 1 2 3 4 5 6 
#
# 1 0.023807 -0.007066 -0.008623 0.000000 0.000000 0.000000
# 2 -0.007066 0.014573 -0.003748 0.000000 0.000000 0.000000
# 3 -0.008623 -0.003748 0.016254 0.000000 0.000000 0.000000
# 4 0.000000 0.000000 0.000000 0.036221 0.000000 0.000000
# 5 0.000000 0.000000 0.000000 0.000000 0.031080 0.000000
# 6 0.000000 0.000000 0.000000 0.000000 0.000000 0.033243
#
#
# Mechanical properties :
#
#
# Convention : Reuss Voigt Hill
#
# Bulk Modulus (GPa) = 63.45124 65.14822 64.29973
# Shear Modulus (GPa) = 25.08713 26.61907 25.85310
#
# Velocity S-wave (km/s) = 3.62162 3.73056 3.67650
# Velocity P-wave (km/s) = 7.11773 7.25377 7.18607
#
# Compressibility (1/GPa) = 0.01576013
#
# Stress axis : x y z
#
# Youngs Moduli (GPa) = 42.00460 68.62062 61.52165
#
# Poissons Ratio (x) = 0.48484 0.53053
# Poissons Ratio (y) = 0.29679 0.23058
# Poissons Ratio (z) = 0.36222 0.25719
#
# Static dielectric constant tensor:
#      x y z
#    x 3.508970 0.000000 0.000000 
#    y 0.000000 3.845300 0.000000 
#    z 0.000000 0.000000 3.361340 
# 
# 
# High freq. dielectric constant tensor:
#      x y z
#    x 1.750190 0.000000 0.000000 
#    y 0.000000 1.746390 0.000000 
#    z 0.000000 0.000000 1.736510 
# 
# From -- ./inp_files/14460.got.cif
#   From: 2010.03.12/outbox.cif.g09.slc.cpg/sg46_8_cif.got.tgz:14460.got - 2010.04.14 02:56:35.
