data_PCOD8192430
_publ_section_title
;
Structure prediction by ZEFSAII (Michael W. Deem and Ramdas Pophale) SiO2 
 PCOD8192430
Probable space group: I M A 2
;
_chemical_formula_sum "Si O2"
_cell_formula_units_Z 52
_cell_length_a 26.018171
_cell_length_b 10.775155
_cell_length_c 8.894986
_cell_angle_alpha 90.000000
_cell_angle_beta 90.000000
_cell_angle_gamma 90.000000
_cell_volume 2493.707772
_symmetry_space_group_name_H-M "I M A 2"
_symmetry_group_IT_number 46
_symmetry_cell_setting 'orthorhombic'
loop_
_space_group_symop_operation_xyz
x,y,z
-x,-y,z
1/2-x,y,z
1/2+x,-y,z
1/2+x,1/2+y,1/2+z
1/2-x,1/2-y,1/2+z
-x,1/2+y,1/2+z
x,1/2-y,1/2+z
loop_
_atom_site_type_symbol
_atom_site_label
_atom_site_fract_x
_atom_site_fract_y
_atom_site_fract_z
Si Si1 0.250000 0.555372 0.362481
Si Si2 0.913906 0.750787 0.541988
Si Si3 0.861706 0.400954 0.278021
Si Si4 0.250000 0.038679 0.184134
Si Si5 0.860354 0.142889 0.450093
Si Si6 0.949926 0.917244 0.799278
Si Si7 0.250000 0.660179 0.908928
Si Si8 0.140934 0.397269 0.796035
O O1 0.196078 0.539936 0.272232
O O2 0.250000 0.461289 0.503580
O O3 0.250000 0.694235 0.418587
O O4 0.943863 0.856221 0.634996
O O5 0.954858 0.686927 0.429250
O O6 0.891358 0.648972 0.654581
O O7 0.868193 0.811897 0.442909
O O8 0.865995 0.278612 0.380057
O O9 0.899332 0.504479 0.344842
O O10 0.885538 0.366155 0.114424
O O11 0.299315 0.109067 0.251345
O O12 0.250000 0.893866 0.237634
O O13 0.800809 0.111440 0.490564
O O14 0.879291 0.037028 0.334063
O O15 0.000000 0.000000 0.798455
#
# Coordination Sequence:
#
# PCOD8192430 Si02
#       8
#     4   8   8   4   8   8   4   8
#     4  10  21  32  60  91 133 174 216 257 335 371
#     4  10  23  46  68  89 127 171 205 280 321 379
#     4  11  23  37  63  95 133 170 215 272 319 387
#     4  10  20  34  56  91 125 179 218 258 304 399
#     4  10  21  35  58  93 127 171 211 267 315 383
#     4  11  25  47  69  95 129 166 221 264 330 389
#     4   8  19  28  50  78 130 161 208 251 313 360
#     4  10  21  41  64  92 134 169 221 261 325 374
#
# _framework density 20.852484
#
# number of rings (size 3 to 8) (size 9 to 14) (size 15 to 20)
#    0.000    1.846    1.538    1.385   15.077    1.846 
#    0.000    4.615    0.000    0.000    0.000    0.000 
#    0.000    0.000    0.000    0.000    0.000    0.000 
#
# Total GULP energy -322204.033873 kJ/mol
# GULP energy per Si atom -12392.462841 kJ/mol
# Density = 2.080502 g / cm^3
# Si number density = 20.852484 Si / 1000 Ang^3
#
#
#
# Elastic Constant Matrix: (Units=GPa)
#
#
# Indices 1 2 3 4 5 6 
#
# 1 99.9265 52.7286 42.2613 0.0000 0.0000 0.0000
# 2 52.7286 99.5449 49.7424 0.0000 0.0000 0.0000
# 3 42.2613 49.7424 127.5338 0.0000 0.0000 0.0000
# 4 0.0000 0.0000 0.0000 40.7424 0.0000 0.0000
# 5 0.0000 0.0000 0.0000 0.0000 16.5344 0.0000
# 6 0.0000 0.0000 0.0000 0.0000 0.0000 32.0563
#
#
#
# Elastic Compliance Matrix: (Units=1/GPa)
#
#
# Indices 1 2 3 4 5 6 
#
# 1 0.014382 -0.006504 -0.002229 0.000000 0.000000 0.000000
# 2 -0.006504 0.015419 -0.003859 0.000000 0.000000 0.000000
# 3 -0.002229 -0.003859 0.010085 0.000000 0.000000 0.000000
# 4 0.000000 0.000000 0.000000 0.024544 0.000000 0.000000
# 5 0.000000 0.000000 0.000000 0.000000 0.060480 0.000000
# 6 0.000000 0.000000 0.000000 0.000000 0.000000 0.031195
#
#
# Mechanical properties :
#
#
# Convention : Reuss Voigt Hill
#
# Bulk Modulus (GPa) = 68.01723 68.49663 68.25693
# Shear Modulus (GPa) = 26.85421 30.01813 28.43617
#
# Velocity S-wave (km/s) = 3.59251 3.79825 3.69681
# Velocity P-wave (km/s) = 7.06380 7.22185 7.14326
#
# Compressibility (1/GPa) = 0.01470216
#
# Stress axis : x y z
#
# Youngs Moduli (GPa) = 69.53018 64.85407 99.16051
#
# Poissons Ratio (x) = 0.42184 0.22102
# Poissons Ratio (y) = 0.45225 0.38262
# Poissons Ratio (z) = 0.15498 0.25025
#
# Static dielectric constant tensor:
#      x y z
#    x 3.675400 0.000000 0.000000 
#    y 0.000000 3.768820 0.000000 
#    z 0.000000 0.000000 3.838360 
# 
# 
# High freq. dielectric constant tensor:
#      x y z
#    x 1.784620 0.000000 0.000000 
#    y 0.000000 1.815320 0.000000 
#    z 0.000000 0.000000 1.827350 
# 
# From -- ./inp_files/8198.got.cif
#   From: 2010.03.12/outbox.cif.g09.slc.cpg/sg46_5_cif.got.tgz:8198.got - 2010.04.14 02:56:35.
