data_PCOD8192840
_publ_section_title
;
Structure prediction by ZEFSAII (Michael W. Deem and Ramdas Pophale) SiO2 
 PCOD8192840
Probable space group: I M A 2
;
_chemical_formula_sum "Si O2"
_cell_formula_units_Z 64
_cell_length_a 13.927887
_cell_length_b 24.560357
_cell_length_c 9.371498
_cell_angle_alpha 90.000000
_cell_angle_beta 90.000000
_cell_angle_gamma 90.000000
_cell_volume 3205.744654
_symmetry_space_group_name_H-M "I M A 2"
_symmetry_group_IT_number 46
_symmetry_cell_setting 'orthorhombic'
loop_
_space_group_symop_operation_xyz
x,y,z
-x,-y,z
1/2-x,y,z
1/2+x,-y,z
1/2+x,1/2+y,1/2+z
1/2-x,1/2-y,1/2+z
-x,1/2+y,1/2+z
x,1/2-y,1/2+z
loop_
_atom_site_type_symbol
_atom_site_label
_atom_site_fract_x
_atom_site_fract_y
_atom_site_fract_z
Si Si1 0.854283 0.477113 0.608170
Si Si2 0.363227 0.808690 0.311449
Si Si3 0.394010 0.983365 0.430335
Si Si4 0.553411 0.128876 0.554830
Si Si5 0.639517 0.912606 0.951011
Si Si6 0.144579 0.415406 0.117189
Si Si7 0.860252 0.183386 0.809373
Si Si8 0.955765 0.368394 0.562947
O O1 0.750000 0.461308 0.546695
O O2 0.841159 0.481757 0.779145
O O3 0.886642 0.533953 0.540962
O O4 0.927390 0.431575 0.554782
O O5 0.250000 0.824000 0.296368
O O6 0.402601 0.819735 0.470268
O O7 0.380827 0.746158 0.273008
O O8 0.434830 0.847264 0.221645
O O9 0.390037 0.924971 0.506841
O O10 0.500000 0.000000 0.389124
O O11 0.348846 0.025986 0.541120
O O12 0.437671 0.121381 0.542306
O O13 0.575191 0.142188 0.718547
O O14 0.750000 0.894105 0.976776
O O15 0.620123 0.923819 0.783928
O O16 0.567565 0.865707 0.012624
O O17 0.250000 0.387471 0.100173
O O18 0.750000 0.169688 0.783045
O O19 0.888346 0.171377 0.971499
#
# Coordination Sequence:
#
# PCOD8192840 Si02
#       8
#     8   8   8   8   8   8   8   8
#     4  11  22  35  57  90 125 160 195 238 291 352
#     4  11  24  42  62  88 123 154 194 248 302 355
#     4  10  21  35  56  88 123 159 197 238 288 351
#     4  11  22  39  63  88 119 161 196 244 295 353
#     4  10  23  40  60  87 122 160 198 244 290 347
#     4  10  22  40  60  88 123 159 199 243 291 346
#     4  11  24  40  62  90 117 154 200 247 300 356
#     4  12  22  39  63  87 120 159 198 242 296 353
#
# _framework density 19.964158999999999
#
# number of rings (size 3 to 8) (size 9 to 14) (size 15 to 20)
#    0.000    1.250    2.500    3.750    3.500    4.500 
#    0.000    0.000    0.000    4.500    0.000    0.000 
#    0.000    0.000    0.000    0.000    0.000    0.000 
#
# Total GULP energy -396719.302796 kJ/mol
# GULP energy per Si atom -12397.478212 kJ/mol
# Density = 1.991872 g / cm^3
# Si number density = 19.964159 Si / 1000 Ang^3
#
#
#
# Elastic Constant Matrix: (Units=GPa)
#
#
# Indices 1 2 3 4 5 6 
#
# 1 126.6734 48.9676 31.8957 0.0000 0.0000 0.0000
# 2 48.9676 70.5013 25.1837 -0.0002 0.0000 -0.0001
# 3 31.8957 25.1837 67.0978 -0.0005 0.0010 -0.0006
# 4 0.0000 -0.0002 -0.0005 27.5364 0.0001 -0.0002
# 5 0.0000 0.0000 0.0010 0.0001 31.1062 0.0000
# 6 0.0000 -0.0001 -0.0006 -0.0002 0.0000 22.7741
#
#
#
# Elastic Compliance Matrix: (Units=1/GPa)
#
#
# Indices 1 2 3 4 5 6 
#
# 1 0.011224 -0.006802 -0.002783 0.000000 0.000000 0.000000
# 2 -0.006802 0.020502 -0.004462 0.000000 0.000000 0.000000
# 3 -0.002783 -0.004462 0.017901 0.000000 -0.000001 0.000000
# 4 0.000000 0.000000 0.000000 0.036316 0.000000 0.000000
# 5 0.000000 0.000000 -0.000001 0.000000 0.032148 0.000000
# 6 0.000000 0.000000 0.000000 0.000000 0.000000 0.043909
#
#
# Mechanical properties :
#
#
# Convention : Reuss Voigt Hill
#
# Bulk Modulus (GPa) = 46.43610 52.92961 49.68286
# Shear Modulus (GPa) = 25.34572 26.83170 26.08871
#
# Velocity S-wave (km/s) = 3.56696 3.67003 3.61886
# Velocity P-wave (km/s) = 6.34622 6.67298 6.51165
#
# Compressibility (1/GPa) = 0.02153497
#
# Stress axis : x y z
#
# Youngs Moduli (GPa) = 89.09132 48.77482 55.86285
#
# Poissons Ratio (x) = 0.33177 0.15545
# Poissons Ratio (y) = 0.60601 0.24924
# Poissons Ratio (z) = 0.24791 0.21762
#
# Static dielectric constant tensor:
#      x y z
#    x 3.739140 0.000000 0.000000 
#    y 0.000000 3.340010 0.000000 
#    z 0.000000 0.000000 3.608930 
# 
# 
# High freq. dielectric constant tensor:
#      x y z
#    x 1.788420 0.000000 0.000000 
#    y 0.000000 1.753580 0.000000 
#    z 0.000000 0.000000 1.790250 
# 
# From -- ./inp_files/6072.got.cif
#   From: 2010.03.12/outbox.cif.g09.slc.cpg/sg46_4_cif.got.tgz:6072.got - 2010.04.14 02:56:35.
