data_PCOD8192212
_publ_section_title
;
Structure prediction by ZEFSAII (Michael W. Deem and Ramdas Pophale) SiO2 
 PCOD8192212
Probable space group: I M A 2
;
_chemical_formula_sum "Si O2"
_cell_formula_units_Z 32
_cell_length_a 10.273151
_cell_length_b 17.396909
_cell_length_c 9.091852
_cell_angle_alpha 90.000000
_cell_angle_beta 90.000000
_cell_angle_gamma 90.000000
_cell_volume 1624.905546
_symmetry_space_group_name_H-M "I M A 2"
_symmetry_group_IT_number 46
_symmetry_cell_setting 'orthorhombic'
loop_
_space_group_symop_operation_xyz
x,y,z
-x,-y,z
1/2-x,y,z
1/2+x,-y,z
1/2+x,1/2+y,1/2+z
1/2-x,1/2-y,1/2+z
-x,1/2+y,1/2+z
x,1/2-y,1/2+z
loop_
_atom_site_type_symbol
_atom_site_label
_atom_site_fract_x
_atom_site_fract_y
_atom_site_fract_z
Si Si1 0.395341 0.327374 0.773200
Si Si2 0.996081 0.294985 0.465775
Si Si3 0.897746 0.064049 0.794270
Si Si4 0.604599 0.135519 0.484469
O O1 0.250000 0.358227 0.803284
O O2 0.418955 0.327530 0.599586
O O3 0.409147 0.240845 0.839998
O O4 0.499433 0.383395 0.855863
O O5 0.909568 0.362592 0.399245
O O6 0.901782 0.226703 0.524691
O O7 0.750000 0.032712 0.806968
O O8 0.931018 0.086439 0.627208
O O9 0.000000 0.000000 0.846565
O O10 0.750000 0.116026 0.428496
#
# Coordination Sequence:
#
# PCOD8192212 Si02
#       4
#     8   8   8   8
#     4  10  20  33  59  92 120 149 198 256 301 343
#     4  10  19  36  62  88 122 154 206 245 302 353
#     4  11  24  41  62  91 125 164 199 250 309 365
#     4   9  19  38  61  85 116 157 205 247 295 358
#
# _framework density 19.693452000000001
#
# number of rings (size 3 to 8) (size 9 to 14) (size 15 to 20)
#    1.500    0.500    2.500    1.500    0.000    5.000 
#    0.000    1.250    0.000    0.000    0.000    0.000 
#    0.000    0.000    0.000    0.000    0.000    0.000 
#
# Total GULP energy -198279.948732 kJ/mol
# GULP energy per Si atom -12392.496796 kJ/mol
# Density = 1.964863 g / cm^3
# Si number density = 19.693452 Si / 1000 Ang^3
#
#
#
# Elastic Constant Matrix: (Units=GPa)
#
#
# Indices 1 2 3 4 5 6 
#
# 1 134.4674 16.0985 43.4247 0.0000 0.0000 0.0000
# 2 16.0985 38.6590 1.0068 -0.0002 0.0000 0.0000
# 3 43.4247 1.0068 86.3507 -0.0006 0.0000 0.0000
# 4 0.0000 -0.0002 -0.0006 22.9408 0.0000 0.0000
# 5 0.0000 0.0000 0.0000 0.0000 30.6850 0.0000
# 6 0.0000 0.0000 0.0000 0.0000 0.0000 19.9488
#
#
#
# Elastic Compliance Matrix: (Units=1/GPa)
#
#
# Indices 1 2 3 4 5 6 
#
# 1 0.009404 -0.003794 -0.004685 0.000000 0.000000 0.000000
# 2 -0.003794 0.027406 0.001588 0.000000 0.000000 0.000000
# 3 -0.004685 0.001588 0.013918 0.000000 0.000000 0.000000
# 4 0.000000 0.000000 0.000000 0.043590 0.000000 0.000000
# 5 0.000000 0.000000 0.000000 0.000000 0.032589 0.000000
# 6 0.000000 0.000000 0.000000 0.000000 0.000000 0.050128
#
#
# Mechanical properties :
#
#
# Convention : Reuss Voigt Hill
#
# Bulk Modulus (GPa) = 27.06590 42.28191 34.67390
# Shear Modulus (GPa) = 24.61452 27.97807 26.29630
#
# Velocity S-wave (km/s) = 3.53920 3.77328 3.65811
# Velocity P-wave (km/s) = 5.52039 6.36397 5.95713
#
# Compressibility (1/GPa) = 0.03694686
#
# Stress axis : x y z
#
# Youngs Moduli (GPa) = 106.33900 36.48868 71.84885
#
# Poissons Ratio (x) = 0.13844 0.33660
# Poissons Ratio (y) = 0.40345 -0.11413
# Poissons Ratio (z) = 0.49818 -0.05796
#
# Static dielectric constant tensor:
#      x y z
#    x 3.420320 0.000000 0.000000 
#    y 0.000000 3.116990 0.000000 
#    z 0.000000 0.000000 3.425310 
# 
# 
# High freq. dielectric constant tensor:
#      x y z
#    x 1.768370 0.000000 0.000000 
#    y 0.000000 1.725100 0.000000 
#    z 0.000000 0.000000 1.764410 
# 
# From -- ./inp_files/3486.got.cif
#   From: 2010.03.12/outbox.cif.g09.slc.cpg/sg46_2_cif.got.tgz:3486.got - 2010.04.14 02:56:35.
