data_PCOD8192937
_publ_section_title
;
Structure prediction by ZEFSAII (Michael W. Deem and Ramdas Pophale) SiO2 
 PCOD8192937
Probable space group: I M A 2
;
_chemical_formula_sum "Si O2"
_cell_formula_units_Z 60
_cell_length_a 24.869384
_cell_length_b 9.171906
_cell_length_c 13.227841
_cell_angle_alpha 90.000000
_cell_angle_beta 90.000000
_cell_angle_gamma 90.000000
_cell_volume 3017.265933
_symmetry_space_group_name_H-M "I M A 2"
_symmetry_group_IT_number 46
_symmetry_cell_setting 'orthorhombic'
loop_
_space_group_symop_operation_xyz
x,y,z
-x,-y,z
1/2-x,y,z
1/2+x,-y,z
1/2+x,1/2+y,1/2+z
1/2-x,1/2-y,1/2+z
-x,1/2+y,1/2+z
x,1/2-y,1/2+z
loop_
_atom_site_type_symbol
_atom_site_label
_atom_site_fract_x
_atom_site_fract_y
_atom_site_fract_z
Si Si1 0.310239 0.451759 0.656790
Si Si2 0.549915 0.580960 0.052551
Si Si3 0.689197 0.597323 0.874381
Si Si4 0.864978 0.357597 0.989566
Si Si5 0.311010 0.784632 0.690214
Si Si6 0.500000 0.500000 0.244302
Si Si7 0.621529 0.670216 0.480474
Si Si8 0.101862 0.603558 0.349242
O O1 0.250000 0.431990 0.610207
O O2 0.317583 0.353393 0.757443
O O3 0.317703 0.612582 0.701504
O O4 0.357041 0.412899 0.579200
O O5 0.500000 0.500000 0.994347
O O6 0.596052 0.460894 0.052645
O O7 0.534098 0.608696 0.170427
O O8 0.567660 0.734994 0.003723
O O9 0.750000 0.570221 0.904183
O O10 0.668501 0.723640 0.946442
O O11 0.659299 0.445054 0.895405
O O12 0.820002 0.314923 0.071262
O O13 0.894281 0.216579 0.942145
O O14 0.250000 0.833607 0.718915
O O15 0.353348 0.865489 0.763637
O O16 0.459386 0.602647 0.307905
O O17 0.609820 0.558551 0.391617
#
# Coordination Sequence:
#
# PCOD8192937 Si02
#       8
#     8   8   8   8   8   4   8   8
#     4  10  21  38  59  92 136 171 210 269 333 402
#     4   9  22  44  63  83 126 167 214 272 335 390
#     4  10  22  38  60  90 129 173 210 257 327 399
#     4  11  21  41  64  90 127 169 217 263 329 404
#     4  11  22  39  65  97 135 174 214 274 333 409
#     4  10  24  42  66  88 130 166 220 278 332 396
#     4  11  24  39  65  95 127 167 222 282 327 394
#     4  12  25  41  67 100 130 167 227 278 336 395
#
# _framework density 19.885552000000001
#
# number of rings (size 3 to 8) (size 9 to 14) (size 15 to 20)
#    0.400    1.067    4.000    0.800    3.733    1.600 
#    0.000    2.667    0.000    0.000    0.000    0.000 
#    0.000    0.000    0.000    0.000    0.000    0.000 
#
# Total GULP energy -371792.476411 kJ/mol
# GULP energy per Si atom -12393.082547 kJ/mol
# Density = 1.984029 g / cm^3
# Si number density = 19.885552 Si / 1000 Ang^3
#
#
#
# Elastic Constant Matrix: (Units=GPa)
#
#
# Indices 1 2 3 4 5 6 
#
# 1 129.7290 47.8201 52.0263 0.0000 0.0000 0.0000
# 2 47.8201 88.6011 36.2868 0.0000 0.0000 0.0000
# 3 52.0263 36.2868 98.7200 0.0000 0.0000 0.0000
# 4 0.0000 0.0000 0.0000 27.5822 0.0000 0.0000
# 5 0.0000 0.0000 0.0000 0.0000 36.5973 0.0000
# 6 0.0000 0.0000 0.0000 0.0000 0.0000 29.1232
#
#
#
# Elastic Compliance Matrix: (Units=1/GPa)
#
#
# Indices 1 2 3 4 5 6 
#
# 1 0.010945 -0.004173 -0.004234 0.000000 0.000000 0.000000
# 2 -0.004173 0.014878 -0.003269 0.000000 0.000000 0.000000
# 3 -0.004234 -0.003269 0.013563 0.000000 0.000000 0.000000
# 4 0.000000 0.000000 0.000000 0.036255 0.000000 0.000000
# 5 0.000000 0.000000 0.000000 0.000000 0.027324 0.000000
# 6 0.000000 0.000000 0.000000 0.000000 0.000000 0.034337
#
#
# Mechanical properties :
#
#
# Convention : Reuss Voigt Hill
#
# Bulk Modulus (GPa) = 62.37437 65.47961 63.92699
# Shear Modulus (GPa) = 30.12067 30.72166 30.42117
#
# Velocity S-wave (km/s) = 3.89614 3.93482 3.91552
# Velocity P-wave (km/s) = 7.18851 7.32417 7.25665
#
# Compressibility (1/GPa) = 0.01603223
#
# Stress axis : x y z
#
# Youngs Moduli (GPa) = 91.36913 67.21405 73.73109
#
# Poissons Ratio (x) = 0.28049 0.31218
# Poissons Ratio (y) = 0.38128 0.24106
# Poissons Ratio (z) = 0.38686 0.21976
#
# Static dielectric constant tensor:
#      x y z
#    x 3.679300 0.000000 0.000000 
#    y 0.000000 3.506560 0.000000 
#    z 0.000000 0.000000 3.526970 
# 
# 
# High freq. dielectric constant tensor:
#      x y z
#    x 1.775680 0.000000 0.000000 
#    y 0.000000 1.766130 0.000000 
#    z 0.000000 0.000000 1.780440 
# 
# From -- ./inp_files/17344.got.cif
#   From: 2010.03.12/outbox.cif.g09.slc.cpg/sg46_9_cif.got.tgz:17344.got - 2010.04.14 02:56:35.
