data_PCOD8192574
_publ_section_title
;
Structure prediction by ZEFSAII (Michael W. Deem and Ramdas Pophale) SiO2 
 PCOD8192574
Probable space group: I M A 2
;
_chemical_formula_sum "Si O2"
_cell_formula_units_Z 64
_cell_length_a 8.671462
_cell_length_b 29.680801
_cell_length_c 12.675638
_cell_angle_alpha 90.000000
_cell_angle_beta 90.000000
_cell_angle_gamma 90.000000
_cell_volume 3262.404220
_symmetry_space_group_name_H-M "I M A 2"
_symmetry_group_IT_number 46
_symmetry_cell_setting 'orthorhombic'
loop_
_space_group_symop_operation_xyz
x,y,z
-x,-y,z
1/2-x,y,z
1/2+x,-y,z
1/2+x,1/2+y,1/2+z
1/2-x,1/2-y,1/2+z
-x,1/2+y,1/2+z
x,1/2-y,1/2+z
loop_
_atom_site_type_symbol
_atom_site_label
_atom_site_fract_x
_atom_site_fract_y
_atom_site_fract_z
Si Si1 0.432648 0.451048 0.357750
Si Si2 0.067883 0.143233 0.227822
Si Si3 0.920744 0.785072 0.938508
Si Si4 0.567605 0.376994 0.510311
Si Si5 0.566777 0.875400 0.460799
Si Si6 0.579800 0.791896 0.592760
Si Si7 0.068680 0.451808 0.117849
Si Si8 0.926665 0.238636 0.256339
O O1 0.500000 0.500000 0.380156
O O2 0.250000 0.450611 0.376199
O O3 0.515107 0.419025 0.441060
O O4 0.474389 0.436580 0.237212
O O5 0.250000 0.137449 0.214770
O O6 0.007928 0.122179 0.339484
O O7 0.028650 0.195974 0.223577
O O8 0.986130 0.116924 0.131703
O O9 0.750000 0.790140 0.885878
O O10 0.990506 0.833611 0.958647
O O11 0.036604 0.753469 0.874131
O O12 0.904077 0.758053 0.046164
O O13 0.750000 0.371941 0.506834
O O14 0.750000 0.875456 0.458389
O O15 0.508287 0.828726 0.513043
O O16 0.502028 0.916285 0.532376
O O17 0.750000 0.808602 0.629786
O O18 0.467376 0.784261 0.691349
O O19 0.250000 0.455664 0.106320
O O20 0.000000 0.500000 0.089342
O O21 0.750000 0.225090 0.241450
#
# Coordination Sequence:
#
# PCOD8192574 Si02
#       8
#     8   8   8   8   8   8   8   8
#     4  10  21  40  66  93 121 155 193 240 302 364
#     4  11  21  39  61  82 115 162 210 246 292 356
#     4  11  22  38  59  81 112 159 207 244 290 355
#     4  12  25  40  59  89 124 156 200 253 306 357
#     4   9  19  37  61  87 112 150 201 246 284 345
#     4  10  20  36  58  81 110 154 206 245 287 351
#     4   9  19  38  64  92 119 148 185 236 295 353
#     4  12  24  36  52  81 120 156 195 251 307 349
#
# _framework density 19.617435
#
# number of rings (size 3 to 8) (size 9 to 14) (size 15 to 20)
#    0.000    1.500    2.500    3.375    1.750    1.000 
#    0.000    2.500    0.000    1.500    0.000    0.000 
#    0.000    0.000    0.000    0.000    0.000    0.000 
#
# Total GULP energy -396689.653007 kJ/mol
# GULP energy per Si atom -12396.551656 kJ/mol
# Density = 1.957279 g / cm^3
# Si number density = 19.617435 Si / 1000 Ang^3
#
#
#
# Elastic Constant Matrix: (Units=GPa)
#
#
# Indices 1 2 3 4 5 6 
#
# 1 60.9854 22.9296 24.5622 0.0000 -0.0001 -0.0001
# 2 22.9296 108.2351 63.3534 0.0002 0.0001 0.0000
# 3 24.5622 63.3534 121.5966 0.0003 0.0013 0.0006
# 4 0.0000 0.0002 0.0003 39.3917 0.0005 0.0003
# 5 -0.0001 0.0001 0.0013 0.0005 24.3719 0.0002
# 6 -0.0001 0.0000 0.0006 0.0003 0.0002 27.6638
#
#
#
# Elastic Compliance Matrix: (Units=1/GPa)
#
#
# Indices 1 2 3 4 5 6 
#
# 1 0.018295 -0.002464 -0.002412 0.000000 0.000000 0.000000
# 2 -0.002464 0.013625 -0.006601 0.000000 0.000000 0.000000
# 3 -0.002412 -0.006601 0.012150 0.000000 -0.000001 0.000000
# 4 0.000000 0.000000 0.000000 0.025386 -0.000001 0.000000
# 5 0.000000 0.000000 -0.000001 -0.000001 0.041031 0.000000
# 6 0.000000 0.000000 0.000000 0.000000 0.000000 0.036148
#
#
# Mechanical properties :
#
#
# Convention : Reuss Voigt Hill
#
# Bulk Modulus (GPa) = 47.35607 56.94528 52.15068
# Shear Modulus (GPa) = 28.30802 30.28361 29.29582
#
# Velocity S-wave (km/s) = 3.80281 3.93327 3.86859
# Velocity P-wave (km/s) = 6.59348 7.05113 6.82614
#
# Compressibility (1/GPa) = 0.02111662
#
# Stress axis : x y z
#
# Youngs Moduli (GPa) = 54.65916 73.39458 82.30246
#
# Poissons Ratio (x) = 0.18086 0.19849
# Poissons Ratio (y) = 0.13469 0.54328
# Poissons Ratio (z) = 0.13182 0.48448
#
# Static dielectric constant tensor:
#      x y z
#    x 3.465980 0.000000 0.000000 
#    y 0.000000 3.458870 0.000000 
#    z 0.000000 0.000000 3.842120 
# 
# 
# High freq. dielectric constant tensor:
#      x y z
#    x 1.753870 0.000000 0.000000 
#    y 0.000000 1.749610 0.000000 
#    z 0.000000 0.000000 1.774540 
# 
# From -- ./inp_files/9717.got.cif
#   From: 2010.03.12/outbox.cif.g09.slc.cpg/sg46_5_cif.got.tgz:9717.got - 2010.04.14 02:56:35.
