data_PCOD8192043
_publ_section_title
;
Structure prediction by ZEFSAII (Michael W. Deem and Ramdas Pophale) SiO2 
 PCOD8192043
Probable space group: I M A 2
;
_chemical_formula_sum "Si O2"
_cell_formula_units_Z 64
_cell_length_a 8.784393
_cell_length_b 20.705512
_cell_length_c 19.518253
_cell_angle_alpha 90.000000
_cell_angle_beta 90.000000
_cell_angle_gamma 90.000000
_cell_volume 3550.084370
_symmetry_space_group_name_H-M "I M A 2"
_symmetry_group_IT_number 46
_symmetry_cell_setting 'orthorhombic'
loop_
_space_group_symop_operation_xyz
x,y,z
-x,-y,z
1/2-x,y,z
1/2+x,-y,z
1/2+x,1/2+y,1/2+z
1/2-x,1/2-y,1/2+z
-x,1/2+y,1/2+z
x,1/2-y,1/2+z
loop_
_atom_site_type_symbol
_atom_site_label
_atom_site_fract_x
_atom_site_fract_y
_atom_site_fract_z
Si Si1 0.428896 0.433883 0.289970
Si Si2 0.073432 0.817341 0.711376
Si Si3 0.571371 0.123650 0.072756
Si Si4 0.071227 0.731697 0.064856
Si Si5 0.071669 0.690052 0.795977
Si Si6 0.071173 0.238554 0.426845
Si Si7 0.429411 0.565907 0.710055
Si Si8 0.428904 0.878405 0.921063
O O1 0.500000 0.500000 0.260886
O O2 0.250000 0.440953 0.290553
O O3 0.474248 0.374979 0.241345
O O4 0.485669 0.423543 0.367473
O O5 0.250000 0.833055 0.723960
O O6 0.036708 0.812639 0.630532
O O7 0.028947 0.750491 0.747836
O O8 0.750000 0.128395 0.084642
O O9 0.507950 0.196357 0.079629
O O10 0.503659 0.079217 0.133252
O O11 0.532264 0.095411 0.997498
O O12 0.250000 0.733135 0.047786
O O13 0.981634 0.705448 0.998218
O O14 0.250000 0.690075 0.813295
O O15 0.021331 0.624881 0.758073
O O16 0.974319 0.690943 0.865467
O O17 0.250000 0.251735 0.427439
O O18 0.982268 0.304973 0.413400
O O19 0.500000 0.500000 0.738853
O O20 0.250000 0.558148 0.708868
O O21 0.250000 0.880441 0.905668
#
# Coordination Sequence:
#
# PCOD8192043 Si02
#       8
#     8   8   8   8   8   8   8   8
#     4  12  25  39  55  79 113 149 187 230 278 333
#     4  10  19  35  61  85 105 140 187 233 278 329
#     4   8  15  30  52  76 104 142 184 219 258 316
#     4   9  17  33  57  82 107 141 183 225 272 328
#     4  10  19  34  58  80 106 145 187 227 274 330
#     4  11  21  32  51  83 116 143 178 228 280 326
#     4  10  20  35  53  78 109 145 184 224 272 323
#     4  10  19  34  55  77 108 149 189 227 269 323
#
# _framework density 18.027739
#
# number of rings (size 3 to 8) (size 9 to 14) (size 15 to 20)
#    0.000    2.000    2.500    3.375    0.000    1.500 
#    0.000    4.375    0.000    0.750    0.000    3.500 
#    0.000    0.000    0.000    0.000    0.000    0.000 
#
# Total GULP energy -396785.662386 kJ/mol
# GULP energy per Si atom -12399.551950 kJ/mol
# Density = 1.798671 g / cm^3
# Si number density = 18.027739 Si / 1000 Ang^3
#
#
#
# Elastic Constant Matrix: (Units=GPa)
#
#
# Indices 1 2 3 4 5 6 
#
# 1 80.1557 44.4771 44.8225 0.0000 0.0000 0.0000
# 2 44.4771 106.8174 52.5454 0.0000 0.0000 0.0000
# 3 44.8225 52.5454 113.6758 0.0000 0.0000 0.0000
# 4 0.0000 0.0000 0.0000 19.5301 0.0000 0.0000
# 5 0.0000 0.0000 0.0000 0.0000 18.6435 0.0000
# 6 0.0000 0.0000 0.0000 0.0000 0.0000 25.7021
#
#
#
# Elastic Compliance Matrix: (Units=1/GPa)
#
#
# Indices 1 2 3 4 5 6 
#
# 1 0.017972 -0.005174 -0.004695 0.000000 0.000000 0.000000
# 2 -0.005174 0.013606 -0.004249 0.000000 0.000000 0.000000
# 3 -0.004695 -0.004249 0.012612 0.000000 0.000000 0.000000
# 4 0.000000 0.000000 0.000000 0.051203 0.000000 0.000000
# 5 0.000000 0.000000 0.000000 0.000000 0.053638 0.000000
# 6 0.000000 0.000000 0.000000 0.000000 0.000000 0.038907
#
#
# Mechanical properties :
#
#
# Convention : Reuss Voigt Hill
#
# Bulk Modulus (GPa) = 62.67748 64.92656 63.80202
# Shear Modulus (GPa) = 22.57407 23.36207 22.96807
#
# Velocity S-wave (km/s) = 3.54246 3.60376 3.57324
# Velocity P-wave (km/s) = 7.18156 7.30815 7.24513
#
# Compressibility (1/GPa) = 0.01595469
#
# Stress axis : x y z
#
# Youngs Moduli (GPa) = 55.64262 73.49493 79.28730
#
# Poissons Ratio (x) = 0.38024 0.37224
# Poissons Ratio (y) = 0.28788 0.33692
# Poissons Ratio (z) = 0.26123 0.31231
#
# Static dielectric constant tensor:
#      x y z
#    x 3.126200 0.000000 0.000000 
#    y 0.000000 3.158590 0.000000 
#    z 0.000000 0.000000 3.577800 
# 
# 
# High freq. dielectric constant tensor:
#      x y z
#    x 1.684600 0.000000 0.000000 
#    y 0.000000 1.671940 0.000000 
#    z 0.000000 0.000000 1.705550 
# 
# From -- ./inp_files/21439.got.cif
#   From: 2010.03.12/outbox.cif.g09.slc.cpg/sg46_11_cif.got.tgz:21439.got - 2010.04.14 02:56:35.
