data_PCOD8192609
_publ_section_title
;
Structure prediction by ZEFSAII (Michael W. Deem and Ramdas Pophale) SiO2 
 PCOD8192609
Probable space group: I M A 2
;
_chemical_formula_sum "Si O2"
_cell_formula_units_Z 48
_cell_length_a 8.688646
_cell_length_b 27.976553
_cell_length_c 10.233307
_cell_angle_alpha 90.000000
_cell_angle_beta 90.000000
_cell_angle_gamma 90.000000
_cell_volume 2487.495537
_symmetry_space_group_name_H-M "I M A 2"
_symmetry_group_IT_number 46
_symmetry_cell_setting 'orthorhombic'
loop_
_space_group_symop_operation_xyz
x,y,z
-x,-y,z
1/2-x,y,z
1/2+x,-y,z
1/2+x,1/2+y,1/2+z
1/2-x,1/2-y,1/2+z
-x,1/2+y,1/2+z
x,1/2-y,1/2+z
loop_
_atom_site_type_symbol
_atom_site_label
_atom_site_fract_x
_atom_site_fract_y
_atom_site_fract_z
Si Si1 0.430959 0.549563 0.470130
Si Si2 0.068595 0.450185 0.752296
Si Si3 0.570937 0.808091 0.589934
Si Si4 0.571865 0.697815 0.611335
Si Si5 0.428033 0.139244 0.855539
Si Si6 0.428642 0.642044 0.845867
O O1 0.500000 0.500000 0.415864
O O2 0.250000 0.543982 0.487420
O O3 0.504779 0.562649 0.609309
O O4 0.470631 0.591532 0.369150
O O5 0.250000 0.454870 0.744132
O O6 0.000000 0.500000 0.804594
O O7 0.021382 0.407893 0.850092
O O8 0.750000 0.813537 0.554105
O O9 0.527704 0.753172 0.611551
O O10 0.526344 0.836606 0.719806
O O11 0.469760 0.827756 0.472679
O O12 0.750000 0.690004 0.649355
O O13 0.534093 0.676910 0.469167
O O14 0.467792 0.671874 0.717218
O O15 0.250000 0.124401 0.858982
O O16 0.250000 0.629704 0.845164
#
# Coordination Sequence:
#
# PCOD8192609 Si02
#       6
#     8   8   8   8   8   8
#     4  11  21  35  58  87 118 150 191 241 294 350
#     4  11  21  37  61  88 117 150 194 245 293 349
#     4  10  22  40  61  86 118 160 203 244 293 350
#     4  10  20  38  64  88 113 154 204 249 290 347
#     4  10  20  36  60  88 118 153 198 245 290 345
#     4  12  24  38  58  89 124 159 196 242 298 353
#
# _framework density 19.296517999999999
#
# number of rings (size 3 to 8) (size 9 to 14) (size 15 to 20)
#    0.000    1.333    1.667    6.500    0.000    4.000 
#    0.000    2.500    0.000    4.000    0.000    0.000 
#    0.000    0.000    0.000    0.000    0.000    0.000 
#
# Total GULP energy -297747.765659 kJ/mol
# GULP energy per Si atom -12406.156902 kJ/mol
# Density = 1.925260 g / cm^3
# Si number density = 19.296518 Si / 1000 Ang^3
#
#
#
# Elastic Constant Matrix: (Units=GPa)
#
#
# Indices 1 2 3 4 5 6 
#
# 1 127.7759 47.2531 30.5403 0.0046 0.0010 -0.0001
# 2 47.2531 116.7543 12.4630 0.0142 0.0029 -0.0002
# 3 30.5403 12.4630 54.0748 0.0139 0.0039 0.0037
# 4 0.0046 0.0142 0.0139 -9.4208 -0.0003 0.0036
# 5 0.0010 0.0029 0.0039 -0.0003 20.7629 0.0008
# 6 -0.0001 -0.0002 0.0037 0.0036 0.0008 31.4849
#
#
#
# Elastic Compliance Matrix: (Units=1/GPa)
#
#
# Indices 1 2 3 4 5 6 
#
# 1 0.010381 -0.003666 -0.005018 -0.000008 0.000001 0.000001
# 2 -0.003666 0.010076 -0.000252 0.000013 -0.000001 0.000000
# 3 -0.005018 -0.000252 0.021385 0.000029 -0.000004 -0.000003
# 4 -0.000008 0.000013 0.000029 -0.106148 -0.000002 0.000012
# 5 0.000001 -0.000001 -0.000004 -0.000002 0.048163 -0.000001
# 6 0.000001 0.000000 -0.000003 0.000012 -0.000001 0.031761
#
#
# Mechanical properties :
#
#
# Convention : Reuss Voigt Hill
#
# Bulk Modulus (GPa) = 41.71849 53.23530 47.47690
# Shear Modulus (GPa) = 120.53916 22.45528 71.49722
#
# Velocity S-wave (km/s) = 7.91217 3.41500 6.09363
# Velocity P-wave (km/s) = 10.25361 6.57248 8.61203
#
# Compressibility (1/GPa) = 0.02397019
#
# Stress axis : x y z
#
# Youngs Moduli (GPa) = 96.32677 99.25034 46.76144
#
# Poissons Ratio (x) = 0.36384 0.23466
# Poissons Ratio (y) = 0.35312 0.01177
# Poissons Ratio (z) = 0.48339 0.02499
#
# Static dielectric constant tensor:
#      x y z
#    x 3.482870 0.000000 0.000000 
#    y 0.000000 3.746670 0.000000 
#    z 0.000000 0.000000 3.397180 
# 
# 
# High freq. dielectric constant tensor:
#      x y z
#    x 1.751370 0.000000 0.000000 
#    y 0.000000 1.770430 0.000000 
#    z 0.000000 0.000000 1.732530 
# 
# From -- ./inp_files/9393.got.cif
#   From: 2010.03.12/outbox.cif.g09.slc.cpg/sg46_5_cif.got.tgz:9393.got - 2010.04.14 02:56:35.
