data_PCOD8192149
_publ_section_title
;
Structure prediction by ZEFSAII (Michael W. Deem and Ramdas Pophale) SiO2 
 PCOD8192149
Probable space group: I M A 2
;
_chemical_formula_sum "Si O2"
_cell_formula_units_Z 64
_cell_length_a 8.588546
_cell_length_b 20.591283
_cell_length_c 19.459108
_cell_angle_alpha 90.000000
_cell_angle_beta 90.000000
_cell_angle_gamma 90.000000
_cell_volume 3441.327318
_symmetry_space_group_name_H-M "I M A 2"
_symmetry_group_IT_number 46
_symmetry_cell_setting 'orthorhombic'
loop_
_space_group_symop_operation_xyz
x,y,z
-x,-y,z
1/2-x,y,z
1/2+x,-y,z
1/2+x,1/2+y,1/2+z
1/2-x,1/2-y,1/2+z
-x,1/2+y,1/2+z
x,1/2-y,1/2+z
loop_
_atom_site_type_symbol
_atom_site_label
_atom_site_fract_x
_atom_site_fract_y
_atom_site_fract_z
Si Si1 0.431164 0.768801 0.597480
Si Si2 0.069864 0.268954 0.955086
Si Si3 0.069572 0.881320 0.107841
Si Si4 0.433581 0.189415 0.735269
Si Si5 0.433024 0.069053 0.243119
Si Si6 0.566118 0.567552 0.321757
Si Si7 0.431618 0.691648 0.817558
Si Si8 0.568593 0.881642 0.965950
O O1 0.250000 0.776818 0.582601
O O2 0.522862 0.794057 0.530590
O O3 0.474148 0.694384 0.614145
O O4 0.482215 0.811775 0.661897
O O5 0.250000 0.283665 0.941466
O O6 0.031425 0.192987 0.949057
O O7 0.969003 0.306780 0.898477
O O8 0.250000 0.894232 0.123426
O O9 0.967013 0.920202 0.162498
O O10 0.028328 0.906415 0.031549
O O11 0.250000 0.187081 0.723668
O O12 0.497069 0.126166 0.775050
O O13 0.472158 0.252991 0.778892
O O14 0.250000 0.072272 0.256738
O O15 0.520408 0.122186 0.288549
O O16 0.500000 0.000000 0.266620
O O17 0.500000 0.500000 0.293197
O O18 0.750000 0.567060 0.318410
O O19 0.511248 0.577355 0.400437
O O20 0.250000 0.703205 0.803859
O O21 0.750000 0.890988 0.981934
#
# Coordination Sequence:
#
# PCOD8192149 Si02
#       8
#     8   8   8   8   8   8   8   8
#     4  10  20  34  55  87 119 147 187 237 287 339
#     4  10  19  35  58  84 115 151 190 233 287 341
#     4  10  20  34  53  82 116 150 191 233 279 338
#     4  11  21  37  59  84 113 151 194 237 286 344
#     4  12  25  41  60  82 114 154 194 237 288 343
#     4  10  22  38  55  80 113 150 194 236 282 338
#     4  12  23  37  59  88 117 148 191 240 288 340
#     4   9  18  34  53  77 112 154 195 233 277 337
#
# _framework density 18.597476
#
# number of rings (size 3 to 8) (size 9 to 14) (size 15 to 20)
#    0.000    1.500    2.500    3.750    0.000    3.500 
#    0.000    1.250    0.000    0.750    0.000    3.500 
#    0.000    0.000    0.000    0.000    0.000    0.000 
#
# Total GULP energy -396966.685177 kJ/mol
# GULP energy per Si atom -12405.208912 kJ/mol
# Density = 1.855515 g / cm^3
# Si number density = 18.597476 Si / 1000 Ang^3
#
#
#
# Elastic Constant Matrix: (Units=GPa)
#
#
# Indices 1 2 3 4 5 6 
#
# 1 48.1164 12.2230 11.1950 0.0000 0.0000 0.0000
# 2 12.2230 91.7250 40.2178 0.0000 0.0000 0.0000
# 3 11.1950 40.2178 95.7969 0.0000 0.0000 0.0000
# 4 0.0000 0.0000 0.0000 22.2495 0.0000 0.0000
# 5 0.0000 0.0000 0.0000 0.0000 32.1694 0.0000
# 6 0.0000 0.0000 0.0000 0.0000 0.0000 26.4721
#
#
#
# Elastic Compliance Matrix: (Units=1/GPa)
#
#
# Indices 1 2 3 4 5 6 
#
# 1 0.021715 -0.002183 -0.001621 0.000000 0.000000 0.000000
# 2 -0.002183 0.013581 -0.005447 0.000000 0.000000 0.000000
# 3 -0.001621 -0.005447 0.012915 0.000000 0.000000 0.000000
# 4 0.000000 0.000000 0.000000 0.044945 0.000000 0.000000
# 5 0.000000 0.000000 0.000000 0.000000 0.031085 0.000000
# 6 0.000000 0.000000 0.000000 0.000000 0.000000 0.037776
#
#
# Mechanical properties :
#
#
# Convention : Reuss Voigt Hill
#
# Bulk Modulus (GPa) = 33.65942 40.32331 36.99137
# Shear Modulus (GPa) = 26.25763 27.64504 26.95134
#
# Velocity S-wave (km/s) = 3.76159 3.85969 3.81096
# Velocity P-wave (km/s) = 6.08312 6.44920 6.26883
#
# Compressibility (1/GPa) = 0.02970937
#
# Stress axis : x y z
#
# Youngs Moduli (GPa) = 46.05191 73.63150 77.43042
#
# Poissons Ratio (x) = 0.16072 0.12553
# Poissons Ratio (y) = 0.10052 0.42173
# Poissons Ratio (z) = 0.07466 0.40104
#
# Static dielectric constant tensor:
#      x y z
#    x 3.386800 0.000000 0.000000 
#    y 0.000000 3.473620 0.000000 
#    z 0.000000 0.000000 3.575920 
# 
# 
# High freq. dielectric constant tensor:
#      x y z
#    x 1.729640 0.000000 0.000000 
#    y 0.000000 1.695500 0.000000 
#    z 0.000000 0.000000 1.726800 
# 
# From -- ./inp_files/18524.got.cif
#   From: 2010.03.12/outbox.cif.g09.slc.cpg/sg46_10_cif.got.tgz:18524.got - 2010.04.14 02:56:35.
