data_PCOD8192302
_publ_section_title
;
Structure prediction by ZEFSAII (Michael W. Deem and Ramdas Pophale) SiO2 
 PCOD8192302
Probable space group: I M A 2
;
_chemical_formula_sum "Si O2"
_cell_formula_units_Z 56
_cell_length_a 9.022578
_cell_length_b 18.195371
_cell_length_c 20.949732
_cell_angle_alpha 90.000000
_cell_angle_beta 90.000000
_cell_angle_gamma 90.000000
_cell_volume 3439.299781
_symmetry_space_group_name_H-M "I M A 2"
_symmetry_group_IT_number 46
_symmetry_cell_setting 'orthorhombic'
loop_
_space_group_symop_operation_xyz
x,y,z
-x,-y,z
1/2-x,y,z
1/2+x,-y,z
1/2+x,1/2+y,1/2+z
1/2-x,1/2-y,1/2+z
-x,1/2+y,1/2+z
x,1/2-y,1/2+z
loop_
_atom_site_type_symbol
_atom_site_label
_atom_site_fract_x
_atom_site_fract_y
_atom_site_fract_z
Si Si1 0.079165 0.925024 0.381430
Si Si2 0.581574 0.925875 0.882977
Si Si3 0.423312 0.839197 0.506337
Si Si4 0.074705 0.343639 0.254194
Si Si5 0.578252 0.778544 0.940839
Si Si6 0.921622 0.280158 0.818149
Si Si7 0.924275 0.421666 0.136431
O O1 0.250000 0.943442 0.390050
O O2 0.020956 0.891803 0.448720
O O3 0.052983 0.868264 0.322383
O O4 0.000000 0.000000 0.363366
O O5 0.750000 0.948373 0.873733
O O6 0.525932 0.890663 0.816268
O O7 0.561650 0.867316 0.941116
O O8 0.500000 0.000000 0.901674
O O9 0.250000 0.820841 0.499764
O O10 0.517258 0.762278 0.504351
O O11 0.461192 0.878079 0.572300
O O12 0.250000 0.343939 0.243558
O O13 0.019648 0.259236 0.263483
O O14 0.992152 0.376432 0.194122
O O15 0.750000 0.758061 0.927370
O O16 0.470371 0.749729 0.886318
O O17 0.750000 0.261274 0.806129
O O18 0.750000 0.432125 0.147129
O O19 0.000000 0.500000 0.132132
#
# Coordination Sequence:
#
# PCOD8192302 Si02
#       7
#     8   8   8   8   8   8   8
#     4   9  17  28  44  67  93 119 149 186 227 272
#     4   9  18  29  43  66  92 117 147 184 225 270
#     4   9  19  33  46  64  91 124 159 190 225 271
#     4  10  20  33  47  66  92 123 160 194 228 273
#     4   9  17  29  45  66  90 117 152 191 229 272
#     4   9  17  30  46  65  90 120 153 189 231 276
#     4  11  22  34  48  68  95 126 160 194 228 270
#
# _framework density 16.282385000000001
#
# number of rings (size 3 to 8) (size 9 to 14) (size 15 to 20)
#    0.000    2.571    0.000    4.286    0.000    8.571 
#    0.000    0.000    0.000    0.000    0.000    1.000 
#    0.000    6.857    0.000    0.000    0.000    0.000 
#
# Total GULP energy -347015.034187 kJ/mol
# GULP energy per Si atom -12393.394078 kJ/mol
# Density = 1.624533 g / cm^3
# Si number density = 16.282385 Si / 1000 Ang^3
#
#
#
# Elastic Constant Matrix: (Units=GPa)
#
#
# Indices 1 2 3 4 5 6 
#
# 1 67.3851 61.9253 41.8165 0.0000 0.0000 0.0000
# 2 61.9253 130.4664 58.4731 0.0000 0.0000 0.0000
# 3 41.8165 58.4731 71.1345 0.0000 0.0000 0.0000
# 4 0.0000 0.0000 0.0000 21.5828 0.0000 0.0000
# 5 0.0000 0.0000 0.0000 0.0000 22.2869 0.0000
# 6 0.0000 0.0000 0.0000 0.0000 0.0000 34.6437
#
#
#
# Elastic Compliance Matrix: (Units=1/GPa)
#
#
# Indices 1 2 3 4 5 6 
#
# 1 0.029770 -0.009954 -0.009318 0.000000 0.000000 0.000000
# 2 -0.009954 0.015464 -0.006860 0.000000 0.000000 0.000000
# 3 -0.009318 -0.006860 0.025175 0.000000 0.000000 0.000000
# 4 0.000000 0.000000 0.000000 0.046333 0.000000 0.000000
# 5 0.000000 0.000000 0.000000 0.000000 0.044869 0.000000
# 6 0.000000 0.000000 0.000000 0.000000 0.000000 0.028865
#
#
# Mechanical properties :
#
#
# Convention : Reuss Voigt Hill
#
# Bulk Modulus (GPa) = 55.11375 65.93507 60.52441
# Shear Modulus (GPa) = 20.09738 22.82074 21.45906
#
# Velocity S-wave (km/s) = 3.51708 3.74780 3.63427
# Velocity P-wave (km/s) = 7.10037 7.70134 7.40695
#
# Compressibility (1/GPa) = 0.01814429
#
# Stress axis : x y z
#
# Youngs Moduli (GPa) = 33.59102 64.66630 39.72261
#
# Poissons Ratio (x) = 0.64368 0.37014
# Poissons Ratio (y) = 0.33436 0.27250
# Poissons Ratio (z) = 0.31300 0.44362
#
# Static dielectric constant tensor:
#      x y z
#    x 3.174400 0.000000 0.000000 
#    y 0.000000 3.363400 0.000000 
#    z 0.000000 0.000000 2.942030 
# 
# 
# High freq. dielectric constant tensor:
#      x y z
#    x 1.638950 0.000000 0.000000 
#    y 0.000000 1.629030 0.000000 
#    z 0.000000 0.000000 1.585140 
# 
# From -- ./inp_files/21214.got.cif
#   From: 2010.03.12/outbox.cif.g09.slc.cpg/sg46_11_cif.got.tgz:21214.got - 2010.04.14 02:56:35.
