data_PCOD8192046
_publ_section_title
;
Structure prediction by ZEFSAII (Michael W. Deem and Ramdas Pophale) SiO2 
 PCOD8192046
Probable space group: I M A 2
;
_chemical_formula_sum "Si O2"
_cell_formula_units_Z 64
_cell_length_a 8.996457
_cell_length_b 29.877604
_cell_length_c 12.609091
_cell_angle_alpha 90.000000
_cell_angle_beta 90.000000
_cell_angle_gamma 90.000000
_cell_volume 3389.230097
_symmetry_space_group_name_H-M "I M A 2"
_symmetry_group_IT_number 46
_symmetry_cell_setting 'orthorhombic'
loop_
_space_group_symop_operation_xyz
x,y,z
-x,-y,z
1/2-x,y,z
1/2+x,-y,z
1/2+x,1/2+y,1/2+z
1/2-x,1/2-y,1/2+z
-x,1/2+y,1/2+z
x,1/2-y,1/2+z
loop_
_atom_site_type_symbol
_atom_site_label
_atom_site_fract_x
_atom_site_fract_y
_atom_site_fract_z
Si Si1 0.574842 0.855725 0.433320
Si Si2 0.425703 0.452311 0.568921
Si Si3 0.927984 0.378325 0.715485
Si Si4 0.576324 0.292708 0.586792
Si Si5 0.924512 0.546892 0.327476
Si Si6 0.584874 0.746554 0.927208
Si Si7 0.416827 0.217370 0.701214
Si Si8 0.575165 0.620308 0.166728
O O1 0.750000 0.858944 0.408030
O O2 0.484613 0.877870 0.336472
O O3 0.527318 0.803953 0.450750
O O4 0.532633 0.882688 0.541498
O O5 0.500000 0.500000 0.589073
O O6 0.250000 0.455109 0.590809
O O7 0.501268 0.419198 0.652206
O O8 0.458505 0.436477 0.447842
O O9 0.750000 0.382096 0.714496
O O10 0.986968 0.333548 0.655822
O O11 0.750000 0.295571 0.589653
O O12 0.515026 0.289119 0.467016
O O13 0.520010 0.243648 0.620408
O O14 0.750000 0.540337 0.312501
O O15 0.993859 0.581321 0.240712
O O16 0.000000 0.500000 0.303966
O O17 0.750000 0.753106 0.973508
O O18 0.583533 0.751618 0.802590
O O19 0.250000 0.212925 0.653962
O O20 0.481227 0.167462 0.715714
O O21 0.750000 0.616470 0.179982
#
# Coordination Sequence:
#
# PCOD8192046 Si02
#       8
#     8   8   8   8   8   8   8   8
#     4  10  19  35  58  81 109 149 193 237 281 327
#     4  10  21  39  65  90 114 144 182 230 287 343
#     4  11  24  39  55  81 118 155 193 234 279 337
#     4  11  23  35  50  76 115 154 187 232 285 336
#     4   9  19  37  61  87 114 142 175 224 282 339
#     4  10  20  33  54  78 106 147 195 240 279 334
#     4  10  19  34  55  78 106 143 192 238 275 330
#     4   9  18  34  56  83 111 142 184 233 282 330
#
# _framework density 18.883344999999998
#
# number of rings (size 3 to 8) (size 9 to 14) (size 15 to 20)
#    0.000    2.000    2.500    1.125    1.750    3.000 
#    0.000    1.875    0.000    1.500    0.000    0.000 
#    0.000    0.000    0.000    0.000    0.000    0.000 
#
# Total GULP energy -396527.158614 kJ/mol
# GULP energy per Si atom -12391.473707 kJ/mol
# Density = 1.884037 g / cm^3
# Si number density = 18.883345 Si / 1000 Ang^3
#
#
#
# Elastic Constant Matrix: (Units=GPa)
#
#
# Indices 1 2 3 4 5 6 
#
# 1 57.1233 39.7638 41.1361 0.0004 0.0005 0.0000
# 2 39.7638 110.9492 68.3140 0.0016 0.0012 0.0001
# 3 41.1361 68.3140 108.7109 0.0027 0.0045 0.0004
# 4 0.0004 0.0016 0.0027 34.5790 0.0016 0.0002
# 5 0.0005 0.0012 0.0045 0.0016 27.7151 0.0004
# 6 0.0000 0.0001 0.0004 0.0002 0.0004 27.6040
#
#
#
# Elastic Compliance Matrix: (Units=1/GPa)
#
#
# Indices 1 2 3 4 5 6 
#
# 1 0.025832 -0.005284 -0.006454 0.000000 0.000001 0.000000
# 2 -0.005284 0.015782 -0.007918 0.000000 0.000001 0.000000
# 3 -0.006454 -0.007918 0.016617 -0.000001 -0.000002 0.000000
# 4 0.000000 0.000000 -0.000001 0.028919 -0.000002 0.000000
# 5 0.000001 0.000001 -0.000002 -0.000002 0.036081 0.000000
# 6 0.000000 0.000000 0.000000 0.000000 0.000000 0.036227
#
#
# Mechanical properties :
#
#
# Convention : Reuss Voigt Hill
#
# Bulk Modulus (GPa) = 52.85921 63.91237 58.38579
# Shear Modulus (GPa) = 24.38097 26.48423 25.43260
#
# Velocity S-wave (km/s) = 3.59714 3.74908 3.67390
# Velocity P-wave (km/s) = 6.73096 7.25674 6.99879
#
# Compressibility (1/GPa) = 0.01891818
#
# Stress axis : x y z
#
# Youngs Moduli (GPa) = 38.71130 63.36212 60.18004
#
# Poissons Ratio (x) = 0.33481 0.38843
# Poissons Ratio (y) = 0.20455 0.47651
# Poissons Ratio (z) = 0.24986 0.50171
#
# Static dielectric constant tensor:
#      x y z
#    x 3.204220 0.000010 0.000000 
#    y 0.000010 3.572360 0.000000 
#    z 0.000000 0.000000 3.820370 
# 
# 
# High freq. dielectric constant tensor:
#      x y z
#    x 1.712330 0.000000 0.000000 
#    y 0.000000 1.723500 0.000000 
#    z 0.000000 0.000000 1.749050 
# 
# From -- ./inp_files/9691.got.cif
#   From: 2010.03.12/outbox.cif.g09.slc.cpg/sg46_5_cif.got.tgz:9691.got - 2010.04.14 02:56:35.
