data_PCOD8192754
_publ_section_title
;
Structure prediction by ZEFSAII (Michael W. Deem and Ramdas Pophale) SiO2 
 PCOD8192754
Probable space group: I M A 2
;
_chemical_formula_sum "Si O2"
_cell_formula_units_Z 40
_cell_length_a 9.978799
_cell_length_b 9.547230
_cell_length_c 20.706964
_cell_angle_alpha 90.000000
_cell_angle_beta 90.000000
_cell_angle_gamma 90.000000
_cell_volume 1972.750165
_symmetry_space_group_name_H-M "I M A 2"
_symmetry_group_IT_number 46
_symmetry_cell_setting 'orthorhombic'
loop_
_space_group_symop_operation_xyz
x,y,z
-x,-y,z
1/2-x,y,z
1/2+x,-y,z
1/2+x,1/2+y,1/2+z
1/2-x,1/2-y,1/2+z
-x,1/2+y,1/2+z
x,1/2-y,1/2+z
loop_
_atom_site_type_symbol
_atom_site_label
_atom_site_fract_x
_atom_site_fract_y
_atom_site_fract_z
Si Si1 0.000000 0.000000 0.203890
Si Si2 0.250000 0.476528 0.243558
Si Si3 0.250000 0.905422 0.877799
Si Si4 0.400667 0.764133 0.106990
Si Si5 0.021580 0.838019 0.966118
Si Si6 0.500000 0.000000 0.658771
Si Si7 0.250000 0.148132 0.274776
Si Si8 0.750000 0.767707 0.912245
O O1 0.883839 0.930055 0.248553
O O2 0.064465 0.888064 0.155871
O O3 0.250000 0.590645 0.301081
O O4 0.376519 0.520300 0.204269
O O5 0.250000 0.310846 0.255799
O O6 0.120694 0.821675 0.904635
O O7 0.250000 0.070206 0.893158
O O8 0.250000 0.715250 0.122125
O O9 0.507207 0.638620 0.115301
O O10 0.406391 0.798105 0.031850
O O11 0.886118 0.747168 0.954173
O O12 0.000000 0.000000 0.974910
O O13 0.250000 0.155435 0.353279
#
# Coordination Sequence:
#
# PCOD8192754 Si02
#       8
#     4   4   4   8   8   4   4   4
#     4  12  24  40  72  98 134 178 218 282 336 396
#     4  11  24  39  63  97 138 169 217 273 334 399
#     4   9  20  34  61  97 128 163 215 272 320 383
#     4  12  24  42  67 101 135 172 224 278 341 399
#     4  10  20  38  66  97 129 169 220 277 323 391
#     4  12  26  42  64  96 136 180 214 270 342 406
#     4  11  24  43  64  97 133 175 225 272 333 398
#     4   9  22  38  60  95 129 169 215 267 335 382
#
# _framework density 20.276263
#
# number of rings (size 3 to 8) (size 9 to 14) (size 15 to 20)
#    0.000    1.200    6.000    0.000    7.000    1.600 
#    0.000    2.000    0.000    0.000    0.000    0.000 
#    0.000    0.000    0.000    0.000    0.000    0.000 
#
# Total GULP energy -247794.879790 kJ/mol
# GULP energy per Si atom -12389.743990 kJ/mol
# Density = 2.023011 g / cm^3
# Si number density = 20.276263 Si / 1000 Ang^3
#
#
#
# Elastic Constant Matrix: (Units=GPa)
#
#
# Indices 1 2 3 4 5 6 
#
# 1 142.7707 29.8385 67.0078 0.0000 0.0000 0.0000
# 2 29.8385 64.3756 47.5899 0.0000 0.0000 0.0000
# 3 67.0078 47.5899 120.6034 0.0000 0.0000 0.0000
# 4 0.0000 0.0000 0.0000 19.8676 0.0000 0.0000
# 5 0.0000 0.0000 0.0000 0.0000 8.5691 0.0000
# 6 0.0000 0.0000 0.0000 0.0000 0.0000 52.7487
#
#
#
# Elastic Compliance Matrix: (Units=1/GPa)
#
#
# Indices 1 2 3 4 5 6 
#
# 1 0.009498 -0.000708 -0.004998 0.000000 0.000000 0.000000
# 2 -0.000708 0.021984 -0.008282 0.000000 0.000000 0.000000
# 3 -0.004998 -0.008282 0.014336 0.000000 0.000000 0.000000
# 4 0.000000 0.000000 0.000000 0.050333 0.000000 0.000000
# 5 0.000000 0.000000 0.000000 0.000000 0.116698 0.000000
# 6 0.000000 0.000000 0.000000 0.000000 0.000000 0.018958
#
#
# Mechanical properties :
#
#
# Convention : Reuss Voigt Hill
#
# Bulk Modulus (GPa) = 56.04128 68.51354 62.27741
# Shear Modulus (GPa) = 18.81615 28.45802 23.63709
#
# Velocity S-wave (km/s) = 3.04960 3.75041 3.41801
# Velocity P-wave (km/s) = 6.33237 7.25379 6.80869
#
# Compressibility (1/GPa) = 0.01784399
#
# Stress axis : x y z
#
# Youngs Moduli (GPa) = 105.28779 45.48741 69.75272
#
# Poissons Ratio (x) = 0.03219 0.34861
# Poissons Ratio (y) = 0.07451 0.57767
# Poissons Ratio (z) = 0.52620 0.37671
#
# Static dielectric constant tensor:
#      x y z
#    x 3.932290 0.000000 0.000000 
#    y 0.000000 3.560180 0.000000 
#    z 0.000000 0.000000 3.830550 
# 
# 
# High freq. dielectric constant tensor:
#      x y z
#    x 1.808670 0.000000 0.000000 
#    y 0.000000 1.770610 0.000000 
#    z 0.000000 0.000000 1.798870 
# 
# From -- ./inp_files/22816.got.cif
#   From: 2010.03.12/outbox.cif.g09.slc.cpg/sg46_12_cif.got.tgz:22816.got - 2010.04.14 02:56:35.
