data_PCOD8192763
_publ_section_title
;
Structure prediction by ZEFSAII (Michael W. Deem and Ramdas Pophale) SiO2 
 PCOD8192763
Probable space group: I M A 2
;
_chemical_formula_sum "Si O2"
_cell_formula_units_Z 44
_cell_length_a 13.812203
_cell_length_b 5.153775
_cell_length_c 28.160108
_cell_angle_alpha 90.000000
_cell_angle_beta 90.000000
_cell_angle_gamma 90.000000
_cell_volume 2004.576908
_symmetry_space_group_name_H-M "I M A 2"
_symmetry_group_IT_number 46
_symmetry_cell_setting 'orthorhombic'
loop_
_space_group_symop_operation_xyz
x,y,z
-x,-y,z
1/2-x,y,z
1/2+x,-y,z
1/2+x,1/2+y,1/2+z
1/2-x,1/2-y,1/2+z
-x,1/2+y,1/2+z
x,1/2-y,1/2+z
loop_
_atom_site_type_symbol
_atom_site_label
_atom_site_fract_x
_atom_site_fract_y
_atom_site_fract_z
Si Si1 0.357502 0.112913 0.151500
Si Si2 0.750000 0.867196 0.949198
Si Si3 0.500000 0.500000 0.727838
Si Si4 0.750000 0.132143 0.511457
Si Si5 0.643007 0.666295 0.358481
Si Si6 0.366769 0.669048 0.807388
Si Si7 0.103834 0.896210 0.592717
O O1 0.250000 0.037261 0.169731
O O2 0.401605 0.866543 0.123349
O O3 0.429721 0.177805 0.195111
O O4 0.343868 0.371021 0.120394
O O5 0.846471 0.832567 0.916150
O O6 0.750000 0.156532 0.969860
O O7 0.750000 0.656204 0.990301
O O8 0.426138 0.678389 0.758108
O O9 0.843621 0.171941 0.543797
O O10 0.750000 0.661356 0.335616
O O11 0.592858 0.405805 0.339346
O O12 0.593854 0.921738 0.337117
O O13 0.250000 0.670851 0.799378
O O14 0.000000 0.000000 0.578163
#
# Coordination Sequence:
#
# PCOD8192763 Si02
#       7
#     8   4   4   4   8   8   8
#     4  12  24  44  64  95 133 180 220 267 330 387
#     4  10  20  38  72  95 120 173 212 268 322 410
#     4  12  26  38  68  96 126 172 238 260 310 388
#     4  12  22  38  74  95 124 169 224 256 334 398
#     4   8  18  37  64  85 125 161 200 256 329 366
#     4  10  20  39  60  89 124 168 205 264 317 378
#     4  12  24  44  67  95 135 172 215 276 337 381
#
# _framework density 21.949769
#
# number of rings (size 3 to 8) (size 9 to 14) (size 15 to 20)
#    0.545    0.727    3.636    2.727    0.000    3.636 
#    0.000    3.636   12.000    0.000    0.000    0.000 
#    0.000    0.000    0.000    0.000    0.000    0.000 
#
# Total GULP energy -272634.783794 kJ/mol
# GULP energy per Si atom -12392.490172 kJ/mol
# Density = 2.189981 g / cm^3
# Si number density = 21.949769 Si / 1000 Ang^3
#
#
#
# Elastic Constant Matrix: (Units=GPa)
#
#
# Indices 1 2 3 4 5 6 
#
# 1 97.4448 17.1402 46.0722 0.0000 0.0000 0.0000
# 2 17.1402 143.3311 41.8643 0.0000 0.0000 0.0000
# 3 46.0722 41.8643 121.8131 0.0000 0.0000 0.0000
# 4 0.0000 0.0000 0.0000 20.5383 0.0000 0.0000
# 5 0.0000 0.0000 0.0000 0.0000 28.0271 0.0000
# 6 0.0000 0.0000 0.0000 0.0000 0.0000 3.3440
#
#
#
# Elastic Compliance Matrix: (Units=1/GPa)
#
#
# Indices 1 2 3 4 5 6 
#
# 1 0.012499 -0.000127 -0.004684 0.000000 0.000000 0.000000
# 2 -0.000127 0.007757 -0.002618 0.000000 0.000000 0.000000
# 3 -0.004684 -0.002618 0.010881 0.000000 0.000000 0.000000
# 4 0.000000 0.000000 0.000000 0.048689 0.000000 0.000000
# 5 0.000000 0.000000 0.000000 0.000000 0.035680 0.000000
# 6 0.000000 0.000000 0.000000 0.000000 0.000000 0.299046
#
#
# Mechanical properties :
#
#
# Convention : Reuss Voigt Hill
#
# Bulk Modulus (GPa) = 61.42714 63.63806 62.53260
# Shear Modulus (GPa) = 11.49862 27.54937 19.52399
#
# Velocity S-wave (km/s) = 2.29128 3.54660 2.98566
# Velocity P-wave (km/s) = 5.91997 6.76954 6.35896
#
# Compressibility (1/GPa) = 0.01627945
#
# Stress axis : x y z
#
# Youngs Moduli (GPa) = 80.00613 128.92197 91.90723
#
# Poissons Ratio (x) = 0.01632 0.43048
# Poissons Ratio (y) = 0.01013 0.24060
# Poissons Ratio (z) = 0.37474 0.33750
#
# Static dielectric constant tensor:
#      x y z
#    x 3.887430 0.000000 0.000000 
#    y 0.000000 3.975630 0.000000 
#    z 0.000000 0.000000 3.788760 
# 
# 
# High freq. dielectric constant tensor:
#      x y z
#    x 1.867030 0.000000 0.000000 
#    y 0.000000 1.869310 0.000000 
#    z 0.000000 0.000000 1.849100 
# 
# From -- ./inp_files/24566.got.cif
#   From: 2010.03.12/outbox.cif.g09.slc.cpg/sg46_13_cif.got.tgz:24566.got - 2010.04.14 02:56:35.
