data_PCOD8192740
_publ_section_title
;
Structure prediction by ZEFSAII (Michael W. Deem and Ramdas Pophale) SiO2 
 PCOD8192740
Probable space group: I M A 2
;
_chemical_formula_sum "Si O2"
_cell_formula_units_Z 64
_cell_length_a 24.283710
_cell_length_b 8.699486
_cell_length_c 14.283944
_cell_angle_alpha 90.000000
_cell_angle_beta 90.000000
_cell_angle_gamma 90.000000
_cell_volume 3017.565948
_symmetry_space_group_name_H-M "I M A 2"
_symmetry_group_IT_number 46
_symmetry_cell_setting 'orthorhombic'
loop_
_space_group_symop_operation_xyz
x,y,z
-x,-y,z
1/2-x,y,z
1/2+x,-y,z
1/2+x,1/2+y,1/2+z
1/2-x,1/2-y,1/2+z
-x,1/2+y,1/2+z
x,1/2-y,1/2+z
loop_
_atom_site_type_symbol
_atom_site_label
_atom_site_fract_x
_atom_site_fract_y
_atom_site_fract_z
Si Si1 0.366347 0.449782 0.679640
Si Si2 0.811944 0.395953 0.345800
Si Si3 0.507742 0.177794 0.424525
Si Si4 0.409823 0.606088 0.078562
Si Si5 0.603122 0.765977 0.509700
Si Si6 0.585092 0.237931 0.262462
Si Si7 0.689293 0.320293 0.554391
Si Si8 0.814512 0.756634 0.841965
O O1 0.392440 0.355493 0.593523
O O2 0.412859 0.562485 0.723677
O O3 0.318783 0.556792 0.636879
O O4 0.341250 0.344988 0.760634
O O5 0.750000 0.340642 0.320279
O O6 0.854311 0.274398 0.303419
O O7 0.820259 0.407340 0.456974
O O8 0.822405 0.567961 0.308010
O O9 0.547218 0.194708 0.513416
O O10 0.450621 0.267006 0.445264
O O11 0.537111 0.259606 0.337576
O O12 0.500000 0.000000 0.398912
O O13 0.407615 0.427291 0.059512
O O14 0.429937 0.638119 0.183576
O O15 0.349445 0.673883 0.063625
O O16 0.656136 0.772833 0.442003
O O17 0.750000 0.250876 0.561838
O O18 0.750000 0.716720 0.855077
#
# Coordination Sequence:
#
# PCOD8192740 Si02
#       8
#     8   8   8   8   8   8   8   8
#     4  11  23  41  66  98 133 170 220 270 329 390
#     4  10  21  40  63  91 129 170 214 265 321 383
#     4  10  22  42  64  91 128 165 216 272 321 384
#     4  10  22  40  64  93 127 169 216 264 322 389
#     4  11  24  44  66  95 134 172 213 268 335 388
#     4  11  23  42  68  94 126 169 221 271 322 384
#     4  10  20  38  63  91 129 170 214 267 319 384
#     4  11  24  41  66  97 133 175 216 267 326 390
#
# _framework density 21.209149
#
# number of rings (size 3 to 8) (size 9 to 14) (size 15 to 20)
#    0.000    1.500    2.500    2.625    0.000    5.500 
#    0.000    6.250    0.000    1.500    0.000    0.000 
#    0.000    0.000    0.000    0.000    0.000    0.000 
#
# Total GULP energy -396809.192496 kJ/mol
# GULP energy per Si atom -12400.287265 kJ/mol
# Density = 2.116088 g / cm^3
# Si number density = 21.209149 Si / 1000 Ang^3
#
#
#
# Elastic Constant Matrix: (Units=GPa)
#
#
# Indices 1 2 3 4 5 6 
#
# 1 122.7010 43.5579 70.1816 0.0000 0.0000 0.0000
# 2 43.5579 72.7373 43.1928 0.0000 0.0000 0.0000
# 3 70.1816 43.1928 133.3472 0.0000 0.0000 0.0000
# 4 0.0000 0.0000 0.0000 27.9454 0.0000 0.0000
# 5 0.0000 0.0000 0.0000 0.0000 14.9222 0.0000
# 6 0.0000 0.0000 0.0000 0.0000 0.0000 22.8272
#
#
#
# Elastic Compliance Matrix: (Units=1/GPa)
#
#
# Indices 1 2 3 4 5 6 
#
# 1 0.012758 -0.004523 -0.005250 0.000000 0.000000 0.000000
# 2 -0.004523 0.018625 -0.003653 0.000000 0.000000 0.000000
# 3 -0.005250 -0.003653 0.011445 0.000000 0.000000 0.000000
# 4 0.000000 0.000000 0.000000 0.035784 0.000000 0.000000
# 5 0.000000 0.000000 0.000000 0.000000 0.067014 0.000000
# 6 0.000000 0.000000 0.000000 0.000000 0.000000 0.043807
#
#
# Mechanical properties :
#
#
# Convention : Reuss Voigt Hill
#
# Bulk Modulus (GPa) = 62.58317 71.40555 66.99436
# Shear Modulus (GPa) = 22.56205 24.59585 23.57895
#
# Velocity S-wave (km/s) = 3.26512 3.40910 3.33789
# Velocity P-wave (km/s) = 6.61712 7.01687 6.81992
#
# Compressibility (1/GPa) = 0.01597874
#
# Stress axis : x y z
#
# Youngs Moduli (GPa) = 78.38163 53.68986 87.37167
#
# Poissons Ratio (x) = 0.24282 0.45868
# Poissons Ratio (y) = 0.35449 0.31914
# Poissons Ratio (z) = 0.41148 0.19611
#
# Static dielectric constant tensor:
#      x y z
#    x 3.953970 0.000000 0.000000 
#    y 0.000000 3.699110 0.000000 
#    z 0.000000 0.000000 4.041640 
# 
# 
# High freq. dielectric constant tensor:
#      x y z
#    x 1.832580 0.000000 0.000000 
#    y 0.000000 1.823740 0.000000 
#    z 0.000000 0.000000 1.846430 
# 
# From -- ./inp_files/17431.got.cif
#   From: 2010.03.12/outbox.cif.g09.slc.cpg/sg46_9_cif.got.tgz:17431.got - 2010.04.14 02:56:35.
