data_PCOD8192427
_publ_section_title
;
Structure prediction by ZEFSAII (Michael W. Deem and Ramdas Pophale) SiO2 
 PCOD8192427
Probable space group: I M A 2
;
_chemical_formula_sum "Si O2"
_cell_formula_units_Z 64
_cell_length_a 8.771925
_cell_length_b 28.576158
_cell_length_c 12.595660
_cell_angle_alpha 90.000000
_cell_angle_beta 90.000000
_cell_angle_gamma 90.000000
_cell_volume 3157.327827
_symmetry_space_group_name_H-M "I M A 2"
_symmetry_group_IT_number 46
_symmetry_cell_setting 'orthorhombic'
loop_
_space_group_symop_operation_xyz
x,y,z
-x,-y,z
1/2-x,y,z
1/2+x,-y,z
1/2+x,1/2+y,1/2+z
1/2-x,1/2-y,1/2+z
-x,1/2+y,1/2+z
x,1/2-y,1/2+z
loop_
_atom_site_type_symbol
_atom_site_label
_atom_site_fract_x
_atom_site_fract_y
_atom_site_fract_z
Si Si1 0.069719 0.381997 0.689950
Si Si2 0.420426 0.044986 0.357001
Si Si3 0.573008 0.903471 0.809181
Si Si4 0.924991 0.172914 0.514121
Si Si5 0.931425 0.448721 0.512162
Si Si6 0.079224 0.416304 0.073813
Si Si7 0.930303 0.307259 0.241771
Si Si8 0.569198 0.203276 0.292328
O O1 0.250000 0.379737 0.671680
O O2 0.018587 0.408019 0.799719
O O3 0.994704 0.409500 0.592135
O O4 0.006066 0.328898 0.700259
O O5 0.250000 0.039688 0.318023
O O6 0.433839 0.042993 0.485765
O O7 0.500000 0.000000 0.307652
O O8 0.750000 0.903401 0.842558
O O9 0.476518 0.932490 0.893872
O O10 0.548667 0.930626 0.695986
O O11 0.517008 0.849621 0.800613
O O12 0.750000 0.184820 0.498377
O O13 0.986317 0.198312 0.619747
O O14 0.004840 0.188646 0.405472
O O15 0.949498 0.118455 0.534469
O O16 0.750000 0.451591 0.521188
O O17 0.000000 0.500000 0.536752
O O18 0.250000 0.393969 0.066892
O O19 0.750000 0.317813 0.248727
O O20 0.976201 0.257622 0.289596
O O21 0.750000 0.196577 0.281737
#
# Coordination Sequence:
#
# PCOD8192427 Si02
#       8
#     8   8   8   8   8   8   8   8
#     4  11  23  40  61  86 119 157 206 257 308 368
#     4  10  21  35  54  82 114 147 183 233 290 349
#     4  10  21  39  63  89 121 158 206 256 307 367
#     4   9  17  31  52  77 109 150 193 240 294 354
#     4  12  26  45  67  90 123 164 210 260 319 382
#     4   9  18  35  56  81 112 148 186 235 294 349
#     4   9  19  35  55  85 123 164 210 257 309 364
#     4  10  20  34  56  86 120 162 211 258 310 367
#
# _framework density 20.270306000000001
#
# number of rings (size 3 to 8) (size 9 to 14) (size 15 to 20)
#    0.000    2.000    1.250    2.250    0.000    5.000 
#    0.000    3.750    0.000    0.000    0.000    0.000 
#    0.000    0.000    0.000    0.000    0.000    0.000 
#
# Total GULP energy -396486.203518 kJ/mol
# GULP energy per Si atom -12390.193860 kJ/mol
# Density = 2.022417 g / cm^3
# Si number density = 20.270306 Si / 1000 Ang^3
#
#
#
# Elastic Constant Matrix: (Units=GPa)
#
#
# Indices 1 2 3 4 5 6 
#
# 1 67.2117 24.6723 26.4358 -0.0005 0.0000 0.0000
# 2 24.6723 63.7098 10.8041 -0.0012 0.0002 0.0001
# 3 26.4358 10.8041 85.2352 -0.0004 0.0001 0.0002
# 4 -0.0005 -0.0012 -0.0004 24.2427 0.0000 0.0001
# 5 0.0000 0.0002 0.0001 0.0000 26.4242 0.0001
# 6 0.0000 0.0001 0.0002 0.0001 0.0001 31.0106
#
#
#
# Elastic Compliance Matrix: (Units=1/GPa)
#
#
# Indices 1 2 3 4 5 6 
#
# 1 0.019335 -0.006613 -0.005158 0.000000 0.000000 0.000000
# 2 -0.006613 0.018303 -0.000269 0.000001 0.000000 0.000000
# 3 -0.005158 -0.000269 0.013366 0.000000 0.000000 0.000000
# 4 0.000000 0.000001 0.000000 0.041249 0.000000 0.000000
# 5 0.000000 0.000000 0.000000 0.000000 0.037844 0.000000
# 6 0.000000 0.000000 0.000000 0.000000 0.000000 0.032247
#
#
# Mechanical properties :
#
#
# Convention : Reuss Voigt Hill
#
# Bulk Modulus (GPa) = 37.14283 37.77567 37.45925
# Shear Modulus (GPa) = 25.58864 26.61848 26.10356
#
# Velocity S-wave (km/s) = 3.55684 3.62771 3.59245
# Velocity P-wave (km/s) = 5.93563 6.01859 5.97725
#
# Compressibility (1/GPa) = 0.02692309
#
# Stress axis : x y z
#
# Youngs Moduli (GPa) = 51.72033 54.63684 74.81529
#
# Poissons Ratio (x) = 0.36130 0.38593
# Poissons Ratio (y) = 0.34202 0.02013
# Poissons Ratio (z) = 0.26680 0.01470
#
# Static dielectric constant tensor:
#      x y z
#    x 3.636960 0.000000 0.000000 
#    y 0.000000 3.597640 0.000000 
#    z 0.000000 0.000000 3.945660 
# 
# 
# High freq. dielectric constant tensor:
#      x y z
#    x 1.784830 0.000000 0.000000 
#    y 0.000000 1.778720 0.000000 
#    z 0.000000 0.000000 1.802300 
# 
# From -- ./inp_files/9760.got.cif
#   From: 2010.03.12/outbox.cif.g09.slc.cpg/sg46_5_cif.got.tgz:9760.got - 2010.04.14 02:56:35.
