data_PCOD8192607
_publ_section_title
;
Structure prediction by ZEFSAII (Michael W. Deem and Ramdas Pophale) SiO2 
 PCOD8192607
Probable space group: I M A 2
;
_chemical_formula_sum "Si O2"
_cell_formula_units_Z 36
_cell_length_a 9.415861
_cell_length_b 19.394431
_cell_length_c 9.311391
_cell_angle_alpha 90.000000
_cell_angle_beta 90.000000
_cell_angle_gamma 90.000000
_cell_volume 1700.402149
_symmetry_space_group_name_H-M "I M A 2"
_symmetry_group_IT_number 46
_symmetry_cell_setting 'orthorhombic'
loop_
_space_group_symop_operation_xyz
x,y,z
-x,-y,z
1/2-x,y,z
1/2+x,-y,z
1/2+x,1/2+y,1/2+z
1/2-x,1/2-y,1/2+z
-x,1/2+y,1/2+z
x,1/2-y,1/2+z
loop_
_atom_site_type_symbol
_atom_site_label
_atom_site_fract_x
_atom_site_fract_y
_atom_site_fract_z
Si Si1 0.092724 0.892189 0.963610
Si Si2 0.916164 0.212684 0.738353
Si Si3 0.584849 0.126189 0.271451
Si Si4 0.000000 0.500000 0.251261
Si Si5 0.912129 0.617147 0.043950
O O1 0.250000 0.867596 0.005049
O O2 0.023454 0.827770 0.878734
O O3 0.024365 0.905902 0.120735
O O4 0.101814 0.958272 0.859624
O O5 0.750000 0.195357 0.711635
O O6 0.942804 0.292402 0.761307
O O7 0.003501 0.183756 0.602655
O O8 0.750000 0.108809 0.303275
O O9 0.489177 0.093776 0.397033
O O10 0.088059 0.447205 0.153635
O O11 0.750000 0.637987 0.013251
#
# Coordination Sequence:
#
# PCOD8192607 Si02
#       5
#     8   8   8   4   8
#     4   9  18  34  57  80 104 141 187 231 274 332
#     4   9  18  36  61  86 113 146 184 228 284 349
#     4  10  20  36  60  88 114 144 187 237 288 344
#     4  10  22  40  54  74 112 156 196 234 286 344
#     4  11  23  37  57  85 118 154 190 237 290 339
#
# _framework density 21.171462999999999
#
# number of rings (size 3 to 8) (size 9 to 14) (size 15 to 20)
#    0.000    2.222    0.000    2.667    0.000    8.000 
#    0.000    7.778    0.000    0.000    0.000    0.000 
#    0.000    0.000    0.000    0.000    0.000    0.000 
#
# Total GULP energy -223074.891687 kJ/mol
# GULP energy per Si atom -12393.049538 kJ/mol
# Density = 2.112328 g / cm^3
# Si number density = 21.171463 Si / 1000 Ang^3
#
#
#
# Elastic Constant Matrix: (Units=GPa)
#
#
# Indices 1 2 3 4 5 6 
#
# 1 94.7111 15.6058 53.4517 0.0000 0.0001 0.0000
# 2 15.6058 74.3608 37.4399 0.0000 0.0000 0.0000
# 3 53.4517 37.4399 179.4409 -0.0001 -0.0003 0.0000
# 4 0.0000 0.0000 -0.0001 19.4660 0.0000 0.0000
# 5 0.0001 0.0000 -0.0003 0.0000 24.2557 0.0000
# 6 0.0000 0.0000 0.0000 0.0000 0.0000 17.9595
#
#
#
# Elastic Compliance Matrix: (Units=1/GPa)
#
#
# Indices 1 2 3 4 5 6 
#
# 1 0.012740 -0.000853 -0.003617 0.000000 0.000000 0.000000
# 2 -0.000853 0.015084 -0.002893 0.000000 0.000000 0.000000
# 3 -0.003617 -0.002893 0.007254 0.000000 0.000000 0.000000
# 4 0.000000 0.000000 0.000000 0.051372 0.000000 0.000000
# 5 0.000000 0.000000 0.000000 0.000000 0.041227 0.000000
# 6 0.000000 0.000000 0.000000 0.000000 0.000000 0.055681
#
#
# Mechanical properties :
#
#
# Convention : Reuss Voigt Hill
#
# Bulk Modulus (GPa) = 49.13514 62.38973 55.76244
# Shear Modulus (GPa) = 24.40599 28.47060 26.43830
#
# Velocity S-wave (km/s) = 3.39894 3.67108 3.53763
# Velocity P-wave (km/s) = 6.21790 6.89216 6.56369
#
# Compressibility (1/GPa) = 0.02035203
#
# Stress axis : x y z
#
# Youngs Moduli (GPa) = 78.49103 66.29736 137.85487
#
# Poissons Ratio (x) = 0.05652 0.49865
# Poissons Ratio (y) = 0.06692 0.39884
# Poissons Ratio (z) = 0.28392 0.19181
#
# Static dielectric constant tensor:
#      x y z
#    x 3.419710 0.000000 0.000000 
#    y 0.000000 3.634700 0.000000 
#    z 0.000000 0.000000 4.265070 
# 
# 
# High freq. dielectric constant tensor:
#      x y z
#    x 1.789610 0.000000 0.000000 
#    y 0.000000 1.819920 0.000000 
#    z 0.000000 0.000000 1.853270 
# 
# From -- ./inp_files/3383.got.cif
#   From: 2010.03.12/outbox.cif.g09.slc.cpg/sg46_2_cif.got.tgz:3383.got - 2010.04.14 02:56:35.
