data_PCOD8192072
_publ_section_title
;
Structure prediction by ZEFSAII (Michael W. Deem and Ramdas Pophale) SiO2 
 PCOD8192072
Probable space group: I M A 2
;
_chemical_formula_sum "Si O2"
_cell_formula_units_Z 48
_cell_length_a 8.704233
_cell_length_b 30.993451
_cell_length_c 9.044713
_cell_angle_alpha 90.000000
_cell_angle_beta 90.000000
_cell_angle_gamma 90.000000
_cell_volume 2440.030385
_symmetry_space_group_name_H-M "I M A 2"
_symmetry_group_IT_number 46
_symmetry_cell_setting 'orthorhombic'
loop_
_space_group_symop_operation_xyz
x,y,z
-x,-y,z
1/2-x,y,z
1/2+x,-y,z
1/2+x,1/2+y,1/2+z
1/2-x,1/2-y,1/2+z
-x,1/2+y,1/2+z
x,1/2-y,1/2+z
loop_
_atom_site_type_symbol
_atom_site_label
_atom_site_fract_x
_atom_site_fract_y
_atom_site_fract_z
Si Si1 0.929684 0.711359 0.672970
Si Si2 0.070070 0.869573 0.679035
Si Si3 0.430728 0.712727 0.990430
Si Si4 0.576338 0.956747 0.016915
Si Si5 0.930864 0.368308 0.516602
Si Si6 0.420980 0.042814 0.665055
O O1 0.750000 0.720550 0.647718
O O2 0.968072 0.714891 0.844671
O O3 0.033702 0.745470 0.586765
O O4 0.973039 0.664036 0.617131
O O5 0.250000 0.875799 0.677810
O O6 0.016892 0.829420 0.580824
O O7 0.001258 0.913325 0.610392
O O8 0.015776 0.861219 0.847128
O O9 0.250000 0.711699 0.952357
O O10 0.750000 0.952368 0.076432
O O11 0.474997 0.916274 0.070134
O O12 0.500000 0.000000 0.083186
O O13 0.574804 0.959179 0.840954
O O14 0.750000 0.360684 0.538253
O O15 0.250000 0.043544 0.602355
O O16 0.500000 0.000000 0.598516
#
# Coordination Sequence:
#
# PCOD8192072 Si02
#       6
#     8   8   8   8   8   8
#     4  12  25  40  59  85 114 144 182 231 280 331
#     4   9  19  34  55  81 109 142 184 228 271 321
#     4  11  23  41  62  83 110 147 186 226 276 337
#     4   9  16  27  45  74 109 145 184 228 274 322
#     4  10  19  34  56  82 112 148 187 229 277 331
#     4   9  16  26  45  73 108 144 180 222 268 316
#
# _framework density 19.671886000000001
#
# number of rings (size 3 to 8) (size 9 to 14) (size 15 to 20)
#    0.000    2.000    0.000    4.500    0.000    7.333 
#    0.000    0.000    0.000    1.000    0.000    2.333 
#    0.000    0.000    0.000    0.000    0.000    0.000 
#
# Total GULP energy -297656.076297 kJ/mol
# GULP energy per Si atom -12402.336512 kJ/mol
# Density = 1.962711 g / cm^3
# Si number density = 19.671886 Si / 1000 Ang^3
#
#
#
# Elastic Constant Matrix: (Units=GPa)
#
#
# Indices 1 2 3 4 5 6 
#
# 1 63.2623 26.4187 17.3973 0.0012 -0.0010 -0.0007
# 2 26.4187 141.9004 37.4068 0.0032 -0.0006 -0.0006
# 3 17.3973 37.4068 59.9864 0.0095 0.0001 -0.0005
# 4 0.0012 0.0032 0.0095 22.0020 0.0002 -0.0002
# 5 -0.0010 -0.0006 0.0001 0.0002 22.5036 0.0019
# 6 -0.0007 -0.0006 -0.0005 -0.0002 0.0019 39.0201
#
#
#
# Elastic Compliance Matrix: (Units=1/GPa)
#
#
# Indices 1 2 3 4 5 6 
#
# 1 0.017802 -0.002338 -0.003705 0.000001 0.000001 0.000000
# 2 -0.002338 0.008741 -0.004773 0.000001 0.000000 0.000000
# 3 -0.003705 -0.004773 0.020721 -0.000008 0.000000 0.000000
# 4 0.000001 0.000001 -0.000008 0.045451 0.000000 0.000000
# 5 0.000001 0.000000 0.000000 0.000000 0.044437 -0.000002
# 6 0.000000 0.000000 0.000000 0.000000 -0.000002 0.025628
#
#
# Mechanical properties :
#
#
# Convention : Reuss Voigt Hill
#
# Bulk Modulus (GPa) = 39.01208 47.51050 43.26129
# Shear Modulus (GPa) = 25.91278 28.96689 27.43983
#
# Velocity S-wave (km/s) = 3.63333 3.84148 3.73886
# Velocity P-wave (km/s) = 6.12176 6.62419 6.37792
#
# Compressibility (1/GPa) = 0.02563308
#
# Stress axis : x y z
#
# Youngs Moduli (GPa) = 56.17229 114.40988 48.25989
#
# Poissons Ratio (x) = 0.26745 0.17882
# Poissons Ratio (y) = 0.13131 0.23032
# Poissons Ratio (z) = 0.20814 0.54602
#
# Static dielectric constant tensor:
#      x y z
#    x 3.620350 0.000000 0.000000 
#    y 0.000000 3.853150 0.000000 
#    z 0.000000 0.000000 3.256200 
# 
# 
# High freq. dielectric constant tensor:
#      x y z
#    x 1.775140 0.000000 0.000000 
#    y 0.000000 1.786990 0.000000 
#    z 0.000000 0.000000 1.722220 
# 
# From -- ./inp_files/3935.got.cif
#   From: 2010.03.12/outbox.cif.g09.slc.cpg/sg46_2_cif.got.tgz:3935.got - 2010.04.14 02:56:35.
