data_PCOD8192009
_publ_section_title
;
Structure prediction by ZEFSAII (Michael W. Deem and Ramdas Pophale) SiO2 
 PCOD8192009
Probable space group: I M A 2
;
_chemical_formula_sum "Si O2"
_cell_formula_units_Z 48
_cell_length_a 8.954346
_cell_length_b 22.863523
_cell_length_c 11.822688
_cell_angle_alpha 90.000000
_cell_angle_beta 90.000000
_cell_angle_gamma 90.000000
_cell_volume 2420.434036
_symmetry_space_group_name_H-M "I M A 2"
_symmetry_group_IT_number 46
_symmetry_cell_setting 'orthorhombic'
loop_
_space_group_symop_operation_xyz
x,y,z
-x,-y,z
1/2-x,y,z
1/2+x,-y,z
1/2+x,1/2+y,1/2+z
1/2-x,1/2-y,1/2+z
-x,1/2+y,1/2+z
x,1/2-y,1/2+z
loop_
_atom_site_type_symbol
_atom_site_label
_atom_site_fract_x
_atom_site_fract_y
_atom_site_fract_z
Si Si1 0.583912 0.161187 0.500000
Si Si2 0.424012 0.846662 0.246021
Si Si3 0.916899 0.054842 0.661478
Si Si4 0.427170 0.124144 0.849463
Si Si5 0.074135 0.564033 0.556894
Si Si6 0.425458 0.271916 0.188750
O O1 0.750000 0.189330 0.495666
O O2 0.521808 0.147803 0.375185
O O3 0.591227 0.099865 0.560955
O O4 0.474115 0.203839 0.566780
O O5 0.250000 0.832425 0.237657
O O6 0.459865 0.906791 0.179098
O O7 0.510231 0.792405 0.193722
O O8 0.750000 0.040882 0.706326
O O9 0.020791 0.073609 0.765345
O O10 0.000000 0.000000 0.606760
O O11 0.250000 0.122092 0.866391
O O12 0.478937 0.186428 0.793584
O O13 0.507610 0.110951 0.967856
O O14 0.250000 0.556690 0.535028
O O15 0.000000 0.500000 0.549267
O O16 0.250000 0.268674 0.189543
#
# Coordination Sequence:
#
# PCOD8192009 Si02
#       6
#     8   8   8   8   8   8
#     4   9  20  39  59  82 113 151 194 237 286 353
#     4  10  23  41  61  85 116 157 199 240 293 358
#     4  10  19  33  56  84 114 149 190 237 289 343
#     4  10  21  38  59  86 119 154 194 244 295 349
#     4  11  24  41  61  87 120 161 204 247 296 355
#     4  10  22  38  60  90 120 150 192 247 303 352
#
# _framework density 19.831154999999999
#
# number of rings (size 3 to 8) (size 9 to 14) (size 15 to 20)
#    0.000    2.000    0.000    2.500    2.333    5.333 
#    0.000    0.000    0.000    0.000    0.000    0.000 
#    0.000    0.000    0.000    0.000    0.000    0.000 
#
# Total GULP energy -297540.912093 kJ/mol
# GULP energy per Si atom -12397.538004 kJ/mol
# Density = 1.978602 g / cm^3
# Si number density = 19.831155 Si / 1000 Ang^3
#
#
#
# Elastic Constant Matrix: (Units=GPa)
#
#
# Indices 1 2 3 4 5 6 
#
# 1 76.4561 43.7157 36.3732 -0.0001 -0.0005 0.0000
# 2 43.7157 82.7112 32.2229 0.0001 -0.0011 0.0000
# 3 36.3732 32.2229 125.2598 0.0002 -0.0008 0.0000
# 4 -0.0001 0.0001 0.0002 9.7090 -0.0002 0.0000
# 5 -0.0005 -0.0011 -0.0008 -0.0002 -138.3679 -0.0007
# 6 0.0000 0.0000 0.0000 0.0000 -0.0007 30.6172
#
#
#
# Elastic Compliance Matrix: (Units=1/GPa)
#
#
# Indices 1 2 3 4 5 6 
#
# 1 0.019987 -0.009228 -0.003430 0.000000 0.000000 0.000000
# 2 -0.009228 0.017697 -0.001873 0.000000 0.000000 0.000000
# 3 -0.003430 -0.001873 0.009461 0.000000 0.000000 0.000000
# 4 0.000000 0.000000 0.000000 0.102997 0.000000 0.000000
# 5 0.000000 0.000000 0.000000 0.000000 -0.007227 0.000000
# 6 0.000000 0.000000 0.000000 0.000000 0.000000 0.032661
#
#
# Mechanical properties :
#
#
# Convention : Reuss Voigt Hill
#
# Bulk Modulus (GPa) = 55.29724 56.56119 55.92922
# Shear Modulus (GPa) = 23.73414 -8.13398 7.80008
#
# Velocity S-wave (km/s) = 3.46325 -2.02744 1.98539
# Velocity P-wave (km/s) = 6.62847 4.80652 5.78961
#
# Compressibility (1/GPa) = 0.01808408
#
# Stress axis : x y z
#
# Youngs Moduli (GPa) = 50.03140 56.50649 105.69378
#
# Poissons Ratio (x) = 0.52142 0.36255
# Poissons Ratio (y) = 0.46167 0.19796
# Poissons Ratio (z) = 0.17162 0.10584
#
# Static dielectric constant tensor:
#      x y z
#    x 3.973620 0.000000 0.000000 
#    y 0.000000 3.584380 0.000000 
#    z 0.000000 0.000000 3.759650 
# 
# 
# High freq. dielectric constant tensor:
#      x y z
#    x 1.779090 0.000000 0.000000 
#    y 0.000000 1.772650 0.000000 
#    z 0.000000 0.000000 1.774540 
# 
# From -- ./inp_files/9303.got.cif
#   From: 2010.03.12/outbox.cif.g09.slc.cpg/sg46_5_cif.got.tgz:9303.got - 2010.04.14 02:56:35.
