data_PCOD8192353
_publ_section_title
;
Structure prediction by ZEFSAII (Michael W. Deem and Ramdas Pophale) SiO2 
 PCOD8192353
Probable space group: I M A 2
;
_chemical_formula_sum "Si O2"
_cell_formula_units_Z 56
_cell_length_a 20.699948
_cell_length_b 11.245764
_cell_length_c 13.852523
_cell_angle_alpha 90.000000
_cell_angle_beta 90.000000
_cell_angle_gamma 90.000000
_cell_volume 3224.683532
_symmetry_space_group_name_H-M "I M A 2"
_symmetry_group_IT_number 46
_symmetry_cell_setting 'orthorhombic'
loop_
_space_group_symop_operation_xyz
x,y,z
-x,-y,z
1/2-x,y,z
1/2+x,-y,z
1/2+x,1/2+y,1/2+z
1/2-x,1/2-y,1/2+z
-x,1/2+y,1/2+z
x,1/2-y,1/2+z
loop_
_atom_site_type_symbol
_atom_site_label
_atom_site_fract_x
_atom_site_fract_y
_atom_site_fract_z
Si Si1 0.454861 0.331191 0.831070
Si Si2 0.177729 0.583088 0.417411
Si Si3 0.063845 0.080441 0.924678
Si Si4 0.522558 0.873053 0.124793
Si Si5 0.605941 0.252816 0.058732
Si Si6 0.178396 0.772558 0.251443
Si Si7 0.593197 0.420064 0.883101
O O1 0.437562 0.206730 0.875437
O O2 0.441814 0.314466 0.716238
O O3 0.530198 0.353722 0.845016
O O4 0.413860 0.436839 0.882197
O O5 0.250000 0.537099 0.443568
O O6 0.129750 0.477706 0.387150
O O7 0.146984 0.649609 0.508625
O O8 0.181647 0.666585 0.326080
O O9 0.072522 0.100477 0.039178
O O10 0.000000 0.000000 0.902446
O O11 0.466837 0.791441 0.077306
O O12 0.500000 0.000000 0.167020
O O13 0.638004 0.277978 0.161560
O O14 0.607144 0.371979 0.991963
O O15 0.250000 0.809036 0.216882
O O16 0.148073 0.886809 0.305323
#
# Coordination Sequence:
#
# PCOD8192353 Si02
#       7
#     8   8   8   8   8   8   8
#     4  11  20  36  53  80 115 144 170 231 278 320
#     4  10  21  36  56  81 109 142 184 230 269 316
#     4  11  21  37  56  81 108 147 189 227 268 327
#     4  11  18  31  57  80 111 140 180 222 268 320
#     4  11  18  33  54  83 109 141 178 225 271 326
#     4  10  20  35  56  81 109 144 181 223 275 326
#     4  10  20  33  54  80 113 140 178 224 276 326
#
# _framework density 17.366045
#
# number of rings (size 3 to 8) (size 9 to 14) (size 15 to 20)
#    0.000    1.429    7.143    1.286    0.000    0.571 
#    2.571    0.714    0.000    0.857    0.000    0.000 
#    0.000    0.000    0.000    0.000    0.000    0.000 
#
# Total GULP energy -347081.753437 kJ/mol
# GULP energy per Si atom -12395.776908 kJ/mol
# Density = 1.732652 g / cm^3
# Si number density = 17.366045 Si / 1000 Ang^3
#
#
#
# Elastic Constant Matrix: (Units=GPa)
#
#
# Indices 1 2 3 4 5 6 
#
# 1 82.3633 44.3024 13.5590 0.0000 0.0000 0.0000
# 2 44.3024 115.6029 36.3248 0.0000 0.0000 0.0000
# 3 13.5590 36.3248 80.9885 0.0000 0.0000 0.0000
# 4 0.0000 0.0000 0.0000 15.8601 0.0000 0.0000
# 5 0.0000 0.0000 0.0000 0.0000 18.9128 0.0000
# 6 0.0000 0.0000 0.0000 0.0000 0.0000 20.4909
#
#
#
# Elastic Compliance Matrix: (Units=1/GPa)
#
#
# Indices 1 2 3 4 5 6 
#
# 1 0.015294 -0.005886 0.000080 0.000000 0.000000 0.000000
# 2 -0.005886 0.012335 -0.004547 0.000000 0.000000 0.000000
# 3 0.000080 -0.004547 0.014373 0.000000 0.000000 0.000000
# 4 0.000000 0.000000 0.000000 0.063051 0.000000 0.000000
# 5 0.000000 0.000000 0.000000 0.000000 0.052874 0.000000
# 6 0.000000 0.000000 0.000000 0.000000 0.000000 0.048802
#
#
# Mechanical properties :
#
#
# Convention : Reuss Voigt Hill
#
# Bulk Modulus (GPa) = 46.95850 51.92525 49.44187
# Shear Modulus (GPa) = 21.31868 23.37067 22.34468
#
# Velocity S-wave (km/s) = 3.50752 3.67245 3.59093
# Velocity P-wave (km/s) = 6.59566 6.92444 6.76205
#
# Compressibility (1/GPa) = 0.02129540
#
# Stress axis : x y z
#
# Youngs Moduli (GPa) = 65.38347 81.07138 69.57256
#
# Poissons Ratio (x) = 0.47721 -0.00553
# Poissons Ratio (y) = 0.38486 0.31634
# Poissons Ratio (z) = -0.00520 0.36862
#
# Static dielectric constant tensor:
#      x y z
#    x 3.409410 0.000000 0.000000 
#    y 0.000000 3.154800 0.000000 
#    z 0.000000 0.000000 3.386330 
# 
# 
# High freq. dielectric constant tensor:
#      x y z
#    x 1.652740 0.000000 0.000000 
#    y 0.000000 1.653020 0.000000 
#    z 0.000000 0.000000 1.684260 
# 
# From -- ./inp_files/12395.got.cif
#   From: 2010.03.12/outbox.cif.g09.slc.cpg/sg46_7_cif.got.tgz:12395.got - 2010.04.14 02:56:35.
