data_PCOD8192092
_publ_section_title
;
Structure prediction by ZEFSAII (Michael W. Deem and Ramdas Pophale) SiO2 
 PCOD8192092
Probable space group: I M A 2
;
_chemical_formula_sum "Si O2"
_cell_formula_units_Z 64
_cell_length_a 8.720425
_cell_length_b 19.688651
_cell_length_c 20.551053
_cell_angle_alpha 90.000000
_cell_angle_beta 90.000000
_cell_angle_gamma 90.000000
_cell_volume 3528.480254
_symmetry_space_group_name_H-M "I M A 2"
_symmetry_group_IT_number 46
_symmetry_cell_setting 'orthorhombic'
loop_
_space_group_symop_operation_xyz
x,y,z
-x,-y,z
1/2-x,y,z
1/2+x,-y,z
1/2+x,1/2+y,1/2+z
1/2-x,1/2-y,1/2+z
-x,1/2+y,1/2+z
x,1/2-y,1/2+z
loop_
_atom_site_type_symbol
_atom_site_label
_atom_site_fract_x
_atom_site_fract_y
_atom_site_fract_z
Si Si1 0.431730 0.792706 0.187820
Si Si2 0.569143 0.791327 0.806491
Si Si3 0.569390 0.070304 0.771880
Si Si4 0.930447 0.207767 0.567057
Si Si5 0.926937 0.929557 0.226873
Si Si6 0.570276 0.430995 0.121385
Si Si7 0.570004 0.292169 0.921167
Si Si8 0.071854 0.071005 0.379798
O O1 0.250000 0.790606 0.193796
O O2 0.497486 0.749049 0.246700
O O3 0.492250 0.761885 0.119574
O O4 0.488246 0.869705 0.189072
O O5 0.750000 0.791817 0.797801
O O6 0.505423 0.867569 0.810926
O O7 0.527505 0.754390 0.873451
O O8 0.750000 0.070849 0.783447
O O9 0.524423 0.078838 0.696572
O O10 0.500000 0.000000 0.799284
O O11 0.750000 0.201144 0.576181
O O12 0.999536 0.132989 0.582221
O O13 0.971624 0.231653 0.494391
O O14 0.750000 0.929343 0.207604
O O15 0.951205 0.918506 0.303213
O O16 0.000000 0.000000 0.203474
O O17 0.500000 0.500000 0.092516
O O18 0.750000 0.436960 0.113057
O O19 0.750000 0.284807 0.905955
O O20 0.522339 0.370534 0.915584
O O21 0.250000 0.073761 0.399101
O O22 0.000000 0.000000 0.402780
#
# Coordination Sequence:
#
# PCOD8192092 Si02
#       8
#     8   8   8   8   8   8   8   8
#     4  11  20  36  60  83 110 145 184 231 281 326
#     4  12  23  36  55  83 114 146 188 231 273 327
#     4  10  19  34  57  84 113 144 181 227 281 329
#     4   9  20  37  55  79 110 146 187 228 274 332
#     4  10  20  34  54  83 114 143 181 226 276 330
#     4   9  17  32  51  76 109 144 181 221 263 320
#     4  11  22  37  57  79 110 150 188 229 280 327
#     4  10  20  34  52  77 112 148 187 227 269 326
#
# _framework density 18.138121000000002
#
# number of rings (size 3 to 8) (size 9 to 14) (size 15 to 20)
#    0.000    1.750    2.500    3.000    0.000    2.000 
#    0.000    5.000    0.000    0.750    0.000    3.500 
#    0.000    0.000    0.000    0.000    0.000    0.000 
#
# Total GULP energy -396873.729201 kJ/mol
# GULP energy per Si atom -12402.304038 kJ/mol
# Density = 1.809684 g / cm^3
# Si number density = 18.138121 Si / 1000 Ang^3
#
#
#
# Elastic Constant Matrix: (Units=GPa)
#
#
# Indices 1 2 3 4 5 6 
#
# 1 82.6674 46.0519 35.6150 0.0000 0.0000 0.0000
# 2 46.0519 141.2739 56.2056 0.0000 0.0000 0.0000
# 3 35.6150 56.2056 87.5388 0.0000 0.0000 0.0000
# 4 0.0000 0.0000 0.0000 24.5478 0.0000 0.0000
# 5 0.0000 0.0000 0.0000 0.0000 7.7794 0.0000
# 6 0.0000 0.0000 0.0000 0.0000 0.0000 36.4327
#
#
#
# Elastic Compliance Matrix: (Units=1/GPa)
#
#
# Indices 1 2 3 4 5 6 
#
# 1 0.015856 -0.003495 -0.004207 0.000000 0.000000 0.000000
# 2 -0.003495 0.010277 -0.005177 0.000000 0.000000 0.000000
# 3 -0.004207 -0.005177 0.016459 0.000000 0.000000 0.000000
# 4 0.000000 0.000000 0.000000 0.040737 0.000000 0.000000
# 5 0.000000 0.000000 0.000000 0.000000 0.128545 0.000000
# 6 0.000000 0.000000 0.000000 0.000000 0.000000 0.027448
#
#
# Mechanical properties :
#
#
# Convention : Reuss Voigt Hill
#
# Bulk Modulus (GPa) = 59.40069 65.24723 62.32396
# Shear Modulus (GPa) = 18.47121 25.32581 21.89851
#
# Velocity S-wave (km/s) = 3.19464 3.74073 3.47842
# Velocity P-wave (km/s) = 6.81380 7.39648 7.11111
#
# Compressibility (1/GPa) = 0.01683482
#
# Stress axis : x y z
#
# Youngs Moduli (GPa) = 63.06718 97.30195 60.75718
#
# Poissons Ratio (x) = 0.34006 0.25561
# Poissons Ratio (y) = 0.22042 0.31453
# Poissons Ratio (z) = 0.26533 0.50371
#
# Static dielectric constant tensor:
#      x y z
#    x 3.332350 0.000000 0.000000 
#    y 0.000000 3.580610 0.000000 
#    z 0.000000 0.000000 3.247290 
# 
# 
# High freq. dielectric constant tensor:
#      x y z
#    x 1.705230 0.000000 0.000000 
#    y 0.000000 1.712200 0.000000 
#    z 0.000000 0.000000 1.675650 
# 
# From -- ./inp_files/21327.got.cif
#   From: 2010.03.12/outbox.cif.g09.slc.cpg/sg46_11_cif.got.tgz:21327.got - 2010.04.14 02:56:35.
