data_PCOD8192704
_publ_section_title
;
Structure prediction by ZEFSAII (Michael W. Deem and Ramdas Pophale) SiO2 
 PCOD8192704
Probable space group: I M A 2
;
_chemical_formula_sum "Si O2"
_cell_formula_units_Z 32
_cell_length_a 11.357993
_cell_length_b 11.823315
_cell_length_c 9.917678
_cell_angle_alpha 90.000000
_cell_angle_beta 90.000000
_cell_angle_gamma 90.000000
_cell_volume 1331.836340
_symmetry_space_group_name_H-M "I M A 2"
_symmetry_group_IT_number 46
_symmetry_cell_setting 'orthorhombic'
loop_
_space_group_symop_operation_xyz
x,y,z
-x,-y,z
1/2-x,y,z
1/2+x,-y,z
1/2+x,1/2+y,1/2+z
1/2-x,1/2-y,1/2+z
-x,1/2+y,1/2+z
x,1/2-y,1/2+z
loop_
_atom_site_type_symbol
_atom_site_label
_atom_site_fract_x
_atom_site_fract_y
_atom_site_fract_z
Si Si1 0.250000 0.709237 0.486190
Si Si2 0.984517 0.242260 0.361466
Si Si3 0.878142 0.800205 0.112382
Si Si4 0.000000 0.500000 0.976915
Si Si5 0.750000 0.037958 0.511288
Si Si6 0.750000 0.007060 0.192485
O O1 0.137031 0.692500 0.389656
O O2 0.250000 0.831677 0.557986
O O3 0.250000 0.622791 0.609702
O O4 0.970671 0.108579 0.386268
O O5 0.024612 0.261408 0.206851
O O6 0.084230 0.293129 0.457872
O O7 0.750000 0.740037 0.127579
O O8 0.865479 0.932341 0.154528
O O9 0.124611 0.479726 0.060736
O O10 0.750000 0.033080 0.349066
#
# Coordination Sequence:
#
# PCOD8192704 Si02
#       6
#     4   8   8   4   4   4
#     4  10  26  36  62 102 142 164 237 297 364 401
#     4  11  23  41  66 102 135 185 228 301 344 443
#     4  10  23  41  73  95 132 178 247 281 349 418
#     4  10  20  38  62  94 126 178 226 276 346 422
#     4  10  20  37  66  89 131 169 236 273 350 422
#     4  10  22  41  70  97 127 189 233 292 348 439
#
# _framework density 24.026976000000001
#
# number of rings (size 3 to 8) (size 9 to 14) (size 15 to 20)
#    0.750    1.000    2.500    0.750    8.750    1.000 
#    0.000    2.500    0.000    0.000    0.000    0.000 
#    0.000    0.000    0.000    0.000    0.000    0.000 
#
# Total GULP energy -198229.055353 kJ/mol
# GULP energy per Si atom -12389.315960 kJ/mol
# Density = 2.397229 g / cm^3
# Si number density = 24.026976 Si / 1000 Ang^3
#
#
#
# Elastic Constant Matrix: (Units=GPa)
#
#
# Indices 1 2 3 4 5 6 
#
# 1 196.5321 16.1034 17.0239 0.0000 0.0000 0.0000
# 2 16.1034 40.3134 24.9045 0.0000 0.0000 0.0000
# 3 17.0239 24.9045 64.9474 0.0000 0.0000 0.0000
# 4 0.0000 0.0000 0.0000 28.3744 0.0000 0.0000
# 5 0.0000 0.0000 0.0000 0.0000 19.2112 0.0000
# 6 0.0000 0.0000 0.0000 0.0000 0.0000 35.0419
#
#
#
# Elastic Compliance Matrix: (Units=1/GPa)
#
#
# Indices 1 2 3 4 5 6 
#
# 1 0.005289 -0.001646 -0.000755 0.000000 0.000000 0.000000
# 2 -0.001646 0.033018 -0.012230 0.000000 0.000000 0.000000
# 3 -0.000755 -0.012230 0.020285 0.000000 0.000000 0.000000
# 4 0.000000 0.000000 0.000000 0.035243 0.000000 0.000000
# 5 0.000000 0.000000 0.000000 0.000000 0.052053 0.000000
# 6 0.000000 0.000000 0.000000 0.000000 0.000000 0.028537
#
#
# Mechanical properties :
#
#
# Convention : Reuss Voigt Hill
#
# Bulk Modulus (GPa) = 34.09490 46.42848 40.26169
# Shear Modulus (GPa) = 23.42330 32.77626 28.09978
#
# Velocity S-wave (km/s) = 3.12569 3.69744 3.42352
# Velocity P-wave (km/s) = 5.21992 6.13135 5.69391
#
# Compressibility (1/GPa) = 0.02932990
#
# Stress axis : x y z
#
# Youngs Moduli (GPa) = 189.08943 30.28619 49.29867
#
# Poissons Ratio (x) = 0.04985 0.03722
# Poissons Ratio (y) = 0.31126 0.60290
# Poissons Ratio (z) = 0.14276 0.37039
#
# Static dielectric constant tensor:
#      x y z
#    x 5.264230 0.000000 0.000000 
#    y 0.000000 4.074680 0.000000 
#    z 0.000000 0.000000 3.669700 
# 
# 
# High freq. dielectric constant tensor:
#      x y z
#    x 1.986760 0.000000 0.000000 
#    y 0.000000 1.931380 0.000000 
#    z 0.000000 0.000000 1.909220 
# 
# From -- ./inp_files/9997.got.cif
#   From: 2010.03.12/outbox.cif.g09.slc.cpg/sg46_5_cif.got.tgz:9997.got - 2010.04.14 02:56:35.
