data_PCOD8192345
_publ_section_title
;
Structure prediction by ZEFSAII (Michael W. Deem and Ramdas Pophale) SiO2 
 PCOD8192345
Probable space group: I M A 2
;
_chemical_formula_sum "Si O2"
_cell_formula_units_Z 40
_cell_length_a 9.060457
_cell_length_b 23.424587
_cell_length_c 10.268745
_cell_angle_alpha 90.000000
_cell_angle_beta 90.000000
_cell_angle_gamma 90.000000
_cell_volume 2179.412390
_symmetry_space_group_name_H-M "I M A 2"
_symmetry_group_IT_number 46
_symmetry_cell_setting 'orthorhombic'
loop_
_space_group_symop_operation_xyz
x,y,z
-x,-y,z
1/2-x,y,z
1/2+x,-y,z
1/2+x,1/2+y,1/2+z
1/2-x,1/2-y,1/2+z
-x,1/2+y,1/2+z
x,1/2-y,1/2+z
loop_
_atom_site_type_symbol
_atom_site_label
_atom_site_fract_x
_atom_site_fract_y
_atom_site_fract_z
Si Si1 0.075925 0.940424 0.562660
Si Si2 0.424401 0.356248 0.556119
Si Si3 0.076108 0.855859 0.792991
Si Si4 0.916522 0.233101 0.203614
Si Si5 0.083224 0.884672 0.298304
O O1 0.250000 0.948978 0.556990
O O2 0.031007 0.897287 0.676235
O O3 0.016913 0.914804 0.425998
O O4 0.000000 0.000000 0.592162
O O5 0.250000 0.357606 0.551089
O O6 0.490048 0.377690 0.419760
O O7 0.483102 0.291575 0.585169
O O8 0.483049 0.398810 0.670970
O O9 0.250000 0.856343 0.821800
O O10 0.019644 0.792337 0.757043
O O11 0.750000 0.242481 0.150081
O O12 0.916975 0.184619 0.317965
O O13 0.250000 0.906069 0.271856
#
# Coordination Sequence:
#
# PCOD8192345 Si02
#       5
#     8   8   8   8   8
#     4  10  22  39  59  84 112 149 195 236 280 333
#     4  10  20  33  52  84 118 144 176 225 288 340
#     4  10  20  35  58  83 112 151 192 231 275 338
#     4   8  17  32  56  82 110 144 184 229 277 331
#     4   8  17  35  58  81 107 143 190 232 272 335
#
# _framework density 18.353570999999999
#
# number of rings (size 3 to 8) (size 9 to 14) (size 15 to 20)
#    1.200    1.600    0.000    1.200    2.800    2.400 
#    0.000    1.000    0.000    0.000    0.000    0.000 
#    0.000    0.000    0.000    0.000    0.000    0.000 
#
# Total GULP energy -247827.364885 kJ/mol
# GULP energy per Si atom -12391.368244 kJ/mol
# Density = 1.831180 g / cm^3
# Si number density = 18.353571 Si / 1000 Ang^3
#
#
#
# Elastic Constant Matrix: (Units=GPa)
#
#
# Indices 1 2 3 4 5 6 
#
# 1 76.6313 19.6054 55.6666 0.0004 0.0010 -0.0001
# 2 19.6054 55.9353 25.3866 0.0023 0.0020 -0.0010
# 3 55.6666 25.3866 131.7646 0.0047 0.0079 -0.0021
# 4 0.0004 0.0023 0.0047 21.5194 0.0008 -0.0006
# 5 0.0010 0.0020 0.0079 0.0008 15.4711 0.0001
# 6 -0.0001 -0.0010 -0.0021 -0.0006 0.0001 21.1383
#
#
#
# Elastic Compliance Matrix: (Units=1/GPa)
#
#
# Indices 1 2 3 4 5 6 
#
# 1 0.019392 -0.003374 -0.007542 0.000002 0.000003 -0.000001
# 2 -0.003374 0.020178 -0.002462 -0.000002 -0.000001 0.000001
# 3 -0.007542 -0.002462 0.011250 -0.000002 -0.000005 0.000001
# 4 0.000002 -0.000002 -0.000002 0.046470 -0.000002 0.000001
# 5 0.000003 -0.000001 -0.000005 -0.000002 0.064637 0.000000
# 6 -0.000001 0.000001 0.000001 0.000001 0.000000 0.047307
#
#
# Mechanical properties :
#
#
# Convention : Reuss Voigt Hill
#
# Bulk Modulus (GPa) = 41.55784 51.73870 46.64827
# Shear Modulus (GPa) = 20.49090 22.53727 21.51409
#
# Velocity S-wave (km/s) = 3.34496 3.50801 3.42746
# Velocity P-wave (km/s) = 6.13273 6.68277 6.41365
#
# Compressibility (1/GPa) = 0.02406285
#
# Stress axis : x y z
#
# Youngs Moduli (GPa) = 51.56894 49.55947 88.88793
#
# Poissons Ratio (x) = 0.16719 0.67042
# Poissons Ratio (y) = 0.17397 0.21887
# Poissons Ratio (z) = 0.38895 0.12203
#
# Static dielectric constant tensor:
#      x y z
#    x 3.112700 0.000000 0.000000 
#    y 0.000000 3.158730 0.000000 
#    z 0.000000 0.000000 3.334450 
# 
# 
# High freq. dielectric constant tensor:
#      x y z
#    x 1.694810 0.000000 0.000000 
#    y 0.000000 1.685260 0.000000 
#    z 0.000000 0.000000 1.710000 
# 
# From -- ./inp_files/3512.got.cif
#   From: 2010.03.12/outbox.cif.g09.slc.cpg/sg46_2_cif.got.tgz:3512.got - 2010.04.14 02:56:35.
