data_PCOD8192409
_publ_section_title
;
Structure prediction by ZEFSAII (Michael W. Deem and Ramdas Pophale) SiO2 
 PCOD8192409
Probable space group: I M A 2
;
_chemical_formula_sum "Si O2"
_cell_formula_units_Z 64
_cell_length_a 17.515747
_cell_length_b 19.980701
_cell_length_c 9.730255
_cell_angle_alpha 90.000000
_cell_angle_beta 90.000000
_cell_angle_gamma 90.000000
_cell_volume 3405.364516
_symmetry_space_group_name_H-M "I M A 2"
_symmetry_group_IT_number 46
_symmetry_cell_setting 'orthorhombic'
loop_
_space_group_symop_operation_xyz
x,y,z
-x,-y,z
1/2-x,y,z
1/2+x,-y,z
1/2+x,1/2+y,1/2+z
1/2-x,1/2-y,1/2+z
-x,1/2+y,1/2+z
x,1/2-y,1/2+z
loop_
_atom_site_type_symbol
_atom_site_label
_atom_site_fract_x
_atom_site_fract_y
_atom_site_fract_z
Si Si1 0.113174 0.484311 0.948020
Si Si2 0.482088 0.891157 0.481734
Si Si3 0.020808 0.354595 0.281007
Si Si4 0.336834 0.706504 0.646429
Si Si5 0.571394 0.245999 0.386899
Si Si6 0.577363 0.461473 0.402980
Si Si7 0.664413 0.939973 0.734817
Si Si8 0.165691 0.948857 0.172481
O O1 0.050835 0.428842 0.901473
O O2 0.157497 0.507944 0.812045
O O3 0.077845 0.550550 0.018229
O O4 0.162305 0.449356 0.069123
O O5 0.510293 0.855949 0.618982
O O6 0.445876 0.833135 0.390966
O O7 0.105352 0.385856 0.303047
O O8 0.010044 0.279661 0.340544
O O9 0.947145 0.387315 0.358661
O O10 0.250000 0.725207 0.605550
O O11 0.394351 0.721264 0.522765
O O12 0.363926 0.754280 0.770141
O O13 0.342356 0.630032 0.697712
O O14 0.500000 0.500000 0.373053
O O15 0.644546 0.489109 0.305326
O O16 0.602559 0.469457 0.560906
O O17 0.750000 0.917273 0.774096
O O18 0.250000 0.964709 0.114278
#
# Coordination Sequence:
#
# PCOD8192409 Si02
#       8
#     8   8   8   8   8   8   8   8
#     4  10  20  36  58  83 111 142 192 240 285 340
#     4  10  20  35  58  83 108 146 195 239 277 340
#     4  10  20  37  57  84 113 149 197 232 278 353
#     4  11  24  36  53  82 120 156 191 230 284 347
#     4  12  21  39  58  79 117 159 195 235 284 342
#     4  10  20  34  55  81 112 148 183 228 280 342
#     4  10  20  37  61  85 111 146 190 242 295 339
#     4  11  22  35  51  83 119 146 179 230 287 337
#
# _framework density 18.793876000000001
#
# number of rings (size 3 to 8) (size 9 to 14) (size 15 to 20)
#    0.000    1.500    5.000    1.125    1.750    0.000 
#    0.000    1.250    0.000    3.750    0.000    0.000 
#    0.000    0.000    0.000    0.000    0.000    0.000 
#
# Total GULP energy -396451.735451 kJ/mol
# GULP energy per Si atom -12389.116733 kJ/mol
# Density = 1.875110 g / cm^3
# Si number density = 18.793876 Si / 1000 Ang^3
#
#
#
# Elastic Constant Matrix: (Units=GPa)
#
#
# Indices 1 2 3 4 5 6 
#
# 1 112.4989 41.6219 32.6828 0.0000 0.0000 0.0000
# 2 41.6219 75.6331 20.9361 0.0000 0.0000 0.0000
# 3 32.6828 20.9361 88.8100 0.0000 0.0000 0.0000
# 4 0.0000 0.0000 0.0000 24.3075 0.0000 0.0000
# 5 0.0000 0.0000 0.0000 0.0000 27.0160 0.0000
# 6 0.0000 0.0000 0.0000 0.0000 0.0000 19.7604
#
#
#
# Elastic Compliance Matrix: (Units=1/GPa)
#
#
# Indices 1 2 3 4 5 6 
#
# 1 0.011877 -0.005698 -0.003027 0.000000 0.000000 0.000000
# 2 -0.005698 0.016878 -0.001882 0.000000 0.000000 0.000000
# 3 -0.003027 -0.001882 0.012818 0.000000 0.000000 0.000000
# 4 0.000000 0.000000 0.000000 0.041140 0.000000 0.000000
# 5 0.000000 0.000000 0.000000 0.000000 0.037015 0.000000
# 6 0.000000 0.000000 0.000000 0.000000 0.000000 0.050606
#
#
# Mechanical properties :
#
#
# Convention : Reuss Voigt Hill
#
# Bulk Modulus (GPa) = 49.12073 51.93595 50.52834
# Shear Modulus (GPa) = 25.20998 26.33019 25.77008
#
# Velocity S-wave (km/s) = 3.66648 3.74705 3.70698
# Velocity P-wave (km/s) = 6.64209 6.81286 6.72802
#
# Compressibility (1/GPa) = 0.02035800
#
# Stress axis : x y z
#
# Youngs Moduli (GPa) = 84.19952 59.24775 78.01645
#
# Poissons Ratio (x) = 0.33758 0.23619
# Poissons Ratio (y) = 0.47975 0.14683
# Poissons Ratio (z) = 0.25491 0.11151
#
# Static dielectric constant tensor:
#      x y z
#    x 3.440030 0.000000 0.000000 
#    y 0.000000 3.511670 0.000000 
#    z 0.000000 0.000000 3.332850 
# 
# 
# High freq. dielectric constant tensor:
#      x y z
#    x 1.718330 0.000000 0.000000 
#    y 0.000000 1.716110 0.000000 
#    z 0.000000 0.000000 1.731130 
# 
# From -- ./inp_files/6952.got.cif
#   From: 2010.03.12/outbox.cif.g09.slc.cpg/sg46_4_cif.got.tgz:6952.got - 2010.04.14 02:56:35.
