data_PCOD8192846
_publ_section_title
;
Structure prediction by ZEFSAII (Michael W. Deem and Ramdas Pophale) SiO2 
 PCOD8192846
Probable space group: I M A 2
;
_chemical_formula_sum "Si O2"
_cell_formula_units_Z 32
_cell_length_a 40.231586
_cell_length_b 7.880855
_cell_length_c 5.034280
_cell_angle_alpha 90.000000
_cell_angle_beta 90.000000
_cell_angle_gamma 90.000000
_cell_volume 1596.165271
_symmetry_space_group_name_H-M "I M A 2"
_symmetry_group_IT_number 46
_symmetry_cell_setting 'orthorhombic'
loop_
_space_group_symop_operation_xyz
x,y,z
-x,-y,z
1/2-x,y,z
1/2+x,-y,z
1/2+x,1/2+y,1/2+z
1/2-x,1/2-y,1/2+z
-x,1/2+y,1/2+z
x,1/2-y,1/2+z
loop_
_atom_site_type_symbol
_atom_site_label
_atom_site_fract_x
_atom_site_fract_y
_atom_site_fract_z
Si Si1 0.339699 0.356567 0.603920
Si Si2 0.084635 0.363893 0.555629
Si Si3 0.029270 0.866747 0.117648
Si Si4 0.287288 0.858974 0.098413
O O1 0.333685 0.199179 0.406335
O O2 0.377163 0.424164 0.567724
O O3 0.313904 0.500156 0.525168
O O4 0.063982 0.535473 0.588359
O O5 0.000000 0.500000 0.572749
O O6 0.075962 0.224490 0.777555
O O7 0.026678 0.785276 0.407833
O O8 0.250000 0.933418 0.062636
O O9 0.292753 0.797171 0.398289
#
# Coordination Sequence:
#
# PCOD8192846 Si02
#       4
#     8   8   8   8
#     4  10  21  36  57  82 109 143 181 225 273 321
#     4  10  21  39  58  81 113 144 179 225 273 321
#     4  12  24  39  60  85 112 146 184 223 270 321
#     4  10  21  36  54  78 110 145 181 225 273 321
#
# _framework density 20.048048000000001
#
# number of rings (size 3 to 8) (size 9 to 14) (size 15 to 20)
#    0.000    1.500    0.000    5.250    0.000    3.000 
#    0.000    0.000    0.000    0.000    0.000    0.000 
#    0.000    0.000    0.000    0.000    0.000    0.000 
#
# Total GULP energy -198493.741996 kJ/mol
# GULP energy per Si atom -12405.858875 kJ/mol
# Density = 2.000242 g / cm^3
# Si number density = 20.048048 Si / 1000 Ang^3
#
#
#
# Elastic Constant Matrix: (Units=GPa)
#
#
# Indices 1 2 3 4 5 6 
#
# 1 125.3710 69.3145 23.5087 0.0006 0.0009 0.0006
# 2 69.3145 80.5872 6.8369 0.0011 0.0012 0.0009
# 3 23.5087 6.8369 78.1456 -0.0015 -0.0010 0.0001
# 4 0.0006 0.0011 -0.0015 27.4640 -0.0007 0.0002
# 5 0.0009 0.0012 -0.0010 -0.0007 25.2321 0.0001
# 6 0.0006 0.0009 0.0001 0.0002 0.0001 46.7716
#
#
#
# Elastic Compliance Matrix: (Units=1/GPa)
#
#
# Indices 1 2 3 4 5 6 
#
# 1 0.016195 -0.013618 -0.003681 0.000000 0.000000 0.000000
# 2 -0.013618 0.023952 0.002001 -0.000001 -0.000001 0.000000
# 3 -0.003681 0.002001 0.013729 0.000001 0.000001 0.000000
# 4 0.000000 -0.000001 0.000001 0.036411 0.000001 0.000000
# 5 0.000000 -0.000001 0.000001 0.000001 0.039632 0.000000
# 6 0.000000 0.000000 0.000000 0.000000 0.000000 0.021381
#
#
# Mechanical properties :
#
#
# Convention : Reuss Voigt Hill
#
# Bulk Modulus (GPa) = 42.95236 53.71377 48.33307
# Shear Modulus (GPa) = 26.36367 32.18978 29.27673
#
# Velocity S-wave (km/s) = 3.63026 4.01138 3.82557
# Velocity P-wave (km/s) = 6.24844 6.95022 6.60865
#
# Compressibility (1/GPa) = 0.02328161
#
# Stress axis : x y z
#
# Youngs Moduli (GPa) = 61.74611 41.75034 72.83945
#
# Poissons Ratio (x) = 0.56854 0.26810
# Poissons Ratio (y) = 0.84084 -0.14576
# Poissons Ratio (z) = 0.22727 -0.08355
#
# Static dielectric constant tensor:
#      x y z
#    x 3.819660 0.000000 0.000000 
#    y 0.000000 3.323680 0.000000 
#    z 0.000000 0.000000 3.784960 
# 
# 
# High freq. dielectric constant tensor:
#      x y z
#    x 1.794930 0.000000 0.000000 
#    y 0.000000 1.765390 0.000000 
#    z 0.000000 0.000000 1.803420 
# 
# From -- ./inp_files/2669.got.cif
#   From: 2010.03.12/outbox.cif.g09.slc.cpg/sg46_2_cif.got.tgz:2669.got - 2010.04.14 02:56:35.
