data_PCOD8192592
_publ_section_title
;
Structure prediction by ZEFSAII (Michael W. Deem and Ramdas Pophale) SiO2 
 PCOD8192592
Probable space group: I M A 2
;
_chemical_formula_sum "Si O2"
_cell_formula_units_Z 64
_cell_length_a 13.932172
_cell_length_b 25.597954
_cell_length_c 8.314977
_cell_angle_alpha 90.000000
_cell_angle_beta 90.000000
_cell_angle_gamma 90.000000
_cell_volume 2965.412637
_symmetry_space_group_name_H-M "I M A 2"
_symmetry_group_IT_number 46
_symmetry_cell_setting 'orthorhombic'
loop_
_space_group_symop_operation_xyz
x,y,z
-x,-y,z
1/2-x,y,z
1/2+x,-y,z
1/2+x,1/2+y,1/2+z
1/2-x,1/2-y,1/2+z
-x,1/2+y,1/2+z
x,1/2-y,1/2+z
loop_
_atom_site_type_symbol
_atom_site_label
_atom_site_fract_x
_atom_site_fract_y
_atom_site_fract_z
Si Si1 0.638512 0.981339 0.870720
Si Si2 0.637656 0.417739 0.180745
Si Si3 0.529869 0.553081 0.689575
Si Si4 0.646722 0.873395 0.724070
Si Si5 0.357503 0.356596 0.847894
Si Si6 0.638918 0.108575 0.322499
Si Si7 0.965328 0.207508 0.390090
Si Si8 0.965693 0.183042 0.756594
O O1 0.750000 0.989238 0.924180
O O2 0.628815 0.934814 0.743163
O O3 0.596484 0.033033 0.781034
O O4 0.571698 0.966429 0.020198
O O5 0.750000 0.422715 0.175979
O O6 0.610603 0.363809 0.270648
O O7 0.602496 0.415602 0.994246
O O8 0.500000 0.500000 0.785599
O O9 0.610941 0.587789 0.774357
O O10 0.428763 0.585300 0.681086
O O11 0.750000 0.857221 0.796864
O O12 0.642478 0.862923 0.536927
O O13 0.567734 0.839635 0.818776
O O14 0.250000 0.342430 0.785035
O O15 0.434410 0.310970 0.803719
O O16 0.750000 0.096540 0.284249
O O17 0.622001 0.171006 0.329208
O O18 0.978084 0.203500 0.578260
O O19 0.936297 0.267429 0.361927
#
# Coordination Sequence:
#
# PCOD8192592 Si02
#       8
#     8   8   8   8   8   8   8   8
#     4  10  22  40  60  88 125 159 195 246 304 361
#     4   9  20  39  64  89 117 164 213 249 291 352
#     4  11  24  36  55  93 124 159 189 239 308 351
#     4   9  20  37  61  87 114 160 205 243 294 357
#     4   9  19  39  61  86 119 155 204 247 291 365
#     4   9  20  41  64  88 120 160 210 248 288 360
#     4   9  20  37  57  88 114 156 198 249 309 348
#     4  10  20  36  59  84 121 149 201 256 297 361
#
# _framework density 21.582156000000001
#
# number of rings (size 3 to 8) (size 9 to 14) (size 15 to 20)
#    0.000    2.500    0.000    1.125    3.500    4.000 
#    0.000    0.000    0.000    0.000    0.000    0.000 
#    0.000    0.000    0.000    0.000    0.000    0.000 
#
# Total GULP energy -396502.776532 kJ/mol
# GULP energy per Si atom -12390.711767 kJ/mol
# Density = 2.153303 g / cm^3
# Si number density = 21.582156 Si / 1000 Ang^3
#
#
#
# Elastic Constant Matrix: (Units=GPa)
#
#
# Indices 1 2 3 4 5 6 
#
# 1 78.3756 18.9536 24.8383 -0.0051 0.0000 0.0002
# 2 18.9536 126.6633 33.5482 -0.0052 -0.0018 0.0004
# 3 24.8383 33.5482 30.9595 -0.0024 -0.0053 0.0028
# 4 -0.0051 -0.0052 -0.0024 36.4490 -0.0019 0.0010
# 5 0.0000 -0.0018 -0.0053 -0.0019 21.6524 -0.0006
# 6 0.0002 0.0004 0.0028 0.0010 -0.0006 28.2870
#
#
#
# Elastic Compliance Matrix: (Units=1/GPa)
#
#
# Indices 1 2 3 4 5 6 
#
# 1 0.017317 0.001527 -0.015548 0.000002 -0.000004 0.000001
# 2 0.001527 0.011208 -0.013369 0.000001 -0.000002 0.000001
# 3 -0.015548 -0.013369 0.059261 0.000000 0.000013 -0.000006
# 4 0.000002 0.000001 0.000000 0.027436 0.000002 -0.000001
# 5 -0.000004 -0.000002 0.000013 0.000002 0.046184 0.000001
# 6 0.000001 0.000001 -0.000006 -0.000001 0.000001 0.035352
#
#
# Mechanical properties :
#
#
# Convention : Reuss Voigt Hill
#
# Bulk Modulus (GPa) = 30.29833 43.40873 36.85353
# Shear Modulus (GPa) = 19.04471 27.85490 23.44981
#
# Velocity S-wave (km/s) = 2.97379 3.59645 3.29984
# Velocity P-wave (km/s) = 5.08531 6.11579 5.62420
#
# Compressibility (1/GPa) = 0.03300512
#
# Stress axis : x y z
#
# Youngs Moduli (GPa) = 57.74633 89.22547 16.87445
#
# Poissons Ratio (x) = -0.13622 0.26236
# Poissons Ratio (y) = -0.08816 0.22560
# Poissons Ratio (z) = 0.89781 1.19290
#
# Static dielectric constant tensor:
#      x y z
#    x 4.307660 0.000000 0.000000 
#    y 0.000000 4.218880 -0.000010 
#    z 0.000000 -0.000010 3.654320 
# 
# 
# High freq. dielectric constant tensor:
#      x y z
#    x 1.857780 0.000000 0.000000 
#    y 0.000000 1.848740 0.000000 
#    z 0.000000 0.000000 1.819680 
# 
# From -- ./inp_files/6121.got.cif
#   From: 2010.03.12/outbox.cif.g09.slc.cpg/sg46_4_cif.got.tgz:6121.got - 2010.04.14 02:56:35.
