data_PCOD8192875
_publ_section_title
;
Structure prediction by ZEFSAII (Michael W. Deem and Ramdas Pophale) SiO2 
 PCOD8192875
Probable space group: I M A 2
;
_chemical_formula_sum "Si O2"
_cell_formula_units_Z 48
_cell_length_a 15.651892
_cell_length_b 11.733400
_cell_length_c 12.009651
_cell_angle_alpha 90.000000
_cell_angle_beta 90.000000
_cell_angle_gamma 90.000000
_cell_volume 2205.571320
_symmetry_space_group_name_H-M "I M A 2"
_symmetry_group_IT_number 46
_symmetry_cell_setting 'orthorhombic'
loop_
_space_group_symop_operation_xyz
x,y,z
-x,-y,z
1/2-x,y,z
1/2+x,-y,z
1/2+x,1/2+y,1/2+z
1/2-x,1/2-y,1/2+z
-x,1/2+y,1/2+z
x,1/2-y,1/2+z
loop_
_atom_site_type_symbol
_atom_site_label
_atom_site_fract_x
_atom_site_fract_y
_atom_site_fract_z
Si Si1 0.653418 0.405658 0.256950
Si Si2 0.098320 0.031015 0.191317
Si Si3 0.648913 0.804900 0.381888
Si Si4 0.346810 0.669307 0.828961
Si Si5 0.409536 0.438280 0.437215
Si Si6 0.851733 0.482743 0.023031
O O1 0.750000 0.376873 0.222426
O O2 0.606570 0.287270 0.292935
O O3 0.655102 0.494612 0.357568
O O4 0.609757 0.459465 0.145966
O O5 0.125070 0.141522 0.262282
O O6 0.152334 0.921173 0.228482
O O7 0.121824 0.055436 0.063847
O O8 0.000000 0.000000 0.208596
O O9 0.750000 0.776067 0.385259
O O10 0.591442 0.692939 0.399274
O O11 0.621459 0.892370 0.479786
O O12 0.250000 0.700598 0.859168
O O13 0.390281 0.613019 0.938579
O O14 0.500000 0.500000 0.419884
O O15 0.750000 0.477115 0.018542
#
# Coordination Sequence:
#
# PCOD8192875 Si02
#       6
#     8   8   8   8   8   8
#     4  10  21  36  61  92 121 157 203 258 315 376
#     4  10  23  42  63  90 125 168 210 260 323 382
#     4  10  22  42  69  94 124 170 221 270 320 386
#     4   9  19  36  60  88 121 160 203 256 314 382
#     4  11  26  42  59  92 129 164 209 265 321 381
#     4   8  17  36  58  90 122 155 209 260 309 372
#
# _framework density 21.763068000000001
#
# number of rings (size 3 to 8) (size 9 to 14) (size 15 to 20)
#    0.000    2.333    0.000    2.000    7.000    2.667 
#    0.000    3.333    0.000    0.000    0.000    0.000 
#    0.000    0.000    0.000    0.000    0.000    0.000 
#
# Total GULP energy -297498.801562 kJ/mol
# GULP energy per Si atom -12395.783398 kJ/mol
# Density = 2.171353 g / cm^3
# Si number density = 21.763068 Si / 1000 Ang^3
#
#
#
# Elastic Constant Matrix: (Units=GPa)
#
#
# Indices 1 2 3 4 5 6 
#
# 1 37.0167 19.8518 20.3075 0.0000 0.0000 0.0000
# 2 19.8518 204.3895 104.1128 0.0000 0.0000 0.0000
# 3 20.3075 104.1128 179.3955 0.0000 0.0000 0.0000
# 4 0.0000 0.0000 0.0000 26.4421 0.0000 0.0000
# 5 0.0000 0.0000 0.0000 0.0000 19.0886 0.0000
# 6 0.0000 0.0000 0.0000 0.0000 0.0000 25.6908
#
#
#
# Elastic Compliance Matrix: (Units=1/GPa)
#
#
# Indices 1 2 3 4 5 6 
#
# 1 0.029184 -0.001635 -0.002355 0.000000 0.000000 0.000000
# 2 -0.001635 0.007038 -0.003899 0.000000 0.000000 0.000000
# 3 -0.002355 -0.003899 0.008104 0.000000 0.000000 0.000000
# 4 0.000000 0.000000 0.000000 0.037818 0.000000 0.000000
# 5 0.000000 0.000000 0.000000 0.000000 0.052387 0.000000
# 6 0.000000 0.000000 0.000000 0.000000 0.000000 0.038924
#
#
# Mechanical properties :
#
#
# Convention : Reuss Voigt Hill
#
# Bulk Modulus (GPa) = 35.02996 78.81621 56.92308
# Shear Modulus (GPa) = 25.15741 32.67961 28.91851
#
# Velocity S-wave (km/s) = 3.40364 3.87926 3.64921
# Velocity P-wave (km/s) = 5.61937 7.50727 6.63086
#
# Compressibility (1/GPa) = 0.02854699
#
# Stress axis : x y z
#
# Youngs Moduli (GPa) = 34.26593 142.09317 123.39966
#
# Poissons Ratio (x) = 0.23234 0.29056
# Poissons Ratio (y) = 0.05603 0.48116
# Poissons Ratio (z) = 0.08068 0.55405
#
# Static dielectric constant tensor:
#      x y z
#    x 3.513380 0.000000 0.000000 
#    y 0.000000 4.029590 0.000000 
#    z 0.000000 0.000000 4.158860 
# 
# 
# High freq. dielectric constant tensor:
#      x y z
#    x 1.823250 0.000000 0.000000 
#    y 0.000000 1.864010 0.000000 
#    z 0.000000 0.000000 1.861110 
# 
# From -- ./inp_files/11775.got.cif
#   From: 2010.03.12/outbox.cif.g09.slc.cpg/sg46_6_cif.got.tgz:11775.got - 2010.04.14 02:56:35.
