data_PCOD8192407
_publ_section_title
;
Structure prediction by ZEFSAII (Michael W. Deem and Ramdas Pophale) SiO2 
 PCOD8192407
Probable space group: I M A 2
;
_chemical_formula_sum "Si O2"
_cell_formula_units_Z 64
_cell_length_a 9.297105
_cell_length_b 18.979211
_cell_length_c 17.888132
_cell_angle_alpha 90.000000
_cell_angle_beta 90.000000
_cell_angle_gamma 90.000000
_cell_volume 3156.391614
_symmetry_space_group_name_H-M "I M A 2"
_symmetry_group_IT_number 46
_symmetry_cell_setting 'orthorhombic'
loop_
_space_group_symop_operation_xyz
x,y,z
-x,-y,z
1/2-x,y,z
1/2+x,-y,z
1/2+x,1/2+y,1/2+z
1/2-x,1/2-y,1/2+z
-x,1/2+y,1/2+z
x,1/2-y,1/2+z
loop_
_atom_site_type_symbol
_atom_site_label
_atom_site_fract_x
_atom_site_fract_y
_atom_site_fract_z
Si Si1 0.580981 0.931030 0.458980
Si Si2 0.417443 0.791799 0.886711
Si Si3 0.592443 0.062119 0.838412
Si Si4 0.579944 0.141916 0.330010
Si Si5 0.083916 0.806732 0.060558
Si Si6 0.415709 0.926910 0.173174
Si Si7 0.907744 0.061872 0.666246
Si Si8 0.916674 0.827158 0.594002
O O1 0.750000 0.945999 0.448138
O O2 0.507947 0.913083 0.379996
O O3 0.553865 0.865995 0.515238
O O4 0.500000 0.000000 0.490615
O O5 0.250000 0.788398 0.869452
O O6 0.483101 0.861404 0.847075
O O7 0.481494 0.720073 0.851056
O O8 0.451362 0.804114 0.973330
O O9 0.750000 0.062961 0.877769
O O10 0.612873 0.043894 0.752307
O O11 0.500000 0.000000 0.877041
O O12 0.750000 0.135882 0.347807
O O13 0.545520 0.122729 0.244103
O O14 0.250000 0.785650 0.076129
O O15 0.050225 0.882626 0.097654
O O16 0.975758 0.751409 0.096801
O O17 0.250000 0.948206 0.176642
O O18 0.500000 0.000000 0.172829
O O19 0.750000 0.065792 0.627618
O O20 0.994114 0.134059 0.658441
O O21 0.000000 0.000000 0.626852
O O22 0.750000 0.827405 0.615120
#
# Coordination Sequence:
#
# PCOD8192407 Si02
#       8
#     8   8   8   8   8   8   8   8
#     4  11  23  37  56  83 116 151 191 234 289 351
#     4   9  18  35  60  86 113 150 195 241 290 346
#     4   9  19  35  56  83 114 148 189 235 284 340
#     4  10  20  37  61  87 116 151 194 243 293 350
#     4  10  21  39  62  85 112 153 199 238 286 347
#     4  10  23  40  62  90 120 155 201 247 297 356
#     4  10  20  34  55  80 113 151 188 230 276 335
#     4  11  23  37  54  82 117 151 190 238 289 345
#
# _framework density 20.276318
#
# number of rings (size 3 to 8) (size 9 to 14) (size 15 to 20)
#    0.000    2.000    1.250    1.875    1.750    5.500 
#    0.000    1.250    0.000    0.000    0.000    0.000 
#    0.000    0.000    0.000    0.000    0.000    0.000 
#
# Total GULP energy -396679.905206 kJ/mol
# GULP energy per Si atom -12396.247038 kJ/mol
# Density = 2.023017 g / cm^3
# Si number density = 20.276318 Si / 1000 Ang^3
#
#
#
# Elastic Constant Matrix: (Units=GPa)
#
#
# Indices 1 2 3 4 5 6 
#
# 1 105.0766 65.0468 28.3492 0.0000 0.0000 0.0000
# 2 65.0468 156.5131 46.3716 0.0000 0.0000 0.0000
# 3 28.3492 46.3716 59.8807 0.0000 0.0000 0.0000
# 4 0.0000 0.0000 0.0000 30.6327 0.0000 0.0000
# 5 0.0000 0.0000 0.0000 0.0000 15.9732 0.0000
# 6 0.0000 0.0000 0.0000 0.0000 0.0000 38.4834
#
#
#
# Elastic Compliance Matrix: (Units=1/GPa)
#
#
# Indices 1 2 3 4 5 6 
#
# 1 0.013113 -0.004686 -0.002580 0.000000 0.000000 0.000000
# 2 -0.004686 0.009966 -0.005499 0.000000 0.000000 0.000000
# 3 -0.002580 -0.005499 0.022180 0.000000 0.000000 0.000000
# 4 0.000000 0.000000 0.000000 0.032645 0.000000 0.000000
# 5 0.000000 0.000000 0.000000 0.000000 0.062605 0.000000
# 6 0.000000 0.000000 0.000000 0.000000 0.000000 0.025985
#
#
# Mechanical properties :
#
#
# Convention : Reuss Voigt Hill
#
# Bulk Modulus (GPa) = 50.68446 66.77840 58.73143
# Shear Modulus (GPa) = 25.17622 29.13137 27.15379
#
# Velocity S-wave (km/s) = 3.52754 3.79452 3.66346
# Velocity P-wave (km/s) = 6.45310 7.22520 6.85004
#
# Compressibility (1/GPa) = 0.01972991
#
# Stress axis : x y z
#
# Youngs Moduli (GPa) = 76.25743 100.34201 45.08600
#
# Poissons Ratio (x) = 0.47017 0.11631
# Poissons Ratio (y) = 0.35731 0.24794
# Poissons Ratio (z) = 0.19672 0.55181
#
# Static dielectric constant tensor:
#      x y z
#    x 3.732770 0.000000 0.000000 
#    y 0.000000 3.899210 0.000000 
#    z 0.000000 0.000000 3.525430 
# 
# 
# High freq. dielectric constant tensor:
#      x y z
#    x 1.777130 0.000000 0.000000 
#    y 0.000000 1.800150 0.000000 
#    z 0.000000 0.000000 1.780500 
# 
# From -- ./inp_files/21283.got.cif
#   From: 2010.03.12/outbox.cif.g09.slc.cpg/sg46_11_cif.got.tgz:21283.got - 2010.04.14 02:56:35.
