data_PCOD8192520
_publ_section_title
;
Structure prediction by ZEFSAII (Michael W. Deem and Ramdas Pophale) SiO2 
 PCOD8192520
Probable space group: I M A 2
;
_chemical_formula_sum "Si O2"
_cell_formula_units_Z 48
_cell_length_a 8.631247
_cell_length_b 9.497426
_cell_length_c 30.829242
_cell_angle_alpha 90.000000
_cell_angle_beta 90.000000
_cell_angle_gamma 90.000000
_cell_volume 2527.215696
_symmetry_space_group_name_H-M "I M A 2"
_symmetry_group_IT_number 46
_symmetry_cell_setting 'orthorhombic'
loop_
_space_group_symop_operation_xyz
x,y,z
-x,-y,z
1/2-x,y,z
1/2+x,-y,z
1/2+x,1/2+y,1/2+z
1/2-x,1/2-y,1/2+z
-x,1/2+y,1/2+z
x,1/2-y,1/2+z
loop_
_atom_site_type_symbol
_atom_site_label
_atom_site_fract_x
_atom_site_fract_y
_atom_site_fract_z
Si Si1 0.933465 0.349225 0.140550
Si Si2 0.566682 0.848679 0.732683
Si Si3 0.932177 0.154518 0.061752
Si Si4 0.570733 0.847706 0.392381
Si Si5 0.429558 0.154960 0.488345
Si Si6 0.932903 0.343290 0.806605
O O1 0.750000 0.361483 0.145082
O O2 0.985832 0.236992 0.104729
O O3 0.000000 0.500000 0.126433
O O4 0.003879 0.298979 0.186130
O O5 0.750000 0.857861 0.731024
O O6 0.513361 0.737030 0.767726
O O7 0.500000 0.000000 0.745681
O O8 0.750000 0.143335 0.059412
O O9 0.000000 0.000000 0.063490
O O10 0.989089 0.235346 0.019543
O O11 0.750000 0.857442 0.379096
O O12 0.548762 0.778549 0.439862
O O13 0.479381 0.770239 0.352914
O O14 0.500000 0.000000 0.398037
O O15 0.250000 0.142228 0.500300
O O16 0.500000 0.000000 0.493757
O O17 0.750000 0.342216 0.800118
O O18 0.000000 0.500000 0.806926
#
# Coordination Sequence:
#
# PCOD8192520 Si02
#       6
#     8   8   8   8   8   8
#     4  10  21  38  59  83 108 141 184 228 272 325
#     4  11  22  38  59  83 112 146 183 227 274 326
#     4  11  24  39  57  81 113 147 182 226 278 330
#     4   9  17  31  52  80 110 143 183 228 272 319
#     4  10  20  35  58  84 112 145 186 229 271 323
#     4  11  21  35  56  83 114 148 185 228 274 325
#
# _framework density 18.993234000000001
#
# number of rings (size 3 to 8) (size 9 to 14) (size 15 to 20)
#    0.000    1.667    0.000    7.500    0.000    6.667 
#    0.000    2.500    0.000    4.000    0.000    0.000 
#    0.000    0.000    0.000    0.000    0.000    0.000 
#
# Total GULP energy -297561.445805 kJ/mol
# GULP energy per Si atom -12398.393575 kJ/mol
# Density = 1.895000 g / cm^3
# Si number density = 18.993234 Si / 1000 Ang^3
#
#
#
# Elastic Constant Matrix: (Units=GPa)
#
#
# Indices 1 2 3 4 5 6 
#
# 1 81.0580 27.1718 49.1306 0.0000 0.0000 0.0000
# 2 27.1718 91.3650 74.8995 0.0000 0.0000 0.0000
# 3 49.1306 74.8995 148.0659 0.0000 0.0000 0.0000
# 4 0.0000 0.0000 0.0000 37.0273 0.0000 0.0000
# 5 0.0000 0.0000 0.0000 0.0000 40.8270 0.0000
# 6 0.0000 0.0000 0.0000 0.0000 0.0000 32.1814
#
#
#
# Elastic Compliance Matrix: (Units=1/GPa)
#
#
# Indices 1 2 3 4 5 6 
#
# 1 0.015467 -0.000671 -0.004793 0.000000 0.000000 0.000000
# 2 -0.000671 0.018729 -0.009251 0.000000 0.000000 0.000000
# 3 -0.004793 -0.009251 0.013024 0.000000 0.000000 0.000000
# 4 0.000000 0.000000 0.000000 0.027007 0.000000 0.000000
# 5 0.000000 0.000000 0.000000 0.000000 0.024494 0.000000
# 6 0.000000 0.000000 0.000000 0.000000 0.000000 0.031074
#
#
# Mechanical properties :
#
#
# Convention : Reuss Voigt Hill
#
# Bulk Modulus (GPa) = 56.21297 69.21029 62.71163
# Shear Modulus (GPa) = 30.27485 33.29296 31.78391
#
# Velocity S-wave (km/s) = 3.99680 4.19129 4.09520
# Velocity P-wave (km/s) = 7.13861 7.74216 7.44650
#
# Compressibility (1/GPa) = 0.01778949
#
# Stress axis : x y z
#
# Youngs Moduli (GPa) = 64.65507 53.39389 76.78168
#
# Poissons Ratio (x) = 0.03581 0.36800
# Poissons Ratio (y) = 0.04336 0.71034
# Poissons Ratio (z) = 0.30988 0.49397
#
# Static dielectric constant tensor:
#      x y z
#    x 3.701490 0.000000 0.000000 
#    y 0.000000 3.239440 0.000000 
#    z 0.000000 0.000000 4.092650 
# 
# 
# High freq. dielectric constant tensor:
#      x y z
#    x 1.761120 0.000000 0.000000 
#    y 0.000000 1.708240 0.000000 
#    z 0.000000 0.000000 1.762300 
# 
# From -- ./inp_files/25009.got.cif
#   From: 2010.03.12/outbox.cif.g09.slc.cpg/sg46_13_cif.got.tgz:25009.got - 2010.04.14 02:56:35.
