data_PCOD8192292
_publ_section_title
;
Structure prediction by ZEFSAII (Michael W. Deem and Ramdas Pophale) SiO2 
 PCOD8192292
Probable space group: I M A 2
;
_chemical_formula_sum "Si O2"
_cell_formula_units_Z 64
_cell_length_a 21.476415
_cell_length_b 17.306151
_cell_length_c 9.320072
_cell_angle_alpha 90.000000
_cell_angle_beta 90.000000
_cell_angle_gamma 90.000000
_cell_volume 3464.029195
_symmetry_space_group_name_H-M "I M A 2"
_symmetry_group_IT_number 46
_symmetry_cell_setting 'orthorhombic'
loop_
_space_group_symop_operation_xyz
x,y,z
-x,-y,z
1/2-x,y,z
1/2+x,-y,z
1/2+x,1/2+y,1/2+z
1/2-x,1/2-y,1/2+z
-x,1/2+y,1/2+z
x,1/2-y,1/2+z
loop_
_atom_site_type_symbol
_atom_site_label
_atom_site_fract_x
_atom_site_fract_y
_atom_site_fract_z
Si Si1 0.394378 0.655883 0.507250
Si Si2 0.681153 0.428111 0.913444
Si Si3 0.393205 0.791124 0.321814
Si Si4 0.680673 0.484195 0.589004
Si Si5 0.095581 0.292372 0.167556
Si Si6 0.322683 0.354912 0.698808
Si Si7 0.512994 0.769738 0.928174
Si Si8 0.677419 0.590854 0.015639
O O1 0.364771 0.709481 0.380844
O O2 0.373964 0.694452 0.658315
O O3 0.367981 0.568576 0.498702
O O4 0.470066 0.659175 0.489830
O O5 0.750000 0.398155 0.955940
O O6 0.632090 0.358931 0.925962
O O7 0.683291 0.459169 0.752689
O O8 0.661726 0.499399 0.016166
O O9 0.468210 0.788706 0.338737
O O10 0.750000 0.475712 0.521240
O O11 0.659470 0.573933 0.592130
O O12 0.139576 0.218662 0.147390
O O13 0.067759 0.301761 0.326888
O O14 0.039451 0.281954 0.056504
O O15 0.135417 0.369247 0.137047
O O16 0.250000 0.336787 0.684919
O O17 0.340547 0.372457 0.862707
O O18 0.750000 0.604373 0.049793
#
# Coordination Sequence:
#
# PCOD8192292 Si02
#       8
#     8   8   8   8   8   8   8   8
#     4   9  17  32  53  74 107 135 173 215 258 305
#     4   8  15  30  53  79 105 132 170 220 265 310
#     4   9  17  32  53  74 105 135 173 218 258 305
#     4   8  15  30  53  79 105 132 170 221 266 307
#     4  12  19  34  54  74 104 144 173 212 268 313
#     4   9  18  32  53  81 104 130 175 224 267 316
#     4  10  20  32  50  74 103 140 176 213 246 311
#     4   9  18  32  53  81 106 130 174 225 266 313
#
# _framework density 18.475594000000001
#
# number of rings (size 3 to 8) (size 9 to 14) (size 15 to 20)
#    0.750    2.000    2.500    1.875    0.000    0.500 
#    0.000    1.250    2.750    1.500    0.000    0.000 
#    0.000    0.000    0.000    0.000    0.000    0.000 
#
# Total GULP energy -396481.310328 kJ/mol
# GULP energy per Si atom -12390.040948 kJ/mol
# Density = 1.843354 g / cm^3
# Si number density = 18.475594 Si / 1000 Ang^3
#
#
#
# Elastic Constant Matrix: (Units=GPa)
#
#
# Indices 1 2 3 4 5 6 
#
# 1 71.7837 48.4713 18.6458 0.0000 0.0000 0.0000
# 2 48.4713 94.1744 21.7173 0.0000 0.0000 0.0000
# 3 18.6458 21.7173 48.8954 0.0000 0.0000 0.0000
# 4 0.0000 0.0000 0.0000 27.1455 0.0000 0.0000
# 5 0.0000 0.0000 0.0000 0.0000 25.7879 0.0000
# 6 0.0000 0.0000 0.0000 0.0000 0.0000 25.3442
#
#
#
# Elastic Compliance Matrix: (Units=1/GPa)
#
#
# Indices 1 2 3 4 5 6 
#
# 1 0.021947 -0.010435 -0.003735 0.000000 0.000000 0.000000
# 2 -0.010435 0.016792 -0.003479 0.000000 0.000000 0.000000
# 3 -0.003735 -0.003479 0.023421 0.000000 0.000000 0.000000
# 4 0.000000 0.000000 0.000000 0.036839 0.000000 0.000000
# 5 0.000000 0.000000 0.000000 0.000000 0.038778 0.000000
# 6 0.000000 0.000000 0.000000 0.000000 0.000000 0.039457
#
#
# Mechanical properties :
#
#
# Convention : Reuss Voigt Hill
#
# Bulk Modulus (GPa) = 37.22576 43.61359 40.41968
# Shear Modulus (GPa) = 22.57505 24.05679 23.31592
#
# Velocity S-wave (km/s) = 3.49934 3.61236 3.55630
# Velocity P-wave (km/s) = 6.04314 6.40751 6.22799
#
# Compressibility (1/GPa) = 0.02686312
#
# Stress axis : x y z
#
# Youngs Moduli (GPa) = 45.56479 59.55354 42.69645
#
# Poissons Ratio (x) = 0.62143 0.15945
# Poissons Ratio (y) = 0.47546 0.14854
# Poissons Ratio (z) = 0.17016 0.20718
#
# Static dielectric constant tensor:
#      x y z
#    x 3.353220 0.000000 0.000000 
#    y 0.000000 3.418760 0.000000 
#    z 0.000000 0.000000 3.101720 
# 
# 
# High freq. dielectric constant tensor:
#      x y z
#    x 1.708450 0.000000 0.000000 
#    y 0.000000 1.703070 0.000000 
#    z 0.000000 0.000000 1.692570 
# 
# From -- ./inp_files/8027.got.cif
#   From: 2010.03.12/outbox.cif.g09.slc.cpg/sg46_5_cif.got.tgz:8027.got - 2010.04.14 02:56:35.
