data_PCOD8192051
_publ_section_title
;
Structure prediction by ZEFSAII (Michael W. Deem and Ramdas Pophale) SiO2 
 PCOD8192051
Probable space group: I M A 2
;
_chemical_formula_sum "Si O2"
_cell_formula_units_Z 56
_cell_length_a 8.718412
_cell_length_b 14.495937
_cell_length_c 22.372593
_cell_angle_alpha 90.000000
_cell_angle_beta 90.000000
_cell_angle_gamma 90.000000
_cell_volume 2827.483005
_symmetry_space_group_name_H-M "I M A 2"
_symmetry_group_IT_number 46
_symmetry_cell_setting 'orthorhombic'
loop_
_space_group_symop_operation_xyz
x,y,z
-x,-y,z
1/2-x,y,z
1/2+x,-y,z
1/2+x,1/2+y,1/2+z
1/2-x,1/2-y,1/2+z
-x,1/2+y,1/2+z
x,1/2-y,1/2+z
loop_
_atom_site_type_symbol
_atom_site_label
_atom_site_fract_x
_atom_site_fract_y
_atom_site_fract_z
Si Si1 0.428684 0.281457 0.929790
Si Si2 0.568954 0.095334 0.756642
Si Si3 0.930716 0.405314 0.690905
Si Si4 0.432245 0.601726 0.034848
Si Si5 0.932103 0.097621 0.892122
Si Si6 0.931327 0.213813 0.648102
Si Si7 0.571615 0.593695 0.818960
O O1 0.250000 0.278755 0.946112
O O2 0.497953 0.178648 0.932821
O O3 0.457766 0.322610 0.864055
O O4 0.516173 0.346587 0.975575
O O5 0.750000 0.087134 0.755262
O O6 0.513921 0.116994 0.823978
O O7 0.506777 0.172042 0.710638
O O8 0.500000 0.000000 0.733596
O O9 0.750000 0.415783 0.694840
O O10 0.979145 0.321709 0.646789
O O11 0.000000 0.500000 0.665000
O O12 0.991008 0.382133 0.756808
O O13 0.500000 0.500000 0.036966
O O14 0.250000 0.594817 0.035924
O O15 0.498757 0.659676 0.091226
O O16 0.750000 0.096076 0.899206
O O17 0.000000 0.000000 0.914237
O O18 0.750000 0.203972 0.646817
O O19 0.500000 0.500000 0.846312
O O20 0.750000 0.576589 0.807221
#
# Coordination Sequence:
#
# PCOD8192051 Si02
#       7
#     8   8   8   8   8   8   8
#     4  11  23  38  56  80 110 146 189 231 273 324
#     4   9  17  31  52  80 111 142 176 216 267 324
#     4  10  19  34  55  80 110 141 177 220 269 325
#     4  11  23  40  60  82 109 142 182 226 274 325
#     4  10  20  35  57  84 114 147 182 224 274 327
#     4   9  19  35  55  78 107 144 181 219 267 323
#     4  10  20  33  52  80 112 144 180 224 274 328
#
# _framework density 19.805600999999999
#
# number of rings (size 3 to 8) (size 9 to 14) (size 15 to 20)
#    0.000    2.000    0.000    4.714    0.000    5.143 
#    0.000    5.714    0.000    1.714    0.000    0.000 
#    0.000    0.000    0.000    0.000    0.000    0.000 
#
# Total GULP energy -347199.881301 kJ/mol
# GULP energy per Si atom -12399.995761 kJ/mol
# Density = 1.976052 g / cm^3
# Si number density = 19.805601 Si / 1000 Ang^3
#
#
#
# Elastic Constant Matrix: (Units=GPa)
#
#
# Indices 1 2 3 4 5 6 
#
# 1 81.4847 54.8319 29.6060 0.0000 0.0000 0.0000
# 2 54.8319 179.9648 65.7386 0.0000 0.0000 0.0000
# 3 29.6060 65.7386 68.7053 0.0000 0.0000 0.0000
# 4 0.0000 0.0000 0.0000 31.6736 0.0000 0.0000
# 5 0.0000 0.0000 0.0000 0.0000 16.9262 0.0000
# 6 0.0000 0.0000 0.0000 0.0000 0.0000 33.6395
#
#
#
# Elastic Compliance Matrix: (Units=1/GPa)
#
#
# Indices 1 2 3 4 5 6 
#
# 1 0.015942 -0.003609 -0.003416 0.000000 0.000000 0.000000
# 2 -0.003609 0.009359 -0.007400 0.000000 0.000000 0.000000
# 3 -0.003416 -0.007400 0.023107 0.000000 0.000000 0.000000
# 4 0.000000 0.000000 0.000000 0.031572 0.000000 0.000000
# 5 0.000000 0.000000 0.000000 0.000000 0.059080 0.000000
# 6 0.000000 0.000000 0.000000 0.000000 0.000000 0.029727
#
#
# Mechanical properties :
#
#
# Convention : Reuss Voigt Hill
#
# Bulk Modulus (GPa) = 51.12985 70.05644 60.59314
# Shear Modulus (GPa) = 24.49073 28.44639 26.46856
#
# Velocity S-wave (km/s) = 3.52028 3.79394 3.65967
# Velocity P-wave (km/s) = 6.51115 7.39194 6.96548
#
# Compressibility (1/GPa) = 0.01955805
#
# Stress axis : x y z
#
# Youngs Moduli (GPa) = 62.72636 106.84346 43.27611
#
# Poissons Ratio (x) = 0.38565 0.14784
# Poissons Ratio (y) = 0.22641 0.32024
# Poissons Ratio (z) = 0.21428 0.79064
#
# Static dielectric constant tensor:
#      x y z
#    x 3.508760 0.000000 0.000000 
#    y 0.000000 3.762010 0.000000 
#    z 0.000000 0.000000 3.546580 
# 
# 
# High freq. dielectric constant tensor:
#      x y z
#    x 1.767870 0.000000 0.000000 
#    y 0.000000 1.788820 0.000000 
#    z 0.000000 0.000000 1.751590 
# 
# From -- ./inp_files/21074.got.cif
#   From: 2010.03.12/outbox.cif.g09.slc.cpg/sg46_11_cif.got.tgz:21074.got - 2010.04.14 02:56:35.
