data_PCOD8192183
_publ_section_title
;
Structure prediction by ZEFSAII (Michael W. Deem and Ramdas Pophale) SiO2 
 PCOD8192183
Probable space group: I M A 2
;
_chemical_formula_sum "Si O2"
_cell_formula_units_Z 32
_cell_length_a 18.827377
_cell_length_b 9.532931
_cell_length_c 9.484634
_cell_angle_alpha 90.000000
_cell_angle_beta 90.000000
_cell_angle_gamma 90.000000
_cell_volume 1702.302925
_symmetry_space_group_name_H-M "I M A 2"
_symmetry_group_IT_number 46
_symmetry_cell_setting 'orthorhombic'
loop_
_space_group_symop_operation_xyz
x,y,z
-x,-y,z
1/2-x,y,z
1/2+x,-y,z
1/2+x,1/2+y,1/2+z
1/2-x,1/2-y,1/2+z
-x,1/2+y,1/2+z
x,1/2-y,1/2+z
loop_
_atom_site_type_symbol
_atom_site_label
_atom_site_fract_x
_atom_site_fract_y
_atom_site_fract_z
Si Si1 0.439330 0.323385 0.521170
Si Si2 0.832888 0.176235 0.794674
Si Si3 0.574454 0.923325 0.712275
Si Si4 0.898988 0.377158 0.585363
O O1 0.407144 0.179411 0.582358
O O2 0.428807 0.329792 0.353663
O O3 0.522342 0.322919 0.555290
O O4 0.399431 0.454159 0.594746
O O5 0.750000 0.181534 0.765054
O O6 0.869826 0.314833 0.730746
O O7 0.863631 0.037636 0.719601
O O8 0.847889 0.175327 0.960534
O O9 0.500000 0.000000 0.688950
#
# Coordination Sequence:
#
# PCOD8192183 Si02
#       4
#     8   8   8   8
#     4  10  19  36  59  86 109 142 192 236 277 315
#     4  11  22  37  57  84 117 152 183 226 285 338
#     4  11  20  38  57  84 116 145 188 235 275 331
#     4  10  19  36  57  83 113 143 188 235 274 330
#
# _framework density 18.798064
#
# number of rings (size 3 to 8) (size 9 to 14) (size 15 to 20)
#    0.000    1.500    7.500    0.750    0.000    2.000 
#    4.500    6.250    0.000    0.000    0.000    0.000 
#    0.000    0.000    0.000    0.000    0.000    0.000 
#
# Total GULP energy -198431.384906 kJ/mol
# GULP energy per Si atom -12401.961557 kJ/mol
# Density = 1.875528 g / cm^3
# Si number density = 18.798064 Si / 1000 Ang^3
#
#
#
# Elastic Constant Matrix: (Units=GPa)
#
#
# Indices 1 2 3 4 5 6 
#
# 1 84.7020 16.8095 19.3177 0.0000 0.0000 0.0000
# 2 16.8095 90.9812 49.4787 0.0000 0.0000 0.0000
# 3 19.3177 49.4787 54.6666 0.0000 0.0000 0.0000
# 4 0.0000 0.0000 0.0000 43.7978 0.0000 0.0000
# 5 0.0000 0.0000 0.0000 0.0000 14.7903 0.0000
# 6 0.0000 0.0000 0.0000 0.0000 0.0000 -129.6087
#
#
#
# Elastic Compliance Matrix: (Units=1/GPa)
#
#
# Indices 1 2 3 4 5 6 
#
# 1 0.012843 0.000188 -0.004708 0.000000 0.000000 0.000000
# 2 0.000188 0.021649 -0.019661 0.000000 0.000000 0.000000
# 3 -0.004708 -0.019661 0.037751 0.000000 0.000000 0.000000
# 4 0.000000 0.000000 0.000000 0.022832 0.000000 0.000000
# 5 0.000000 0.000000 0.000000 0.000000 0.067612 0.000000
# 6 0.000000 0.000000 0.000000 0.000000 0.000000 -0.007716
#
#
# Mechanical properties :
#
#
# Convention : Reuss Voigt Hill
#
# Bulk Modulus (GPa) = 41.87510 44.61795 43.24653
# Shear Modulus (GPa) = 23.66380 -4.55452 9.55464
#
# Velocity S-wave (km/s) = 3.55187 -1.55825 2.25695
# Velocity P-wave (km/s) = 6.25665 4.53315 5.46329
#
# Compressibility (1/GPa) = 0.02388054
#
# Stress axis : x y z
#
# Youngs Moduli (GPa) = 77.86578 46.19216 26.48924
#
# Poissons Ratio (x) = -0.00867 0.12471
# Poissons Ratio (y) = -0.01461 0.52079
# Poissons Ratio (z) = 0.36660 0.90816
#
# Static dielectric constant tensor:
#      x y z
#    x 3.223180 0.000000 0.000000 
#    y 0.000000 4.742220 0.000000 
#    z 0.000000 0.000000 3.457580 
# 
# 
# High freq. dielectric constant tensor:
#      x y z
#    x 1.710390 0.000000 0.000000 
#    y 0.000000 1.733310 0.000000 
#    z 0.000000 0.000000 1.727230 
# 
# From -- ./inp_files/5253.got.cif
#   From: 2010.03.12/outbox.cif.g09.slc.cpg/sg46_3_cif.got.tgz:5253.got - 2010.04.14 02:56:35.
