data_PCOD8192725
_publ_section_title
;
Structure prediction by ZEFSAII (Michael W. Deem and Ramdas Pophale) SiO2 
 PCOD8192725
Probable space group: I M A 2
;
_chemical_formula_sum "Si O2"
_cell_formula_units_Z 64
_cell_length_a 9.025247
_cell_length_b 30.450690
_cell_length_c 11.829188
_cell_angle_alpha 90.000000
_cell_angle_beta 90.000000
_cell_angle_gamma 90.000000
_cell_volume 3250.956575
_symmetry_space_group_name_H-M "I M A 2"
_symmetry_group_IT_number 46
_symmetry_cell_setting 'orthorhombic'
loop_
_space_group_symop_operation_xyz
x,y,z
-x,-y,z
1/2-x,y,z
1/2+x,-y,z
1/2+x,1/2+y,1/2+z
1/2-x,1/2-y,1/2+z
-x,1/2+y,1/2+z
x,1/2-y,1/2+z
loop_
_atom_site_type_symbol
_atom_site_label
_atom_site_fract_x
_atom_site_fract_y
_atom_site_fract_z
Si Si1 0.423179 0.873134 0.181270
Si Si2 0.074498 0.372317 0.442644
Si Si3 0.081070 0.069772 0.543812
Si Si4 0.424727 0.044999 0.795121
Si Si5 0.579682 0.294475 0.844945
Si Si6 0.078269 0.804946 0.785475
Si Si7 0.423264 0.542494 0.825736
Si Si8 0.580797 0.828247 0.557355
O O1 0.250000 0.873980 0.149254
O O2 0.465400 0.829267 0.249104
O O3 0.469693 0.914580 0.256778
O O4 0.521516 0.875206 0.070400
O O5 0.250000 0.367689 0.437429
O O6 0.021178 0.415884 0.376636
O O7 0.005219 0.329162 0.386804
O O8 0.250000 0.054333 0.525476
O O9 0.024725 0.056967 0.668390
O O10 0.066928 0.121358 0.523228
O O11 0.976405 0.045739 0.454983
O O12 0.250000 0.039147 0.802841
O O13 0.500000 0.000000 0.835736
O O14 0.750000 0.301742 0.881527
O O15 0.551687 0.246809 0.794026
O O16 0.478271 0.299029 0.954814
O O17 0.250000 0.817163 0.793621
O O18 0.017282 0.820450 0.666451
O O19 0.500000 0.500000 0.768782
O O20 0.250000 0.535121 0.824615
O O21 0.750000 0.815244 0.584008
#
# Coordination Sequence:
#
# PCOD8192725 Si02
#       8
#     8   8   8   8   8   8   8   8
#     4  10  23  43  63  87 120 161 207 251 302 367
#     4  11  24  43  63  88 124 161 204 257 308 360
#     4  10  20  38  61  89 126 158 195 248 304 360
#     4  10  22  40  60  87 121 156 197 249 302 361
#     4  10  23  43  64  90 124 161 207 252 297 362
#     4  11  24  41  65  92 125 166 205 250 302 361
#     4  11  23  39  62  90 122 159 203 251 302 364
#     4  11  22  39  65  95 128 159 199 254 307 360
#
# _framework density 19.686513000000001
#
# number of rings (size 3 to 8) (size 9 to 14) (size 15 to 20)
#    0.000    1.500    2.500    1.875    1.750    6.000 
#    0.000    2.500    0.000    0.000    0.000    0.000 
#    0.000    0.000    0.000    0.000    0.000    0.000 
#
# Total GULP energy -396985.880103 kJ/mol
# GULP energy per Si atom -12405.808753 kJ/mol
# Density = 1.964171 g / cm^3
# Si number density = 19.686513 Si / 1000 Ang^3
#
#
#
# Elastic Constant Matrix: (Units=GPa)
#
#
# Indices 1 2 3 4 5 6 
#
# 1 79.7484 56.7420 51.9171 -0.0005 -0.0004 -0.0001
# 2 56.7420 122.3401 49.1532 -0.0007 0.0001 -0.0002
# 3 51.9171 49.1532 114.0260 -0.0037 0.0019 -0.0011
# 4 -0.0005 -0.0007 -0.0037 5.8119 -0.0003 0.0006
# 5 -0.0004 0.0001 0.0019 -0.0003 38.3376 0.0006
# 6 -0.0001 -0.0002 -0.0011 0.0006 0.0006 33.4225
#
#
#
# Elastic Compliance Matrix: (Units=1/GPa)
#
#
# Indices 1 2 3 4 5 6 
#
# 1 0.022504 -0.007645 -0.006951 -0.000004 0.000001 0.000000
# 2 -0.007645 0.012483 -0.001900 0.000000 0.000000 0.000000
# 3 -0.006951 -0.001900 0.012754 0.000007 -0.000001 0.000000
# 4 -0.000004 0.000000 0.000007 0.172061 0.000001 -0.000003
# 5 0.000001 0.000000 -0.000001 0.000001 0.026084 0.000000
# 6 0.000000 0.000000 0.000000 -0.000003 0.000000 0.029920
#
#
# Mechanical properties :
#
#
# Convention : Reuss Voigt Hill
#
# Bulk Modulus (GPa) = 67.80109 70.19323 68.99716
# Shear Modulus (GPa) = 15.93808 26.06789 21.00299
#
# Velocity S-wave (km/s) = 2.84842 3.64283 3.26984
# Velocity P-wave (km/s) = 6.73299 7.30935 7.02708
#
# Compressibility (1/GPa) = 0.01474902
#
# Stress axis : x y z
#
# Youngs Moduli (GPa) = 44.43695 80.10808 78.40753
#
# Poissons Ratio (x) = 0.61241 0.54499
# Poissons Ratio (y) = 0.33971 0.14900
# Poissons Ratio (z) = 0.30887 0.15224
#
# Static dielectric constant tensor:
#      x y z
#    x 3.582670 0.000000 0.000000 
#    y 0.000000 3.885010 -0.000030 
#    z 0.000000 -0.000030 3.569520 
# 
# 
# High freq. dielectric constant tensor:
#      x y z
#    x 1.768990 0.000000 0.000000 
#    y 0.000000 1.782300 0.000000 
#    z 0.000000 0.000000 1.767970 
# 
# From -- ./inp_files/9685.got.cif
#   From: 2010.03.12/outbox.cif.g09.slc.cpg/sg46_5_cif.got.tgz:9685.got - 2010.04.14 02:56:35.
