data_PCOD8192083
_publ_section_title
;
Structure prediction by ZEFSAII (Michael W. Deem and Ramdas Pophale) SiO2 
 PCOD8192083
Probable space group: I M A 2
;
_chemical_formula_sum "Si O2"
_cell_formula_units_Z 60
_cell_length_a 15.022031
_cell_length_b 10.917768
_cell_length_c 18.948427
_cell_angle_alpha 90.000000
_cell_angle_beta 90.000000
_cell_angle_gamma 90.000000
_cell_volume 3107.675602
_symmetry_space_group_name_H-M "I M A 2"
_symmetry_group_IT_number 46
_symmetry_cell_setting 'orthorhombic'
loop_
_space_group_symop_operation_xyz
x,y,z
-x,-y,z
1/2-x,y,z
1/2+x,-y,z
1/2+x,1/2+y,1/2+z
1/2-x,1/2-y,1/2+z
-x,1/2+y,1/2+z
x,1/2-y,1/2+z
loop_
_atom_site_type_symbol
_atom_site_label
_atom_site_fract_x
_atom_site_fract_y
_atom_site_fract_z
Si Si1 0.091911 0.944031 0.942560
Si Si2 0.894891 0.003094 0.173101
Si Si3 0.353133 0.519022 0.828176
Si Si4 0.500000 0.000000 0.429022
Si Si5 0.352033 0.708415 0.311446
Si Si6 0.648370 0.218218 0.658017
Si Si7 0.347016 0.348703 0.542601
Si Si8 0.971704 0.218346 0.529030
O O1 0.137305 0.893099 0.871785
O O2 0.078684 0.838260 0.000434
O O3 0.000000 0.000000 0.916035
O O4 0.147505 0.051008 0.979787
O O5 0.869635 0.959047 0.251656
O O6 0.853415 0.135663 0.161932
O O7 0.849688 0.912136 0.118474
O O8 0.000000 0.000000 0.159010
O O9 0.250000 0.506223 0.850753
O O10 0.417041 0.448077 0.882866
O O11 0.392289 0.658913 0.831356
O O12 0.460954 0.890973 0.475117
O O13 0.250000 0.739210 0.299183
O O14 0.385554 0.663713 0.233930
O O15 0.750000 0.176731 0.639528
O O16 0.577791 0.173074 0.599866
O O17 0.250000 0.285051 0.534806
O O18 0.423929 0.246797 0.539973
#
# Coordination Sequence:
#
# PCOD8192083 Si02
#       8
#     8   8   8   4   8   8   8   8
#     4  10  19  34  56  87 114 141 185 231 287 340
#     4  11  17  32  58  89 117 141 174 230 293 341
#     4  10  21  35  56  85 112 147 186 225 281 337
#     4  12  24  40  58  76 116 158 192 234 270 328
#     4   9  18  34  56  82 110 141 181 228 280 333
#     4  10  20  35  56  83 112 141 185 236 275 326
#     4  11  21  35  59  86 117 147 179 235 290 338
#     4  11  23  38  54  83 112 150 194 228 278 333
#
# _framework density 19.307034000000002
#
# number of rings (size 3 to 8) (size 9 to 14) (size 15 to 20)
#    0.000    1.600    4.667    2.800    0.000    1.600 
#    1.200    0.000    0.000    0.000    0.000    0.000 
#    0.000    0.000    0.000    0.000    0.000    0.000 
#
# Total GULP energy -371886.365024 kJ/mol
# GULP energy per Si atom -12396.212167 kJ/mol
# Density = 1.926309 g / cm^3
# Si number density = 19.307034 Si / 1000 Ang^3
#
#
#
# Elastic Constant Matrix: (Units=GPa)
#
#
# Indices 1 2 3 4 5 6 
#
# 1 117.6940 2.5282 42.6197 0.0000 0.0000 0.0000
# 2 2.5282 17.8618 15.6044 0.0000 0.0000 0.0000
# 3 42.6197 15.6044 131.7387 0.0000 0.0000 0.0000
# 4 0.0000 0.0000 0.0000 14.2561 0.0000 0.0000
# 5 0.0000 0.0000 0.0000 0.0000 23.2151 0.0000
# 6 0.0000 0.0000 0.0000 0.0000 0.0000 17.1948
#
#
#
# Elastic Compliance Matrix: (Units=1/GPa)
#
#
# Indices 1 2 3 4 5 6 
#
# 1 0.009661 0.001520 -0.003306 0.000000 0.000000 0.000000
# 2 0.001520 0.062687 -0.007917 0.000000 0.000000 0.000000
# 3 -0.003306 -0.007917 0.009598 0.000000 0.000000 0.000000
# 4 0.000000 0.000000 0.000000 0.070146 0.000000 0.000000
# 5 0.000000 0.000000 0.000000 0.000000 0.043075 0.000000
# 6 0.000000 0.000000 0.000000 0.000000 0.000000 0.058157
#
#
# Mechanical properties :
#
#
# Convention : Reuss Voigt Hill
#
# Bulk Modulus (GPa) = 15.98953 43.19993 29.59473
# Shear Modulus (GPa) = 17.03142 24.70268 20.86705
#
# Velocity S-wave (km/s) = 2.97330 3.58084 3.29112
# Velocity P-wave (km/s) = 4.48186 6.28652 5.45928
#
# Compressibility (1/GPa) = 0.06254091
#
# Stress axis : x y z
#
# Youngs Moduli (GPa) = 103.50918 15.95238 104.18869
#
# Poissons Ratio (x) = -0.02425 0.34440
# Poissons Ratio (y) = -0.15737 0.82487
# Poissons Ratio (z) = 0.34216 0.12630
#
# Static dielectric constant tensor:
#      x y z
#    x 3.588950 0.000000 0.000000 
#    y 0.000000 3.114250 0.000000 
#    z 0.000000 0.000000 3.791460 
# 
# 
# High freq. dielectric constant tensor:
#      x y z
#    x 1.756860 0.000000 0.000000 
#    y 0.000000 1.698550 0.000000 
#    z 0.000000 0.000000 1.766900 
# 
# From -- ./inp_files/19600.got.cif
#   From: 2010.03.12/outbox.cif.g09.slc.cpg/sg46_10_cif.got.tgz:19600.got - 2010.04.14 02:56:35.
