data_PCOD8192893
_publ_section_title
;
Structure prediction by ZEFSAII (Michael W. Deem and Ramdas Pophale) SiO2 
 PCOD8192893
Probable space group: I M A 2
;
_chemical_formula_sum "Si O2"
_cell_formula_units_Z 56
_cell_length_a 8.574184
_cell_length_b 20.653884
_cell_length_c 15.232478
_cell_angle_alpha 90.000000
_cell_angle_beta 90.000000
_cell_angle_gamma 90.000000
_cell_volume 2697.522602
_symmetry_space_group_name_H-M "I M A 2"
_symmetry_group_IT_number 46
_symmetry_cell_setting 'orthorhombic'
loop_
_space_group_symop_operation_xyz
x,y,z
-x,-y,z
1/2-x,y,z
1/2+x,-y,z
1/2+x,1/2+y,1/2+z
1/2-x,1/2-y,1/2+z
-x,1/2+y,1/2+z
x,1/2-y,1/2+z
loop_
_atom_site_type_symbol
_atom_site_label
_atom_site_fract_x
_atom_site_fract_y
_atom_site_fract_z
Si Si1 0.565527 0.427937 0.844530
Si Si2 0.923928 0.130217 0.159997
Si Si3 0.075615 0.772309 0.604824
Si Si4 0.934720 0.699776 0.919004
Si Si5 0.930665 0.804411 0.776493
Si Si6 0.069595 0.934325 0.836589
Si Si7 0.571640 0.940230 0.018966
O O1 0.500000 0.500000 0.863927
O O2 0.750000 0.430758 0.854327
O O3 0.513099 0.402381 0.748959
O O4 0.500939 0.373545 0.911677
O O5 0.750000 0.103655 0.138781
O O6 0.921823 0.207035 0.162809
O O7 0.049729 0.119997 0.082733
O O8 0.250000 0.795058 0.581353
O O9 0.981914 0.770841 0.513674
O O10 0.000892 0.816936 0.679444
O O11 0.750000 0.696697 0.914833
O O12 0.999220 0.747590 0.841266
O O13 0.750000 0.789988 0.766168
O O14 0.960554 0.873531 0.818836
O O15 0.250000 0.924058 0.809173
O O16 0.000000 0.000000 0.791923
O O17 0.054270 0.940097 0.940889
O O18 0.750000 0.945445 0.986754
O O19 0.500000 0.000000 0.076586
#
# Coordination Sequence:
#
# PCOD8192893 Si02
#       7
#     8   8   8   8   8   8   8
#     4  11  23  41  64  92 128 172 220 272 331 393
#     4  10  21  37  58  88 122 160 206 257 316 383
#     4  11  23  40  64  93 125 164 211 263 320 382
#     4  11  24  42  65  95 130 172 218 269 325 386
#     4  11  23  41  65  94 127 163 209 262 318 380
#     4  11  22  38  60  86 121 162 206 254 313 377
#     4  11  21  33  52  80 117 157 199 245 302 367
#
# _framework density 20.759789999999999
#
# number of rings (size 3 to 8) (size 9 to 14) (size 15 to 20)
#    0.000    1.143    1.429    6.429    0.000    7.429 
#    0.000    0.714    0.000    0.000    0.000    0.000 
#    0.000    0.000    0.000    0.000    0.000    0.000 
#
# Total GULP energy -346901.325085 kJ/mol
# GULP energy per Si atom -12389.333039 kJ/mol
# Density = 2.071254 g / cm^3
# Si number density = 20.759790 Si / 1000 Ang^3
#
#
#
# Elastic Constant Matrix: (Units=GPa)
#
#
# Indices 1 2 3 4 5 6 
#
# 1 84.2097 23.5495 24.5161 0.0000 0.0000 0.0000
# 2 23.5495 111.0240 29.7796 0.0001 0.0000 0.0000
# 3 24.5161 29.7796 92.8604 0.0001 0.0000 0.0000
# 4 0.0000 0.0001 0.0001 24.7510 0.0000 0.0000
# 5 0.0000 0.0000 0.0000 0.0000 31.1389 0.0000
# 6 0.0000 0.0000 0.0000 0.0000 0.0000 34.5174
#
#
#
# Elastic Compliance Matrix: (Units=1/GPa)
#
#
# Indices 1 2 3 4 5 6 
#
# 1 0.013278 -0.002053 -0.002847 0.000000 0.000000 0.000000
# 2 -0.002053 0.010172 -0.002720 0.000000 0.000000 0.000000
# 3 -0.002847 -0.002720 0.012393 0.000000 0.000000 0.000000
# 4 0.000000 0.000000 0.000000 0.040402 0.000000 0.000000
# 5 0.000000 0.000000 0.000000 0.000000 0.032114 0.000000
# 6 0.000000 0.000000 0.000000 0.000000 0.000000 0.028971
#
#
# Mechanical properties :
#
#
# Convention : Reuss Voigt Hill
#
# Bulk Modulus (GPa) = 48.53718 49.30940 48.92329
# Shear Modulus (GPa) = 31.36004 32.09804 31.72904
#
# Velocity S-wave (km/s) = 3.89088 3.93639 3.91370
# Velocity P-wave (km/s) = 6.60427 6.66815 6.63629
#
# Compressibility (1/GPa) = 0.02060276
#
# Stress axis : x y z
#
# Youngs Moduli (GPa) = 75.31194 98.30818 80.69134
#
# Poissons Ratio (x) = 0.20180 0.22975
# Poissons Ratio (y) = 0.15460 0.21949
# Poissons Ratio (z) = 0.21443 0.26742
#
# Static dielectric constant tensor:
#      x y z
#    x 3.757280 0.000000 0.000000 
#    y 0.000000 3.950320 0.000000 
#    z 0.000000 0.000000 3.534320 
# 
# 
# High freq. dielectric constant tensor:
#      x y z
#    x 1.818360 0.000000 0.000000 
#    y 0.000000 1.818190 0.000000 
#    z 0.000000 0.000000 1.794810 
# 
# From -- ./inp_files/14214.got.cif
#   From: 2010.03.12/outbox.cif.g09.slc.cpg/sg46_8_cif.got.tgz:14214.got - 2010.04.14 02:56:35.
