data_PCOD8192513
_publ_section_title
;
Structure prediction by ZEFSAII (Michael W. Deem and Ramdas Pophale) SiO2 
 PCOD8192513
Probable space group: I M A 2
;
_chemical_formula_sum "Si O2"
_cell_formula_units_Z 48
_cell_length_a 8.763467
_cell_length_b 22.729297
_cell_length_c 11.646647
_cell_angle_alpha 90.000000
_cell_angle_beta 90.000000
_cell_angle_gamma 90.000000
_cell_volume 2319.865849
_symmetry_space_group_name_H-M "I M A 2"
_symmetry_group_IT_number 46
_symmetry_cell_setting 'orthorhombic'
loop_
_space_group_symop_operation_xyz
x,y,z
-x,-y,z
1/2-x,y,z
1/2+x,-y,z
1/2+x,1/2+y,1/2+z
1/2-x,1/2-y,1/2+z
-x,1/2+y,1/2+z
x,1/2-y,1/2+z
loop_
_atom_site_type_symbol
_atom_site_label
_atom_site_fract_x
_atom_site_fract_y
_atom_site_fract_z
Si Si1 0.580527 0.159621 0.500000
Si Si2 0.572226 0.858659 0.263931
Si Si3 0.919502 0.056068 0.675849
Si Si4 0.428693 0.126754 0.865745
Si Si5 0.069808 0.564627 0.576388
Si Si6 0.428486 0.272281 0.195154
O O1 0.750000 0.177706 0.456656
O O2 0.470073 0.142907 0.396838
O O3 0.591164 0.102632 0.576669
O O4 0.511977 0.211819 0.576833
O O5 0.750000 0.872463 0.250093
O O6 0.479534 0.910225 0.200358
O O7 0.529135 0.795006 0.214461
O O8 0.750000 0.042684 0.724044
O O9 0.029157 0.074552 0.779707
O O10 0.000000 0.000000 0.619381
O O11 0.250000 0.127669 0.892618
O O12 0.481977 0.188303 0.805349
O O13 0.514523 0.113605 0.984604
O O14 0.250000 0.558256 0.570821
O O15 0.000000 0.500000 0.554167
O O16 0.250000 0.283182 0.176738
#
# Coordination Sequence:
#
# PCOD8192513 Si02
#       6
#     8   8   8   8   8   8
#     4  10  22  39  59  88 122 156 201 253 306 365
#     4  11  24  42  64  90 123 165 207 255 312 378
#     4  10  20  35  57  86 119 156 199 248 301 358
#     4  10  20  38  63  92 124 161 204 254 306 367
#     4  12  26  44  64  91 126 169 214 262 315 377
#     4   9  21  40  64  91 122 161 205 252 311 374
#
# _framework density 20.690850000000001
#
# number of rings (size 3 to 8) (size 9 to 14) (size 15 to 20)
#    0.000    1.667    0.000    4.000    2.333    4.667 
#    0.000    1.667    0.000    0.000    0.000    0.000 
#    0.000    0.000    0.000    0.000    0.000    0.000 
#
# Total GULP energy -297616.534870 kJ/mol
# GULP energy per Si atom -12400.688953 kJ/mol
# Density = 2.064376 g / cm^3
# Si number density = 20.690850 Si / 1000 Ang^3
#
#
#
# Elastic Constant Matrix: (Units=GPa)
#
#
# Indices 1 2 3 4 5 6 
#
# 1 100.9577 37.3538 33.1385 -0.0001 -0.0001 0.0000
# 2 37.3538 66.2874 17.1442 0.0000 0.0000 0.0000
# 3 33.1385 17.1442 97.6535 -0.0005 0.0003 0.0001
# 4 -0.0001 0.0000 -0.0005 -4.6350 -0.0002 0.0000
# 5 -0.0001 0.0000 0.0003 -0.0002 46.8592 0.0000
# 6 0.0000 0.0000 0.0001 0.0000 0.0000 30.2076
#
#
#
# Elastic Compliance Matrix: (Units=1/GPa)
#
#
# Indices 1 2 3 4 5 6 
#
# 1 0.013514 -0.006735 -0.003404 0.000000 0.000000 0.000000
# 2 -0.006735 0.019160 -0.001078 0.000000 0.000000 0.000000
# 3 -0.003404 -0.001078 0.011585 -0.000001 0.000000 0.000000
# 4 0.000000 0.000000 -0.000001 -0.215748 -0.000001 0.000000
# 5 0.000000 0.000000 0.000000 -0.000001 0.021341 0.000000
# 6 0.000000 0.000000 0.000000 0.000000 0.000000 0.033104
#
#
# Mechanical properties :
#
#
# Convention : Reuss Voigt Hill
#
# Bulk Modulus (GPa) = 45.81911 48.90795 47.36353
# Shear Modulus (GPa) = -57.25068 26.30382 -15.47343
#
# Velocity S-wave (km/s) = -5.26589 3.56937 -2.73763
# Velocity P-wave (km/s) = 3.84450 6.37777 3.59832
#
# Compressibility (1/GPa) = 0.02182495
#
# Stress axis : x y z
#
# Youngs Moduli (GPa) = 73.99549 52.19186 86.32158
#
# Poissons Ratio (x) = 0.35152 0.29381
# Poissons Ratio (y) = 0.49838 0.09307
# Poissons Ratio (z) = 0.25185 0.05627
#
# Static dielectric constant tensor:
#      x y z
#    x 3.916610 0.000000 0.000000 
#    y 0.000000 3.775870 0.000000 
#    z 0.000000 0.000000 3.768990 
# 
# 
# High freq. dielectric constant tensor:
#      x y z
#    x 1.819180 0.000000 0.000000 
#    y 0.000000 1.811840 0.000000 
#    z 0.000000 0.000000 1.807410 
# 
# From -- ./inp_files/9311.got.cif
#   From: 2010.03.12/outbox.cif.g09.slc.cpg/sg46_5_cif.got.tgz:9311.got - 2010.04.14 02:56:35.
