data_PCOD8192938
_publ_section_title
;
Structure prediction by ZEFSAII (Michael W. Deem and Ramdas Pophale) SiO2 
 PCOD8192938
Probable space group: I M A 2
;
_chemical_formula_sum "Si O2"
_cell_formula_units_Z 64
_cell_length_a 17.552281
_cell_length_b 6.814436
_cell_length_c 27.668719
_cell_angle_alpha 90.000000
_cell_angle_beta 90.000000
_cell_angle_gamma 90.000000
_cell_volume 3309.424920
_symmetry_space_group_name_H-M "I M A 2"
_symmetry_group_IT_number 46
_symmetry_cell_setting 'orthorhombic'
loop_
_space_group_symop_operation_xyz
x,y,z
-x,-y,z
1/2-x,y,z
1/2+x,-y,z
1/2+x,1/2+y,1/2+z
1/2-x,1/2-y,1/2+z
-x,1/2+y,1/2+z
x,1/2-y,1/2+z
loop_
_atom_site_type_symbol
_atom_site_label
_atom_site_fract_x
_atom_site_fract_y
_atom_site_fract_z
Si Si1 0.337901 0.249345 0.770190
Si Si2 0.164107 0.928973 0.351012
Si Si3 0.160739 0.648292 0.587063
Si Si4 0.838442 0.765822 0.921913
Si Si5 0.580475 0.949036 0.596568
Si Si6 0.576627 0.875765 0.017641
Si Si7 0.160038 0.343314 0.664080
Si Si8 0.588858 0.474364 0.341204
O O1 0.250000 0.181671 0.765962
O O2 0.347700 0.428258 0.806195
O O3 0.370161 0.326552 0.718818
O O4 0.387193 0.063819 0.789028
O O5 0.250000 0.844947 0.351387
O O6 0.104155 0.756479 0.343993
O O7 0.147863 0.047515 0.400560
O O8 0.250000 0.682413 0.588567
O O9 0.140949 0.511821 0.541573
O O10 0.131128 0.540879 0.636592
O O11 0.121402 0.855115 0.578958
O O12 0.750000 0.794306 0.935962
O O13 0.859690 0.925092 0.881822
O O14 0.892577 0.794402 0.967352
O O15 0.561302 0.812137 0.550916
O O16 0.633368 0.848579 0.635934
O O17 0.500000 0.000000 0.621442
O O18 0.500000 0.000000 0.009675
O O19 0.250000 0.344728 0.663127
O O20 0.500000 0.500000 0.351142
#
# Coordination Sequence:
#
# PCOD8192938 Si02
#       8
#     8   8   8   8   8   8   8   8
#     4   9  19  37  59  85 115 154 199 242 285 343
#     4   9  19  38  61  82 113 154 193 236 288 342
#     4  10  21  38  60  84 115 156 199 247 301 359
#     4  10  22  39  59  85 114 151 200 245 289 346
#     4  11  22  38  58  84 118 157 196 242 302 363
#     4  11  22  40  60  86 120 154 195 248 304 360
#     4   9  20  37  59  86 117 152 200 249 291 346
#     4  11  22  37  57  86 121 155 189 237 296 353
#
# _framework density 19.338708
#
# number of rings (size 3 to 8) (size 9 to 14) (size 15 to 20)
#    0.000    2.000    1.250    3.000    0.000    6.000 
#    2.250    5.000    0.000    0.000    0.000    0.000 
#    0.000    0.000    0.000    0.000    0.000    0.000 
#
# Total GULP energy -396806.241425 kJ/mol
# GULP energy per Si atom -12400.195045 kJ/mol
# Density = 1.929469 g / cm^3
# Si number density = 19.338708 Si / 1000 Ang^3
#
#
#
# Elastic Constant Matrix: (Units=GPa)
#
#
# Indices 1 2 3 4 5 6 
#
# 1 58.0664 47.9215 37.4066 0.0000 0.0000 0.0000
# 2 47.9215 121.4340 42.0996 0.0000 0.0000 0.0000
# 3 37.4066 42.0996 120.2502 0.0000 0.0000 0.0000
# 4 0.0000 0.0000 0.0000 15.7698 0.0000 0.0000
# 5 0.0000 0.0000 0.0000 0.0000 17.9376 0.0000
# 6 0.0000 0.0000 0.0000 0.0000 0.0000 34.6050
#
#
#
# Elastic Compliance Matrix: (Units=1/GPa)
#
#
# Indices 1 2 3 4 5 6 
#
# 1 0.028520 -0.009309 -0.005613 0.000000 0.000000 0.000000
# 2 -0.009309 0.012411 -0.001449 0.000000 0.000000 0.000000
# 3 -0.005613 -0.001449 0.010569 0.000000 0.000000 0.000000
# 4 0.000000 0.000000 0.000000 0.063412 0.000000 0.000000
# 5 0.000000 0.000000 0.000000 0.000000 0.055749 0.000000
# 6 0.000000 0.000000 0.000000 0.000000 0.000000 0.028898
#
#
# Mechanical properties :
#
#
# Convention : Reuss Voigt Hill
#
# Bulk Modulus (GPa) = 53.30975 61.62291 57.46633
# Shear Modulus (GPa) = 20.95963 25.15068 23.05515
#
# Velocity S-wave (km/s) = 3.29571 3.61021 3.45654
# Velocity P-wave (km/s) = 6.48910 7.02228 6.76095
#
# Compressibility (1/GPa) = 0.01875829
#
# Stress axis : x y z
#
# Youngs Moduli (GPa) = 35.06315 80.57379 94.61303
#
# Poissons Ratio (x) = 0.75006 0.53104
# Poissons Ratio (y) = 0.32640 0.13712
# Poissons Ratio (z) = 0.19680 0.11678
#
# Static dielectric constant tensor:
#      x y z
#    x 3.533480 0.000000 0.000000 
#    y 0.000000 3.568790 0.000000 
#    z 0.000000 0.000000 3.652400 
# 
# 
# High freq. dielectric constant tensor:
#      x y z
#    x 1.754170 0.000000 0.000000 
#    y 0.000000 1.757670 0.000000 
#    z 0.000000 0.000000 1.749170 
# 
# From -- ./inp_files/25489.got.cif
#   From: 2010.03.12/outbox.cif.g09.slc.cpg/sg46_13_cif.got.tgz:25489.got - 2010.04.14 02:56:35.
