data_PCOD8192495
_publ_section_title
;
Structure prediction by ZEFSAII (Michael W. Deem and Ramdas Pophale) SiO2 
 PCOD8192495
Probable space group: I M A 2
;
_chemical_formula_sum "Si O2"
_cell_formula_units_Z 48
_cell_length_a 9.144490
_cell_length_b 22.103410
_cell_length_c 12.682856
_cell_angle_alpha 90.000000
_cell_angle_beta 90.000000
_cell_angle_gamma 90.000000
_cell_volume 2563.514808
_symmetry_space_group_name_H-M "I M A 2"
_symmetry_group_IT_number 46
_symmetry_cell_setting 'orthorhombic'
loop_
_space_group_symop_operation_xyz
x,y,z
-x,-y,z
1/2-x,y,z
1/2+x,-y,z
1/2+x,1/2+y,1/2+z
1/2-x,1/2-y,1/2+z
-x,1/2+y,1/2+z
x,1/2-y,1/2+z
loop_
_atom_site_type_symbol
_atom_site_label
_atom_site_fract_x
_atom_site_fract_y
_atom_site_fract_z
Si Si1 0.920642 0.061741 0.318720
Si Si2 0.923047 0.746059 0.598526
Si Si3 0.418722 0.620703 0.598526
Si Si4 0.585347 0.159370 0.714119
Si Si5 0.914653 0.159370 0.482933
Si Si6 0.579358 0.438259 0.378332
O O1 0.750000 0.052133 0.338996
O O2 0.955121 0.079829 0.199161
O O3 0.981342 0.114047 0.396377
O O4 0.000000 0.000000 0.347492
O O5 0.750000 0.748463 0.598526
O O6 0.975600 0.677630 0.598526
O O7 0.985852 0.779938 0.703661
O O8 0.985852 0.779938 0.493391
O O9 0.250000 0.642464 0.598527
O O10 0.455120 0.579829 0.497892
O O11 0.750000 0.178941 0.746899
O O12 0.587172 0.127020 0.598526
O O13 0.518657 0.114047 0.800675
O O14 0.750000 0.178941 0.450152
O O15 0.500000 0.500000 0.349561
O O16 0.750000 0.447866 0.358055
#
# Coordination Sequence:
#
# PCOD8192495 Si02
#       6
#     8   8   8   8   8   8
#     4  10  21  36  56  80 107 143 179 216 260 311
#     4  10  20  35  56  83 107 134 176 226 271 306
#     4  10  21  37  55  77 109 146 179 210 260 322
#     4   8  17  36  56  77 107 140 175 212 264 324
#     4   8  17  36  56  77 107 140 175 212 264 324
#     4  10  21  36  56  80 107 143 179 216 260 311
#
# _framework density 18.724292999999999
#
# number of rings (size 3 to 8) (size 9 to 14) (size 15 to 20)
#    1.000    1.667    0.000    1.500    0.000    4.667 
#    0.000    6.667    0.000    0.000    0.000    0.000 
#    0.000    0.000    0.000    0.000    0.000    0.000 
#
# Total GULP energy -297463.829743 kJ/mol
# GULP energy per Si atom -12394.326239 kJ/mol
# Density = 1.868168 g / cm^3
# Si number density = 18.724293 Si / 1000 Ang^3
#
#
#
# Elastic Constant Matrix: (Units=GPa)
#
#
# Indices 1 2 3 4 5 6 
#
# 1 81.4347 42.6750 5.0219 0.0000 0.0000 0.0000
# 2 42.6750 76.9218 -6.4209 0.0000 0.0000 0.0000
# 3 5.0219 -6.4209 44.1940 0.0002 0.0000 0.0000
# 4 0.0000 0.0000 0.0002 36.3293 0.0000 0.0000
# 5 0.0000 0.0000 0.0000 0.0000 16.8239 0.0000
# 6 0.0000 0.0000 0.0000 0.0000 0.0000 38.7863
#
#
#
# Elastic Compliance Matrix: (Units=1/GPa)
#
#
# Indices 1 2 3 4 5 6 
#
# 1 0.017834 -0.010187 -0.003507 0.000000 0.000000 0.000000
# 2 -0.010187 0.018979 0.003915 0.000000 0.000000 0.000000
# 3 -0.003507 0.003915 0.023595 0.000000 0.000000 0.000000
# 4 0.000000 0.000000 0.000000 0.027526 0.000000 0.000000
# 5 0.000000 0.000000 0.000000 0.000000 0.059439 0.000000
# 6 0.000000 0.000000 0.000000 0.000000 0.000000 0.025782
#
#
# Mechanical properties :
#
#
# Convention : Reuss Voigt Hill
#
# Bulk Modulus (GPa) = 24.47952 31.67806 28.07879
# Shear Modulus (GPa) = 24.23310 29.13953 26.68631
#
# Velocity S-wave (km/s) = 3.60141 3.94920 3.77931
# Velocity P-wave (km/s) = 5.51322 6.14409 5.83718
#
# Compressibility (1/GPa) = 0.04085047
#
# Stress axis : x y z
#
# Youngs Moduli (GPa) = 56.07146 52.69101 42.38228
#
# Poissons Ratio (x) = 0.53676 0.14862
# Poissons Ratio (y) = 0.57120 -0.16592
# Poissons Ratio (z) = 0.19662 -0.20628
#
# Static dielectric constant tensor:
#      x y z
#    x 3.219390 0.000000 0.000000 
#    y 0.000000 3.212410 0.000000 
#    z 0.000000 0.000000 3.458240 
# 
# 
# High freq. dielectric constant tensor:
#      x y z
#    x 1.711400 0.000000 0.000000 
#    y 0.000000 1.716800 0.000000 
#    z 0.000000 0.000000 1.725410 
# 
# From -- ./inp_files/9319.got.cif
#   From: 2010.03.12/outbox.cif.g09.slc.cpg/sg46_5_cif.got.tgz:9319.got - 2010.04.14 02:56:35.
