data_PCOD8192084
_publ_section_title
;
Structure prediction by ZEFSAII (Michael W. Deem and Ramdas Pophale) SiO2 
 PCOD8192084
Probable space group: I M A 2
;
_chemical_formula_sum "Si O2"
_cell_formula_units_Z 64
_cell_length_a 8.758039
_cell_length_b 24.813113
_cell_length_c 15.133292
_cell_angle_alpha 90.000000
_cell_angle_beta 90.000000
_cell_angle_gamma 90.000000
_cell_volume 3288.679416
_symmetry_space_group_name_H-M "I M A 2"
_symmetry_group_IT_number 46
_symmetry_cell_setting 'orthorhombic'
loop_
_space_group_symop_operation_xyz
x,y,z
-x,-y,z
1/2-x,y,z
1/2+x,-y,z
1/2+x,1/2+y,1/2+z
1/2-x,1/2-y,1/2+z
-x,1/2+y,1/2+z
x,1/2-y,1/2+z
loop_
_atom_site_type_symbol
_atom_site_label
_atom_site_fract_x
_atom_site_fract_y
_atom_site_fract_z
Si Si1 0.928772 0.644294 0.021770
Si Si2 0.569706 0.443261 0.899444
Si Si3 0.428343 0.640401 0.395952
Si Si4 0.925475 0.835844 0.722060
Si Si5 0.424862 0.219236 0.172965
Si Si6 0.932071 0.057930 0.042079
Si Si7 0.927693 0.244858 0.996125
Si Si8 0.572613 0.601021 0.721787
O O1 0.750000 0.634019 0.006059
O O2 0.973837 0.643668 0.125068
O O3 0.026829 0.598636 0.975375
O O4 0.971510 0.702093 0.980186
O O5 0.500000 0.500000 0.928548
O O6 0.750000 0.447750 0.890921
O O7 0.501682 0.426120 0.806051
O O8 0.250000 0.632492 0.397371
O O9 0.485920 0.630370 0.296443
O O10 0.496380 0.597354 0.465289
O O11 0.474344 0.701125 0.422761
O O12 0.750000 0.847649 0.738659
O O13 0.962815 0.772015 0.731161
O O14 0.250000 0.223503 0.138048
O O15 0.449690 0.165553 0.230504
O O16 0.537950 0.217197 0.090099
O O17 0.750000 0.055532 0.044932
O O18 0.990917 0.078787 0.135598
O O19 0.000000 0.000000 0.020315
O O20 0.750000 0.260249 0.991365
O O21 0.750000 0.585239 0.717720
#
# Coordination Sequence:
#
# PCOD8192084 Si02
#       8
#     8   8   8   8   8   8   8   8
#     4  10  22  42  63  88 120 157 202 253 302 360
#     4  12  26  44  65  90 119 157 203 253 306 362
#     4  10  22  37  56  86 123 158 198 247 302 356
#     4   9  20  37  59  87 120 157 198 245 298 354
#     4   9  19  35  55  85 120 158 198 238 292 355
#     4  11  23  41  60  85 120 160 205 253 300 357
#     4  10  19  34  56  87 121 158 197 242 299 355
#     4  11  22  38  61  90 123 162 201 244 300 361
#
# _framework density 19.460698000000001
#
# number of rings (size 3 to 8) (size 9 to 14) (size 15 to 20)
#    0.000    1.750    1.250    3.750    1.750    5.000 
#    0.000    0.625    0.000    1.500    0.000    0.000 
#    0.000    0.000    0.000    0.000    0.000    0.000 
#
# Total GULP energy -396858.306248 kJ/mol
# GULP energy per Si atom -12401.822070 kJ/mol
# Density = 1.941640 g / cm^3
# Si number density = 19.460698 Si / 1000 Ang^3
#
#
#
# Elastic Constant Matrix: (Units=GPa)
#
#
# Indices 1 2 3 4 5 6 
#
# 1 63.2249 44.2590 33.9641 0.0001 -0.0001 0.0000
# 2 44.2590 101.2450 58.2987 0.0001 0.0000 0.0000
# 3 33.9641 58.2987 113.3824 -0.0003 -0.0001 0.0001
# 4 0.0001 0.0001 -0.0003 26.7866 0.0000 0.0000
# 5 -0.0001 0.0000 -0.0001 0.0000 31.4175 0.0000
# 6 0.0000 0.0000 0.0001 0.0000 0.0000 31.4129
#
#
#
# Elastic Compliance Matrix: (Units=1/GPa)
#
#
# Indices 1 2 3 4 5 6 
#
# 1 0.023269 -0.008748 -0.002472 0.000000 0.000000 0.000000
# 2 -0.008748 0.017321 -0.006285 0.000000 0.000000 0.000000
# 3 -0.002472 -0.006285 0.012792 0.000000 0.000000 0.000000
# 4 0.000000 0.000000 0.000000 0.037332 0.000000 0.000000
# 5 0.000000 0.000000 0.000000 0.000000 0.031829 0.000000
# 6 0.000000 0.000000 0.000000 0.000000 0.000000 0.031834
#
#
# Mechanical properties :
#
#
# Convention : Reuss Voigt Hill
#
# Bulk Modulus (GPa) = 54.43695 61.21065 57.82380
# Shear Modulus (GPa) = 25.57402 27.34545 26.45973
#
# Velocity S-wave (km/s) = 3.62904 3.75262 3.69134
# Velocity P-wave (km/s) = 6.75229 7.09210 6.92428
#
# Compressibility (1/GPa) = 0.01836988
#
# Stress axis : x y z
#
# Youngs Moduli (GPa) = 42.97638 57.73499 78.17446
#
# Poissons Ratio (x) = 0.50509 0.19324
# Poissons Ratio (y) = 0.37598 0.49134
# Poissons Ratio (z) = 0.10624 0.36288
#
# Static dielectric constant tensor:
#      x y z
#    x 3.543120 0.000000 0.000000 
#    y 0.000000 3.747430 0.000000 
#    z 0.000000 0.000000 3.567650 
# 
# 
# High freq. dielectric constant tensor:
#      x y z
#    x 1.762450 0.000000 0.000000 
#    y 0.000000 1.756890 0.000000 
#    z 0.000000 0.000000 1.754500 
# 
# From -- ./inp_files/14466.got.cif
#   From: 2010.03.12/outbox.cif.g09.slc.cpg/sg46_8_cif.got.tgz:14466.got - 2010.04.14 02:56:35.
