data_PCOD8192371
_publ_section_title
;
Structure prediction by ZEFSAII (Michael W. Deem and Ramdas Pophale) SiO2 
 PCOD8192371
Probable space group: I M A 2
;
_chemical_formula_sum "Si O2"
_cell_formula_units_Z 64
_cell_length_a 9.326764
_cell_length_b 32.417612
_cell_length_c 11.529109
_cell_angle_alpha 90.000000
_cell_angle_beta 90.000000
_cell_angle_gamma 90.000000
_cell_volume 3485.842438
_symmetry_space_group_name_H-M "I M A 2"
_symmetry_group_IT_number 46
_symmetry_cell_setting 'orthorhombic'
loop_
_space_group_symop_operation_xyz
x,y,z
-x,-y,z
1/2-x,y,z
1/2+x,-y,z
1/2+x,1/2+y,1/2+z
1/2-x,1/2-y,1/2+z
-x,1/2+y,1/2+z
x,1/2-y,1/2+z
loop_
_atom_site_type_symbol
_atom_site_label
_atom_site_fract_x
_atom_site_fract_y
_atom_site_fract_z
Si Si1 0.582460 0.118898 0.163720
Si Si2 0.579864 0.957507 0.063815
Si Si3 0.916123 0.357267 0.922159
Si Si4 0.408536 0.188032 0.746041
Si Si5 0.916406 0.224851 0.555075
Si Si6 0.917679 0.540790 0.298391
Si Si7 0.092331 0.104731 0.610471
Si Si8 0.416178 0.685033 0.469124
O O1 0.750000 0.106729 0.156321
O O2 0.486156 0.078697 0.141837
O O3 0.541212 0.137468 0.288544
O O4 0.543422 0.154741 0.073522
O O5 0.750000 0.961911 0.087248
O O6 0.500000 0.000000 0.096798
O O7 0.547084 0.945914 0.930067
O O8 0.750000 0.365000 0.942276
O O9 0.958567 0.311160 0.963951
O O10 0.994123 0.393004 0.996479
O O11 0.250000 0.205060 0.777275
O O12 0.498380 0.222391 0.676541
O O13 0.394596 0.149801 0.661754
O O14 0.488733 0.172400 0.860206
O O15 0.750000 0.222652 0.588196
O O16 0.957192 0.268205 0.499135
O O17 0.750000 0.532672 0.284842
O O18 0.974115 0.575346 0.209438
O O19 0.000000 0.500000 0.262766
O O20 0.250000 0.088702 0.573631
O O21 0.250000 0.681002 0.435855
#
# Coordination Sequence:
#
# PCOD8192371 Si02
#       8
#     8   8   8   8   8   8   8   8
#     4  10  21  36  54  81 111 143 185 231 274 325
#     4  10  20  36  58  83 112 145 179 222 276 330
#     4   9  19  35  54  76 104 139 181 227 269 314
#     4  10  20  34  52  75 105 136 172 220 270 322
#     4   9  19  35  56  77 102 140 183 225 273 324
#     4   9  18  32  52  79 107 134 166 211 263 316
#     4   9  18  34  53  73 102 138 172 209 260 319
#     4  10  21  34  55  80 106 141 182 227 271 326
#
# _framework density 18.35998
#
# number of rings (size 3 to 8) (size 9 to 14) (size 15 to 20)
#    0.000    2.500    0.000    1.500    1.750    4.000 
#    0.000    0.625    0.000    1.500    0.000    0.000 
#    0.000    0.000    0.000    0.000    0.000    0.000 
#
# Total GULP energy -396777.935193 kJ/mol
# GULP energy per Si atom -12399.310475 kJ/mol
# Density = 1.831819 g / cm^3
# Si number density = 18.359980 Si / 1000 Ang^3
#
#
#
# Elastic Constant Matrix: (Units=GPa)
#
#
# Indices 1 2 3 4 5 6 
#
# 1 73.7505 40.8975 55.2609 -0.0012 -0.0005 -0.0002
# 2 40.8975 85.8869 39.1907 -0.0013 -0.0010 -0.0001
# 3 55.2609 39.1907 113.9205 -0.0008 -0.0024 -0.0008
# 4 -0.0012 -0.0013 -0.0008 20.3533 -0.0018 -0.0003
# 5 -0.0005 -0.0010 -0.0024 -0.0018 25.6342 0.0002
# 6 -0.0002 -0.0001 -0.0008 -0.0003 0.0002 25.2615
#
#
#
# Elastic Compliance Matrix: (Units=1/GPa)
#
#
# Indices 1 2 3 4 5 6 
#
# 1 0.024796 -0.007496 -0.009450 0.000001 -0.000001 0.000000
# 2 -0.007496 0.016077 -0.001895 0.000001 0.000000 0.000000
# 3 -0.009450 -0.001895 0.014014 0.000000 0.000001 0.000000
# 4 0.000001 0.000001 0.000000 0.049132 0.000003 0.000001
# 5 -0.000001 0.000000 0.000001 0.000003 0.039010 0.000000
# 6 0.000000 0.000000 0.000000 0.000001 0.000000 0.039586
#
#
# Mechanical properties :
#
#
# Convention : Reuss Voigt Hill
#
# Bulk Modulus (GPa) = 58.11560 60.47289 59.29424
# Shear Modulus (GPa) = 22.12079 23.46372 22.79226
#
# Velocity S-wave (km/s) = 3.47484 3.57877 3.52719
# Velocity P-wave (km/s) = 6.91531 7.07712 6.99668
#
# Compressibility (1/GPa) = 0.01720708
#
# Stress axis : x y z
#
# Youngs Moduli (GPa) = 40.32832 62.20044 71.35810
#
# Poissons Ratio (x) = 0.46623 0.67432
# Poissons Ratio (y) = 0.30228 0.13521
# Poissons Ratio (z) = 0.38109 0.11786
#
# Static dielectric constant tensor:
#      x y z
#    x 3.614030 0.000000 0.000000 
#    y 0.000000 3.307470 0.000000 
#    z 0.000000 0.000000 3.372390 
# 
# 
# High freq. dielectric constant tensor:
#      x y z
#    x 1.711810 0.000000 0.000000 
#    y 0.000000 1.703540 0.000000 
#    z 0.000000 0.000000 1.708880 
# 
# From -- ./inp_files/9756.got.cif
#   From: 2010.03.12/outbox.cif.g09.slc.cpg/sg46_5_cif.got.tgz:9756.got - 2010.04.14 02:56:35.
