data_PCOD8192509
_publ_section_title
;
Structure prediction by ZEFSAII (Michael W. Deem and Ramdas Pophale) SiO2 
 PCOD8192509
Probable space group: I M A 2
;
_chemical_formula_sum "Si O2"
_cell_formula_units_Z 64
_cell_length_a 8.738132
_cell_length_b 28.721644
_cell_length_c 12.320444
_cell_angle_alpha 90.000000
_cell_angle_beta 90.000000
_cell_angle_gamma 90.000000
_cell_volume 3092.105156
_symmetry_space_group_name_H-M "I M A 2"
_symmetry_group_IT_number 46
_symmetry_cell_setting 'orthorhombic'
loop_
_space_group_symop_operation_xyz
x,y,z
-x,-y,z
1/2-x,y,z
1/2+x,-y,z
1/2+x,1/2+y,1/2+z
1/2-x,1/2-y,1/2+z
-x,1/2+y,1/2+z
x,1/2-y,1/2+z
loop_
_atom_site_type_symbol
_atom_site_label
_atom_site_fract_x
_atom_site_fract_y
_atom_site_fract_z
Si Si1 0.921082 0.840138 0.868130
Si Si2 0.567018 0.649091 0.745249
Si Si3 0.569796 0.816381 0.479542
Si Si4 0.929950 0.048255 0.188122
Si Si5 0.926518 0.136102 0.665397
Si Si6 0.578998 0.955956 0.733013
Si Si7 0.421245 0.434220 0.470730
Si Si8 0.421418 0.278364 0.566836
O O1 0.750000 0.853704 0.826859
O O2 0.983378 0.882927 0.939780
O O3 0.022432 0.828591 0.761822
O O4 0.918879 0.795595 0.943235
O O5 0.750000 0.644484 0.738686
O O6 0.510677 0.672621 0.858054
O O7 0.500458 0.596615 0.734890
O O8 0.502734 0.684434 0.650673
O O9 0.750000 0.809381 0.474185
O O10 0.521292 0.859246 0.554504
O O11 0.496131 0.771559 0.544751
O O12 0.750000 0.048425 0.210845
O O13 0.000000 0.000000 0.239835
O O14 0.962589 0.045283 0.059194
O O15 0.750000 0.142402 0.639304
O O16 0.965076 0.085745 0.710422
O O17 0.750000 0.948039 0.686448
O O18 0.584991 0.965165 0.862424
O O19 0.500000 0.000000 0.675843
O O20 0.250000 0.430671 0.522667
O O21 0.250000 0.270295 0.611384
#
# Coordination Sequence:
#
# PCOD8192509 Si02
#       8
#     8   8   8   8   8   8   8   8
#     4   9  17  33  59  86 117 154 196 245 291 349
#     4  10  21  41  64  91 126 159 203 260 309 364
#     4  10  22  39  65  92 117 158 207 255 305 361
#     4  12  24  37  58  86 121 165 208 254 308 371
#     4  11  23  38  56  82 122 162 198 245 296 355
#     4  10  20  35  57  85 117 155 201 251 303 361
#     4   9  17  32  54  83 120 156 191 242 297 353
#     4   9  18  35  64  95 119 151 197 248 301 358
#
# _framework density 20.697873000000001
#
# number of rings (size 3 to 8) (size 9 to 14) (size 15 to 20)
#    0.000    2.000    1.250    3.750    1.750    4.000 
#    0.000    1.875    0.000    3.000    0.000    0.000 
#    0.000    0.000    0.000    0.000    0.000    0.000 
#
# Total GULP energy -396435.282576 kJ/mol
# GULP energy per Si atom -12388.602580 kJ/mol
# Density = 2.065076 g / cm^3
# Si number density = 20.697873 Si / 1000 Ang^3
#
#
#
# Elastic Constant Matrix: (Units=GPa)
#
#
# Indices 1 2 3 4 5 6 
#
# 1 56.8751 33.1368 26.8947 0.0000 0.0001 0.0000
# 2 33.1368 107.0050 48.5758 0.0001 -0.0001 0.0000
# 3 26.8947 48.5758 106.1620 0.0015 0.0008 0.0001
# 4 0.0000 0.0001 0.0015 11.3838 0.0003 -0.0003
# 5 0.0001 -0.0001 0.0008 0.0003 19.2205 0.0000
# 6 0.0000 0.0000 0.0001 -0.0003 0.0000 21.7223
#
#
#
# Elastic Compliance Matrix: (Units=1/GPa)
#
#
# Indices 1 2 3 4 5 6 
#
# 1 0.022250 -0.005467 -0.003135 0.000001 0.000000 0.000000
# 2 -0.005467 0.013139 -0.004627 0.000001 0.000000 0.000000
# 3 -0.003135 -0.004627 0.012331 -0.000002 -0.000001 0.000000
# 4 0.000001 0.000001 -0.000002 0.087844 -0.000002 0.000001
# 5 0.000000 0.000000 -0.000001 -0.000002 0.052028 0.000000
# 6 0.000000 0.000000 0.000000 0.000001 0.000000 0.046036
#
#
# Mechanical properties :
#
#
# Convention : Reuss Voigt Hill
#
# Bulk Modulus (GPa) = 47.03314 54.13964 50.58639
# Shear Modulus (GPa) = 18.71447 21.22765 19.97106
#
# Velocity S-wave (km/s) = 3.01021 3.20597 3.10963
# Velocity P-wave (km/s) = 5.90380 6.31808 6.11445
#
# Compressibility (1/GPa) = 0.02126160
#
# Stress axis : x y z
#
# Youngs Moduli (GPa) = 44.94343 76.11077 81.09708
#
# Poissons Ratio (x) = 0.41610 0.25426
# Poissons Ratio (y) = 0.24571 0.37522
# Poissons Ratio (z) = 0.14091 0.35215
#
# Static dielectric constant tensor:
#      x y z
#    x 3.487840 0.000000 0.000000 
#    y 0.000000 3.905770 0.000000 
#    z 0.000000 0.000000 3.678770 
# 
# 
# High freq. dielectric constant tensor:
#      x y z
#    x 1.774960 0.000000 0.000000 
#    y 0.000000 1.820120 0.000000 
#    z 0.000000 0.000000 1.791080 
# 
# From -- ./inp_files/9777.got.cif
#   From: 2010.03.12/outbox.cif.g09.slc.cpg/sg46_5_cif.got.tgz:9777.got - 2010.04.14 02:56:35.
