data_PCOD8192274
_publ_section_title
;
Structure prediction by ZEFSAII (Michael W. Deem and Ramdas Pophale) SiO2 
 PCOD8192274
Probable space group: I M A 2
;
_chemical_formula_sum "Si O2"
_cell_formula_units_Z 40
_cell_length_a 21.525324
_cell_length_b 19.610710
_cell_length_c 5.031703
_cell_angle_alpha 90.000000
_cell_angle_beta 90.000000
_cell_angle_gamma 90.000000
_cell_volume 2124.017122
_symmetry_space_group_name_H-M "I M A 2"
_symmetry_group_IT_number 46
_symmetry_cell_setting 'orthorhombic'
loop_
_space_group_symop_operation_xyz
x,y,z
-x,-y,z
1/2-x,y,z
1/2+x,-y,z
1/2+x,1/2+y,1/2+z
1/2-x,1/2-y,1/2+z
-x,1/2+y,1/2+z
x,1/2-y,1/2+z
loop_
_atom_site_type_symbol
_atom_site_label
_atom_site_fract_x
_atom_site_fract_y
_atom_site_fract_z
Si Si1 0.680777 0.056062 0.137190
Si Si2 0.103924 0.521907 0.139035
Si Si3 0.986791 0.570887 0.369257
Si Si4 0.505462 0.208159 0.122021
Si Si5 0.848479 0.291884 0.604185
O O1 0.750000 0.026850 0.187331
O O2 0.631545 0.025227 0.344856
O O3 0.684917 0.137412 0.163461
O O4 0.659698 0.035079 0.843591
O O5 0.073519 0.446383 0.185356
O O6 0.049261 0.579866 0.183866
O O7 0.973211 0.635847 0.553332
O O8 0.000000 0.500000 0.540346
O O9 0.484125 0.234139 0.410166
O O10 0.578265 0.195639 0.111933
O O11 0.827307 0.263590 0.320193
#
# Coordination Sequence:
#
# PCOD8192274 Si02
#       5
#     8   8   8   8   8
#     4  12  22  36  51  73 106 137 186 228 254 303
#     4   9  22  35  55  75  98 139 182 213 280 301
#     4   8  19  37  58  75 107 140 178 220 263 346
#     4  10  20  31  51  80 108 134 171 219 267 308
#     4  10  20  32  48  68 103 144 181 214 250 303
#
# _framework density 18.832241
#
# number of rings (size 3 to 8) (size 9 to 14) (size 15 to 20)
#    1.200    0.800    2.000    1.800    5.600    5.600 
#    0.000    0.000    0.000    0.000    0.000    0.000 
#    0.000   16.000    0.000    0.000    0.000    0.000 
#
# Total GULP energy -247817.001703 kJ/mol
# GULP energy per Si atom -12390.850085 kJ/mol
# Density = 1.878938 g / cm^3
# Si number density = 18.832241 Si / 1000 Ang^3
#
#
#
# Elastic Constant Matrix: (Units=GPa)
#
#
# Indices 1 2 3 4 5 6 
#
# 1 73.6150 23.5717 14.5370 0.0000 0.0000 0.0000
# 2 23.5717 67.3281 6.7695 0.0000 0.0000 0.0000
# 3 14.5370 6.7695 64.4811 0.0000 0.0000 0.0000
# 4 0.0000 0.0000 0.0000 24.2162 0.0000 0.0000
# 5 0.0000 0.0000 0.0000 0.0000 12.3914 0.0000
# 6 0.0000 0.0000 0.0000 0.0000 0.0000 14.7889
#
#
#
# Elastic Compliance Matrix: (Units=1/GPa)
#
#
# Indices 1 2 3 4 5 6 
#
# 1 0.015862 -0.005249 -0.003025 0.000000 0.000000 0.000000
# 2 -0.005249 0.016748 -0.000575 0.000000 0.000000 0.000000
# 3 -0.003025 -0.000575 0.016251 0.000000 0.000000 0.000000
# 4 0.000000 0.000000 0.000000 0.041295 0.000000 0.000000
# 5 0.000000 0.000000 0.000000 0.000000 0.080701 0.000000
# 6 0.000000 0.000000 0.000000 0.000000 0.000000 0.067618
#
#
# Mechanical properties :
#
#
# Convention : Reuss Voigt Hill
#
# Bulk Modulus (GPa) = 32.08931 32.79782 32.44357
# Shear Modulus (GPa) = 18.75739 20.98236 19.86988
#
# Velocity S-wave (km/s) = 3.15941 3.34154 3.25175
# Velocity P-wave (km/s) = 5.51232 5.68696 5.60032
#
# Compressibility (1/GPa) = 0.03116302
#
# Stress axis : x y z
#
# Youngs Moduli (GPa) = 63.04225 59.70776 61.53560
#
# Poissons Ratio (x) = 0.31342 0.18615
# Poissons Ratio (y) = 0.33093 0.03537
# Poissons Ratio (z) = 0.19070 0.03432
#
# Static dielectric constant tensor:
#      x y z
#    x 3.225030 0.000000 0.000000 
#    y 0.000000 3.250160 0.000000 
#    z 0.000000 0.000000 3.416340 
# 
# 
# High freq. dielectric constant tensor:
#      x y z
#    x 1.696490 0.000000 0.000000 
#    y 0.000000 1.705980 0.000000 
#    z 0.000000 0.000000 1.733140 
# 
# From -- ./inp_files/1990.got.cif
#   From: 2010.03.12/outbox.cif.g09.slc.cpg/sg46_1_cif.got.tgz:1990.got - 2010.04.14 02:56:35.
