data_PCOD8192226
_publ_section_title
;
Structure prediction by ZEFSAII (Michael W. Deem and Ramdas Pophale) SiO2 
 PCOD8192226
Probable space group: I M A 2
;
_chemical_formula_sum "Si O2"
_cell_formula_units_Z 56
_cell_length_a 19.901698
_cell_length_b 15.755319
_cell_length_c 8.750600
_cell_angle_alpha 90.000000
_cell_angle_beta 90.000000
_cell_angle_gamma 90.000000
_cell_volume 2743.817140
_symmetry_space_group_name_H-M "I M A 2"
_symmetry_group_IT_number 46
_symmetry_cell_setting 'orthorhombic'
loop_
_space_group_symop_operation_xyz
x,y,z
-x,-y,z
1/2-x,y,z
1/2+x,-y,z
1/2+x,1/2+y,1/2+z
1/2-x,1/2-y,1/2+z
-x,1/2+y,1/2+z
x,1/2-y,1/2+z
loop_
_atom_site_type_symbol
_atom_site_label
_atom_site_fract_x
_atom_site_fract_y
_atom_site_fract_z
Si Si1 0.418803 0.049549 0.427330
Si Si2 0.554732 0.368771 0.014631
Si Si3 0.826717 0.854334 0.999745
Si Si4 0.175271 0.187937 0.352367
Si Si5 0.614308 0.265034 0.282950
Si Si6 0.425729 0.009816 0.082434
Si Si7 0.173914 0.641279 0.556630
O O1 0.478825 0.097464 0.513665
O O2 0.354581 0.109096 0.446596
O O3 0.401198 0.955267 0.490833
O O4 0.439356 0.048003 0.249274
O O5 0.568517 0.300026 0.880960
O O6 0.567451 0.325457 0.178544
O O7 0.750000 0.881634 0.956179
O O8 0.829178 0.824395 0.173476
O O9 0.878863 0.931123 0.975863
O O10 0.856719 0.778813 0.895580
O O11 0.250000 0.192601 0.416195
O O12 0.659826 0.324652 0.387970
O O13 0.667965 0.217023 0.177725
O O14 0.500000 0.000000 0.005457
O O15 0.384424 0.923705 0.102126
O O16 0.250000 0.603611 0.565210
#
# Coordination Sequence:
#
# PCOD8192226 Si02
#       7
#     8   8   8   8   8   8   8
#     4  10  19  37  60  86 119 157 198 246 297 364
#     4  10  20  39  60  86 125 156 203 254 303 368
#     4   9  19  36  57  82 112 149 192 239 290 352
#     4   9  19  35  55  81 110 148 194 237 294 354
#     4  10  22  39  62  89 118 160 203 253 310 366
#     4  11  20  37  60  87 121 160 203 241 299 367
#     4  11  22  40  62  89 122 160 207 258 311 368
#
# _framework density 20.409521999999999
#
# number of rings (size 3 to 8) (size 9 to 14) (size 15 to 20)
#    0.000    2.000    2.857    0.857    0.000    5.143 
#    5.143    1.429    0.000    0.000    0.000    0.000 
#    0.000    0.000    0.000    0.000    0.000    0.000 
#
# Total GULP energy -347043.362514 kJ/mol
# GULP energy per Si atom -12394.405804 kJ/mol
# Density = 2.036307 g / cm^3
# Si number density = 20.409522 Si / 1000 Ang^3
#
#
#
# Elastic Constant Matrix: (Units=GPa)
#
#
# Indices 1 2 3 4 5 6 
#
# 1 107.9355 47.4636 22.0860 0.0000 0.0000 0.0000
# 2 47.4636 81.8834 14.1071 0.0000 0.0000 0.0000
# 3 22.0860 14.1071 56.3840 0.0000 0.0000 0.0000
# 4 0.0000 0.0000 0.0000 32.6140 0.0000 0.0000
# 5 0.0000 0.0000 0.0000 0.0000 14.3087 0.0000
# 6 0.0000 0.0000 0.0000 0.0000 0.0000 42.0853
#
#
#
# Elastic Compliance Matrix: (Units=1/GPa)
#
#
# Indices 1 2 3 4 5 6 
#
# 1 0.013014 -0.006966 -0.003355 0.000000 0.000000 0.000000
# 2 -0.006966 0.016491 -0.001397 0.000000 0.000000 0.000000
# 3 -0.003355 -0.001397 0.019399 0.000000 0.000000 0.000000
# 4 0.000000 0.000000 0.000000 0.030662 0.000000 0.000000
# 5 0.000000 0.000000 0.000000 0.000000 0.069888 0.000000
# 6 0.000000 0.000000 0.000000 0.000000 0.000000 0.023761
#
#
# Mechanical properties :
#
#
# Convention : Reuss Voigt Hill
#
# Bulk Modulus (GPa) = 39.26463 45.94627 42.60545
# Shear Modulus (GPa) = 24.37345 28.63801 26.50573
#
# Velocity S-wave (km/s) = 3.45950 3.74995 3.60765
# Velocity P-wave (km/s) = 5.93613 6.42733 6.18661
#
# Compressibility (1/GPa) = 0.02546822
#
# Stress axis : x y z
#
# Youngs Moduli (GPa) = 76.83767 60.63930 51.54817
#
# Poissons Ratio (x) = 0.42240 0.17294
# Poissons Ratio (y) = 0.53524 0.07204
# Poissons Ratio (z) = 0.25779 0.08474
#
# Static dielectric constant tensor:
#      x y z
#    x 3.730880 0.000000 0.000000 
#    y 0.000000 3.981410 0.000000 
#    z 0.000000 0.000000 3.481570 
# 
# 
# High freq. dielectric constant tensor:
#      x y z
#    x 1.789940 0.000000 0.000000 
#    y 0.000000 1.810120 0.000000 
#    z 0.000000 0.000000 1.779430 
# 
# From -- ./inp_files/7417.got.cif
#   From: 2010.03.12/outbox.cif.g09.slc.cpg/sg46_4_cif.got.tgz:7417.got - 2010.04.14 02:56:35.
