data_PCOD8192567
_publ_section_title
;
Structure prediction by ZEFSAII (Michael W. Deem and Ramdas Pophale) SiO2 
 PCOD8192567
Probable space group: I M A 2
;
_chemical_formula_sum "Si O2"
_cell_formula_units_Z 52
_cell_length_a 15.754280
_cell_length_b 13.507758
_cell_length_c 12.680915
_cell_angle_alpha 90.000000
_cell_angle_beta 90.000000
_cell_angle_gamma 90.000000
_cell_volume 2698.562138
_symmetry_space_group_name_H-M "I M A 2"
_symmetry_group_IT_number 46
_symmetry_cell_setting 'orthorhombic'
loop_
_space_group_symop_operation_xyz
x,y,z
-x,-y,z
1/2-x,y,z
1/2+x,-y,z
1/2+x,1/2+y,1/2+z
1/2-x,1/2-y,1/2+z
-x,1/2+y,1/2+z
x,1/2-y,1/2+z
loop_
_atom_site_type_symbol
_atom_site_label
_atom_site_fract_x
_atom_site_fract_y
_atom_site_fract_z
Si Si1 0.500000 0.000000 0.829840
Si Si2 0.656030 0.946407 0.182284
Si Si3 0.459584 0.690374 0.208948
Si Si4 0.851105 0.363918 0.795942
Si Si5 0.153277 0.099284 0.951316
Si Si6 0.102159 0.286888 0.834791
Si Si7 0.469200 0.890585 0.482924
O O1 0.545531 0.082848 0.760541
O O2 0.420112 0.036673 0.896816
O O3 0.750000 0.981995 0.158072
O O4 0.660120 0.866740 0.276317
O O5 0.610220 0.047985 0.221009
O O6 0.621621 0.899821 0.073290
O O7 0.383532 0.759263 0.251363
O O8 0.549606 0.736501 0.240437
O O9 0.451832 0.677822 0.083957
O O10 0.750000 0.361755 0.800835
O O11 0.883539 0.388129 0.913876
O O12 0.250000 0.056468 0.938517
O O13 0.157043 0.208830 0.901211
O O14 0.042570 0.341643 0.916028
O O15 0.500000 0.000000 0.516251
#
# Coordination Sequence:
#
# PCOD8192567 Si02
#       7
#     4   8   8   8   8   8   8
#     4  10  22  40  58  86 122 156 202 250 308 370
#     4  10  20  36  57  84 119 154 199 252 301 363
#     4  10  22  37  60  85 119 154 200 253 303 373
#     4  10  23  39  58  88 122 162 206 253 311 374
#     4  10  22  38  59  86 118 157 198 247 308 368
#     4  10  20  36  59  88 115 153 197 252 303 364
#     4  11  20  37  62  87 116 159 205 250 304 367
#
# _framework density 19.269521999999998
#
# number of rings (size 3 to 8) (size 9 to 14) (size 15 to 20)
#    0.000    1.846    2.308    1.385    0.000    7.385 
#    0.000    1.538    0.000    0.923    0.000    0.000 
#    0.000    0.000    0.000    0.000    0.000    0.000 
#
# Total GULP energy -322200.081716 kJ/mol
# GULP energy per Si atom -12392.310835 kJ/mol
# Density = 1.922566 g / cm^3
# Si number density = 19.269522 Si / 1000 Ang^3
#
#
#
# Elastic Constant Matrix: (Units=GPa)
#
#
# Indices 1 2 3 4 5 6 
#
# 1 78.5020 27.4710 35.0519 0.0000 0.0000 0.0000
# 2 27.4710 119.5082 53.4576 0.0000 0.0000 0.0000
# 3 35.0519 53.4576 140.0168 0.0000 0.0000 0.0000
# 4 0.0000 0.0000 0.0000 26.9233 0.0000 0.0000
# 5 0.0000 0.0000 0.0000 0.0000 21.0934 0.0000
# 6 0.0000 0.0000 0.0000 0.0000 0.0000 14.5212
#
#
#
# Elastic Compliance Matrix: (Units=1/GPa)
#
#
# Indices 1 2 3 4 5 6 
#
# 1 0.014766 -0.002099 -0.002895 0.000000 0.000000 0.000000
# 2 -0.002099 0.010389 -0.003441 0.000000 0.000000 0.000000
# 3 -0.002895 -0.003441 0.009181 0.000000 0.000000 0.000000
# 4 0.000000 0.000000 0.000000 0.037143 0.000000 0.000000
# 5 0.000000 0.000000 0.000000 0.000000 0.047408 0.000000
# 6 0.000000 0.000000 0.000000 0.000000 0.000000 0.068865
#
#
# Mechanical properties :
#
#
# Convention : Reuss Voigt Hill
#
# Bulk Modulus (GPa) = 57.25706 63.33202 60.29454
# Shear Modulus (GPa) = 23.75934 27.31068 25.53501
#
# Velocity S-wave (km/s) = 3.51522 3.76879 3.64421
# Velocity P-wave (km/s) = 6.80103 7.20251 7.00465
#
# Compressibility (1/GPa) = 0.01746509
#
# Stress axis : x y z
#
# Youngs Moduli (GPa) = 67.72421 96.25188 108.92610
#
# Poissons Ratio (x) = 0.20205 0.31534
# Poissons Ratio (y) = 0.14217 0.37483
# Poissons Ratio (z) = 0.19606 0.33121
#
# Static dielectric constant tensor:
#      x y z
#    x 3.376320 0.000000 0.000000 
#    y 0.000000 3.805700 0.000000 
#    z 0.000000 0.000000 3.770230 
# 
# 
# High freq. dielectric constant tensor:
#      x y z
#    x 1.740120 0.000000 0.000000 
#    y 0.000000 1.758440 0.000000 
#    z 0.000000 0.000000 1.758540 
# 
# From -- ./inp_files/11880.got.cif
#   From: 2010.03.12/outbox.cif.g09.slc.cpg/sg46_6_cif.got.tgz:11880.got - 2010.04.14 02:56:35.
