data_PCOD8192317
_publ_section_title
;
Structure prediction by ZEFSAII (Michael W. Deem and Ramdas Pophale) SiO2 
 PCOD8192317
Probable space group: I M A 2
;
_chemical_formula_sum "Si O2"
_cell_formula_units_Z 64
_cell_length_a 8.806333
_cell_length_b 27.698266
_cell_length_c 14.396998
_cell_angle_alpha 90.000000
_cell_angle_beta 90.000000
_cell_angle_gamma 90.000000
_cell_volume 3511.717968
_symmetry_space_group_name_H-M "I M A 2"
_symmetry_group_IT_number 46
_symmetry_cell_setting 'orthorhombic'
loop_
_space_group_symop_operation_xyz
x,y,z
-x,-y,z
1/2-x,y,z
1/2+x,-y,z
1/2+x,1/2+y,1/2+z
1/2-x,1/2-y,1/2+z
-x,1/2+y,1/2+z
x,1/2-y,1/2+z
loop_
_atom_site_type_symbol
_atom_site_label
_atom_site_fract_x
_atom_site_fract_y
_atom_site_fract_z
Si Si1 0.418686 0.767927 0.402350
Si Si2 0.429809 0.948703 0.440529
Si Si3 0.084244 0.771869 0.697634
Si Si4 0.073450 0.362679 0.257466
Si Si5 0.570975 0.169053 0.143445
Si Si6 0.072746 0.949585 0.652967
Si Si7 0.069539 0.139201 0.334680
Si Si8 0.071630 0.174209 0.959252
O O1 0.250000 0.773565 0.447182
O O2 0.400713 0.749542 0.299181
O O3 0.502685 0.819343 0.401786
O O4 0.517586 0.729702 0.459089
O O5 0.250000 0.948859 0.423414
O O6 0.470408 0.935974 0.547264
O O7 0.510701 0.911213 0.373197
O O8 0.500000 0.000000 0.413823
O O9 0.250000 0.791024 0.665196
O O10 0.030542 0.726383 0.636385
O O11 0.966841 0.816145 0.693780
O O12 0.250000 0.372806 0.247223
O O13 0.025500 0.352889 0.364128
O O14 0.983693 0.408858 0.222913
O O15 0.750000 0.160291 0.155208
O O16 0.485720 0.143867 0.228639
O O17 0.510107 0.147205 0.045865
O O18 0.250000 0.955520 0.664974
O O19 0.000000 0.000000 0.683093
O O20 0.250000 0.141833 0.337211
O O21 0.250000 0.172862 0.974310
#
# Coordination Sequence:
#
# PCOD8192317 Si02
#       8
#     8   8   8   8   8   8   8   8
#     4   9  17  31  49  70  99 136 176 216 256 303
#     4  10  21  38  58  81 106 133 168 212 263 319
#     4   8  16  30  47  68  96 131 172 212 252 296
#     4  10  20  33  52  77 106 138 174 214 258 309
#     4  10  20  34  52  75 106 145 183 220 261 310
#     4  10  21  37  58  80 104 132 166 210 260 313
#     4  11  21  34  54  79 107 140 177 219 264 314
#     4  10  20  33  50  76 108 143 181 221 262 308
#
# _framework density 18.224696999999999
#
# number of rings (size 3 to 8) (size 9 to 14) (size 15 to 20)
#    0.000    2.250    0.000    4.125    0.000    7.500 
#    0.000    1.250    0.000    0.750    0.000    1.750 
#    0.000    0.000    0.000    0.000    0.000    0.000 
#
# Total GULP energy -396726.048141 kJ/mol
# GULP energy per Si atom -12397.689004 kJ/mol
# Density = 1.818322 g / cm^3
# Si number density = 18.224697 Si / 1000 Ang^3
#
#
#
# Elastic Constant Matrix: (Units=GPa)
#
#
# Indices 1 2 3 4 5 6 
#
# 1 100.4156 53.1850 34.4038 0.0001 0.0000 0.0000
# 2 53.1850 111.5654 48.0628 0.0001 0.0000 0.0000
# 3 34.4038 48.0628 78.8851 0.0005 0.0000 0.0000
# 4 0.0001 0.0001 0.0005 22.3774 0.0000 0.0000
# 5 0.0000 0.0000 0.0000 0.0000 25.9538 0.0001
# 6 0.0000 0.0000 0.0000 0.0000 0.0001 33.7524
#
#
#
# Elastic Compliance Matrix: (Units=1/GPa)
#
#
# Indices 1 2 3 4 5 6 
#
# 1 0.013738 -0.005380 -0.002713 0.000000 0.000000 0.000000
# 2 -0.005380 0.014260 -0.006342 0.000000 0.000000 0.000000
# 3 -0.002713 -0.006342 0.017724 0.000000 0.000000 0.000000
# 4 0.000000 0.000000 0.000000 0.044688 0.000000 0.000000
# 5 0.000000 0.000000 0.000000 0.000000 0.038530 0.000000
# 6 0.000000 0.000000 0.000000 0.000000 0.000000 0.029628
#
#
# Mechanical properties :
#
#
# Convention : Reuss Voigt Hill
#
# Bulk Modulus (GPa) = 59.34345 62.46325 60.90335
# Shear Modulus (GPa) = 25.89922 26.76436 26.33179
#
# Velocity S-wave (km/s) = 3.77385 3.83636 3.80523
# Velocity P-wave (km/s) = 7.18485 7.34656 7.26615
#
# Compressibility (1/GPa) = 0.01685106
#
# Stress axis : x y z
#
# Youngs Moduli (GPa) = 72.79166 70.12466 56.42015
#
# Poissons Ratio (x) = 0.37728 0.15309
# Poissons Ratio (y) = 0.39162 0.35782
# Poissons Ratio (z) = 0.19752 0.44474
#
# Static dielectric constant tensor:
#      x y z
#    x 3.480810 0.000000 0.000000 
#    y 0.000000 3.282920 0.000000 
#    z 0.000000 0.000000 3.500230 
# 
# 
# High freq. dielectric constant tensor:
#      x y z
#    x 1.720920 0.000000 0.000000 
#    y 0.000000 1.683030 0.000000 
#    z 0.000000 0.000000 1.703220 
# 
# From -- ./inp_files/14522.got.cif
#   From: 2010.03.12/outbox.cif.g09.slc.cpg/sg46_8_cif.got.tgz:14522.got - 2010.04.14 02:56:35.
