data_PCOD8192562
_publ_section_title
;
Structure prediction by ZEFSAII (Michael W. Deem and Ramdas Pophale) SiO2 
 PCOD8192562
Probable space group: I M A 2
;
_chemical_formula_sum "Si O2"
_cell_formula_units_Z 40
_cell_length_a 8.521972
_cell_length_b 29.536351
_cell_length_c 7.861893
_cell_angle_alpha 90.000000
_cell_angle_beta 90.000000
_cell_angle_gamma 90.000000
_cell_volume 1978.901019
_symmetry_space_group_name_H-M "I M A 2"
_symmetry_group_IT_number 46
_symmetry_cell_setting 'orthorhombic'
loop_
_space_group_symop_operation_xyz
x,y,z
-x,-y,z
1/2-x,y,z
1/2+x,-y,z
1/2+x,1/2+y,1/2+z
1/2-x,1/2-y,1/2+z
-x,1/2+y,1/2+z
x,1/2-y,1/2+z
loop_
_atom_site_type_symbol
_atom_site_label
_atom_site_fract_x
_atom_site_fract_y
_atom_site_fract_z
Si Si1 0.429201 0.393226 0.982510
Si Si2 0.063661 0.386406 0.599322
Si Si3 0.428428 0.707709 0.611487
Si Si4 0.427639 0.206505 0.457009
Si Si5 0.936549 0.949865 0.794729
O O1 0.250000 0.408217 0.967480
O O2 0.500848 0.398209 0.790468
O O3 0.443528 0.341680 0.053947
O O4 0.508169 0.425692 0.124952
O O5 0.250000 0.380970 0.604598
O O6 0.007165 0.424345 0.466161
O O7 0.993796 0.338759 0.531304
O O8 0.250000 0.715474 0.552649
O O9 0.536717 0.750859 0.573255
O O10 0.440572 0.704214 0.813138
O O11 0.250000 0.210391 0.383623
O O12 0.750000 0.949576 0.788043
O O13 0.000000 0.000000 0.803764
#
# Coordination Sequence:
#
# PCOD8192562 Si02
#       5
#     8   8   8   8   8
#     4   8  17  35  56  79 106 142 191 236 272 333
#     4   9  19  37  58  78 109 153 195 232 280 354
#     4  11  22  35  53  85 120 148 187 245 300 339
#     4  10  20  36  57  80 110 156 201 232 281 356
#     4  10  21  37  58  84 110 143 190 241 292 347
#
# _framework density 20.213238
#
# number of rings (size 3 to 8) (size 9 to 14) (size 15 to 20)
#    0.000    2.400    0.000    3.600    2.800    1.600 
#    0.000    5.000    0.000    0.000    0.000    0.000 
#    0.000    0.000    0.000    0.000    0.000    0.000 
#
# Total GULP energy -247818.996369 kJ/mol
# GULP energy per Si atom -12390.949818 kJ/mol
# Density = 2.016723 g / cm^3
# Si number density = 20.213238 Si / 1000 Ang^3
#
#
#
# Elastic Constant Matrix: (Units=GPa)
#
#
# Indices 1 2 3 4 5 6 
#
# 1 42.2709 29.9982 20.8105 0.0017 -0.0009 -0.0002
# 2 29.9982 163.7316 78.8942 0.0087 -0.0020 -0.0020
# 3 20.8105 78.8942 113.3026 0.0206 -0.0016 -0.0029
# 4 0.0017 0.0087 0.0206 37.5138 -0.0011 -0.0009
# 5 -0.0009 -0.0020 -0.0016 -0.0011 15.5382 0.0015
# 6 -0.0002 -0.0020 -0.0029 -0.0009 0.0015 31.4617
#
#
#
# Elastic Compliance Matrix: (Units=1/GPa)
#
#
# Indices 1 2 3 4 5 6 
#
# 1 0.027595 -0.003933 -0.002330 0.000001 0.000001 0.000000
# 2 -0.003933 0.009752 -0.006068 0.000001 0.000000 0.000000
# 3 -0.002330 -0.006068 0.013479 -0.000006 0.000000 0.000001
# 4 0.000001 0.000001 -0.000006 0.026657 0.000002 0.000001
# 5 0.000001 0.000000 0.000000 0.000002 0.064358 -0.000003
# 6 0.000000 0.000000 0.000001 0.000001 -0.000003 0.031785
#
#
# Mechanical properties :
#
#
# Convention : Reuss Voigt Hill
#
# Bulk Modulus (GPa) = 38.21997 64.30120 51.26059
# Shear Modulus (GPa) = 24.15350 29.54287 26.84818
#
# Velocity S-wave (km/s) = 3.46053 3.82718 3.64847
# Velocity P-wave (km/s) = 5.90902 7.17010 6.56988
#
# Compressibility (1/GPa) = 0.02616433
#
# Stress axis : x y z
#
# Youngs Moduli (GPa) = 36.23814 102.54175 74.18884
#
# Poissons Ratio (x) = 0.40333 0.17283
# Poissons Ratio (y) = 0.14254 0.45019
# Poissons Ratio (z) = 0.08442 0.62223
#
# Static dielectric constant tensor:
#      x y z
#    x 3.266340 0.000000 0.000010 
#    y 0.000000 4.073070 0.000000 
#    z 0.000010 0.000000 3.860420 
# 
# 
# High freq. dielectric constant tensor:
#      x y z
#    x 1.757970 0.000000 0.000000 
#    y 0.000000 1.794260 0.000000 
#    z 0.000000 0.000000 1.783930 
# 
# From -- ./inp_files/3515.got.cif
#   From: 2010.03.12/outbox.cif.g09.slc.cpg/sg46_2_cif.got.tgz:3515.got - 2010.04.14 02:56:35.
