data_PCOD8192560
_publ_section_title
;
Structure prediction by ZEFSAII (Michael W. Deem and Ramdas Pophale) SiO2 
 PCOD8192560
Probable space group: I M A 2
;
_chemical_formula_sum "Si O2"
_cell_formula_units_Z 40
_cell_length_a 8.684073
_cell_length_b 9.662904
_cell_length_c 25.247626
_cell_angle_alpha 90.000000
_cell_angle_beta 90.000000
_cell_angle_gamma 90.000000
_cell_volume 2118.613224
_symmetry_space_group_name_H-M "I M A 2"
_symmetry_group_IT_number 46
_symmetry_cell_setting 'orthorhombic'
loop_
_space_group_symop_operation_xyz
x,y,z
-x,-y,z
1/2-x,y,z
1/2+x,-y,z
1/2+x,1/2+y,1/2+z
1/2-x,1/2-y,1/2+z
-x,1/2+y,1/2+z
x,1/2-y,1/2+z
loop_
_atom_site_type_symbol
_atom_site_label
_atom_site_fract_x
_atom_site_fract_y
_atom_site_fract_z
Si Si1 0.930255 0.854266 0.649280
Si Si2 0.568171 0.852906 0.770309
Si Si3 0.432571 0.150171 0.464672
Si Si4 0.068323 0.151889 0.059488
Si Si5 0.067745 0.649100 0.854134
O O1 0.750000 0.870693 0.641784
O O2 0.973848 0.817998 0.709574
O O3 0.993160 0.731313 0.611892
O O4 0.000000 0.000000 0.631123
O O5 0.750000 0.849873 0.780654
O O6 0.481232 0.743093 0.805663
O O7 0.500000 0.000000 0.786507
O O8 0.250000 0.136696 0.460794
O O9 0.484963 0.260108 0.508670
O O10 0.498837 0.206378 0.409136
O O11 0.500000 0.000000 0.479008
O O12 0.250000 0.137484 0.061127
O O13 0.000000 0.000000 0.056812
O O14 0.250000 0.641295 0.858854
O O15 0.000000 0.500000 0.841735
#
# Coordination Sequence:
#
# PCOD8192560 Si02
#       5
#     8   8   8   8   8
#     4   9  19  36  57  81 108 141 180 220 263 317
#     4  10  20  36  57  82 112 144 182 224 269 322
#     4  10  20  36  57  80 107 140 181 223 266 321
#     4  10  22  37  54  80 111 141 176 220 268 318
#     4  11  22  37  57  81 110 144 183 225 272 322
#
# _framework density 18.880275999999999
#
# number of rings (size 3 to 8) (size 9 to 14) (size 15 to 20)
#    0.000    2.000    0.000    4.800    0.000    4.800 
#    0.000    4.000    0.000    0.000    0.000    0.000 
#    0.000    0.000    0.000    0.000    0.000    0.000 
#
# Total GULP energy -248036.449139 kJ/mol
# GULP energy per Si atom -12401.822457 kJ/mol
# Density = 1.883730 g / cm^3
# Si number density = 18.880276 Si / 1000 Ang^3
#
#
#
# Elastic Constant Matrix: (Units=GPa)
#
#
# Indices 1 2 3 4 5 6 
#
# 1 77.5965 46.6924 46.9748 0.0000 0.0000 0.0000
# 2 46.6924 140.4623 100.4962 0.0000 0.0000 0.0000
# 3 46.9748 100.4962 138.0745 0.0000 0.0000 0.0000
# 4 0.0000 0.0000 0.0000 37.5626 0.0000 0.0000
# 5 0.0000 0.0000 0.0000 0.0000 144.7114 0.0000
# 6 0.0000 0.0000 0.0000 0.0000 0.0000 37.5255
#
#
#
# Elastic Compliance Matrix: (Units=1/GPa)
#
#
# Indices 1 2 3 4 5 6 
#
# 1 0.016865 -0.003132 -0.003458 0.000000 0.000000 0.000000
# 2 -0.003132 0.015437 -0.010170 0.000000 0.000000 0.000000
# 3 -0.003458 -0.010170 0.015821 0.000000 0.000000 0.000000
# 4 0.000000 0.000000 0.000000 0.026622 0.000000 0.000000
# 5 0.000000 0.000000 0.000000 0.000000 0.006910 0.000000
# 6 0.000000 0.000000 0.000000 0.000000 0.000000 0.026649
#
#
# Mechanical properties :
#
#
# Convention : Reuss Voigt Hill
#
# Bulk Modulus (GPa) = 68.48008 82.71778 75.59893
# Shear Modulus (GPa) = 34.08497 54.75789 44.42143
#
# Velocity S-wave (km/s) = 4.25352 5.39126 4.85582
# Velocity P-wave (km/s) = 7.77642 9.09181 8.45972
#
# Compressibility (1/GPa) = 0.01460279
#
# Stress axis : x y z
#
# Youngs Moduli (GPa) = 59.29307 64.78028 63.20723
#
# Poissons Ratio (x) = 0.20291 0.21857
# Poissons Ratio (y) = 0.18572 0.64281
# Poissons Ratio (z) = 0.20504 0.65881
#
# Static dielectric constant tensor:
#      x y z
#    x 3.493240 0.000000 0.000000 
#    y 0.000000 3.501150 0.000000 
#    z 0.000000 0.000000 3.748290 
# 
# 
# High freq. dielectric constant tensor:
#      x y z
#    x 1.740160 0.000000 0.000000 
#    y 0.000000 1.732050 0.000000 
#    z 0.000000 0.000000 1.746970 
# 
# From -- ./inp_files/22731.got.cif
#   From: 2010.03.12/outbox.cif.g09.slc.cpg/sg46_12_cif.got.tgz:22731.got - 2010.04.14 02:56:35.
