data_PCOD8192773
_publ_section_title
;
Structure prediction by ZEFSAII (Michael W. Deem and Ramdas Pophale) SiO2 
 PCOD8192773
Probable space group: I M A 2
;
_chemical_formula_sum "Si O2"
_cell_formula_units_Z 64
_cell_length_a 17.908056
_cell_length_b 6.784670
_cell_length_c 26.252737
_cell_angle_alpha 90.000000
_cell_angle_beta 90.000000
_cell_angle_gamma 90.000000
_cell_volume 3189.714117
_symmetry_space_group_name_H-M "I M A 2"
_symmetry_group_IT_number 46
_symmetry_cell_setting 'orthorhombic'
loop_
_space_group_symop_operation_xyz
x,y,z
-x,-y,z
1/2-x,y,z
1/2+x,-y,z
1/2+x,1/2+y,1/2+z
1/2-x,1/2-y,1/2+z
-x,1/2+y,1/2+z
x,1/2-y,1/2+z
loop_
_atom_site_type_symbol
_atom_site_label
_atom_site_fract_x
_atom_site_fract_y
_atom_site_fract_z
Si Si1 0.082379 0.062451 0.434070
Si Si2 0.031367 0.203193 0.250447
Si Si3 0.833052 0.328527 0.404727
Si Si4 0.568537 0.891751 0.853901
Si Si5 0.665649 0.727697 0.185916
Si Si6 0.566288 0.127418 0.658215
Si Si7 0.164417 0.551420 0.602035
Si Si8 0.834306 0.630232 0.496624
O O1 0.087409 0.191635 0.382919
O O2 0.116986 0.177440 0.482520
O O3 0.126380 0.868808 0.419885
O O4 0.000000 0.000000 0.450005
O O5 0.043395 0.354448 0.296212
O O6 0.113218 0.163684 0.226832
O O7 0.026799 0.717313 0.208384
O O8 0.000000 0.000000 0.272993
O O9 0.750000 0.268172 0.390272
O O10 0.865179 0.446480 0.355729
O O11 0.838615 0.475721 0.451592
O O12 0.500000 0.000000 0.882923
O O13 0.750000 0.710759 0.207241
O O14 0.634596 0.509773 0.175261
O O15 0.663670 0.854775 0.135018
O O16 0.602853 0.292278 0.621965
O O17 0.500000 0.000000 0.630111
O O18 0.250000 0.638141 0.600634
O O19 0.136227 0.482276 0.546653
O O20 0.750000 0.704605 0.505946
#
# Coordination Sequence:
#
# PCOD8192773 Si02
#       8
#     8   8   8   8   8   8   8   8
#     4  11  21  39  63  92 121 159 211 262 324 389
#     4  11  22  40  64  89 122 167 210 256 320 381
#     4  10  22  41  63  90 124 162 207 266 323 380
#     4  11  22  39  65  88 118 162 207 253 317 385
#     4  10  21  38  61  88 121 161 207 256 306 368
#     4  10  21  38  61  87 122 163 211 261 315 369
#     4  10  20  39  63  89 124 171 213 257 315 378
#     4   9  21  39  63  89 125 167 208 261 320 381
#
# _framework density 20.064495000000001
#
# number of rings (size 3 to 8) (size 9 to 14) (size 15 to 20)
#    0.000    1.750    2.500    2.250    0.000    2.000 
#    0.000   11.250    0.000    0.000    0.000    0.000 
#    0.000    0.000    0.000    0.000    0.000    0.000 
#
# Total GULP energy -396652.557919 kJ/mol
# GULP energy per Si atom -12395.392435 kJ/mol
# Density = 2.001883 g / cm^3
# Si number density = 20.064495 Si / 1000 Ang^3
#
#
#
# Elastic Constant Matrix: (Units=GPa)
#
#
# Indices 1 2 3 4 5 6 
#
# 1 158.7432 79.8073 51.7236 0.0000 0.0000 0.0000
# 2 79.8073 116.3637 45.0692 0.0000 0.0000 0.0000
# 3 51.7236 45.0692 94.7782 0.0000 0.0000 0.0000
# 4 0.0000 0.0000 0.0000 22.7350 0.0000 0.0000
# 5 0.0000 0.0000 0.0000 0.0000 20.5590 0.0000
# 6 0.0000 0.0000 0.0000 0.0000 0.0000 37.1945
#
#
#
# Elastic Compliance Matrix: (Units=1/GPa)
#
#
# Indices 1 2 3 4 5 6 
#
# 1 0.010162 -0.005910 -0.002735 0.000000 0.000000 0.000000
# 2 -0.005910 0.013971 -0.003418 0.000000 0.000000 0.000000
# 3 -0.002735 -0.003418 0.013669 0.000000 0.000000 0.000000
# 4 0.000000 0.000000 0.000000 0.043985 0.000000 0.000000
# 5 0.000000 0.000000 0.000000 0.000000 0.048640 0.000000
# 6 0.000000 0.000000 0.000000 0.000000 0.000000 0.026886
#
#
# Mechanical properties :
#
#
# Convention : Reuss Voigt Hill
#
# Bulk Modulus (GPa) = 73.12678 80.34281 76.73480
# Shear Modulus (GPa) = 26.88184 28.98337 27.93261
#
# Velocity S-wave (km/s) = 3.66426 3.80479 3.73519
# Velocity P-wave (km/s) = 7.37749 7.70916 7.54515
#
# Compressibility (1/GPa) = 0.01367488
#
# Stress axis : x y z
#
# Youngs Moduli (GPa) = 98.40545 71.57634 73.15736
#
# Poissons Ratio (x) = 0.42303 0.20011
# Poissons Ratio (y) = 0.58159 0.25007
# Poissons Ratio (z) = 0.26917 0.24466
#
# Static dielectric constant tensor:
#      x y z
#    x 4.471130 0.000000 0.000000 
#    y 0.000000 3.753830 0.000000 
#    z 0.000000 0.000000 3.476240 
# 
# 
# High freq. dielectric constant tensor:
#      x y z
#    x 1.794590 0.000000 0.000000 
#    y 0.000000 1.795940 0.000000 
#    z 0.000000 0.000000 1.764450 
# 
# From -- ./inp_files/25501.got.cif
#   From: 2010.03.12/outbox.cif.g09.slc.cpg/sg46_13_cif.got.tgz:25501.got - 2010.04.14 02:56:35.
