data_PCOD8192272
_publ_section_title
;
Structure prediction by ZEFSAII (Michael W. Deem and Ramdas Pophale) SiO2 
 PCOD8192272
Probable space group: I M A 2
;
_chemical_formula_sum "Si O2"
_cell_formula_units_Z 64
_cell_length_a 8.670901
_cell_length_b 29.987724
_cell_length_c 14.377927
_cell_angle_alpha 90.000000
_cell_angle_beta 90.000000
_cell_angle_gamma 90.000000
_cell_volume 3738.557004
_symmetry_space_group_name_H-M "I M A 2"
_symmetry_group_IT_number 46
_symmetry_cell_setting 'orthorhombic'
loop_
_space_group_symop_operation_xyz
x,y,z
-x,-y,z
1/2-x,y,z
1/2+x,-y,z
1/2+x,1/2+y,1/2+z
1/2-x,1/2-y,1/2+z
-x,1/2+y,1/2+z
x,1/2-y,1/2+z
loop_
_atom_site_type_symbol
_atom_site_label
_atom_site_fract_x
_atom_site_fract_y
_atom_site_fract_z
Si Si1 0.433227 0.214719 0.500000
Si Si2 0.071881 0.368094 0.879442
Si Si3 0.432141 0.302084 0.389245
Si Si4 0.422474 0.673788 0.711769
Si Si5 0.428871 0.871137 0.021273
Si Si6 0.068590 0.953136 0.317141
Si Si7 0.067532 0.453024 0.616073
Si Si8 0.926078 0.277361 0.201557
O O1 0.250000 0.216170 0.503383
O O2 0.491249 0.169404 0.450066
O O3 0.494811 0.257884 0.443081
O O4 0.499234 0.212797 0.602743
O O5 0.250000 0.378170 0.896662
O O6 0.048569 0.350112 0.775103
O O7 0.979348 0.414618 0.890478
O O8 0.250000 0.304809 0.397912
O O9 0.506045 0.346832 0.430683
O O10 0.480398 0.302674 0.281575
O O11 0.250000 0.657116 0.739116
O O12 0.458278 0.662955 0.605352
O O13 0.438088 0.725868 0.726028
O O14 0.250000 0.882641 0.007489
O O15 0.521395 0.916690 0.039191
O O16 0.250000 0.957842 0.311020
O O17 0.000000 0.000000 0.351747
O O18 0.004785 0.939851 0.215538
O O19 0.250000 0.456351 0.626877
O O20 0.000000 0.500000 0.581763
O O21 0.750000 0.293843 0.200336
#
# Coordination Sequence:
#
# PCOD8192272 Si02
#       8
#     8   8   8   8   8   8   8   8
#     4  10  22  36  52  75 104 139 178 218 262 312
#     4  11  21  34  52  76 104 140 179 218 261 315
#     4  11  22  36  53  76 105 141 180 220 263 313
#     4  10  20  31  48  73 105 140 176 218 260 306
#     4  11  21  35  52  77 107 141 180 219 261 314
#     4  11  21  34  51  75 105 139 174 216 262 315
#     4  11  21  34  52  76 105 140 175 216 263 315
#     4  11  22  36  53  74 103 140 180 225 266 305
#
# _framework density 17.118905000000002
#
# number of rings (size 3 to 8) (size 9 to 14) (size 15 to 20)
#    0.000    1.250    3.750    4.500    0.000    2.500 
#    0.000    0.000    0.000    0.000    0.000    0.875 
#    0.000    4.000    0.000    0.000    0.000    0.000 
#
# Total GULP energy -396882.117944 kJ/mol
# GULP energy per Si atom -12402.566186 kJ/mol
# Density = 1.707994 g / cm^3
# Si number density = 17.118905 Si / 1000 Ang^3
#
#
#
# Elastic Constant Matrix: (Units=GPa)
#
#
# Indices 1 2 3 4 5 6 
#
# 1 85.3502 40.1445 24.9717 -0.0002 0.0000 0.0000
# 2 40.1445 101.9890 34.7057 -0.0003 0.0000 0.0000
# 3 24.9717 34.7057 73.1223 -0.0014 -0.0001 -0.0001
# 4 -0.0002 -0.0003 -0.0014 27.2428 -0.0001 -0.0001
# 5 0.0000 0.0000 -0.0001 -0.0001 26.2449 -0.0001
# 6 0.0000 0.0000 -0.0001 -0.0001 -0.0001 28.7797
#
#
#
# Elastic Compliance Matrix: (Units=1/GPa)
#
#
# Indices 1 2 3 4 5 6 
#
# 1 0.014823 -0.004904 -0.002735 0.000000 0.000000 0.000000
# 2 -0.004904 0.013316 -0.004645 0.000000 0.000000 0.000000
# 3 -0.002735 -0.004645 0.016814 0.000001 0.000000 0.000000
# 4 0.000000 0.000000 0.000001 0.036707 0.000000 0.000000
# 5 0.000000 0.000000 0.000000 0.000000 0.038103 0.000000
# 6 0.000000 0.000000 0.000000 0.000000 0.000000 0.034747
#
#
# Mechanical properties :
#
#
# Convention : Reuss Voigt Hill
#
# Bulk Modulus (GPa) = 49.05438 51.12282 50.08860
# Shear Modulus (GPa) = 26.90005 27.16278 27.03142
#
# Velocity S-wave (km/s) = 3.96835 3.98768 3.97802
# Velocity P-wave (km/s) = 7.05084 7.15055 7.10087
#
# Compressibility (1/GPa) = 0.02038554
#
# Stress axis : x y z
#
# Youngs Moduli (GPa) = 67.46199 75.09720 59.47278
#
# Poissons Ratio (x) = 0.36828 0.16263
# Poissons Ratio (y) = 0.33084 0.27627
# Poissons Ratio (z) = 0.18448 0.34885
#
# Static dielectric constant tensor:
#      x y z
#    x 3.269320 0.000000 0.000000 
#    y 0.000000 3.308620 0.000000 
#    z 0.000000 0.000000 2.973280 
# 
# 
# High freq. dielectric constant tensor:
#      x y z
#    x 1.673810 0.000000 0.000000 
#    y 0.000000 1.659340 0.000000 
#    z 0.000000 0.000000 1.628030 
# 
# From -- ./inp_files/9675.got.cif
#   From: 2010.03.12/outbox.cif.g09.slc.cpg/sg46_5_cif.got.tgz:9675.got - 2010.04.14 02:56:35.
