data_PCOD8192997
_publ_section_title
;
Structure prediction by ZEFSAII (Michael W. Deem and Ramdas Pophale) SiO2 
 PCOD8192997
Probable space group: I M A 2
;
_chemical_formula_sum "Si O2"
_cell_formula_units_Z 48
_cell_length_a 29.775727
_cell_length_b 7.288639
_cell_length_c 9.261902
_cell_angle_alpha 90.000000
_cell_angle_beta 90.000000
_cell_angle_gamma 90.000000
_cell_volume 2010.059883
_symmetry_space_group_name_H-M "I M A 2"
_symmetry_group_IT_number 46
_symmetry_cell_setting 'orthorhombic'
loop_
_space_group_symop_operation_xyz
x,y,z
-x,-y,z
1/2-x,y,z
1/2+x,-y,z
1/2+x,1/2+y,1/2+z
1/2-x,1/2-y,1/2+z
-x,1/2+y,1/2+z
x,1/2-y,1/2+z
loop_
_atom_site_type_symbol
_atom_site_label
_atom_site_fract_x
_atom_site_fract_y
_atom_site_fract_z
Si Si1 0.660809 0.590096 0.416900
Si Si2 0.801072 0.880926 0.233399
Si Si3 0.488598 0.215459 0.540554
Si Si4 0.567257 0.643821 0.295831
Si Si5 0.419000 0.779782 0.645732
Si Si6 0.640545 0.331862 0.876819
O O1 0.697714 0.682884 0.312426
O O2 0.670744 0.622625 0.585131
O O3 0.614533 0.697162 0.370357
O O4 0.659776 0.374660 0.382019
O O5 0.750000 0.931286 0.194958
O O6 0.818714 0.027164 0.353627
O O7 0.475364 0.309435 0.393148
O O8 0.445895 0.245899 0.646723
O O9 0.535318 0.314293 0.587999
O O10 0.500000 0.000000 0.522117
O O11 0.568095 0.427522 0.267169
O O12 0.390115 0.631496 0.734115
O O13 0.388701 0.872367 0.519717
#
# Coordination Sequence:
#
# PCOD8192997 Si02
#       6
#     8   8   8   8   8   8
#     4  11  26  48  75 107 148 194 240 304 378 438
#     4  12  28  47  74 109 143 188 249 307 375 453
#     4  10  21  39  63 102 144 188 245 303 347 432
#     4  10  22  41  66 103 140 191 243 297 358 432
#     4  10  22  43  69 102 144 187 246 292 364 426
#     4  11  24  48  74 106 142 201 236 307 369 442
#
# _framework density 23.879885000000002
#
# number of rings (size 3 to 8) (size 9 to 14) (size 15 to 20)
#    0.000    1.333    1.667    2.500    9.333    2.667 
#    0.000    2.500    0.000    0.000    0.000    0.000 
#    0.000    0.000    0.000    0.000    0.000    0.000 
#
# Total GULP energy -297488.000785 kJ/mol
# GULP energy per Si atom -12395.333366 kJ/mol
# Density = 2.382553 g / cm^3
# Si number density = 23.879885 Si / 1000 Ang^3
#
#
#
# Elastic Constant Matrix: (Units=GPa)
#
#
# Indices 1 2 3 4 5 6 
#
# 1 117.9827 35.3454 52.0122 0.0000 0.0000 0.0000
# 2 35.3454 73.5770 36.0876 0.0000 0.0000 0.0000
# 3 52.0122 36.0876 132.3066 0.0000 0.0000 0.0000
# 4 0.0000 0.0000 0.0000 32.7711 0.0000 0.0000
# 5 0.0000 0.0000 0.0000 0.0000 33.0626 0.0000
# 6 0.0000 0.0000 0.0000 0.0000 0.0000 24.8176
#
#
#
# Elastic Compliance Matrix: (Units=1/GPa)
#
#
# Indices 1 2 3 4 5 6 
#
# 1 0.011048 -0.003668 -0.003343 0.000000 0.000000 0.000000
# 2 -0.003668 0.016908 -0.003170 0.000000 0.000000 0.000000
# 3 -0.003343 -0.003170 0.009737 0.000000 0.000000 0.000000
# 4 0.000000 0.000000 0.000000 0.030515 0.000000 0.000000
# 5 0.000000 0.000000 0.000000 0.000000 0.030246 0.000000
# 6 0.000000 0.000000 0.000000 0.000000 0.000000 0.040294
#
#
# Mechanical properties :
#
#
# Convention : Reuss Voigt Hill
#
# Bulk Modulus (GPa) = 57.69672 63.41744 60.55708
# Shear Modulus (GPa) = 30.32396 31.49166 30.90781
#
# Velocity S-wave (km/s) = 3.56737 3.63540 3.60155
# Velocity P-wave (km/s) = 6.41731 6.65102 6.53521
#
# Compressibility (1/GPa) = 0.01733201
#
# Stress axis : x y z
#
# Youngs Moduli (GPa) = 90.51138 59.14383 102.70167
#
# Poissons Ratio (x) = 0.21693 0.34332
# Poissons Ratio (y) = 0.33199 0.32555
# Poissons Ratio (z) = 0.30257 0.18748
#
# Static dielectric constant tensor:
#      x y z
#    x 4.508540 0.000000 0.000000 
#    y 0.000000 4.001280 0.000000 
#    z 0.000000 0.000000 4.386920 
# 
# 
# High freq. dielectric constant tensor:
#      x y z
#    x 1.941040 0.000000 0.000000 
#    y 0.000000 1.930210 0.000000 
#    z 0.000000 0.000000 1.963290 
# 
# From -- ./inp_files/8387.got.cif
#   From: 2010.03.12/outbox.cif.g09.slc.cpg/sg46_5_cif.got.tgz:8387.got - 2010.04.14 02:56:35.
