data_PCOD8192813
_publ_section_title
;
Structure prediction by ZEFSAII (Michael W. Deem and Ramdas Pophale) SiO2 
 PCOD8192813
Probable space group: I M A 2
;
_chemical_formula_sum "Si O2"
_cell_formula_units_Z 48
_cell_length_a 9.630162
_cell_length_b 8.716494
_cell_length_c 27.538998
_cell_angle_alpha 90.000000
_cell_angle_beta 90.000000
_cell_angle_gamma 90.000000
_cell_volume 2311.657896
_symmetry_space_group_name_H-M "I M A 2"
_symmetry_group_IT_number 46
_symmetry_cell_setting 'orthorhombic'
loop_
_space_group_symop_operation_xyz
x,y,z
-x,-y,z
1/2-x,y,z
1/2+x,-y,z
1/2+x,1/2+y,1/2+z
1/2-x,1/2-y,1/2+z
-x,1/2+y,1/2+z
x,1/2-y,1/2+z
loop_
_atom_site_type_symbol
_atom_site_label
_atom_site_fract_x
_atom_site_fract_y
_atom_site_fract_z
Si Si1 0.520923 0.681409 0.236790
Si Si2 0.521249 0.324625 0.022452
Si Si3 0.087881 0.156592 0.842348
Si Si4 0.250000 0.808206 0.198710
Si Si5 0.750000 0.134382 0.597342
Si Si6 0.750000 0.835840 0.175081
Si Si7 0.911876 0.345096 0.426669
Si Si8 0.250000 0.219337 0.572887
O O1 0.500000 0.500000 0.230133
O O2 0.584427 0.730900 0.288935
O O3 0.377337 0.768373 0.232889
O O4 0.616688 0.745023 0.194081
O O5 0.500000 0.500000 0.008086
O O6 0.615639 0.304006 0.069755
O O7 0.377379 0.246823 0.037171
O O8 0.590694 0.247586 0.976252
O O9 0.250000 0.135462 0.857518
O O10 0.999248 0.247278 0.884189
O O11 0.000000 0.000000 0.838237
O O12 0.250000 0.701112 0.151215
O O13 0.250000 0.987476 0.188906
O O14 0.750000 0.949688 0.597008
O O15 0.750000 0.838589 0.116827
O O16 0.750000 0.374090 0.411589
O O17 0.000000 0.500000 0.435036
#
# Coordination Sequence:
#
# PCOD8192813 Si02
#       8
#     8   8   8   4   4   4   8   4
#     4  11  23  41  68  93 124 172 221 260 305 384
#     4  10  22  40  63  90 124 164 212 260 308 370
#     4  10  21  38  65  95 124 158 215 265 305 371
#     4  12  26  38  67  92 137 167 202 275 327 378
#     4  10  20  42  59  92 119 171 220 257 307 376
#     4  12  24  44  59 100 133 163 212 265 337 372
#     4  11  23  39  64  95 130 162 206 260 318 374
#     4  10  22  36  67  86 123 167 218 261 303 386
#
# _framework density 20.764320000000001
#
# number of rings (size 3 to 8) (size 9 to 14) (size 15 to 20)
#    0.000    1.333    1.667    5.000    7.000    2.667 
#    0.000    1.667    0.000    0.000    0.000    0.000 
#    0.000    0.000    0.000    0.000    0.000    0.000 
#
# Total GULP energy -297446.826148 kJ/mol
# GULP energy per Si atom -12393.617756 kJ/mol
# Density = 2.071706 g / cm^3
# Si number density = 20.764320 Si / 1000 Ang^3
#
#
#
# Elastic Constant Matrix: (Units=GPa)
#
#
# Indices 1 2 3 4 5 6 
#
# 1 182.5994 23.9591 34.7644 0.0000 0.0000 0.0000
# 2 23.9591 68.5620 20.3078 0.0000 0.0000 0.0000
# 3 34.7644 20.3078 98.3181 0.0000 0.0000 0.0000
# 4 0.0000 0.0000 0.0000 22.8883 0.0000 0.0000
# 5 0.0000 0.0000 0.0000 0.0000 153.7449 0.0000
# 6 0.0000 0.0000 0.0000 0.0000 0.0000 23.4456
#
#
#
# Elastic Compliance Matrix: (Units=1/GPa)
#
#
# Indices 1 2 3 4 5 6 
#
# 1 0.006027 -0.001571 -0.001806 0.000000 0.000000 0.000000
# 2 -0.001571 0.015945 -0.002738 0.000000 0.000000 0.000000
# 3 -0.001806 -0.002738 0.011375 0.000000 0.000000 0.000000
# 4 0.000000 0.000000 0.000000 0.043691 0.000000 0.000000
# 5 0.000000 0.000000 0.000000 0.000000 0.006504 0.000000
# 6 0.000000 0.000000 0.000000 0.000000 0.000000 0.042652
#
#
# Mechanical properties :
#
#
# Convention : Reuss Voigt Hill
#
# Bulk Modulus (GPa) = 47.35674 56.39356 51.87515
# Shear Modulus (GPa) = 34.37289 58.04564 46.20927
#
# Velocity S-wave (km/s) = 4.07305 5.29294 4.72255
# Velocity P-wave (km/s) = 6.70641 8.03564 7.40093
#
# Compressibility (1/GPa) = 0.02111632
#
# Stress axis : x y z
#
# Youngs Moduli (GPa) = 165.93347 62.71445 87.90931
#
# Poissons Ratio (x) = 0.09852 0.15880
# Poissons Ratio (y) = 0.26067 0.24070
# Poissons Ratio (z) = 0.29975 0.17172
#
# Static dielectric constant tensor:
#      x y z
#    x 3.859930 0.000000 0.000000 
#    y 0.000000 3.418920 0.000000 
#    z 0.000000 0.000000 4.347080 
# 
# 
# High freq. dielectric constant tensor:
#      x y z
#    x 1.838340 0.000000 0.000000 
#    y 0.000000 1.774770 0.000000 
#    z 0.000000 0.000000 1.829410 
# 
# From -- ./inp_files/25082.got.cif
#   From: 2010.03.12/outbox.cif.g09.slc.cpg/sg46_13_cif.got.tgz:25082.got - 2010.04.14 02:56:35.
