data_PCOD8192068
_publ_section_title
;
Structure prediction by ZEFSAII (Michael W. Deem and Ramdas Pophale) SiO2 
 PCOD8192068
Probable space group: I M A 2
;
_chemical_formula_sum "Si O2"
_cell_formula_units_Z 48
_cell_length_a 15.329349
_cell_length_b 18.216191
_cell_length_c 8.956280
_cell_angle_alpha 90.000000
_cell_angle_beta 90.000000
_cell_angle_gamma 90.000000
_cell_volume 2500.972668
_symmetry_space_group_name_H-M "I M A 2"
_symmetry_group_IT_number 46
_symmetry_cell_setting 'orthorhombic'
loop_
_space_group_symop_operation_xyz
x,y,z
-x,-y,z
1/2-x,y,z
1/2+x,-y,z
1/2+x,1/2+y,1/2+z
1/2-x,1/2-y,1/2+z
-x,1/2+y,1/2+z
x,1/2-y,1/2+z
loop_
_atom_site_type_symbol
_atom_site_label
_atom_site_fract_x
_atom_site_fract_y
_atom_site_fract_z
Si Si1 0.089462 0.040020 0.593320
Si Si2 0.650577 0.935862 0.916214
Si Si3 0.481727 0.325494 0.568375
Si Si4 0.654491 0.410301 0.907791
Si Si5 0.848819 0.411620 0.566830
Si Si6 0.484707 0.328124 0.918278
O O1 0.135785 0.070980 0.739858
O O2 0.076135 0.107648 0.481229
O O3 0.150883 0.981860 0.510919
O O4 0.000000 0.000000 0.637866
O O5 0.750000 0.914007 0.954582
O O6 0.586582 0.883120 0.004677
O O7 0.631098 0.019165 0.963250
O O8 0.580857 0.348895 0.526414
O O9 0.467156 0.319711 0.744012
O O10 0.461413 0.247171 0.498186
O O11 0.750000 0.374474 0.925803
O O12 0.637794 0.436378 0.738051
O O13 0.585253 0.348341 0.953663
O O14 0.750000 0.381987 0.539438
#
# Coordination Sequence:
#
# PCOD8192068 Si02
#       6
#     8   8   8   8   8   8
#     4  10  19  34  56  82 109 140 177 221 269 319
#     4  11  22  36  56  82 107 140 184 228 271 317
#     4  11  21  38  56  78 112 147 179 223 268 319
#     4   9  18  35  57  83 111 140 176 219 265 322
#     4   9  19  35  58  84 110 142 179 217 267 323
#     4  10  22  36  56  79 108 147 182 216 271 322
#
# _framework density 19.192532
#
# number of rings (size 3 to 8) (size 9 to 14) (size 15 to 20)
#    0.000    2.000    0.000    4.000    0.000    4.667 
#    0.000    5.000    0.000    0.000    0.000    0.000 
#    0.000    0.000    0.000    0.000    0.000    0.000 
#
# Total GULP energy -297651.212809 kJ/mol
# GULP energy per Si atom -12402.133867 kJ/mol
# Density = 1.914885 g / cm^3
# Si number density = 19.192532 Si / 1000 Ang^3
#
#
#
# Elastic Constant Matrix: (Units=GPa)
#
#
# Indices 1 2 3 4 5 6 
#
# 1 62.7676 18.0531 21.0781 0.0000 0.0000 0.0000
# 2 18.0531 70.7604 30.6714 0.0000 0.0000 0.0000
# 3 21.0781 30.6714 94.3310 0.0000 0.0000 0.0000
# 4 0.0000 0.0000 0.0000 36.1504 0.0000 0.0000
# 5 0.0000 0.0000 0.0000 0.0000 28.5957 0.0000
# 6 0.0000 0.0000 0.0000 0.0000 0.0000 19.1255
#
#
#
# Elastic Compliance Matrix: (Units=1/GPa)
#
#
# Indices 1 2 3 4 5 6 
#
# 1 0.017859 -0.003290 -0.002921 0.000000 0.000000 0.000000
# 2 -0.003290 0.017057 -0.004811 0.000000 0.000000 0.000000
# 3 -0.002921 -0.004811 0.012818 0.000000 0.000000 0.000000
# 4 0.000000 0.000000 0.000000 0.027662 0.000000 0.000000
# 5 0.000000 0.000000 0.000000 0.000000 0.034970 0.000000
# 6 0.000000 0.000000 0.000000 0.000000 0.000000 0.052286
#
#
# Mechanical properties :
#
#
# Convention : Reuss Voigt Hill
#
# Bulk Modulus (GPa) = 38.92564 40.82934 39.87749
# Shear Modulus (GPa) = 25.87195 27.31140 26.59167
#
# Velocity S-wave (km/s) = 3.67552 3.77639 3.72630
# Velocity P-wave (km/s) = 6.19180 6.35095 6.27188
#
# Compressibility (1/GPa) = 0.02569001
#
# Stress axis : x y z
#
# Youngs Moduli (GPa) = 55.99428 58.62724 78.01648
#
# Poissons Ratio (x) = 0.19291 0.22786
# Poissons Ratio (y) = 0.18424 0.37532
# Poissons Ratio (z) = 0.16354 0.28204
#
# Static dielectric constant tensor:
#      x y z
#    x 3.615540 0.000000 0.000000 
#    y 0.000000 3.305730 0.000000 
#    z 0.000000 0.000000 3.544490 
# 
# 
# High freq. dielectric constant tensor:
#      x y z
#    x 1.750990 0.000000 0.000000 
#    y 0.000000 1.731260 0.000000 
#    z 0.000000 0.000000 1.756350 
# 
# From -- ./inp_files/5677.got.cif
#   From: 2010.03.12/outbox.cif.g09.slc.cpg/sg46_3_cif.got.tgz:5677.got - 2010.04.14 02:56:35.
