data_PCOD8192289
_publ_section_title
;
Structure prediction by ZEFSAII (Michael W. Deem and Ramdas Pophale) SiO2 
 PCOD8192289
Probable space group: I M A 2
;
_chemical_formula_sum "Si O2"
_cell_formula_units_Z 64
_cell_length_a 9.651246
_cell_length_b 16.743772
_cell_length_c 22.177849
_cell_angle_alpha 90.000000
_cell_angle_beta 90.000000
_cell_angle_gamma 90.000000
_cell_volume 3583.901865
_symmetry_space_group_name_H-M "I M A 2"
_symmetry_group_IT_number 46
_symmetry_cell_setting 'orthorhombic'
loop_
_space_group_symop_operation_xyz
x,y,z
-x,-y,z
1/2-x,y,z
1/2+x,-y,z
1/2+x,1/2+y,1/2+z
1/2-x,1/2-y,1/2+z
-x,1/2+y,1/2+z
x,1/2-y,1/2+z
loop_
_atom_site_type_symbol
_atom_site_label
_atom_site_fract_x
_atom_site_fract_y
_atom_site_fract_z
Si Si1 0.588630 0.735662 0.766850
Si Si2 0.590941 0.422062 0.070141
Si Si3 0.899075 0.300076 0.171188
Si Si4 0.494323 0.831395 0.086422
Si Si5 0.590936 0.922605 0.199932
Si Si6 0.100407 0.196132 0.509276
Si Si7 0.089068 0.919958 0.969556
Si Si8 0.908564 0.701749 0.396628
O O1 0.750000 0.747267 0.757113
O O2 0.517753 0.796547 0.720692
O O3 0.546755 0.644962 0.748939
O O4 0.541691 0.760943 0.833340
O O5 0.500000 0.500000 0.071484
O O6 0.750000 0.440023 0.052617
O O7 0.578125 0.382027 0.135398
O O8 0.526625 0.362977 0.020504
O O9 0.750000 0.301634 0.203818
O O10 0.893956 0.224773 0.125601
O O11 0.571859 0.892245 0.131285
O O12 0.603082 0.773678 0.052823
O O13 0.409854 0.879135 0.035425
O O14 0.750000 0.947233 0.208565
O O15 0.500000 0.000000 0.213275
O O16 0.250000 0.153540 0.518795
O O17 0.085057 0.223248 0.440792
O O18 0.250000 0.936116 0.951722
O O19 0.015950 0.866007 0.918153
O O20 0.000000 0.000000 0.973541
O O21 0.750000 0.667904 0.393218
#
# Coordination Sequence:
#
# PCOD8192289 Si02
#       8
#     8   8   8   8   8   8   8   8
#     4   9  19  36  55  73  97 132 171 208 246 293
#     4  10  20  33  50  74 104 132 163 207 257 305
#     4   9  18  32  51  76 101 128 166 208 248 294
#     4   9  18  31  51  75 104 136 166 198 242 299
#     4  10  20  32  49  75 105 135 167 202 244 293
#     4   9  17  31  53  76  98 128 167 208 252 302
#     4  11  22  34  51  77 107 136 167 205 249 297
#     4   9  19  37  57  74  97 133 173 210 249 295
#
# _framework density 17.857631000000001
#
# number of rings (size 3 to 8) (size 9 to 14) (size 15 to 20)
#    0.000    2.500    0.000    1.875    0.000   12.000 
#    0.000    1.250    0.000    3.000    0.000    0.000 
#    0.000    0.000    0.000    0.000    0.000    0.000 
#
# Total GULP energy -396629.177861 kJ/mol
# GULP energy per Si atom -12394.661808 kJ/mol
# Density = 1.781699 g / cm^3
# Si number density = 17.857631 Si / 1000 Ang^3
#
#
#
# Elastic Constant Matrix: (Units=GPa)
#
#
# Indices 1 2 3 4 5 6 
#
# 1 117.2953 56.8247 42.8266 0.0000 0.0000 0.0000
# 2 56.8247 88.7835 40.2085 0.0000 0.0000 0.0000
# 3 42.8266 40.2085 108.7700 0.0000 0.0000 0.0000
# 4 0.0000 0.0000 0.0000 14.2783 0.0000 0.0000
# 5 0.0000 0.0000 0.0000 0.0000 20.7231 0.0000
# 6 0.0000 0.0000 0.0000 0.0000 0.0000 25.7131
#
#
#
# Elastic Compliance Matrix: (Units=1/GPa)
#
#
# Indices 1 2 3 4 5 6 
#
# 1 0.012870 -0.007137 -0.002429 0.000000 0.000000 0.000000
# 2 -0.007137 0.017486 -0.003654 0.000000 0.000000 0.000000
# 3 -0.002429 -0.003654 0.011501 0.000000 0.000000 0.000000
# 4 0.000000 0.000000 0.000000 0.070036 0.000000 0.000000
# 5 0.000000 0.000000 0.000000 0.000000 0.048255 0.000000
# 6 0.000000 0.000000 0.000000 0.000000 0.000000 0.038891
#
#
# Mechanical properties :
#
#
# Convention : Reuss Voigt Hill
#
# Bulk Modulus (GPa) = 64.86412 66.06317 65.46364
# Shear Modulus (GPa) = 21.68080 23.80882 22.74481
#
# Velocity S-wave (km/s) = 3.48816 3.65534 3.57273
# Velocity P-wave (km/s) = 7.25429 7.40878 7.33194
#
# Compressibility (1/GPa) = 0.01541684
#
# Stress axis : x y z
#
# Youngs Moduli (GPa) = 77.69966 57.18786 86.95042
#
# Poissons Ratio (x) = 0.40816 0.21120
# Poissons Ratio (y) = 0.55456 0.31771
# Poissons Ratio (z) = 0.18873 0.20896
#
# Static dielectric constant tensor:
#      x y z
#    x 3.375240 0.000000 0.000000 
#    y 0.000000 3.240850 0.000000 
#    z 0.000000 0.000000 3.293170 
# 
# 
# High freq. dielectric constant tensor:
#      x y z
#    x 1.698990 0.000000 0.000000 
#    y 0.000000 1.680710 0.000000 
#    z 0.000000 0.000000 1.676410 
# 
# From -- ./inp_files/23291.got.cif
#   From: 2010.03.12/outbox.cif.g09.slc.cpg/sg46_12_cif.got.tgz:23291.got - 2010.04.14 02:56:35.
