data_PCOD8192594
_publ_section_title
;
Structure prediction by ZEFSAII (Michael W. Deem and Ramdas Pophale) SiO2 
 PCOD8192594
Probable space group: I M A 2
;
_chemical_formula_sum "Si O2"
_cell_formula_units_Z 64
_cell_length_a 8.827592
_cell_length_b 14.898158
_cell_length_c 24.362826
_cell_angle_alpha 90.000000
_cell_angle_beta 90.000000
_cell_angle_gamma 90.000000
_cell_volume 3204.073660
_symmetry_space_group_name_H-M "I M A 2"
_symmetry_group_IT_number 46
_symmetry_cell_setting 'orthorhombic'
loop_
_space_group_symop_operation_xyz
x,y,z
-x,-y,z
1/2-x,y,z
1/2+x,-y,z
1/2+x,1/2+y,1/2+z
1/2-x,1/2-y,1/2+z
-x,1/2+y,1/2+z
x,1/2-y,1/2+z
loop_
_atom_site_type_symbol
_atom_site_label
_atom_site_fract_x
_atom_site_fract_y
_atom_site_fract_z
Si Si1 0.929486 0.401311 0.697460
Si Si2 0.074883 0.254527 0.900810
Si Si3 0.429931 0.901262 0.712627
Si Si4 0.072087 0.597268 0.460078
Si Si5 0.573281 0.903359 0.483323
Si Si6 0.427428 0.403206 0.104184
Si Si7 0.425953 0.244768 0.274270
Si Si8 0.574947 0.094685 0.078708
O O1 0.750000 0.406465 0.708043
O O2 0.965502 0.357240 0.636708
O O3 0.000000 0.500000 0.703149
O O4 0.005998 0.338312 0.741733
O O5 0.250000 0.239869 0.915131
O O6 0.007383 0.335085 0.938043
O O7 0.049286 0.278958 0.837736
O O8 0.989197 0.162561 0.913474
O O9 0.250000 0.907701 0.713171
O O10 0.487111 0.855352 0.655122
O O11 0.486379 0.836990 0.761181
O O12 0.500000 0.000000 0.720831
O O13 0.250000 0.586855 0.452575
O O14 0.028713 0.640452 0.520528
O O15 0.000000 0.500000 0.452012
O O16 0.750000 0.918752 0.474674
O O17 0.542605 0.859977 0.544137
O O18 0.500000 0.000000 0.475152
O O19 0.500000 0.500000 0.100645
O O20 0.250000 0.409033 0.117908
O O21 0.250000 0.257197 0.259741
O O22 0.750000 0.074331 0.077173
O O23 0.500000 0.000000 0.080811
#
# Coordination Sequence:
#
# PCOD8192594 Si02
#       8
#     8   8   8   8   8   8   8   8
#     4  10  20  37  60  86 117 150 186 229 279 332
#     4  10  23  41  57  78 110 147 190 235 275 323
#     4  11  22  38  60  85 114 146 183 228 281 337
#     4  10  20  36  59  85 113 145 181 223 275 331
#     4   9  19  36  58  84 113 146 182 224 275 328
#     4   9  16  30  54  84 115 144 178 219 271 333
#     4  11  24  41  58  79 110 149 195 239 278 326
#     4   8  16  31  53  83 114 143 177 219 270 330
#
# _framework density 19.974571000000001
#
# number of rings (size 3 to 8) (size 9 to 14) (size 15 to 20)
#    0.000    2.250    0.000    3.375    0.000    5.000 
#    0.000    3.750    0.000    0.000    0.000    0.000 
#    0.000    0.000    0.000    0.000    0.000    0.000 
#
# Total GULP energy -396511.866486 kJ/mol
# GULP energy per Si atom -12390.995828 kJ/mol
# Density = 1.992911 g / cm^3
# Si number density = 19.974571 Si / 1000 Ang^3
#
#
#
# Elastic Constant Matrix: (Units=GPa)
#
#
# Indices 1 2 3 4 5 6 
#
# 1 91.2322 24.9892 36.1528 0.0000 0.0000 0.0000
# 2 24.9892 66.9577 22.3949 0.0000 0.0000 0.0000
# 3 36.1528 22.3949 82.3980 0.0000 0.0000 0.0000
# 4 0.0000 0.0000 0.0000 -10.9833 0.0000 0.0000
# 5 0.0000 0.0000 0.0000 0.0000 27.9376 0.0000
# 6 0.0000 0.0000 0.0000 0.0000 0.0000 30.1900
#
#
#
# Elastic Compliance Matrix: (Units=1/GPa)
#
#
# Indices 1 2 3 4 5 6 
#
# 1 0.013968 -0.003479 -0.005183 0.000000 0.000000 0.000000
# 2 -0.003479 0.017295 -0.003174 0.000000 0.000000 0.000000
# 3 -0.005183 -0.003174 0.015273 0.000000 0.000000 0.000000
# 4 0.000000 0.000000 0.000000 -0.091047 0.000000 0.000000
# 5 0.000000 0.000000 0.000000 0.000000 0.035794 0.000000
# 6 0.000000 0.000000 0.000000 0.000000 0.000000 0.033124
#
#
# Mechanical properties :
#
#
# Convention : Reuss Voigt Hill
#
# Bulk Modulus (GPa) = 43.73838 45.29574 44.51706
# Shear Modulus (GPa) = 89.76729 19.89893 54.83311
#
# Velocity S-wave (km/s) = 6.71106 3.15971 5.24510
# Velocity P-wave (km/s) = 9.05515 6.00313 7.68223
#
# Compressibility (1/GPa) = 0.02286322
#
# Stress axis : x y z
#
# Youngs Moduli (GPa) = 71.59265 57.82040 65.47561
#
# Poissons Ratio (x) = 0.20118 0.33935
# Poissons Ratio (y) = 0.24910 0.20781
# Poissons Ratio (z) = 0.37105 0.18352
#
# Static dielectric constant tensor:
#      x y z
#    x 3.592430 0.000000 0.000000 
#    y 0.000000 3.382680 0.000000 
#    z 0.000000 0.000000 4.314500 
# 
# 
# High freq. dielectric constant tensor:
#      x y z
#    x 1.786080 0.000000 0.000000 
#    y 0.000000 1.758410 0.000000 
#    z 0.000000 0.000000 1.792570 
# 
# From -- ./inp_files/23202.got.cif
#   From: 2010.03.12/outbox.cif.g09.slc.cpg/sg46_12_cif.got.tgz:23202.got - 2010.04.14 02:56:35.
