data_PCOD8192575
_publ_section_title
;
Structure prediction by ZEFSAII (Michael W. Deem and Ramdas Pophale) SiO2 
 PCOD8192575
Probable space group: I M A 2
;
_chemical_formula_sum "Si O2"
_cell_formula_units_Z 64
_cell_length_a 8.634332
_cell_length_b 33.407558
_cell_length_c 11.715350
_cell_angle_alpha 90.000000
_cell_angle_beta 90.000000
_cell_angle_gamma 90.000000
_cell_volume 3379.315518
_symmetry_space_group_name_H-M "I M A 2"
_symmetry_group_IT_number 46
_symmetry_cell_setting 'orthorhombic'
loop_
_space_group_symop_operation_xyz
x,y,z
-x,-y,z
1/2-x,y,z
1/2+x,-y,z
1/2+x,1/2+y,1/2+z
1/2-x,1/2-y,1/2+z
-x,1/2+y,1/2+z
x,1/2-y,1/2+z
loop_
_atom_site_type_symbol
_atom_site_label
_atom_site_fract_x
_atom_site_fract_y
_atom_site_fract_z
Si Si1 0.432237 0.875306 0.448130
Si Si2 0.578307 0.610218 0.528732
Si Si3 0.568753 0.233767 0.076966
Si Si4 0.426508 0.329286 0.736330
Si Si5 0.571342 0.039813 0.129938
Si Si6 0.068078 0.183257 0.620935
Si Si7 0.066975 0.042587 0.376057
Si Si8 0.070361 0.182251 0.882505
O O1 0.250000 0.880094 0.438350
O O2 0.489047 0.846667 0.346498
O O3 0.479914 0.854469 0.566422
O O4 0.504869 0.919775 0.447907
O O5 0.750000 0.591301 0.522691
O O6 0.564509 0.638254 0.638003
O O7 0.452638 0.575050 0.538553
O O8 0.542754 0.635863 0.416054
O O9 0.750000 0.240807 0.091381
O O10 0.506996 0.211093 0.190156
O O11 0.483204 0.275897 0.060746
O O12 0.536357 0.209958 0.960683
O O13 0.250000 0.318942 0.769241
O O14 0.750000 0.034047 0.159975
O O15 0.479817 0.050003 0.245287
O O16 0.500000 0.000000 0.074363
O O17 0.250000 0.176463 0.605985
O O18 0.019102 0.186732 0.752688
O O19 0.250000 0.041194 0.386983
O O20 0.000000 0.000000 0.420831
O O21 0.250000 0.193784 0.903884
#
# Coordination Sequence:
#
# PCOD8192575 Si02
#       8
#     8   8   8   8   8   8   8   8
#     4  12  24  38  58  88 121 154 195 245 299 354
#     4   9  17  33  56  80 108 142 185 232 280 334
#     4  11  23  38  59  86 118 150 189 244 295 342
#     4  10  20  36  58  82 113 153 193 232 283 348
#     4  11  20  30  49  80 116 150 185 228 283 342
#     4  11  24  42  62  83 112 154 200 242 291 350
#     4  11  21  36  57  84 119 158 194 239 294 354
#     4   9  21  41  62  81 107 149 197 236 284 348
#
# _framework density 18.938745999999998
#
# number of rings (size 3 to 8) (size 9 to 14) (size 15 to 20)
#    0.000    1.500    1.250    6.750    1.750    3.000 
#    0.000    0.000    0.000    0.750    0.000    3.500 
#    0.000    0.000    0.000    0.000    0.000    0.000 
#
# Total GULP energy -396868.958346 kJ/mol
# GULP energy per Si atom -12402.154948 kJ/mol
# Density = 1.889564 g / cm^3
# Si number density = 18.938746 Si / 1000 Ang^3
#
#
#
# Elastic Constant Matrix: (Units=GPa)
#
#
# Indices 1 2 3 4 5 6 
#
# 1 119.9694 37.5654 31.3189 -0.0003 0.0001 0.0000
# 2 37.5654 118.7539 33.4647 -0.0017 -0.0005 -0.0001
# 3 31.3189 33.4647 65.9763 -0.0040 -0.0010 -0.0004
# 4 -0.0003 -0.0017 -0.0040 23.5769 -0.0012 -0.0003
# 5 0.0001 -0.0005 -0.0010 -0.0012 24.8214 -0.0007
# 6 0.0000 -0.0001 -0.0004 -0.0003 -0.0007 34.6567
#
#
#
# Elastic Compliance Matrix: (Units=1/GPa)
#
#
# Indices 1 2 3 4 5 6 
#
# 1 0.009952 -0.002120 -0.003649 -0.000001 0.000000 0.000000
# 2 -0.002120 0.010277 -0.004206 0.000000 0.000000 0.000000
# 3 -0.003649 -0.004206 0.019023 0.000003 0.000001 0.000000
# 4 -0.000001 0.000000 0.000003 0.042414 0.000002 0.000000
# 5 0.000000 0.000000 0.000001 0.000002 0.040288 0.000001
# 6 0.000000 0.000000 0.000000 0.000000 0.000001 0.028854
#
#
# Mechanical properties :
#
#
# Convention : Reuss Voigt Hill
#
# Bulk Modulus (GPa) = 51.81053 56.59974 54.20514
# Shear Modulus (GPa) = 28.21805 30.10102 29.15954
#
# Velocity S-wave (km/s) = 3.86419 3.99104 3.92813
# Velocity P-wave (km/s) = 6.87936 7.15461 7.01833
#
# Compressibility (1/GPa) = 0.01930109
#
# Stress axis : x y z
#
# Youngs Moduli (GPa) = 100.48436 97.30786 52.56896
#
# Poissons Ratio (x) = 0.20627 0.19182
# Poissons Ratio (y) = 0.21301 0.22112
# Poissons Ratio (z) = 0.36666 0.40931
#
# Static dielectric constant tensor:
#      x y z
#    x 3.510110 0.000000 0.000000 
#    y 0.000000 3.828740 0.000000 
#    z 0.000000 0.000000 3.311470 
# 
# 
# High freq. dielectric constant tensor:
#      x y z
#    x 1.746640 0.000000 0.000000 
#    y 0.000000 1.743560 0.000000 
#    z 0.000000 0.000000 1.704850 
# 
# From -- ./inp_files/9677.got.cif
#   From: 2010.03.12/outbox.cif.g09.slc.cpg/sg46_5_cif.got.tgz:9677.got - 2010.04.14 02:56:35.
