data_PCOD8192100
_publ_section_title
;
Structure prediction by ZEFSAII (Michael W. Deem and Ramdas Pophale) SiO2 
 PCOD8192100
Probable space group: I M A 2
;
_chemical_formula_sum "Si O2"
_cell_formula_units_Z 64
_cell_length_a 17.394350
_cell_length_b 9.087121
_cell_length_c 20.833323
_cell_angle_alpha 90.000000
_cell_angle_beta 90.000000
_cell_angle_gamma 90.000000
_cell_volume 3293.010099
_symmetry_space_group_name_H-M "I M A 2"
_symmetry_group_IT_number 46
_symmetry_cell_setting 'orthorhombic'
loop_
_space_group_symop_operation_xyz
x,y,z
-x,-y,z
1/2-x,y,z
1/2+x,-y,z
1/2+x,1/2+y,1/2+z
1/2-x,1/2-y,1/2+z
-x,1/2+y,1/2+z
x,1/2-y,1/2+z
loop_
_atom_site_type_symbol
_atom_site_label
_atom_site_fract_x
_atom_site_fract_y
_atom_site_fract_z
Si Si1 0.078346 0.577750 0.951920
Si Si2 0.581297 0.418008 0.089626
Si Si3 0.919402 0.426790 0.585980
Si Si4 0.839700 0.601953 0.695471
Si Si5 0.160096 0.426544 0.201968
Si Si6 0.911429 0.054143 0.313614
Si Si7 0.076819 0.585463 0.441536
Si Si8 0.658985 0.130856 0.816946
O O1 0.118592 0.517557 0.886747
O O2 0.054149 0.745210 0.942001
O O3 0.000000 0.500000 0.965615
O O4 0.122850 0.555682 0.019559
O O5 0.500000 0.500000 0.097978
O O6 0.570897 0.244794 0.100527
O O7 0.641211 0.475185 0.140902
O O8 0.860699 0.500312 0.635293
O O9 0.892795 0.460884 0.512530
O O10 0.000000 0.500000 0.600558
O O11 0.750000 0.619797 0.693140
O O12 0.878168 0.764803 0.693650
O O13 0.861211 0.532230 0.763214
O O14 0.250000 0.408622 0.206874
O O15 0.131582 0.507872 0.266310
O O16 0.895441 0.227817 0.302677
O O17 0.000000 0.000000 0.306618
O O18 0.142751 0.562516 0.387742
O O19 0.000000 0.500000 0.421914
O O20 0.750000 0.170497 0.811399
#
# Coordination Sequence:
#
# PCOD8192100 Si02
#       8
#     8   8   8   8   8   8   8   8
#     4   8  17  33  53  81 109 135 172 222 273 326
#     4  10  19  34  58  82 106 140 179 222 272 327
#     4  10  20  36  57  84 113 143 183 229 279 334
#     4  11  23  38  55  78 111 149 190 235 281 334
#     4  10  23  39  52  74 109 146 184 226 274 329
#     4  10  20  36  58  83 110 142 183 232 283 339
#     4   9  19  34  56  84 111 142 182 229 277 334
#     4  10  21  38  58  82 115 151 188 233 286 341
#
# _framework density 19.435105
#
# number of rings (size 3 to 8) (size 9 to 14) (size 15 to 20)
#    0.000    2.250    0.000    2.250    0.000    7.500 
#    0.000    5.625    0.000    3.000    0.000    0.000 
#    0.000    0.000    0.000    0.000    0.000    0.000 
#
# Total GULP energy -396450.412740 kJ/mol
# GULP energy per Si atom -12389.075398 kJ/mol
# Density = 1.939087 g / cm^3
# Si number density = 19.435105 Si / 1000 Ang^3
#
#
#
# Elastic Constant Matrix: (Units=GPa)
#
#
# Indices 1 2 3 4 5 6 
#
# 1 43.0473 33.5912 36.8143 0.0000 0.0000 0.0000
# 2 33.5912 113.2211 77.4844 0.0000 0.0000 0.0000
# 3 36.8143 77.4844 159.9463 0.0000 0.0000 0.0000
# 4 0.0000 0.0000 0.0000 29.6745 0.0000 0.0000
# 5 0.0000 0.0000 0.0000 0.0000 18.8371 0.0000
# 6 0.0000 0.0000 0.0000 0.0000 0.0000 28.4342
#
#
#
# Elastic Compliance Matrix: (Units=1/GPa)
#
#
# Indices 1 2 3 4 5 6 
#
# 1 0.031956 -0.006653 -0.004132 0.000000 0.000000 0.000000
# 2 -0.006653 0.014598 -0.005540 0.000000 0.000000 0.000000
# 3 -0.004132 -0.005540 0.009887 0.000000 0.000000 0.000000
# 4 0.000000 0.000000 0.000000 0.033699 0.000000 0.000000
# 5 0.000000 0.000000 0.000000 0.000000 0.053087 0.000000
# 6 0.000000 0.000000 0.000000 0.000000 0.000000 0.035169
#
#
# Mechanical properties :
#
#
# Convention : Reuss Voigt Hill
#
# Bulk Modulus (GPa) = 42.03538 67.99940 55.01739
# Shear Modulus (GPa) = 22.83355 26.61083 24.72219
#
# Velocity S-wave (km/s) = 3.43134 3.70430 3.57043
# Velocity P-wave (km/s) = 6.11346 7.30477 6.73551
#
# Compressibility (1/GPa) = 0.02378948
#
# Stress axis : x y z
#
# Youngs Moduli (GPa) = 31.29345 68.50343 101.14066
#
# Poissons Ratio (x) = 0.45575 0.41793
# Poissons Ratio (y) = 0.20819 0.56037
# Poissons Ratio (z) = 0.12931 0.37954
#
# Static dielectric constant tensor:
#      x y z
#    x 3.173820 0.000000 0.000000 
#    y 0.000000 3.809640 0.000000 
#    z 0.000000 0.000000 4.093230 
# 
# 
# High freq. dielectric constant tensor:
#      x y z
#    x 1.721930 0.000000 0.000000 
#    y 0.000000 1.765880 0.000000 
#    z 0.000000 0.000000 1.783480 
# 
# From -- ./inp_files/22234.got.cif
#   From: 2010.03.12/outbox.cif.g09.slc.cpg/sg46_12_cif.got.tgz:22234.got - 2010.04.14 02:56:35.
