data_PCOD8192658
_publ_section_title
;
Structure prediction by ZEFSAII (Michael W. Deem and Ramdas Pophale) SiO2 
 PCOD8192658
Probable space group: I M A 2
;
_chemical_formula_sum "Si O2"
_cell_formula_units_Z 48
_cell_length_a 15.772934
_cell_length_b 8.942171
_cell_length_c 15.638873
_cell_angle_alpha 90.000000
_cell_angle_beta 90.000000
_cell_angle_gamma 90.000000
_cell_volume 2205.773473
_symmetry_space_group_name_H-M "I M A 2"
_symmetry_group_IT_number 46
_symmetry_cell_setting 'orthorhombic'
loop_
_space_group_symop_operation_xyz
x,y,z
-x,-y,z
1/2-x,y,z
1/2+x,-y,z
1/2+x,1/2+y,1/2+z
1/2-x,1/2-y,1/2+z
-x,1/2+y,1/2+z
x,1/2-y,1/2+z
loop_
_atom_site_type_symbol
_atom_site_label
_atom_site_fract_x
_atom_site_fract_y
_atom_site_fract_z
Si Si1 0.593979 0.436430 0.756800
Si Si2 0.348585 0.888973 0.953635
Si Si3 0.093877 0.563951 0.945513
Si Si4 0.593018 0.929320 0.612808
Si Si5 0.654342 0.118266 0.762742
Si Si6 0.653811 0.890246 0.100940
O O1 0.500000 0.500000 0.747291
O O2 0.634163 0.466841 0.851665
O O3 0.591991 0.256960 0.742226
O O4 0.653489 0.510691 0.686378
O O5 0.250000 0.849851 0.970845
O O6 0.404432 0.740295 0.966604
O O7 0.363138 0.949426 0.857202
O O8 0.380126 0.014067 0.020284
O O9 0.000000 0.500000 0.941232
O O10 0.140319 0.480729 0.024656
O O11 0.591511 0.750063 0.613429
O O12 0.500000 0.000000 0.615118
O O13 0.643132 0.984910 0.695742
O O14 0.750000 0.180139 0.757782
O O15 0.750000 0.835938 0.084769
#
# Coordination Sequence:
#
# PCOD8192658 Si02
#       6
#     8   8   8   8   8   8
#     4  10  20  37  60  86 116 152 193 240 288 343
#     4   9  20  38  61  87 118 153 192 237 292 348
#     4   9  20  38  59  84 115 152 196 237 284 344
#     4  11  23  39  57  83 118 155 196 242 291 345
#     4  10  20  38  62  87 115 154 196 237 287 348
#     4  11  23  38  58  89 121 154 194 241 293 348
#
# _framework density 21.761074000000001
#
# number of rings (size 3 to 8) (size 9 to 14) (size 15 to 20)
#    0.000    2.000    0.000    3.000    0.000    6.000 
#    0.000    5.833    0.000    0.000    0.000    0.000 
#    0.000    0.000    0.000    0.000    0.000    0.000 
#
# Total GULP energy -297517.374263 kJ/mol
# GULP energy per Si atom -12396.557261 kJ/mol
# Density = 2.171154 g / cm^3
# Si number density = 21.761074 Si / 1000 Ang^3
#
#
#
# Elastic Constant Matrix: (Units=GPa)
#
#
# Indices 1 2 3 4 5 6 
#
# 1 59.0147 40.8595 20.4569 0.0000 0.0000 0.0000
# 2 40.8595 153.7916 92.4846 0.0000 0.0000 0.0000
# 3 20.4569 92.4846 190.7647 0.0000 0.0000 0.0000
# 4 0.0000 0.0000 0.0000 34.3684 0.0000 0.0000
# 5 0.0000 0.0000 0.0000 0.0000 25.7753 0.0000
# 6 0.0000 0.0000 0.0000 0.0000 0.0000 29.7416
#
#
#
# Elastic Compliance Matrix: (Units=1/GPa)
#
#
# Indices 1 2 3 4 5 6 
#
# 1 0.020819 -0.005912 0.000634 0.000000 0.000000 0.000000
# 2 -0.005912 0.010857 -0.004630 0.000000 0.000000 0.000000
# 3 0.000634 -0.004630 0.007419 0.000000 0.000000 0.000000
# 4 0.000000 0.000000 0.000000 0.029096 0.000000 0.000000
# 5 0.000000 0.000000 0.000000 0.000000 0.038797 0.000000
# 6 0.000000 0.000000 0.000000 0.000000 0.000000 0.033623
#
#
# Mechanical properties :
#
#
# Convention : Reuss Voigt Hill
#
# Bulk Modulus (GPa) = 51.87208 79.01921 65.44564
# Shear Modulus (GPa) = 29.96650 34.62840 32.29745
#
# Velocity S-wave (km/s) = 3.71491 3.99344 3.85669
# Velocity P-wave (km/s) = 6.50305 7.59305 7.06909
#
# Compressibility (1/GPa) = 0.01927819
#
# Stress axis : x y z
#
# Youngs Moduli (GPa) = 48.03389 92.10483 134.79631
#
# Poissons Ratio (x) = 0.54455 -0.08544
# Poissons Ratio (y) = 0.28399 0.62406
# Poissons Ratio (z) = -0.03044 0.42641
#
# Static dielectric constant tensor:
#      x y z
#    x 3.556550 0.000000 0.000000 
#    y 0.000000 3.726480 0.000000 
#    z 0.000000 0.000000 4.793140 
# 
# 
# High freq. dielectric constant tensor:
#      x y z
#    x 1.830240 0.000000 0.000000 
#    y 0.000000 1.843980 0.000000 
#    z 0.000000 0.000000 1.883620 
# 
# From -- ./inp_files/16554.got.cif
#   From: 2010.03.12/outbox.cif.g09.slc.cpg/sg46_9_cif.got.tgz:16554.got - 2010.04.14 02:56:35.
