data_PCOD8192192
_publ_section_title
;
Structure prediction by ZEFSAII (Michael W. Deem and Ramdas Pophale) SiO2 
 PCOD8192192
Probable space group: I M A 2
;
_chemical_formula_sum "Si O2"
_cell_formula_units_Z 64
_cell_length_a 8.580978
_cell_length_b 20.742266
_cell_length_c 19.551321
_cell_angle_alpha 90.000000
_cell_angle_beta 90.000000
_cell_angle_gamma 90.000000
_cell_volume 3479.918670
_symmetry_space_group_name_H-M "I M A 2"
_symmetry_group_IT_number 46
_symmetry_cell_setting 'orthorhombic'
loop_
_space_group_symop_operation_xyz
x,y,z
-x,-y,z
1/2-x,y,z
1/2+x,-y,z
1/2+x,1/2+y,1/2+z
1/2-x,1/2-y,1/2+z
-x,1/2+y,1/2+z
x,1/2-y,1/2+z
loop_
_atom_site_type_symbol
_atom_site_label
_atom_site_fract_x
_atom_site_fract_y
_atom_site_fract_z
Si Si1 0.434130 0.066782 0.478450
Si Si2 0.432120 0.808614 0.978163
Si Si3 0.432178 0.068698 0.906091
Si Si4 0.433572 0.190672 0.394257
Si Si5 0.566629 0.768425 0.114929
Si Si6 0.568627 0.233340 0.257854
Si Si7 0.069079 0.128982 0.765011
Si Si8 0.933144 0.877966 0.616042
O O1 0.250000 0.062815 0.478775
O O2 0.490357 0.125978 0.431973
O O3 0.503329 0.077899 0.555548
O O4 0.500000 0.000000 0.449054
O O5 0.250000 0.796651 0.967793
O O6 0.477637 0.877674 0.948453
O O7 0.525436 0.752619 0.939669
O O8 0.476631 0.809917 0.058171
O O9 0.250000 0.072303 0.923225
O O10 0.463685 0.078561 0.825136
O O11 0.500000 0.000000 0.927852
O O12 0.250000 0.191465 0.381902
O O13 0.519913 0.189529 0.321733
O O14 0.750000 0.775871 0.103291
O O15 0.522520 0.792106 0.190981
O O16 0.506894 0.695021 0.107616
O O17 0.750000 0.226469 0.243413
O O18 0.529301 0.306803 0.277896
O O19 0.250000 0.150249 0.762427
O O20 0.020634 0.096693 0.692023
O O21 0.750000 0.876986 0.606135
#
# Coordination Sequence:
#
# PCOD8192192 Si02
#       8
#     8   8   8   8   8   8   8   8
#     4  10  21  36  54  78 111 149 192 234 279 335
#     4  12  23  36  58  88 116 144 189 244 288 334
#     4  11  23  38  56  80 114 156 197 237 287 343
#     4  11  21  37  58  81 111 154 195 230 283 345
#     4  10  19  36  59  82 113 150 187 227 283 347
#     4  11  21  33  54  87 117 142 184 240 288 331
#     4   9  18  33  54  76 109 155 195 226 275 338
#     4   8  15  31  52  76 106 147 190 225 263 327
#
# _framework density 18.391234000000001
#
# number of rings (size 3 to 8) (size 9 to 14) (size 15 to 20)
#    0.000    1.750    2.500    4.125    0.000    2.000 
#    0.000    0.625    0.000    0.750    0.000    3.500 
#    0.000    0.000    0.000    0.000    0.000    0.000 
#
# Total GULP energy -396802.297922 kJ/mol
# GULP energy per Si atom -12400.071810 kJ/mol
# Density = 1.834937 g / cm^3
# Si number density = 18.391234 Si / 1000 Ang^3
#
#
#
# Elastic Constant Matrix: (Units=GPa)
#
#
# Indices 1 2 3 4 5 6 
#
# 1 53.8955 15.2726 12.2492 0.0000 0.0000 0.0000
# 2 15.2726 100.6759 44.7626 0.0000 0.0000 0.0000
# 3 12.2492 44.7626 100.1693 0.0000 0.0000 0.0000
# 4 0.0000 0.0000 0.0000 21.9581 0.0000 0.0000
# 5 0.0000 0.0000 0.0000 0.0000 23.1623 0.0000
# 6 0.0000 0.0000 0.0000 0.0000 0.0000 24.7788
#
#
#
# Elastic Compliance Matrix: (Units=1/GPa)
#
#
# Indices 1 2 3 4 5 6 
#
# 1 0.019528 -0.002372 -0.001328 0.000000 0.000000 0.000000
# 2 -0.002372 0.012684 -0.005378 0.000000 0.000000 0.000000
# 3 -0.001328 -0.005378 0.012549 0.000000 0.000000 0.000000
# 4 0.000000 0.000000 0.000000 0.045541 0.000000 0.000000
# 5 0.000000 0.000000 0.000000 0.000000 0.043174 0.000000
# 6 0.000000 0.000000 0.000000 0.000000 0.000000 0.040357
#
#
# Mechanical properties :
#
#
# Convention : Reuss Voigt Hill
#
# Bulk Modulus (GPa) = 37.58692 44.36772 40.97732
# Shear Modulus (GPa) = 24.89328 26.14359 25.51844
#
# Velocity S-wave (km/s) = 3.68304 3.77440 3.72900
# Velocity P-wave (km/s) = 6.21033 6.57051 6.39295
#
# Compressibility (1/GPa) = 0.02660500
#
# Stress axis : x y z
#
# Youngs Moduli (GPa) = 51.20738 78.84033 79.68918
#
# Poissons Ratio (x) = 0.18701 0.10583
# Poissons Ratio (y) = 0.12146 0.42857
# Poissons Ratio (z) = 0.06801 0.42400
#
# Static dielectric constant tensor:
#      x y z
#    x 3.270360 0.000000 0.000000 
#    y 0.000000 3.235420 0.000000 
#    z 0.000000 0.000000 3.715870 
# 
# 
# High freq. dielectric constant tensor:
#      x y z
#    x 1.709260 0.000000 0.000000 
#    y 0.000000 1.681920 0.000000 
#    z 0.000000 0.000000 1.723520 
# 
# From -- ./inp_files/21280.got.cif
#   From: 2010.03.12/outbox.cif.g09.slc.cpg/sg46_11_cif.got.tgz:21280.got - 2010.04.14 02:56:35.
