data_PCOD8192251
_publ_section_title
;
Structure prediction by ZEFSAII (Michael W. Deem and Ramdas Pophale) SiO2 
 PCOD8192251
Probable space group: I M A 2
;
_chemical_formula_sum "Si O2"
_cell_formula_units_Z 64
_cell_length_a 17.006660
_cell_length_b 18.293052
_cell_length_c 9.912804
_cell_angle_alpha 90.000000
_cell_angle_beta 90.000000
_cell_angle_gamma 90.000000
_cell_volume 3083.910158
_symmetry_space_group_name_H-M "I M A 2"
_symmetry_group_IT_number 46
_symmetry_cell_setting 'orthorhombic'
loop_
_space_group_symop_operation_xyz
x,y,z
-x,-y,z
1/2-x,y,z
1/2+x,-y,z
1/2+x,1/2+y,1/2+z
1/2-x,1/2-y,1/2+z
-x,1/2+y,1/2+z
x,1/2-y,1/2+z
loop_
_atom_site_type_symbol
_atom_site_label
_atom_site_fract_x
_atom_site_fract_y
_atom_site_fract_z
Si Si1 0.343450 0.978097 0.524360
Si Si2 0.590850 0.287753 0.676432
Si Si3 0.656550 0.521901 0.314306
Si Si4 0.340011 0.066893 0.270341
Si Si5 0.842168 0.182651 0.459894
Si Si6 0.157832 0.182650 0.878772
Si Si7 0.909150 0.787752 0.162234
Si Si8 0.840011 0.433108 0.568326
O O1 0.250000 0.973333 0.531614
O O2 0.376113 0.899031 0.480635
O O3 0.379112 0.999999 0.669333
O O4 0.368825 0.039902 0.417119
O O5 0.640760 0.229437 0.592464
O O6 0.616702 0.281134 0.831191
O O7 0.500000 0.267292 0.669331
O O8 0.604288 0.368310 0.616514
O O9 0.750000 0.526667 0.307050
O O10 0.623887 0.600967 0.358033
O O11 0.631177 0.460095 0.421546
O O12 0.250000 0.095125 0.274247
O O13 0.395712 0.131692 0.222159
O O14 0.347852 0.000002 0.169330
O O15 0.750000 0.180333 0.430887
O O16 0.250000 0.180332 0.907776
O O17 0.140758 0.229434 0.746201
O O18 0.116703 0.218865 0.007476
O O19 0.750000 0.404875 0.564426
#
# Coordination Sequence:
#
# PCOD8192251 Si02
#       8
#     8   8   8   8   8   8   8   8
#     4   9  19  36  62  94 122 154 212 277 314 357
#     4  12  26  42  63  93 137 170 208 268 339 390
#     4   9  19  36  62  94 122 154 212 277 314 357
#     4  10  19  38  65  91 120 163 218 267 310 376
#     4  11  23  43  67  94 125 171 225 264 312 390
#     4  11  23  43  67  94 125 171 225 264 312 390
#     4  12  26  42  63  93 137 170 208 268 339 390
#     4  10  19  38  65  91 120 163 218 267 310 376
#
# _framework density 20.752875
#
# number of rings (size 3 to 8) (size 9 to 14) (size 15 to 20)
#    0.000    1.500    2.500    3.000    3.500    0.500 
#    0.000    0.000    0.000    0.000    0.000    0.000 
#    0.000    0.000    0.000    0.000    0.000    0.000 
#
# Total GULP energy -396946.836294 kJ/mol
# GULP energy per Si atom -12404.588634 kJ/mol
# Density = 2.070564 g / cm^3
# Si number density = 20.752875 Si / 1000 Ang^3
#
#
#
# Elastic Constant Matrix: (Units=GPa)
#
#
# Indices 1 2 3 4 5 6 
#
# 1 53.5448 4.3484 12.4556 0.0000 0.0000 0.0000
# 2 4.3484 62.0167 12.1656 0.0000 0.0000 0.0000
# 3 12.4556 12.1656 140.6850 0.0000 0.0000 0.0000
# 4 0.0000 0.0000 0.0000 33.9773 0.0000 0.0000
# 5 0.0000 0.0000 0.0000 0.0000 23.5761 0.0000
# 6 0.0000 0.0000 0.0000 0.0000 0.0000 4.0672
#
#
#
# Elastic Compliance Matrix: (Units=1/GPa)
#
#
# Indices 1 2 3 4 5 6 
#
# 1 0.019133 -0.001027 -0.001605 0.000000 0.000000 0.000000
# 2 -0.001027 0.016458 -0.001332 0.000000 0.000000 0.000000
# 3 -0.001605 -0.001332 0.007365 0.000000 0.000000 0.000000
# 4 0.000000 0.000000 0.000000 0.029431 0.000000 0.000000
# 5 0.000000 0.000000 0.000000 0.000000 0.042416 0.000000
# 6 0.000000 0.000000 0.000000 0.000000 0.000000 0.245868
#
#
# Mechanical properties :
#
#
# Convention : Reuss Voigt Hill
#
# Bulk Modulus (GPa) = 28.54862 34.90953 31.72908
# Shear Modulus (GPa) = 13.14837 27.47591 20.31214
#
# Velocity S-wave (km/s) = 2.51981 3.64257 3.13191
# Velocity P-wave (km/s) = 4.71723 5.87785 5.32923
#
# Compressibility (1/GPa) = 0.03502796
#
# Stress axis : x y z
#
# Youngs Moduli (GPa) = 52.26646 60.76066 135.76999
#
# Poissons Ratio (x) = 0.06238 0.21793
# Poissons Ratio (y) = 0.05366 0.18089
# Poissons Ratio (z) = 0.08390 0.08095
#
# Static dielectric constant tensor:
#      x y z
#    x 3.385850 0.000000 0.000000 
#    y 0.000000 3.818220 0.000000 
#    z 0.000000 0.000000 4.116890 
# 
# 
# High freq. dielectric constant tensor:
#      x y z
#    x 1.777750 0.000000 0.000000 
#    y 0.000000 1.816860 0.000000 
#    z 0.000000 0.000000 1.832550 
# 
# From -- ./inp_files/7550.got.cif
#   From: 2010.03.12/outbox.cif.g09.slc.cpg/sg46_4_cif.got.tgz:7550.got - 2010.04.14 02:56:35.
