data_PCOD8192789
_publ_section_title
;
Structure prediction by ZEFSAII (Michael W. Deem and Ramdas Pophale) SiO2 
 PCOD8192789
Probable space group: I M A 2
;
_chemical_formula_sum "Si O2"
_cell_formula_units_Z 60
_cell_length_a 18.921541
_cell_length_b 11.328790
_cell_length_c 14.759251
_cell_angle_alpha 90.000000
_cell_angle_beta 90.000000
_cell_angle_gamma 90.000000
_cell_volume 3163.765953
_symmetry_space_group_name_H-M "I M A 2"
_symmetry_group_IT_number 46
_symmetry_cell_setting 'orthorhombic'
loop_
_space_group_symop_operation_xyz
x,y,z
-x,-y,z
1/2-x,y,z
1/2+x,-y,z
1/2+x,1/2+y,1/2+z
1/2-x,1/2-y,1/2+z
-x,1/2+y,1/2+z
x,1/2-y,1/2+z
loop_
_atom_site_type_symbol
_atom_site_label
_atom_site_fract_x
_atom_site_fract_y
_atom_site_fract_z
Si Si1 0.829081 0.693589 0.442540
Si Si2 0.000000 0.500000 0.877710
Si Si3 0.923211 0.787245 0.301892
Si Si4 0.828194 0.448157 0.343017
Si Si5 0.170293 0.534384 0.132378
Si Si6 0.549073 0.341482 0.031667
Si Si7 0.469929 0.630141 0.412109
Si Si8 0.903463 0.698116 0.103686
O O1 0.750000 0.725479 0.473369
O O2 0.851912 0.780958 0.361396
O O3 0.834065 0.561185 0.407016
O O4 0.883943 0.707180 0.525847
O O5 0.953800 0.581497 0.811850
O O6 0.948831 0.420917 0.940930
O O7 0.903394 0.765551 0.198396
O O8 0.977422 0.689350 0.339836
O O9 0.750000 0.389770 0.355665
O O10 0.840068 0.481638 0.239104
O O11 0.891466 0.362323 0.369724
O O12 0.250000 0.571687 0.106768
O O13 0.118520 0.634865 0.091712
O O14 0.154347 0.404940 0.093605
O O15 0.478300 0.368444 0.089162
O O16 0.539620 0.203757 0.004937
O O17 0.500000 0.500000 0.433582
#
# Coordination Sequence:
#
# PCOD8192789 Si02
#       8
#     8   4   8   8   8   8   8   8
#     4  11  21  36  58  89 118 153 199 248 303 352
#     4  10  20  40  54  84 124 154 192 248 306 344
#     4  11  22  37  61  89 122 160 199 251 300 362
#     4  10  21  37  57  82 119 151 193 251 301 355
#     4  11  21  35  58  90 119 154 199 249 306 363
#     4  11  21  36  63  84 121 152 204 254 296 362
#     4  11  19  37  60  87 115 157 205 243 301 361
#     4  12  20  36  59  89 117 163 201 249 294 358
#
# _framework density 18.964739999999999
#
# number of rings (size 3 to 8) (size 9 to 14) (size 15 to 20)
#    0.000    1.067    6.667    1.200    0.000    1.067 
#    3.600    0.000    0.000    0.800    0.000    0.000 
#    0.000    0.000    0.000    0.000    0.000    0.000 
#
# Total GULP energy -371937.101220 kJ/mol
# GULP energy per Si atom -12397.903374 kJ/mol
# Density = 1.892158 g / cm^3
# Si number density = 18.964740 Si / 1000 Ang^3
#
#
#
# Elastic Constant Matrix: (Units=GPa)
#
#
# Indices 1 2 3 4 5 6 
#
# 1 133.4408 30.0052 43.4458 0.0000 0.0000 0.0000
# 2 30.0052 82.2188 32.9688 0.0000 0.0000 0.0000
# 3 43.4458 32.9688 117.8478 0.0000 0.0000 0.0000
# 4 0.0000 0.0000 0.0000 24.7282 0.0000 0.0000
# 5 0.0000 0.0000 0.0000 0.0000 27.6592 0.0000
# 6 0.0000 0.0000 0.0000 0.0000 0.0000 27.5766
#
#
#
# Elastic Compliance Matrix: (Units=1/GPa)
#
#
# Indices 1 2 3 4 5 6 
#
# 1 0.008845 -0.002163 -0.002656 0.000000 0.000000 0.000000
# 2 -0.002163 0.014228 -0.003183 0.000000 0.000000 0.000000
# 3 -0.002656 -0.003183 0.010355 0.000000 0.000000 0.000000
# 4 0.000000 0.000000 0.000000 0.040440 0.000000 0.000000
# 5 0.000000 0.000000 0.000000 0.000000 0.036154 0.000000
# 6 0.000000 0.000000 0.000000 0.000000 0.000000 0.036263
#
#
# Mechanical properties :
#
#
# Convention : Reuss Voigt Hill
#
# Bulk Modulus (GPa) = 57.38916 60.70523 59.04719
# Shear Modulus (GPa) = 29.74473 31.13196 30.43834
#
# Velocity S-wave (km/s) = 3.96463 4.05603 4.01059
# Velocity P-wave (km/s) = 7.16131 7.34943 7.25598
#
# Compressibility (1/GPa) = 0.01742489
#
# Stress axis : x y z
#
# Youngs Moduli (GPa) = 113.05863 70.28182 96.57121
#
# Poissons Ratio (x) = 0.15202 0.25646
# Poissons Ratio (y) = 0.24455 0.30740
# Poissons Ratio (z) = 0.30025 0.22371
#
# Static dielectric constant tensor:
#      x y z
#    x 3.792590 0.000000 0.000000 
#    y 0.000000 3.350850 0.000000 
#    z 0.000000 0.000000 3.406600 
# 
# 
# High freq. dielectric constant tensor:
#      x y z
#    x 1.748580 0.000000 0.000000 
#    y 0.000000 1.718290 0.000000 
#    z 0.000000 0.000000 1.732250 
# 
# From -- ./inp_files/12464.got.cif
#   From: 2010.03.12/outbox.cif.g09.slc.cpg/sg46_7_cif.got.tgz:12464.got - 2010.04.14 02:56:35.
