data_PCOD8192078
_publ_section_title
;
Structure prediction by ZEFSAII (Michael W. Deem and Ramdas Pophale) SiO2 
 PCOD8192078
Probable space group: I M A 2
;
_chemical_formula_sum "Si O2"
_cell_formula_units_Z 64
_cell_length_a 8.909993
_cell_length_b 30.908713
_cell_length_c 11.937913
_cell_angle_alpha 90.000000
_cell_angle_beta 90.000000
_cell_angle_gamma 90.000000
_cell_volume 3287.658460
_symmetry_space_group_name_H-M "I M A 2"
_symmetry_group_IT_number 46
_symmetry_cell_setting 'orthorhombic'
loop_
_space_group_symop_operation_xyz
x,y,z
-x,-y,z
1/2-x,y,z
1/2+x,-y,z
1/2+x,1/2+y,1/2+z
1/2-x,1/2-y,1/2+z
-x,1/2+y,1/2+z
x,1/2-y,1/2+z
loop_
_atom_site_type_symbol
_atom_site_label
_atom_site_fract_x
_atom_site_fract_y
_atom_site_fract_z
Si Si1 0.579426 0.329752 0.279950
Si Si2 0.928596 0.456013 0.534241
Si Si3 0.920867 0.207705 0.025644
Si Si4 0.071884 0.873027 0.169695
Si Si5 0.571795 0.371471 0.924424
Si Si6 0.426179 0.296454 0.068062
Si Si7 0.427847 0.573546 0.295063
Si Si8 0.427268 0.956458 0.555532
O O1 0.750000 0.331325 0.233348
O O2 0.574703 0.307275 0.398735
O O3 0.476915 0.303033 0.195449
O O4 0.510579 0.377673 0.289808
O O5 0.750000 0.459342 0.539539
O O6 0.988978 0.416238 0.609149
O O7 0.988447 0.449591 0.406886
O O8 0.000000 0.500000 0.582245
O O9 0.750000 0.219857 0.060253
O O10 0.985239 0.169678 0.105210
O O11 0.028829 0.248344 0.034205
O O12 0.250000 0.873923 0.163994
O O13 0.013279 0.872067 0.296898
O O14 0.750000 0.367530 0.930021
O O15 0.504107 0.330370 0.985938
O O16 0.516507 0.415463 0.984057
O O17 0.250000 0.302221 0.057099
O O18 0.250000 0.575977 0.301526
O O19 0.482245 0.548566 0.184151
O O20 0.250000 0.960707 0.547458
O O21 0.500000 0.000000 0.505621
#
# Coordination Sequence:
#
# PCOD8192078 Si02
#       8
#     8   8   8   8   8   8   8   8
#     4  10  19  38  66  88 111 150 201 245 282 337
#     4  10  19  34  56  85 117 149 187 235 290 342
#     4  10  21  39  65  90 111 148 200 247 284 339
#     4   9  19  37  62  87 110 145 199 248 280 326
#     4  10  21  40  62  83 111 154 205 244 278 340
#     4  12  26  40  57  87 126 155 183 238 302 358
#     4   9  16  32  57  83 113 146 187 239 283 329
#     4  10  20  34  55  81 112 148 190 239 287 337
#
# _framework density 19.466742
#
# number of rings (size 3 to 8) (size 9 to 14) (size 15 to 20)
#    0.000    2.000    2.500    1.500    1.750    1.500 
#    0.000    1.875    0.000    0.000    0.000    0.000 
#    0.000    0.000    0.000    0.000    0.000    0.000 
#
# Total GULP energy -396841.839514 kJ/mol
# GULP energy per Si atom -12401.307485 kJ/mol
# Density = 1.942243 g / cm^3
# Si number density = 19.466742 Si / 1000 Ang^3
#
#
#
# Elastic Constant Matrix: (Units=GPa)
#
#
# Indices 1 2 3 4 5 6 
#
# 1 33.5555 30.8625 25.5526 -0.0010 0.0010 0.0000
# 2 30.8625 160.1183 59.0993 -0.0015 0.0000 0.0000
# 3 25.5526 59.0993 129.0604 -0.0022 -0.0027 -0.0001
# 4 -0.0010 -0.0015 -0.0022 7.3881 0.0032 -0.0002
# 5 0.0010 0.0000 -0.0027 0.0032 34.8661 0.0011
# 6 0.0000 0.0000 -0.0001 -0.0002 0.0011 30.0588
#
#
#
# Elastic Compliance Matrix: (Units=1/GPa)
#
#
# Indices 1 2 3 4 5 6 
#
# 1 0.038855 -0.005596 -0.005131 0.000003 -0.000001 0.000000
# 2 -0.005596 0.008321 -0.002703 0.000000 0.000000 0.000000
# 3 -0.005131 -0.002703 0.010002 0.000002 0.000001 0.000000
# 4 0.000003 0.000000 0.000002 0.135352 -0.000012 0.000001
# 5 -0.000001 0.000000 0.000001 -0.000012 0.028681 -0.000001
# 6 0.000000 0.000000 0.000000 0.000001 -0.000001 0.033268
#
#
# Mechanical properties :
#
#
# Convention : Reuss Voigt Hill
#
# Bulk Modulus (GPa) = 32.98104 61.52921 47.25513
# Shear Modulus (GPa) = 17.15595 28.27727 22.71661
#
# Velocity S-wave (km/s) = 2.97188 3.81543 3.41976
# Velocity P-wave (km/s) = 5.36238 7.14744 6.31827
#
# Compressibility (1/GPa) = 0.03032045
#
# Stress axis : x y z
#
# Youngs Moduli (GPa) = 25.73687 120.17106 99.98276
#
# Poissons Ratio (x) = 0.67242 0.51296
# Poissons Ratio (y) = 0.14401 0.27022
# Poissons Ratio (z) = 0.13204 0.32479
#
# Static dielectric constant tensor:
#      x y z
#    x 2.205400 0.000060 -0.000010 
#    y 0.000060 3.748630 -0.000010 
#    z -0.000010 -0.000010 3.754870 
# 
# 
# High freq. dielectric constant tensor:
#      x y z
#    x 1.714320 0.000000 0.000000 
#    y 0.000000 1.773800 0.000000 
#    z 0.000000 0.000000 1.766040 
# 
# From -- ./inp_files/9681.got.cif
#   From: 2010.03.12/outbox.cif.g09.slc.cpg/sg46_5_cif.got.tgz:9681.got - 2010.04.14 02:56:35.
