data_PCOD8192213
_publ_section_title
;
Structure prediction by ZEFSAII (Michael W. Deem and Ramdas Pophale) SiO2 
 PCOD8192213
Probable space group: I M A 2
;
_chemical_formula_sum "Si O2"
_cell_formula_units_Z 64
_cell_length_a 9.180805
_cell_length_b 30.571682
_cell_length_c 11.827821
_cell_angle_alpha 90.000000
_cell_angle_beta 90.000000
_cell_angle_gamma 90.000000
_cell_volume 3319.745875
_symmetry_space_group_name_H-M "I M A 2"
_symmetry_group_IT_number 46
_symmetry_cell_setting 'orthorhombic'
loop_
_space_group_symop_operation_xyz
x,y,z
-x,-y,z
1/2-x,y,z
1/2+x,-y,z
1/2+x,1/2+y,1/2+z
1/2-x,1/2-y,1/2+z
-x,1/2+y,1/2+z
x,1/2-y,1/2+z
loop_
_atom_site_type_symbol
_atom_site_label
_atom_site_fract_x
_atom_site_fract_y
_atom_site_fract_z
Si Si1 0.078380 0.874825 0.508920
Si Si2 0.081057 0.569237 0.414631
Si Si3 0.582073 0.204327 0.667543
Si Si4 0.578281 0.455874 0.161869
Si Si5 0.078041 0.292147 0.618959
Si Si6 0.578713 0.626805 0.771224
Si Si7 0.421739 0.458266 0.630551
Si Si8 0.415364 0.670662 0.415440
O O1 0.250000 0.877145 0.490170
O O2 0.034934 0.830016 0.571569
O O3 0.025371 0.916287 0.582152
O O4 0.000639 0.875276 0.389663
O O5 0.250000 0.557832 0.436462
O O6 0.032205 0.555113 0.289750
O O7 0.050940 0.620116 0.432762
O O8 0.979395 0.544018 0.502338
O O9 0.750000 0.218122 0.652832
O O10 0.482332 0.246662 0.663562
O O11 0.553748 0.181332 0.786144
O O12 0.500000 0.500000 0.120714
O O13 0.750000 0.462421 0.152085
O O14 0.250000 0.289652 0.612771
O O15 0.025991 0.330389 0.703484
O O16 0.020154 0.300700 0.493282
O O17 0.750000 0.627930 0.792869
O O18 0.532314 0.584619 0.699258
O O19 0.500000 0.500000 0.689020
O O20 0.250000 0.465337 0.629375
O O21 0.250000 0.682084 0.448625
#
# Coordination Sequence:
#
# PCOD8192213 Si02
#       8
#     8   8   8   8   8   8   8   8
#     4  10  22  41  63  85 115 154 199 244 288 343
#     4  10  19  36  62  90 121 153 190 238 292 348
#     4  10  22  41  63  90 119 154 199 246 291 345
#     4  10  21  38  59  88 120 152 190 238 291 346
#     4  11  24  41  60  88 124 157 194 244 296 352
#     4  10  24  43  59  82 120 157 193 241 295 348
#     4  11  23  40  60  86 119 155 196 243 291 347
#     4  10  20  38  65  91 119 155 197 243 291 348
#
# _framework density 19.278583000000001
#
# number of rings (size 3 to 8) (size 9 to 14) (size 15 to 20)
#    0.000    1.750    2.500    1.125    1.750    5.500 
#    0.000    2.500    0.000    0.000    0.000    0.000 
#    0.000    0.000    0.000    0.000    0.000    0.000 
#
# Total GULP energy -396934.356741 kJ/mol
# GULP energy per Si atom -12404.198648 kJ/mol
# Density = 1.923470 g / cm^3
# Si number density = 19.278583 Si / 1000 Ang^3
#
#
#
# Elastic Constant Matrix: (Units=GPa)
#
#
# Indices 1 2 3 4 5 6 
#
# 1 61.8899 53.6372 45.5877 0.0019 -0.0002 0.0000
# 2 53.6372 129.6432 57.0578 0.0035 -0.0003 0.0002
# 3 45.5877 57.0578 109.8178 0.0085 -0.0007 0.0002
# 4 0.0019 0.0035 0.0085 17.1772 -0.0012 0.0002
# 5 -0.0002 -0.0003 -0.0007 -0.0012 28.3361 0.0006
# 6 0.0000 0.0002 0.0002 0.0002 0.0006 36.6399
#
#
#
# Elastic Compliance Matrix: (Units=1/GPa)
#
#
# Indices 1 2 3 4 5 6 
#
# 1 0.029417 -0.008811 -0.007634 0.000002 0.000000 0.000000
# 2 -0.008811 0.012639 -0.002909 0.000000 0.000000 0.000000
# 3 -0.007634 -0.002909 0.013786 -0.000005 0.000000 0.000000
# 4 0.000002 0.000000 -0.000005 0.058217 0.000002 0.000000
# 5 0.000000 0.000000 0.000000 0.000002 0.035291 -0.000001
# 6 0.000000 0.000000 0.000000 0.000000 -0.000001 0.027293
#
#
# Mechanical properties :
#
#
# Convention : Reuss Voigt Hill
#
# Bulk Modulus (GPa) = 58.36135 68.21293 63.28714
# Shear Modulus (GPa) = 22.61814 26.10185 24.36000
#
# Velocity S-wave (km/s) = 3.42896 3.68357 3.55854
# Velocity P-wave (km/s) = 6.78346 7.31787 7.05572
#
# Compressibility (1/GPa) = 0.01713463
#
# Stress axis : x y z
#
# Youngs Moduli (GPa) = 33.99446 79.11863 72.53484
#
# Poissons Ratio (x) = 0.69710 0.55370
# Poissons Ratio (y) = 0.29952 0.21103
# Poissons Ratio (z) = 0.25950 0.23019
#
# Static dielectric constant tensor:
#      x y z
#    x 3.452080 0.000000 0.000000 
#    y 0.000000 3.757730 0.000000 
#    z 0.000000 0.000000 3.484760 
# 
# 
# High freq. dielectric constant tensor:
#      x y z
#    x 1.742310 0.000000 0.000000 
#    y 0.000000 1.767770 0.000000 
#    z 0.000000 0.000000 1.752800 
# 
# From -- ./inp_files/9812.got.cif
#   From: 2010.03.12/outbox.cif.g09.slc.cpg/sg46_5_cif.got.tgz:9812.got - 2010.04.14 02:56:35.
