data_PCOD8192252
_publ_section_title
;
Structure prediction by ZEFSAII (Michael W. Deem and Ramdas Pophale) SiO2 
 PCOD8192252
Probable space group: I M A 2
;
_chemical_formula_sum "Si O2"
_cell_formula_units_Z 64
_cell_length_a 17.836318
_cell_length_b 9.231664
_cell_length_c 18.904346
_cell_angle_alpha 90.000000
_cell_angle_beta 90.000000
_cell_angle_gamma 90.000000
_cell_volume 3112.768719
_symmetry_space_group_name_H-M "I M A 2"
_symmetry_group_IT_number 46
_symmetry_cell_setting 'orthorhombic'
loop_
_space_group_symop_operation_xyz
x,y,z
-x,-y,z
1/2-x,y,z
1/2+x,-y,z
1/2+x,1/2+y,1/2+z
1/2-x,1/2-y,1/2+z
-x,1/2+y,1/2+z
x,1/2-y,1/2+z
loop_
_atom_site_type_symbol
_atom_site_label
_atom_site_fract_x
_atom_site_fract_y
_atom_site_fract_z
Si Si1 0.082692 0.972434 0.260610
Si Si2 0.936965 0.382952 0.914510
Si Si3 0.163789 0.229764 0.770622
Si Si4 0.161344 0.473532 0.147874
Si Si5 0.931354 0.397950 0.500846
Si Si6 0.835390 0.874991 0.923445
Si Si7 0.838568 0.914763 0.493293
Si Si8 0.339175 0.697624 0.638155
O O1 0.116804 0.125871 0.283547
O O2 0.075806 0.869184 0.329905
O O3 0.137260 0.903755 0.202892
O O4 0.000000 0.000000 0.228388
O O5 0.861069 0.441534 0.950425
O O6 0.000000 0.500000 0.932117
O O7 0.960658 0.233164 0.951628
O O8 0.250000 0.273127 0.755758
O O9 0.157374 0.129786 0.839280
O O10 0.128204 0.133981 0.707269
O O11 0.250000 0.460770 0.150133
O O12 0.138148 0.639778 0.160409
O O13 0.129111 0.420484 0.072815
O O14 0.876719 0.484232 0.449762
O O15 0.885403 0.345665 0.568853
O O16 0.000000 0.500000 0.525335
O O17 0.750000 0.888181 0.948237
O O18 0.870933 0.729688 0.957100
O O19 0.750000 0.914954 0.493682
O O20 0.250000 0.681569 0.623800
#
# Coordination Sequence:
#
# PCOD8192252 Si02
#       8
#     8   8   8   8   8   8   8   8
#     4  11  25  43  65  93 132 173 220 267 325 392
#     4  11  24  44  66  91 128 176 219 267 322 388
#     4  10  21  41  65  93 128 171 221 272 326 390
#     4   9  20  38  62  92 126 164 210 266 324 386
#     4  12  26  42  67  96 137 175 219 271 336 388
#     4  10  22  39  64  98 129 167 221 275 326 390
#     4  10  19  38  65  92 123 163 218 270 321 381
#     4  11  24  45  66  97 133 169 216 272 330 395
#
# _framework density 20.560475
#
# number of rings (size 3 to 8) (size 9 to 14) (size 15 to 20)
#    0.000    1.500    2.500    1.875    5.250    1.000 
#    2.250    0.625    0.000    0.000    0.000    0.000 
#    0.000    0.000    0.000    0.000    0.000    0.000 
#
# Total GULP energy -396828.835229 kJ/mol
# GULP energy per Si atom -12400.901101 kJ/mol
# Density = 2.051368 g / cm^3
# Si number density = 20.560475 Si / 1000 Ang^3
#
#
#
# Elastic Constant Matrix: (Units=GPa)
#
#
# Indices 1 2 3 4 5 6 
#
# 1 68.3710 36.3279 34.1637 0.0000 0.0000 0.0000
# 2 36.3279 100.2063 43.0630 0.0000 0.0000 0.0000
# 3 34.1637 43.0630 111.3350 0.0000 0.0000 0.0000
# 4 0.0000 0.0000 0.0000 38.9347 0.0000 0.0000
# 5 0.0000 0.0000 0.0000 0.0000 19.9342 0.0000
# 6 0.0000 0.0000 0.0000 0.0000 0.0000 29.8968
#
#
#
# Elastic Compliance Matrix: (Units=1/GPa)
#
#
# Indices 1 2 3 4 5 6 
#
# 1 0.019420 -0.005372 -0.003881 0.000000 0.000000 0.000000
# 2 -0.005372 0.013455 -0.003556 0.000000 0.000000 0.000000
# 3 -0.003881 -0.003556 0.011548 0.000000 0.000000 0.000000
# 4 0.000000 0.000000 0.000000 0.025684 0.000000 0.000000
# 5 0.000000 0.000000 0.000000 0.000000 0.050165 0.000000
# 6 0.000000 0.000000 0.000000 0.000000 0.000000 0.033448
#
#
# Mechanical properties :
#
#
# Convention : Reuss Voigt Hill
#
# Bulk Modulus (GPa) = 53.17824 56.33573 54.75698
# Shear Modulus (GPa) = 26.93856 28.84365 27.89111
#
# Velocity S-wave (km/s) = 3.62361 3.74955 3.68712
# Velocity P-wave (km/s) = 6.58998 6.79743 6.69451
#
# Compressibility (1/GPa) = 0.01880469
#
# Stress axis : x y z
#
# Youngs Moduli (GPa) = 51.49334 74.32104 86.59402
#
# Poissons Ratio (x) = 0.39929 0.33608
# Poissons Ratio (y) = 0.27665 0.30790
# Poissons Ratio (z) = 0.19985 0.26426
#
# Static dielectric constant tensor:
#      x y z
#    x 3.669040 0.000000 0.000000 
#    y 0.000000 3.820140 0.000000 
#    z 0.000000 0.000000 3.917310 
# 
# 
# High freq. dielectric constant tensor:
#      x y z
#    x 1.796990 0.000000 0.000000 
#    y 0.000000 1.805980 0.000000 
#    z 0.000000 0.000000 1.813300 
# 
# From -- ./inp_files/20227.got.cif
#   From: 2010.03.12/outbox.cif.g09.slc.cpg/sg46_11_cif.got.tgz:20227.got - 2010.04.14 02:56:35.
