data_PCOD8192308
_publ_section_title
;
Structure prediction by ZEFSAII (Michael W. Deem and Ramdas Pophale) SiO2 
 PCOD8192308
Probable space group: I M A 2
;
_chemical_formula_sum "Si O2"
_cell_formula_units_Z 64
_cell_length_a 8.789980
_cell_length_b 23.326425
_cell_length_c 18.957463
_cell_angle_alpha 90.000000
_cell_angle_beta 90.000000
_cell_angle_gamma 90.000000
_cell_volume 3887.015639
_symmetry_space_group_name_H-M "I M A 2"
_symmetry_group_IT_number 46
_symmetry_cell_setting 'orthorhombic'
loop_
_space_group_symop_operation_xyz
x,y,z
-x,-y,z
1/2-x,y,z
1/2+x,-y,z
1/2+x,1/2+y,1/2+z
1/2-x,1/2-y,1/2+z
-x,1/2+y,1/2+z
x,1/2-y,1/2+z
loop_
_atom_site_type_symbol
_atom_site_label
_atom_site_fract_x
_atom_site_fract_y
_atom_site_fract_z
Si Si1 0.571390 0.061274 0.740590
Si Si2 0.572155 0.241115 0.597821
Si Si3 0.570526 0.939454 0.456911
Si Si4 0.075934 0.155153 0.827482
Si Si5 0.929944 0.883195 0.602705
Si Si6 0.926101 0.730985 0.738064
Si Si7 0.930430 0.667365 0.872094
Si Si8 0.071348 0.273999 0.460854
O O1 0.750000 0.054483 0.732992
O O2 0.532492 0.102955 0.805793
O O3 0.507371 0.087173 0.668749
O O4 0.500000 0.000000 0.756573
O O5 0.750000 0.228324 0.595325
O O6 0.480377 0.182020 0.594037
O O7 0.530496 0.274408 0.669417
O O8 0.521577 0.282038 0.533221
O O9 0.750000 0.944630 0.453673
O O10 0.518606 0.918590 0.533969
O O11 0.510885 0.894520 0.397836
O O12 0.500000 0.000000 0.437787
O O13 0.250000 0.134696 0.821683
O O14 0.048372 0.207808 0.774688
O O15 0.037568 0.173387 0.907740
O O16 0.750000 0.884188 0.613480
O O17 0.750000 0.723104 0.717060
O O18 0.981561 0.681057 0.791999
O O19 0.750000 0.671805 0.875354
O O20 0.991703 0.715670 0.925465
O O21 0.250000 0.270084 0.477632
#
# Coordination Sequence:
#
# PCOD8192308 Si02
#       8
#     8   8   8   8   8   8   8   8
#     4  12  24  36  51  72 102 136 173 210 247 295
#     4  12  22  30  46  76 107 133 162 203 255 303
#     4  10  20  33  50  70  96 129 168 206 241 283
#     4   9  18  33  54  75  95 127 169 210 251 297
#     4  11  21  35  51  67  97 139 178 211 241 286
#     4   9  17  31  53  71  93 128 166 204 246 298
#     4   8  15  31  51  71  91 125 169 205 239 287
#     4   9  17  33  54  72  95 130 169 204 246 302
#
# _framework density 16.465073
#
# number of rings (size 3 to 8) (size 9 to 14) (size 15 to 20)
#    0.000    2.000    2.500    4.500    0.000    2.500 
#    0.000    2.500    0.000    0.000    0.000    0.875 
#    0.000    2.000    0.000    0.000    0.000    0.000 
#
# Total GULP energy -396785.815023 kJ/mol
# GULP energy per Si atom -12399.556719 kJ/mol
# Density = 1.642760 g / cm^3
# Si number density = 16.465073 Si / 1000 Ang^3
#
#
#
# Elastic Constant Matrix: (Units=GPa)
#
#
# Indices 1 2 3 4 5 6 
#
# 1 69.2952 33.6093 42.5513 0.0000 0.0000 0.0000
# 2 33.6093 92.2813 55.8247 0.0000 0.0000 0.0000
# 3 42.5513 55.8247 113.9350 0.0000 0.0000 0.0000
# 4 0.0000 0.0000 0.0000 23.1831 0.0000 0.0000
# 5 0.0000 0.0000 0.0000 0.0000 16.7717 0.0000
# 6 0.0000 0.0000 0.0000 0.0000 0.0000 24.6366
#
#
#
# Elastic Compliance Matrix: (Units=1/GPa)
#
#
# Indices 1 2 3 4 5 6 
#
# 1 0.019648 -0.003861 -0.005446 0.000000 0.000000 0.000000
# 2 -0.003861 0.016160 -0.006476 0.000000 0.000000 0.000000
# 3 -0.005446 -0.006476 0.013984 0.000000 0.000000 0.000000
# 4 0.000000 0.000000 0.000000 0.043135 0.000000 0.000000
# 5 0.000000 0.000000 0.000000 0.000000 0.059624 0.000000
# 6 0.000000 0.000000 0.000000 0.000000 0.000000 0.040590
#
#
# Mechanical properties :
#
#
# Convention : Reuss Voigt Hill
#
# Bulk Modulus (GPa) = 54.86804 59.94244 57.40524
# Shear Modulus (GPa) = 21.66535 22.48669 22.07602
#
# Velocity S-wave (km/s) = 3.63138 3.69957 3.66564
# Velocity P-wave (km/s) = 7.13995 7.39824 7.27024
#
# Compressibility (1/GPa) = 0.01822555
#
# Stress axis : x y z
#
# Youngs Moduli (GPa) = 50.89576 61.87987 71.51101
#
# Poissons Ratio (x) = 0.23894 0.38945
# Poissons Ratio (y) = 0.19653 0.46310
# Poissons Ratio (z) = 0.27718 0.40073
#
# Static dielectric constant tensor:
#      x y z
#    x 2.947320 0.000000 0.000000 
#    y 0.000000 3.130050 0.000000 
#    z 0.000000 0.000000 3.288550 
# 
# 
# High freq. dielectric constant tensor:
#      x y z
#    x 1.624210 0.000000 0.000000 
#    y 0.000000 1.608270 0.000000 
#    z 0.000000 0.000000 1.633970 
# 
# From -- ./inp_files/21469.got.cif
#   From: 2010.03.12/outbox.cif.g09.slc.cpg/sg46_11_cif.got.tgz:21469.got - 2010.04.14 02:56:35.
