data_PCOD8192794
_publ_section_title
;
Structure prediction by ZEFSAII (Michael W. Deem and Ramdas Pophale) SiO2 
 PCOD8192794
Probable space group: I M A 2
;
_chemical_formula_sum "Si O2"
_cell_formula_units_Z 52
_cell_length_a 19.585147
_cell_length_b 15.825340
_cell_length_c 8.524858
_cell_angle_alpha 90.000000
_cell_angle_beta 90.000000
_cell_angle_gamma 90.000000
_cell_volume 2642.208215
_symmetry_space_group_name_H-M "I M A 2"
_symmetry_group_IT_number 46
_symmetry_cell_setting 'orthorhombic'
loop_
_space_group_symop_operation_xyz
x,y,z
-x,-y,z
1/2-x,y,z
1/2+x,-y,z
1/2+x,1/2+y,1/2+z
1/2-x,1/2-y,1/2+z
-x,1/2+y,1/2+z
x,1/2-y,1/2+z
loop_
_atom_site_type_symbol
_atom_site_label
_atom_site_fract_x
_atom_site_fract_y
_atom_site_fract_z
Si Si1 0.860879 0.390905 0.659220
Si Si2 0.250000 0.836883 0.382323
Si Si3 0.568571 0.546254 0.730042
Si Si4 0.750000 0.351514 0.420178
Si Si5 0.250000 0.540313 0.139850
Si Si6 0.002237 0.686633 0.571856
Si Si7 0.003158 0.865678 0.709484
Si Si8 0.099294 0.009898 0.589353
O O1 0.819153 0.378180 0.818316
O O2 0.871539 0.492328 0.645554
O O3 0.818906 0.353352 0.517233
O O4 0.931273 0.340174 0.671107
O O5 0.250000 0.738832 0.336844
O O6 0.250000 0.865740 0.562320
O O7 0.500000 0.500000 0.677486
O O8 0.563297 0.640050 0.654369
O O9 0.577063 0.541044 0.917051
O O10 0.750000 0.436372 0.320633
O O11 0.318345 0.487692 0.099841
O O12 0.992585 0.786386 0.593492
O O13 0.013320 0.663219 0.389334
O O14 0.934147 0.921504 0.706257
O O15 0.068148 0.918728 0.641341
#
# Coordination Sequence:
#
# PCOD8192794 Si02
#       8
#     8   4   8   4   4   8   8   8
#     4  10  23  38  60  87 127 164 213 241 315 369
#     4  11  23  39  55  92 124 179 200 245 299 396
#     4  10  20  40  63  87 123 164 209 260 307 368
#     4  11  25  37  55  90 134 167 202 252 299 387
#     4  12  24  38  64  86 130 166 206 249 314 373
#     4  11  25  39  68  93 124 162 213 271 318 364
#     4  11  25  41  65  98 125 164 211 265 318 380
#     4  11  24  42  64  92 130 165 213 253 317 383
#
# _framework density 19.680509000000001
#
# number of rings (size 3 to 8) (size 9 to 14) (size 15 to 20)
#    0.000    1.231    3.077    2.769   17.231    0.000 
#    0.000    0.000    0.000    5.538    0.000    0.000 
#    0.000    0.000    0.000    0.000    0.000    0.000 
#
# Total GULP energy -322219.004291 kJ/mol
# GULP energy per Si atom -12393.038627 kJ/mol
# Density = 1.963572 g / cm^3
# Si number density = 19.680509 Si / 1000 Ang^3
#
#
#
# Elastic Constant Matrix: (Units=GPa)
#
#
# Indices 1 2 3 4 5 6 
#
# 1 115.9138 51.8461 20.9133 0.0000 0.0000 0.0000
# 2 51.8461 122.4790 27.1268 0.0000 0.0000 0.0000
# 3 20.9133 27.1268 68.1949 0.0000 0.0000 0.0000
# 4 0.0000 0.0000 0.0000 37.4036 0.0000 0.0000
# 5 0.0000 0.0000 0.0000 0.0000 61.5804 0.0000
# 6 0.0000 0.0000 0.0000 0.0000 0.0000 27.1637
#
#
#
# Elastic Compliance Matrix: (Units=1/GPa)
#
#
# Indices 1 2 3 4 5 6 
#
# 1 0.010806 -0.004212 -0.001639 0.000000 0.000000 0.000000
# 2 -0.004212 0.010595 -0.002923 0.000000 0.000000 0.000000
# 3 -0.001639 -0.002923 0.016329 0.000000 0.000000 0.000000
# 4 0.000000 0.000000 0.000000 0.026735 0.000000 0.000000
# 5 0.000000 0.000000 0.000000 0.000000 0.016239 0.000000
# 6 0.000000 0.000000 0.000000 0.000000 0.000000 0.036814
#
#
# Mechanical properties :
#
#
# Convention : Reuss Voigt Hill
#
# Bulk Modulus (GPa) = 49.54404 56.26225 52.90315
# Shear Modulus (GPa) = 35.26269 39.00962 37.13616
#
# Velocity S-wave (km/s) = 4.23751 4.45696 4.34862
# Velocity P-wave (km/s) = 7.01219 7.42535 7.22172
#
# Compressibility (1/GPa) = 0.02018406
#
# Stress axis : x y z
#
# Youngs Moduli (GPa) = 92.53694 94.38605 61.24041
#
# Poissons Ratio (x) = 0.39751 0.10036
# Poissons Ratio (y) = 0.38972 0.17900
# Poissons Ratio (z) = 0.15165 0.27588
#
# Static dielectric constant tensor:
#      x y z
#    x 3.639860 0.000000 0.000000 
#    y 0.000000 3.690060 0.000000 
#    z 0.000000 0.000000 3.561570 
# 
# 
# High freq. dielectric constant tensor:
#      x y z
#    x 1.755050 0.000000 0.000000 
#    y 0.000000 1.756530 0.000000 
#    z 0.000000 0.000000 1.777630 
# 
# From -- ./inp_files/7378.got.cif
#   From: 2010.03.12/outbox.cif.g09.slc.cpg/sg46_4_cif.got.tgz:7378.got - 2010.04.14 02:56:35.
