data_PCOD8192324
_publ_section_title
;
Structure prediction by ZEFSAII (Michael W. Deem and Ramdas Pophale) SiO2 
 PCOD8192324
Probable space group: I M A 2
;
_chemical_formula_sum "Si O2"
_cell_formula_units_Z 48
_cell_length_a 8.805570
_cell_length_b 9.499173
_cell_length_c 31.113516
_cell_angle_alpha 90.000000
_cell_angle_beta 90.000000
_cell_angle_gamma 90.000000
_cell_volume 2602.509734
_symmetry_space_group_name_H-M "I M A 2"
_symmetry_group_IT_number 46
_symmetry_cell_setting 'orthorhombic'
loop_
_space_group_symop_operation_xyz
x,y,z
-x,-y,z
1/2-x,y,z
1/2+x,-y,z
1/2+x,1/2+y,1/2+z
1/2-x,1/2-y,1/2+z
-x,1/2+y,1/2+z
x,1/2-y,1/2+z
loop_
_atom_site_type_symbol
_atom_site_label
_atom_site_fract_x
_atom_site_fract_y
_atom_site_fract_z
Si Si1 0.429737 0.350788 0.007720
Si Si2 0.428733 0.153172 0.085811
Si Si3 0.572318 0.347650 0.764163
Si Si4 0.571172 0.347340 0.340107
Si Si5 0.927585 0.152423 0.169583
Si Si6 0.070159 0.650031 0.918396
O O1 0.500000 0.500000 0.020344
O O2 0.250000 0.365363 0.002521
O O3 0.477019 0.243226 0.044759
O O4 0.500859 0.295390 0.963216
O O5 0.250000 0.139558 0.090121
O O6 0.493291 0.230933 0.129112
O O7 0.500000 0.000000 0.079962
O O8 0.500000 0.500000 0.770906
O O9 0.750000 0.370508 0.771099
O O10 0.507074 0.237983 0.798920
O O11 0.539189 0.281172 0.716649
O O12 0.500000 0.500000 0.341539
O O13 0.750000 0.364587 0.336599
O O14 0.523785 0.263446 0.382757
O O15 0.750000 0.142354 0.160350
O O16 0.000000 0.000000 0.170656
O O17 0.250000 0.632797 0.922716
O O18 0.000000 0.500000 0.905320
#
# Coordination Sequence:
#
# PCOD8192324 Si02
#       6
#     8   8   8   8   8   8
#     4  10  21  36  54  76 102 133 169 208 251 300
#     4  10  20  33  51  76 104 134 169 208 251 299
#     4   9  18  33  53  77 102 131 170 210 249 296
#     4  10  22  37  52  75 106 136 167 205 251 301
#     4   9  16  28  49  74 101 132 167 209 250 291
#     4  10  20  35  56  78 100 130 169 210 250 297
#
# _framework density 18.443736000000001
#
# number of rings (size 3 to 8) (size 9 to 14) (size 15 to 20)
#    0.000    2.333    0.000    4.500    0.000    6.000 
#    0.000    4.167    0.000    4.000    0.000    0.000 
#    0.000    0.000    0.000    0.000    0.000    0.000 
#
# Total GULP energy -297497.207847 kJ/mol
# GULP energy per Si atom -12395.716994 kJ/mol
# Density = 1.840176 g / cm^3
# Si number density = 18.443736 Si / 1000 Ang^3
#
#
#
# Elastic Constant Matrix: (Units=GPa)
#
#
# Indices 1 2 3 4 5 6 
#
# 1 77.1780 41.4375 67.0028 0.0000 0.0000 0.0000
# 2 41.4375 102.7378 97.9557 0.0000 0.0000 0.0000
# 3 67.0028 97.9557 195.1725 0.0000 0.0000 0.0000
# 4 0.0000 0.0000 0.0000 32.9263 0.0000 0.0000
# 5 0.0000 0.0000 0.0000 0.0000 -10.2878 0.0000
# 6 0.0000 0.0000 0.0000 0.0000 0.0000 28.0314
#
#
#
# Elastic Compliance Matrix: (Units=1/GPa)
#
#
# Indices 1 2 3 4 5 6 
#
# 1 0.018855 -0.002748 -0.005093 0.000000 0.000000 0.000000
# 2 -0.002748 0.019066 -0.008626 0.000000 0.000000 0.000000
# 3 -0.005093 -0.008626 0.011201 0.000000 0.000000 0.000000
# 4 0.000000 0.000000 0.000000 0.030371 0.000000 0.000000
# 5 0.000000 0.000000 0.000000 0.000000 -0.097202 0.000000
# 6 0.000000 0.000000 0.000000 0.000000 0.000000 0.035674
#
#
# Mechanical properties :
#
#
# Convention : Reuss Voigt Hill
#
# Bulk Modulus (GPa) = 61.77678 87.54225 74.65952
# Shear Modulus (GPa) = 88.81684 21.38011 55.09848
#
# Velocity S-wave (km/s) = 6.94695 3.40841 5.47162
# Velocity P-wave (km/s) = 9.89516 7.94086 8.97138
#
# Compressibility (1/GPa) = 0.01618731
#
# Stress axis : x y z
#
# Youngs Moduli (GPa) = 53.03759 52.44877 89.27443
#
# Poissons Ratio (x) = 0.14415 0.45471
# Poissons Ratio (y) = 0.14577 0.77005
# Poissons Ratio (z) = 0.27014 0.45241
#
# Static dielectric constant tensor:
#      x y z
#    x 3.464560 0.000000 0.000000 
#    y 0.000000 3.152390 0.000000 
#    z 0.000000 0.000000 4.247240 
# 
# 
# High freq. dielectric constant tensor:
#      x y z
#    x 1.724150 0.000000 0.000000 
#    y 0.000000 1.683340 0.000000 
#    z 0.000000 0.000000 1.741140 
# 
# From -- ./inp_files/25010.got.cif
#   From: 2010.03.12/outbox.cif.g09.slc.cpg/sg46_13_cif.got.tgz:25010.got - 2010.04.14 02:56:35.
