data_PCOD8192965
_publ_section_title
;
Structure prediction by ZEFSAII (Michael W. Deem and Ramdas Pophale) SiO2 
 PCOD8192965
Probable space group: I M A 2
;
_chemical_formula_sum "Si O2"
_cell_formula_units_Z 64
_cell_length_a 19.470266
_cell_length_b 14.407047
_cell_length_c 11.876903
_cell_angle_alpha 90.000000
_cell_angle_beta 90.000000
_cell_angle_gamma 90.000000
_cell_volume 3331.578627
_symmetry_space_group_name_H-M "I M A 2"
_symmetry_group_IT_number 46
_symmetry_cell_setting 'orthorhombic'
loop_
_space_group_symop_operation_xyz
x,y,z
-x,-y,z
1/2-x,y,z
1/2+x,-y,z
1/2+x,1/2+y,1/2+z
1/2-x,1/2-y,1/2+z
-x,1/2+y,1/2+z
x,1/2-y,1/2+z
loop_
_atom_site_type_symbol
_atom_site_label
_atom_site_fract_x
_atom_site_fract_y
_atom_site_fract_z
Si Si1 0.171934 0.325914 0.118540
Si Si2 0.944788 0.423466 0.957365
Si Si3 0.329320 0.053890 0.414990
Si Si4 0.169572 0.460555 0.320765
Si Si5 0.056776 0.575700 0.220985
Si Si6 0.999892 0.260684 0.358494
Si Si7 0.891278 0.845734 0.212788
Si Si8 0.556648 0.922120 0.999101
O O1 0.250000 0.324144 0.081454
O O2 0.160795 0.370905 0.241123
O O3 0.146996 0.220607 0.123368
O O4 0.136578 0.383539 0.016271
O O5 0.869947 0.457213 0.917702
O O6 0.953870 0.322989 0.903414
O O7 0.000000 0.500000 0.913714
O O8 0.950554 0.410320 0.089564
O O9 0.250000 0.031047 0.436161
O O10 0.337709 0.103362 0.294660
O O11 0.250000 0.482165 0.344506
O O12 0.133935 0.544814 0.253241
O O13 0.128599 0.445270 0.436713
O O14 0.045138 0.674454 0.278174
O O15 0.000000 0.500000 0.263479
O O16 0.060293 0.217807 0.286381
O O17 0.029153 0.321533 0.461149
O O18 0.930515 0.919921 0.133783
O O19 0.500000 0.000000 0.972935
#
# Coordination Sequence:
#
# PCOD8192965 Si02
#       8
#     8   8   8   8   8   8   8   8
#     4  10  21  38  63  94 124 159 205 256 316 379
#     4  11  24  39  63  94 125 167 216 261 306 366
#     4  11  24  43  64  89 129 169 207 258 316 376
#     4  11  21  39  66  93 123 162 206 256 311 371
#     4  11  20  40  67  91 126 163 213 264 308 366
#     4  12  22  40  64  95 122 165 211 264 313 363
#     4  12  24  37  62  95 129 163 204 257 318 385
#     4  12  25  42  64  93 128 164 205 261 316 373
#
# _framework density 19.210114000000001
#
# number of rings (size 3 to 8) (size 9 to 14) (size 15 to 20)
#    0.000    0.750    6.250    1.875    3.500    1.000 
#    0.000    0.625    0.000    0.000    0.000    0.000 
#    0.000    0.000    0.000    0.000    0.000    0.000 
#
# Total GULP energy -396830.021653 kJ/mol
# GULP energy per Si atom -12400.938177 kJ/mol
# Density = 1.916639 g / cm^3
# Si number density = 19.210114 Si / 1000 Ang^3
#
#
#
# Elastic Constant Matrix: (Units=GPa)
#
#
# Indices 1 2 3 4 5 6 
#
# 1 109.2913 54.9785 40.7661 0.0000 0.0000 0.0000
# 2 54.9785 117.8542 46.6302 0.0000 0.0000 0.0000
# 3 40.7661 46.6302 86.6516 0.0000 0.0000 0.0000
# 4 0.0000 0.0000 0.0000 32.1689 0.0000 0.0000
# 5 0.0000 0.0000 0.0000 0.0000 27.7383 0.0000
# 6 0.0000 0.0000 0.0000 0.0000 0.0000 30.9344
#
#
#
# Elastic Compliance Matrix: (Units=1/GPa)
#
#
# Indices 1 2 3 4 5 6 
#
# 1 0.012764 -0.004547 -0.003558 0.000000 0.000000 0.000000
# 2 -0.004547 0.012400 -0.004534 0.000000 0.000000 0.000000
# 3 -0.003558 -0.004534 0.015654 0.000000 0.000000 0.000000
# 4 0.000000 0.000000 0.000000 0.031086 0.000000 0.000000
# 5 0.000000 0.000000 0.000000 0.000000 0.036051 0.000000
# 6 0.000000 0.000000 0.000000 0.000000 0.000000 0.032326
#
#
# Mechanical properties :
#
#
# Convention : Reuss Voigt Hill
#
# Bulk Modulus (GPa) = 64.34630 66.50520 65.42575
# Shear Modulus (GPa) = 29.28427 29.59646 29.44037
#
# Velocity S-wave (km/s) = 3.90862 3.92940 3.91902
# Velocity P-wave (km/s) = 7.34428 7.43518 7.38987
#
# Compressibility (1/GPa) = 0.01554091
#
# Stress axis : x y z
#
# Youngs Moduli (GPa) = 78.34353 80.64599 63.87990
#
# Poissons Ratio (x) = 0.36666 0.22731
# Poissons Ratio (y) = 0.35619 0.28962
# Poissons Ratio (z) = 0.27878 0.36563
#
# Static dielectric constant tensor:
#      x y z
#    x 3.461970 0.000000 0.000000 
#    y 0.000000 3.746020 0.000000 
#    z 0.000000 0.000000 3.754230 
# 
# 
# High freq. dielectric constant tensor:
#      x y z
#    x 1.737910 0.000000 0.000000 
#    y 0.000000 1.734710 0.000000 
#    z 0.000000 0.000000 1.761150 
# 
# From -- ./inp_files/11945.got.cif
#   From: 2010.03.12/outbox.cif.g09.slc.cpg/sg46_6_cif.got.tgz:11945.got - 2010.04.14 02:56:35.
