data_PCOD8192526
_publ_section_title
;
Structure prediction by ZEFSAII (Michael W. Deem and Ramdas Pophale) SiO2 
 PCOD8192526
Probable space group: I M A 2
;
_chemical_formula_sum "Si O2"
_cell_formula_units_Z 64
_cell_length_a 8.654211
_cell_length_b 25.003916
_cell_length_c 15.315688
_cell_angle_alpha 90.000000
_cell_angle_beta 90.000000
_cell_angle_gamma 90.000000
_cell_volume 3314.148936
_symmetry_space_group_name_H-M "I M A 2"
_symmetry_group_IT_number 46
_symmetry_cell_setting 'orthorhombic'
loop_
_space_group_symop_operation_xyz
x,y,z
-x,-y,z
1/2-x,y,z
1/2+x,-y,z
1/2+x,1/2+y,1/2+z
1/2-x,1/2-y,1/2+z
-x,1/2+y,1/2+z
x,1/2-y,1/2+z
loop_
_atom_site_type_symbol
_atom_site_label
_atom_site_fract_x
_atom_site_fract_y
_atom_site_fract_z
Si Si1 0.069469 0.237517 0.560120
Si Si2 0.431217 0.057478 0.513836
Si Si3 0.065926 0.650389 0.527688
Si Si4 0.567771 0.139747 0.649774
Si Si5 0.427993 0.782341 0.380384
Si Si6 0.067008 0.943310 0.153053
Si Si7 0.930914 0.166733 0.835049
Si Si8 0.429138 0.600368 0.836583
O O1 0.250000 0.234111 0.581563
O O2 0.009536 0.297770 0.571755
O O3 0.973720 0.200313 0.625329
O O4 0.039433 0.215163 0.463354
O O5 0.250000 0.052416 0.514419
O O6 0.480637 0.097750 0.589650
O O7 0.481106 0.077819 0.419145
O O8 0.500000 0.000000 0.535436
O O9 0.250000 0.657177 0.530872
O O10 0.008680 0.599098 0.581417
O O11 0.004234 0.644634 0.427544
O O12 0.750000 0.130463 0.639645
O O13 0.508853 0.133733 0.750768
O O14 0.250000 0.778600 0.413204
O O15 0.471431 0.729924 0.324113
O O16 0.454374 0.835958 0.324477
O O17 0.250000 0.945494 0.153900
O O18 0.005578 0.927174 0.249093
O O19 0.000000 0.000000 0.124918
O O20 0.750000 0.159175 0.836604
O O21 0.250000 0.586811 0.851025
#
# Coordination Sequence:
#
# PCOD8192526 Si02
#       8
#     8   8   8   8   8   8   8   8
#     4  11  21  33  52  84 118 149 187 232 285 337
#     4  12  25  41  60  83 115 153 196 240 288 341
#     4   9  19  39  62  83 110 151 196 237 285 344
#     4  11  21  36  59  85 116 153 191 234 285 341
#     4   9  17  33  56  82 115 152 190 225 274 341
#     4  10  22  38  60  86 114 150 195 241 288 344
#     4   8  17  33  58  86 112 147 190 235 278 334
#     4  10  20  35  58  87 117 153 192 231 282 342
#
# _framework density 19.311140999999999
#
# number of rings (size 3 to 8) (size 9 to 14) (size 15 to 20)
#    0.000    2.000    1.250    3.750    1.750    2.000 
#    0.000    5.625    0.000    1.500    0.000    0.000 
#    0.000    0.000    0.000    0.000    0.000    0.000 
#
# Total GULP energy -396721.750815 kJ/mol
# GULP energy per Si atom -12397.554713 kJ/mol
# Density = 1.926719 g / cm^3
# Si number density = 19.311141 Si / 1000 Ang^3
#
#
#
# Elastic Constant Matrix: (Units=GPa)
#
#
# Indices 1 2 3 4 5 6 
#
# 1 62.7678 28.6804 27.5976 0.0000 0.0000 0.0000
# 2 28.6804 133.7004 75.1036 -0.0002 0.0000 0.0000
# 3 27.5976 75.1036 129.5779 -0.0007 0.0000 0.0000
# 4 0.0000 -0.0002 -0.0007 19.6505 0.0002 0.0000
# 5 0.0000 0.0000 0.0000 0.0002 6.0995 0.0000
# 6 0.0000 0.0000 0.0000 0.0000 0.0000 29.6959
#
#
#
# Elastic Compliance Matrix: (Units=1/GPa)
#
#
# Indices 1 2 3 4 5 6 
#
# 1 0.018147 -0.002553 -0.002385 0.000000 0.000000 0.000000
# 2 -0.002553 0.011449 -0.006092 0.000000 0.000000 0.000000
# 3 -0.002385 -0.006092 0.011757 0.000000 0.000000 0.000000
# 4 0.000000 0.000000 0.000000 0.050889 -0.000002 0.000000
# 5 0.000000 0.000000 0.000000 -0.000002 0.163947 0.000000
# 6 0.000000 0.000000 0.000000 0.000000 0.000000 0.033675
#
#
# Mechanical properties :
#
#
# Convention : Reuss Voigt Hill
#
# Bulk Modulus (GPa) = 51.83551 65.42326 58.62939
# Shear Modulus (GPa) = 15.70573 24.06681 19.88627
#
# Velocity S-wave (km/s) = 2.85493 3.53408 3.21250
# Velocity P-wave (km/s) = 6.14557 7.11372 6.64730
#
# Compressibility (1/GPa) = 0.01929179
#
# Stress axis : x y z
#
# Youngs Moduli (GPa) = 55.10560 87.34184 85.05925
#
# Poissons Ratio (x) = 0.22297 0.20289
# Poissons Ratio (y) = 0.14068 0.51821
# Poissons Ratio (z) = 0.13144 0.53211
#
# Static dielectric constant tensor:
#      x y z
#    x 3.307560 0.000000 0.000000 
#    y 0.000000 3.708830 0.000000 
#    z 0.000000 0.000000 3.892820 
# 
# 
# High freq. dielectric constant tensor:
#      x y z
#    x 1.732580 0.000000 0.000000 
#    y 0.000000 1.749360 0.000000 
#    z 0.000000 0.000000 1.752610 
# 
# From -- ./inp_files/14459.got.cif
#   From: 2010.03.12/outbox.cif.g09.slc.cpg/sg46_8_cif.got.tgz:14459.got - 2010.04.14 02:56:35.
