data_PCOD8192418
_publ_section_title
;
Structure prediction by ZEFSAII (Michael W. Deem and Ramdas Pophale) SiO2 
 PCOD8192418
Probable space group: I M A 2
;
_chemical_formula_sum "Si O2"
_cell_formula_units_Z 64
_cell_length_a 14.514068
_cell_length_b 24.342219
_cell_length_c 9.469319
_cell_angle_alpha 90.000000
_cell_angle_beta 90.000000
_cell_angle_gamma 90.000000
_cell_volume 3345.554168
_symmetry_space_group_name_H-M "I M A 2"
_symmetry_group_IT_number 46
_symmetry_cell_setting 'orthorhombic'
loop_
_space_group_symop_operation_xyz
x,y,z
-x,-y,z
1/2-x,y,z
1/2+x,-y,z
1/2+x,1/2+y,1/2+z
1/2-x,1/2-y,1/2+z
-x,1/2+y,1/2+z
x,1/2-y,1/2+z
loop_
_atom_site_type_symbol
_atom_site_label
_atom_site_fract_x
_atom_site_fract_y
_atom_site_fract_z
Si Si1 0.851408 0.488647 0.603450
Si Si2 0.358337 0.816227 0.233375
Si Si3 0.354882 0.971804 0.415946
Si Si4 0.537866 0.130259 0.483400
Si Si5 0.944999 0.947289 0.862922
Si Si6 0.146377 0.415481 0.079875
Si Si7 0.849897 0.191982 0.704020
Si Si8 0.893751 0.377755 0.459086
O O1 0.750000 0.512060 0.630676
O O2 0.897005 0.478515 0.757291
O O3 0.903154 0.534793 0.513594
O O4 0.844245 0.432221 0.516098
O O5 0.250000 0.832528 0.254887
O O6 0.428515 0.850139 0.330897
O O7 0.374608 0.752086 0.263209
O O8 0.393754 0.830797 0.077567
O O9 0.250000 0.949331 0.408295
O O10 0.416682 0.929664 0.506999
O O11 0.359579 0.028778 0.494406
O O12 0.427512 0.125897 0.507712
O O13 0.572534 0.174306 0.595587
O O14 0.872755 0.927706 0.745194
O O15 0.000000 0.000000 0.801012
O O16 0.005791 0.894181 0.900876
O O17 0.250000 0.390590 0.068569
O O18 0.750000 0.194688 0.626713
O O19 0.839051 0.148390 0.829439
#
# Coordination Sequence:
#
# PCOD8192418 Si02
#       8
#     8   8   8   8   8   8   8   8
#     4  10  20  34  55  85 120 155 192 232 280 344
#     4  11  23  39  60  90 124 152 188 238 291 355
#     4  10  21  35  57  89 122 156 192 234 289 354
#     4  12  22  38  62  86 118 160 195 237 293 350
#     4  10  21  36  55  85 115 158 195 236 288 344
#     4  11  24  40  58  84 118 156 203 250 286 335
#     4  11  23  38  59  89 121 154 193 235 287 356
#     4  11  21  36  57  84 119 156 188 229 288 347
#
# _framework density 19.129864000000001
#
# number of rings (size 3 to 8) (size 9 to 14) (size 15 to 20)
#    0.000    1.250    2.500    4.500    3.500    3.000 
#    0.000    0.000    0.000    0.750    0.000    0.000 
#    0.000    0.000    0.000    0.000    0.000    0.000 
#
# Total GULP energy -396685.165950 kJ/mol
# GULP energy per Si atom -12396.411436 kJ/mol
# Density = 1.908632 g / cm^3
# Si number density = 19.129864 Si / 1000 Ang^3
#
#
#
# Elastic Constant Matrix: (Units=GPa)
#
#
# Indices 1 2 3 4 5 6 
#
# 1 124.2741 43.2479 30.9542 0.0003 0.0002 0.0001
# 2 43.2479 68.3989 16.8544 0.0001 0.0002 0.0000
# 3 30.9542 16.8544 72.9172 -0.0007 -0.0002 -0.0007
# 4 0.0003 0.0001 -0.0007 31.3044 -0.0002 -0.0008
# 5 0.0002 0.0002 -0.0002 -0.0002 28.3143 -0.0003
# 6 0.0001 0.0000 -0.0007 -0.0008 -0.0003 24.2275
#
#
#
# Elastic Compliance Matrix: (Units=1/GPa)
#
#
# Indices 1 2 3 4 5 6 
#
# 1 0.010997 -0.006153 -0.003246 0.000000 0.000000 0.000000
# 2 -0.006153 0.018946 -0.001767 0.000000 0.000000 0.000000
# 3 -0.003246 -0.001767 0.015501 0.000000 0.000000 0.000000
# 4 0.000000 0.000000 0.000000 0.031944 0.000000 0.000001
# 5 0.000000 0.000000 0.000000 0.000000 0.035318 0.000000
# 6 0.000000 0.000000 0.000000 0.000001 0.000000 0.041275
#
#
# Mechanical properties :
#
#
# Convention : Reuss Voigt Hill
#
# Bulk Modulus (GPa) = 43.26989 49.74482 46.50735
# Shear Modulus (GPa) = 27.17138 28.40481 27.78810
#
# Velocity S-wave (km/s) = 3.77286 3.85754 3.81544
# Velocity P-wave (km/s) = 6.45348 6.77503 6.61621
#
# Compressibility (1/GPa) = 0.02311076
#
# Stress axis : x y z
#
# Youngs Moduli (GPa) = 90.93762 52.78107 64.51372
#
# Poissons Ratio (x) = 0.32477 0.20940
# Poissons Ratio (y) = 0.55956 0.11401
# Poissons Ratio (z) = 0.29517 0.09327
#
# Static dielectric constant tensor:
#      x y z
#    x 3.604820 0.000000 0.000000 
#    y 0.000000 3.349500 0.000000 
#    z 0.000000 0.000000 3.641750 
# 
# 
# High freq. dielectric constant tensor:
#      x y z
#    x 1.731270 0.000000 0.000000 
#    y 0.000000 1.722430 0.000000 
#    z 0.000000 0.000000 1.758460 
# 
# From -- ./inp_files/6071.got.cif
#   From: 2010.03.12/outbox.cif.g09.slc.cpg/sg46_4_cif.got.tgz:6071.got - 2010.04.14 02:56:35.
