data_PCOD8192782
_publ_section_title
;
Structure prediction by ZEFSAII (Michael W. Deem and Ramdas Pophale) SiO2 
 PCOD8192782
Probable space group: I M A 2
;
_chemical_formula_sum "Si O2"
_cell_formula_units_Z 48
_cell_length_a 15.763136
_cell_length_b 9.789349
_cell_length_c 14.498606
_cell_angle_alpha 90.000000
_cell_angle_beta 90.000000
_cell_angle_gamma 90.000000
_cell_volume 2237.292065
_symmetry_space_group_name_H-M "I M A 2"
_symmetry_group_IT_number 46
_symmetry_cell_setting 'orthorhombic'
loop_
_space_group_symop_operation_xyz
x,y,z
-x,-y,z
1/2-x,y,z
1/2+x,-y,z
1/2+x,1/2+y,1/2+z
1/2-x,1/2-y,1/2+z
-x,1/2+y,1/2+z
x,1/2-y,1/2+z
loop_
_atom_site_type_symbol
_atom_site_label
_atom_site_fract_x
_atom_site_fract_y
_atom_site_fract_z
Si Si1 0.597575 0.047373 0.267290
Si Si2 0.555846 0.371548 0.580105
Si Si3 0.154410 0.272336 0.837458
Si Si4 0.649137 0.305443 0.937079
Si Si5 0.848462 0.910482 0.513288
Si Si6 0.550464 0.639248 0.183647
O O1 0.620375 0.079964 0.160738
O O2 0.617134 0.181316 0.330880
O O3 0.500000 0.000000 0.276614
O O4 0.659640 0.925279 0.296438
O O5 0.500000 0.500000 0.546982
O O6 0.605448 0.320685 0.489796
O O7 0.503431 0.255202 0.633828
O O8 0.250000 0.209809 0.833821
O O9 0.086634 0.180616 0.783341
O O10 0.119583 0.290403 0.943165
O O11 0.750000 0.285162 0.941400
O O12 0.613499 0.441857 0.986998
O O13 0.750000 0.920986 0.497252
O O14 0.868385 0.880554 0.618521
O O15 0.500000 0.500000 0.196747
#
# Coordination Sequence:
#
# PCOD8192782 Si02
#       6
#     8   8   8   8   8   8
#     4  10  20  39  66  96 127 170 219 263 323 393
#     4  11  23  41  61  94 131 165 217 265 326 383
#     4  10  21  39  65  95 127 172 219 261 318 390
#     4  10  22  39  65  95 124 172 218 263 323 388
#     4   9  20  38  63  93 126 166 214 262 319 386
#     4  12  22  38  66  95 127 169 213 268 323 382
#
# _framework density 21.454509000000002
#
# number of rings (size 3 to 8) (size 9 to 14) (size 15 to 20)
#    0.000    1.667    5.000    2.000    4.667    1.333 
#    0.000    3.333    0.000    2.000    0.000    0.000 
#    0.000    0.000    0.000    0.000    0.000    0.000 
#
# Total GULP energy -297438.254054 kJ/mol
# GULP energy per Si atom -12393.260586 kJ/mol
# Density = 2.140568 g / cm^3
# Si number density = 21.454509 Si / 1000 Ang^3
#
#
#
# Elastic Constant Matrix: (Units=GPa)
#
#
# Indices 1 2 3 4 5 6 
#
# 1 68.1320 38.9371 37.6348 0.0000 0.0000 0.0000
# 2 38.9371 103.4821 47.0279 0.0000 0.0000 0.0000
# 3 37.6348 47.0279 129.3905 0.0000 0.0000 0.0000
# 4 0.0000 0.0000 0.0000 42.0638 0.0000 0.0000
# 5 0.0000 0.0000 0.0000 0.0000 25.4223 0.0000
# 6 0.0000 0.0000 0.0000 0.0000 0.0000 32.3483
#
#
#
# Elastic Compliance Matrix: (Units=1/GPa)
#
#
# Indices 1 2 3 4 5 6 
#
# 1 0.020080 -0.005871 -0.003707 0.000000 0.000000 0.000000
# 2 -0.005871 0.013292 -0.003123 0.000000 0.000000 0.000000
# 3 -0.003707 -0.003123 0.009942 0.000000 0.000000 0.000000
# 4 0.000000 0.000000 0.000000 0.023773 0.000000 0.000000
# 5 0.000000 0.000000 0.000000 0.000000 0.039336 0.000000
# 6 0.000000 0.000000 0.000000 0.000000 0.000000 0.030913
#
#
# Mechanical properties :
#
#
# Convention : Reuss Voigt Hill
#
# Bulk Modulus (GPa) = 55.82903 60.91158 58.37030
# Shear Modulus (GPa) = 29.63674 31.79386 30.71530
#
# Velocity S-wave (km/s) = 3.72072 3.85375 3.78782
# Velocity P-wave (km/s) = 6.67359 6.94655 6.81144
#
# Compressibility (1/GPa) = 0.01791183
#
# Stress axis : x y z
#
# Youngs Moduli (GPa) = 49.80034 75.23294 100.58425
#
# Poissons Ratio (x) = 0.44169 0.37284
# Poissons Ratio (y) = 0.29238 0.31417
# Poissons Ratio (z) = 0.18460 0.23498
#
# Static dielectric constant tensor:
#      x y z
#    x 3.589850 0.000000 0.000000 
#    y 0.000000 3.994930 0.000000 
#    z 0.000000 0.000000 4.318460 
# 
# 
# High freq. dielectric constant tensor:
#      x y z
#    x 1.831780 0.000000 0.000000 
#    y 0.000000 1.823960 0.000000 
#    z 0.000000 0.000000 1.849180 
# 
# From -- ./inp_files/16552.got.cif
#   From: 2010.03.12/outbox.cif.g09.slc.cpg/sg46_9_cif.got.tgz:16552.got - 2010.04.14 02:56:35.
