data_PCOD8192079
_publ_section_title
;
Structure prediction by ZEFSAII (Michael W. Deem and Ramdas Pophale) SiO2 
 PCOD8192079
Probable space group: I M A 2
;
_chemical_formula_sum "Si O2"
_cell_formula_units_Z 64
_cell_length_a 8.571424
_cell_length_b 24.978662
_cell_length_c 15.251505
_cell_angle_alpha 90.000000
_cell_angle_beta 90.000000
_cell_angle_gamma 90.000000
_cell_volume 3265.388445
_symmetry_space_group_name_H-M "I M A 2"
_symmetry_group_IT_number 46
_symmetry_cell_setting 'orthorhombic'
loop_
_space_group_symop_operation_xyz
x,y,z
-x,-y,z
1/2-x,y,z
1/2+x,-y,z
1/2+x,1/2+y,1/2+z
1/2-x,1/2-y,1/2+z
-x,1/2+y,1/2+z
x,1/2-y,1/2+z
loop_
_atom_site_type_symbol
_atom_site_label
_atom_site_fract_x
_atom_site_fract_y
_atom_site_fract_z
Si Si1 0.434280 0.645491 0.313550
Si Si2 0.933043 0.058181 0.951123
Si Si3 0.932660 0.214299 0.097727
Si Si4 0.932600 0.738120 0.414752
Si Si5 0.433809 0.442307 0.813471
Si Si6 0.568641 0.604436 0.627633
Si Si7 0.567100 0.168438 0.625303
Si Si8 0.934796 0.149207 0.433433
O O1 0.250000 0.654621 0.325911
O O2 0.496666 0.597389 0.374567
O O3 0.526140 0.700131 0.333501
O O4 0.475474 0.633166 0.210991
O O5 0.750000 0.054064 0.944797
O O6 0.000000 0.000000 0.933379
O O7 0.975800 0.080022 0.046418
O O8 0.750000 0.204726 0.113232
O O9 0.995479 0.270564 0.136520
O O10 0.025332 0.166254 0.144212
O O11 0.967820 0.213675 0.994420
O O12 0.750000 0.736497 0.436584
O O13 0.984962 0.798348 0.391842
O O14 0.500000 0.500000 0.836693
O O15 0.250000 0.440281 0.827482
O O16 0.479891 0.427987 0.714082
O O17 0.513803 0.402244 0.880621
O O18 0.750000 0.598606 0.606834
O O19 0.750000 0.174293 0.614482
O O20 0.505220 0.142399 0.534657
O O21 0.750000 0.156427 0.427689
#
# Coordination Sequence:
#
# PCOD8192079 Si02
#       8
#     8   8   8   8   8   8   8   8
#     4  10  20  37  59  86 117 156 199 244 294 356
#     4  11  23  38  60  84 117 158 201 244 294 355
#     4  10  19  34  56  85 118 158 199 236 290 353
#     4  11  21  34  55  86 122 157 194 243 293 350
#     4  11  25  43  62  88 118 155 202 252 305 359
#     4  11  23  38  58  86 122 156 194 244 298 358
#     4   8  18  36  59  86 117 153 197 242 290 351
#     4  10  21  40  64  87 116 157 200 249 303 356
#
# _framework density 19.599505000000001
#
# number of rings (size 3 to 8) (size 9 to 14) (size 15 to 20)
#    0.000    1.750    1.250    4.125    1.750    3.500 
#    0.000    3.750    0.000    1.500    0.000    0.000 
#    0.000    0.000    0.000    0.000    0.000    0.000 
#
# Total GULP energy -396799.623263 kJ/mol
# GULP energy per Si atom -12399.988227 kJ/mol
# Density = 1.955490 g / cm^3
# Si number density = 19.599505 Si / 1000 Ang^3
#
#
#
# Elastic Constant Matrix: (Units=GPa)
#
#
# Indices 1 2 3 4 5 6 
#
# 1 43.0564 28.3217 30.9621 -0.0001 0.0000 0.0000
# 2 28.3217 125.4333 65.6338 0.0000 0.0000 0.0000
# 3 30.9621 65.6338 116.1884 0.0001 0.0000 0.0000
# 4 -0.0001 0.0000 0.0001 34.0217 0.0000 0.0000
# 5 0.0000 0.0000 0.0000 0.0000 20.5226 0.0000
# 6 0.0000 0.0000 0.0000 0.0000 0.0000 33.7801
#
#
#
# Elastic Compliance Matrix: (Units=1/GPa)
#
#
# Indices 1 2 3 4 5 6 
#
# 1 0.029871 -0.003662 -0.005891 0.000000 0.000000 0.000000
# 2 -0.003662 0.011767 -0.005671 0.000000 0.000000 0.000000
# 3 -0.005891 -0.005671 0.013380 0.000000 0.000000 0.000000
# 4 0.000000 0.000000 0.000000 0.029393 0.000000 0.000000
# 5 0.000000 0.000000 0.000000 0.000000 0.048727 0.000000
# 6 0.000000 0.000000 0.000000 0.000000 0.000000 0.029603
#
#
# Mechanical properties :
#
#
# Convention : Reuss Voigt Hill
#
# Bulk Modulus (GPa) = 40.70202 59.39036 50.04619
# Shear Modulus (GPa) = 24.82887 28.31557 26.57222
#
# Velocity S-wave (km/s) = 3.56309 3.80506 3.68606
# Velocity P-wave (km/s) = 6.14324 7.04786 6.61104
#
# Compressibility (1/GPa) = 0.02456881
#
# Stress axis : x y z
#
# Youngs Moduli (GPa) = 33.47781 84.98655 74.73729
#
# Poissons Ratio (x) = 0.31120 0.44031
# Poissons Ratio (y) = 0.12259 0.42384
# Poissons Ratio (z) = 0.19723 0.48196
#
# Static dielectric constant tensor:
#      x y z
#    x 3.468800 0.000000 0.000000 
#    y 0.000000 3.672050 0.000000 
#    z 0.000000 0.000000 3.699430 
# 
# 
# High freq. dielectric constant tensor:
#      x y z
#    x 1.758520 0.000000 0.000000 
#    y 0.000000 1.757950 0.000000 
#    z 0.000000 0.000000 1.765020 
# 
# From -- ./inp_files/14551.got.cif
#   From: 2010.03.12/outbox.cif.g09.slc.cpg/sg46_8_cif.got.tgz:14551.got - 2010.04.14 02:56:35.
