data_PCOD8192604
_publ_section_title
;
Structure prediction by ZEFSAII (Michael W. Deem and Ramdas Pophale) SiO2 
 PCOD8192604
Probable space group: I M A 2
;
_chemical_formula_sum "Si O2"
_cell_formula_units_Z 64
_cell_length_a 8.920688
_cell_length_b 14.766540
_cell_length_c 24.350994
_cell_angle_alpha 90.000000
_cell_angle_beta 90.000000
_cell_angle_gamma 90.000000
_cell_volume 3207.700339
_symmetry_space_group_name_H-M "I M A 2"
_symmetry_group_IT_number 46
_symmetry_cell_setting 'orthorhombic'
loop_
_space_group_symop_operation_xyz
x,y,z
-x,-y,z
1/2-x,y,z
1/2+x,-y,z
1/2+x,1/2+y,1/2+z
1/2-x,1/2-y,1/2+z
-x,1/2+y,1/2+z
x,1/2-y,1/2+z
loop_
_atom_site_type_symbol
_atom_site_label
_atom_site_fract_x
_atom_site_fract_y
_atom_site_fract_z
Si Si1 0.923146 0.094272 0.161350
Si Si2 0.074430 0.902704 0.279376
Si Si3 0.072788 0.098372 0.582321
Si Si4 0.424701 0.904791 0.810260
Si Si5 0.426138 0.263223 0.986879
Si Si6 0.572444 0.401724 0.542049
Si Si7 0.926835 0.402381 0.188939
Si Si8 0.072447 0.769876 0.373745
O O1 0.750000 0.073291 0.155817
O O2 0.957550 0.145748 0.219152
O O3 0.972591 0.137876 0.103091
O O4 0.000000 0.000000 0.169225
O O5 0.250000 0.917570 0.286414
O O6 0.013554 0.836745 0.326317
O O7 0.000000 0.000000 0.285933
O O8 0.250000 0.087430 0.588916
O O9 0.029335 0.161101 0.531083
O O10 0.004904 0.148392 0.637218
O O11 0.000000 0.000000 0.572239
O O12 0.250000 0.924371 0.811994
O O13 0.464827 0.863981 0.749580
O O14 0.472737 0.831825 0.855661
O O15 0.500000 0.000000 0.823842
O O16 0.250000 0.247028 0.984928
O O17 0.485588 0.297831 0.928448
O O18 0.505701 0.167839 0.998586
O O19 0.500000 0.500000 0.532762
O O20 0.750000 0.409159 0.533116
O O21 0.750000 0.405102 0.178194
O O22 0.000000 0.500000 0.186370
O O23 0.250000 0.778123 0.382698
#
# Coordination Sequence:
#
# PCOD8192604 Si02
#       8
#     8   8   8   8   8   8   8   8
#     4   8  15  29  52  82 111 138 171 212 262 322
#     4   9  18  34  56  81 110 141 174 217 268 322
#     4  10  21  37  57  81 110 143 180 225 275 326
#     4   9  19  35  56  82 110 140 174 216 266 320
#     4  11  25  41  55  77 109 144 188 235 273 318
#     4  10  20  36  60  86 113 146 181 220 270 325
#     4   9  16  29  53  83 112 139 171 213 265 326
#     4  10  22  39  56  76 105 143 186 226 267 319
#
# _framework density 19.951989000000001
#
# number of rings (size 3 to 8) (size 9 to 14) (size 15 to 20)
#    0.000    2.500    0.000    2.250    0.000    6.000 
#    0.000    6.250    0.000    0.000    0.000    0.000 
#    0.000    0.000    0.000    0.000    0.000    0.000 
#
# Total GULP energy -396463.794788 kJ/mol
# GULP energy per Si atom -12389.493587 kJ/mol
# Density = 1.990658 g / cm^3
# Si number density = 19.951989 Si / 1000 Ang^3
#
#
#
# Elastic Constant Matrix: (Units=GPa)
#
#
# Indices 1 2 3 4 5 6 
#
# 1 55.3663 13.9764 22.8306 0.0000 0.0000 0.0000
# 2 13.9764 44.3971 6.7191 0.0000 0.0000 0.0000
# 3 22.8306 6.7191 90.6245 0.0000 0.0000 0.0000
# 4 0.0000 0.0000 0.0000 30.1119 0.0000 0.0000
# 5 0.0000 0.0000 0.0000 0.0000 32.4068 0.0000
# 6 0.0000 0.0000 0.0000 0.0000 0.0000 24.4043
#
#
#
# Elastic Compliance Matrix: (Units=1/GPa)
#
#
# Indices 1 2 3 4 5 6 
#
# 1 0.021656 -0.006060 -0.005006 0.000000 0.000000 0.000000
# 2 -0.006060 0.024475 -0.000288 0.000000 0.000000 0.000000
# 3 -0.005006 -0.000288 0.012317 0.000000 0.000000 0.000000
# 4 0.000000 0.000000 0.000000 0.033209 0.000000 0.000000
# 5 0.000000 0.000000 0.000000 0.000000 0.030858 0.000000
# 6 0.000000 0.000000 0.000000 0.000000 0.000000 0.040976
#
#
# Mechanical properties :
#
#
# Convention : Reuss Voigt Hill
#
# Bulk Modulus (GPa) = 27.97995 30.82668 29.40331
# Shear Modulus (GPa) = 25.23817 27.17538 26.20678
#
# Velocity S-wave (km/s) = 3.56046 3.69458 3.62814
# Velocity P-wave (km/s) = 5.56387 5.80378 5.68509
#
# Compressibility (1/GPa) = 0.03573987
#
# Stress axis : x y z
#
# Youngs Moduli (GPa) = 46.17757 40.85777 81.18780
#
# Poissons Ratio (x) = 0.24758 0.40645
# Poissons Ratio (y) = 0.27982 0.02339
# Poissons Ratio (z) = 0.23118 0.01177
#
# Static dielectric constant tensor:
#      x y z
#    x 3.575080 0.000000 0.000000 
#    y 0.000000 3.381140 0.000000 
#    z 0.000000 0.000000 4.339790 
# 
# 
# High freq. dielectric constant tensor:
#      x y z
#    x 1.775960 0.000000 0.000000 
#    y 0.000000 1.756450 0.000000 
#    z 0.000000 0.000000 1.796830 
# 
# From -- ./inp_files/23156.got.cif
#   From: 2010.03.12/outbox.cif.g09.slc.cpg/sg46_12_cif.got.tgz:23156.got - 2010.04.14 02:56:35.
