data_PCOD8192614
_publ_section_title
;
Structure prediction by ZEFSAII (Michael W. Deem and Ramdas Pophale) SiO2 
 PCOD8192614
Probable space group: I M A 2
;
_chemical_formula_sum "Si O2"
_cell_formula_units_Z 60
_cell_length_a 19.176328
_cell_length_b 5.162864
_cell_length_c 29.776326
_cell_angle_alpha 90.000000
_cell_angle_beta 90.000000
_cell_angle_gamma 90.000000
_cell_volume 2947.998411
_symmetry_space_group_name_H-M "I M A 2"
_symmetry_group_IT_number 46
_symmetry_cell_setting 'orthorhombic'
loop_
_space_group_symop_operation_xyz
x,y,z
-x,-y,z
1/2-x,y,z
1/2+x,-y,z
1/2+x,1/2+y,1/2+z
1/2-x,1/2-y,1/2+z
-x,1/2+y,1/2+z
x,1/2-y,1/2+z
loop_
_atom_site_type_symbol
_atom_site_label
_atom_site_fract_x
_atom_site_fract_y
_atom_site_fract_z
Si Si1 0.172685 0.999390 0.728960
Si Si2 0.328694 0.593350 0.073602
Si Si3 0.081398 0.502173 0.429171
Si Si4 0.500000 0.000000 0.219500
Si Si5 0.874307 0.971310 0.274962
Si Si6 0.427095 0.889701 0.655646
Si Si7 0.581472 0.506656 0.873854
Si Si8 0.828659 0.897611 0.015948
O O1 0.250000 0.950130 0.709254
O O2 0.147715 0.743080 0.754076
O O3 0.120304 0.074050 0.687597
O O4 0.178782 0.240034 0.763410
O O5 0.250000 0.550295 0.092162
O O6 0.380442 0.681749 0.113095
O O7 0.355445 0.330680 0.049225
O O8 0.330025 0.826677 0.039271
O O9 0.101392 0.285196 0.393193
O O10 0.121874 0.425382 0.473704
O O11 0.000000 0.500000 0.441302
O O12 0.103355 0.780382 0.408805
O O13 0.552630 0.858673 0.254199
O O14 0.448443 0.845306 0.187277
O O15 0.876662 0.023121 0.327867
O O16 0.500000 0.000000 0.637574
O O17 0.500000 0.500000 0.863155
O O18 0.750000 0.828020 0.000408
#
# Coordination Sequence:
#
# PCOD8192614 Si02
#       8
#     8   8   8   4   8   8   8   8
#     4  11  24  40  59  85 124 167 202 252 303 361
#     4  10  23  40  63  87 120 161 202 246 303 367
#     4  10  21  37  61  90 120 149 199 249 307 360
#     4  10  22  38  60  94 122 160 206 250 306 348
#     4  11  21  39  63  86 124 161 209 245 300 369
#     4  11  23  39  61  92 122 156 208 255 301 360
#     4  10  20  36  60  91 119 156 195 252 306 362
#     4  10  22  42  62  86 118 162 200 241 306 372
#
# _framework density 20.352792999999998
#
# number of rings (size 3 to 8) (size 9 to 14) (size 15 to 20)
#    0.000    1.600    2.000    2.400    1.867    1.067 
#    0.000    6.667    0.000    0.000    0.000    0.000 
#    0.000    0.000    0.000    0.000    0.000    0.000 
#
# Total GULP energy -371779.759640 kJ/mol
# GULP energy per Si atom -12392.658655 kJ/mol
# Density = 2.030647 g / cm^3
# Si number density = 20.352793 Si / 1000 Ang^3
#
#
#
# Elastic Constant Matrix: (Units=GPa)
#
#
# Indices 1 2 3 4 5 6 
#
# 1 96.9240 8.9739 57.2562 0.0000 0.0000 0.0000
# 2 8.9739 85.1203 10.1084 0.0000 0.0000 0.0000
# 3 57.2562 10.1084 91.3452 0.0000 0.0000 0.0000
# 4 0.0000 0.0000 0.0000 22.7298 0.0000 0.0000
# 5 0.0000 0.0000 0.0000 0.0000 -5.6641 0.0000
# 6 0.0000 0.0000 0.0000 0.0000 0.0000 38.0966
#
#
#
# Elastic Compliance Matrix: (Units=1/GPa)
#
#
# Indices 1 2 3 4 5 6 
#
# 1 0.016406 -0.000515 -0.010227 0.000000 0.000000 0.000000
# 2 -0.000515 0.011921 -0.000996 0.000000 0.000000 0.000000
# 3 -0.010227 -0.000996 0.017468 0.000000 0.000000 0.000000
# 4 0.000000 0.000000 0.000000 0.043995 0.000000 0.000000
# 5 0.000000 0.000000 0.000000 0.000000 -0.176550 0.000000
# 6 0.000000 0.000000 0.000000 0.000000 0.000000 0.026249
#
#
# Mechanical properties :
#
#
# Convention : Reuss Voigt Hill
#
# Bulk Modulus (GPa) = 44.80537 47.34074 46.07306
# Shear Modulus (GPa) = -168.94486 24.16918 -72.38784
#
# Velocity S-wave (km/s) = -9.12077 3.44977 -5.97024
# Velocity P-wave (km/s) = 9.42633 6.25927 4.98384
#
# Compressibility (1/GPa) = 0.02231875
#
# Stress axis : x y z
#
# Youngs Moduli (GPa) = 60.95233 83.88768 57.24785
#
# Poissons Ratio (x) = 0.04322 0.58545
# Poissons Ratio (y) = 0.03140 0.05703
# Poissons Ratio (z) = 0.62334 0.08357
#
# Static dielectric constant tensor:
#      x y z
#    x 3.960180 0.000000 0.000000 
#    y 0.000000 3.868640 0.000000 
#    z 0.000000 0.000000 3.575400 
# 
# 
# High freq. dielectric constant tensor:
#      x y z
#    x 1.795140 0.000000 0.000000 
#    y 0.000000 1.799850 0.000000 
#    z 0.000000 0.000000 1.791370 
# 
# From -- ./inp_files/24690.got.cif
#   From: 2010.03.12/outbox.cif.g09.slc.cpg/sg46_13_cif.got.tgz:24690.got - 2010.04.14 02:56:35.
