data_PCOD8192148
_publ_section_title
;
Structure prediction by ZEFSAII (Michael W. Deem and Ramdas Pophale) SiO2 
 PCOD8192148
Probable space group: I M A 2
;
_chemical_formula_sum "Si O2"
_cell_formula_units_Z 64
_cell_length_a 8.896870
_cell_length_b 15.458128
_cell_length_c 23.855350
_cell_angle_alpha 90.000000
_cell_angle_beta 90.000000
_cell_angle_gamma 90.000000
_cell_volume 3280.801363
_symmetry_space_group_name_H-M "I M A 2"
_symmetry_group_IT_number 46
_symmetry_cell_setting 'orthorhombic'
loop_
_space_group_symop_operation_xyz
x,y,z
-x,-y,z
1/2-x,y,z
1/2+x,-y,z
1/2+x,1/2+y,1/2+z
1/2-x,1/2-y,1/2+z
-x,1/2+y,1/2+z
x,1/2-y,1/2+z
loop_
_atom_site_type_symbol
_atom_site_label
_atom_site_fract_x
_atom_site_fract_y
_atom_site_fract_z
Si Si1 0.425244 0.088308 0.800630
Si Si2 0.071533 0.253011 0.493518
Si Si3 0.923562 0.661911 0.181508
Si Si4 0.424121 0.411777 0.062491
Si Si5 0.427196 0.590909 0.558344
Si Si6 0.074113 0.655906 0.680938
Si Si7 0.928418 0.911645 0.290705
Si Si8 0.071969 0.246212 0.365632
O O1 0.250000 0.079216 0.811475
O O2 0.461671 0.104835 0.735546
O O3 0.493050 0.166573 0.837554
O O4 0.500000 0.000000 0.820908
O O5 0.250000 0.264343 0.499599
O O6 0.012662 0.169501 0.527515
O O7 0.019708 0.240022 0.429604
O O8 0.992512 0.337829 0.516715
O O9 0.750000 0.693645 0.182252
O O10 0.958131 0.602947 0.127899
O O11 0.031113 0.743926 0.180499
O O12 0.500000 0.500000 0.041910
O O13 0.250000 0.422126 0.049926
O O14 0.500000 0.500000 0.541775
O O15 0.250000 0.585629 0.549933
O O16 0.471003 0.614536 0.621753
O O17 0.250000 0.646478 0.693588
O O18 0.980755 0.604882 0.727404
O O19 0.750000 0.918842 0.291797
O O20 0.989656 0.835818 0.331086
O O21 0.000000 0.000000 0.313506
O O22 0.250000 0.247146 0.360492
#
# Coordination Sequence:
#
# PCOD8192148 Si02
#       8
#     8   8   8   8   8   8   8   8
#     4  10  20  36  57  83 114 149 186 230 284 340
#     4  10  21  40  63  85 113 154 200 243 289 342
#     4  10  19  35  58  84 114 152 189 231 292 349
#     4  10  21  35  57  86 116 151 190 233 287 344
#     4  11  24  40  60  88 119 153 192 241 296 351
#     4  11  22  36  59  90 119 151 192 239 294 350
#     4  11  22  39  61  87 121 156 194 239 290 349
#     4   9  20  39  61  83 114 154 194 238 288 339
#
# _framework density 19.507428999999998
#
# number of rings (size 3 to 8) (size 9 to 14) (size 15 to 20)
#    0.000    1.750    2.500    1.875    0.000    5.000 
#    0.000    3.125    0.000    0.000    0.000    0.000 
#    0.000    0.000    0.000    0.000    0.000    0.000 
#
# Total GULP energy -396932.136074 kJ/mol
# GULP energy per Si atom -12404.129252 kJ/mol
# Density = 1.946303 g / cm^3
# Si number density = 19.507429 Si / 1000 Ang^3
#
#
#
# Elastic Constant Matrix: (Units=GPa)
#
#
# Indices 1 2 3 4 5 6 
#
# 1 48.8546 40.0149 28.5494 0.0000 0.0000 0.0000
# 2 40.0149 167.3740 53.5542 0.0000 0.0000 0.0000
# 3 28.5494 53.5542 118.2797 0.0000 0.0000 0.0000
# 4 0.0000 0.0000 0.0000 13.0974 0.0000 0.0000
# 5 0.0000 0.0000 0.0000 0.0000 8.0085 0.0000
# 6 0.0000 0.0000 0.0000 0.0000 0.0000 39.6683
#
#
#
# Elastic Compliance Matrix: (Units=1/GPa)
#
#
# Indices 1 2 3 4 5 6 
#
# 1 0.027147 -0.005138 -0.004226 0.000000 0.000000 0.000000
# 2 -0.005138 0.007959 -0.002364 0.000000 0.000000 0.000000
# 3 -0.004226 -0.002364 0.010545 0.000000 0.000000 0.000000
# 4 0.000000 0.000000 0.000000 0.076351 0.000000 0.000000
# 5 0.000000 0.000000 0.000000 0.000000 0.124867 0.000000
# 6 0.000000 0.000000 0.000000 0.000000 0.000000 0.025209
#
#
# Mechanical properties :
#
#
# Convention : Reuss Voigt Hill
#
# Bulk Modulus (GPa) = 45.05411 64.30501 54.67956
# Shear Modulus (GPa) = 16.50537 26.31416 21.40977
#
# Velocity S-wave (km/s) = 2.91195 3.67676 3.31648
# Velocity P-wave (km/s) = 5.86958 7.14568 6.53883
#
# Compressibility (1/GPa) = 0.02219553
#
# Stress axis : x y z
#
# Youngs Moduli (GPa) = 36.83679 125.63978 94.83349
#
# Poissons Ratio (x) = 0.64552 0.40078
# Poissons Ratio (y) = 0.18926 0.22415
# Poissons Ratio (z) = 0.15568 0.29697
#
# Static dielectric constant tensor:
#      x y z
#    x 3.351910 0.000000 0.000000 
#    y 0.000000 3.686810 0.000000 
#    z 0.000000 0.000000 3.670420 
# 
# 
# High freq. dielectric constant tensor:
#      x y z
#    x 1.742280 0.000000 0.000000 
#    y 0.000000 1.773740 0.000000 
#    z 0.000000 0.000000 1.760620 
# 
# From -- ./inp_files/23136.got.cif
#   From: 2010.03.12/outbox.cif.g09.slc.cpg/sg46_12_cif.got.tgz:23136.got - 2010.04.14 02:56:35.
