data_PCOD8192395
_publ_section_title
;
Structure prediction by ZEFSAII (Michael W. Deem and Ramdas Pophale) SiO2 
 PCOD8192395
Probable space group: I M A 2
;
_chemical_formula_sum "Si O2"
_cell_formula_units_Z 56
_cell_length_a 17.493153
_cell_length_b 4.974365
_cell_length_c 31.073274
_cell_angle_alpha 90.000000
_cell_angle_beta 90.000000
_cell_angle_gamma 90.000000
_cell_volume 2703.913276
_symmetry_space_group_name_H-M "I M A 2"
_symmetry_group_IT_number 46
_symmetry_cell_setting 'orthorhombic'
loop_
_space_group_symop_operation_xyz
x,y,z
-x,-y,z
1/2-x,y,z
1/2+x,-y,z
1/2+x,1/2+y,1/2+z
1/2-x,1/2-y,1/2+z
-x,1/2+y,1/2+z
x,1/2-y,1/2+z
loop_
_atom_site_type_symbol
_atom_site_label
_atom_site_fract_x
_atom_site_fract_y
_atom_site_fract_z
Si Si1 0.664332 0.841171 0.810410
Si Si2 0.837712 0.485887 0.956301
Si Si3 0.950055 0.730375 0.237324
Si Si4 0.339618 0.012959 0.106664
Si Si5 0.337446 0.030949 0.010735
Si Si6 0.664368 0.321599 0.866130
Si Si7 0.914607 0.493278 0.145038
O O1 0.750000 0.916509 0.794570
O O2 0.619783 0.721684 0.769431
O O3 0.666085 0.607800 0.844586
O O4 0.625171 0.098328 0.834841
O O5 0.750000 0.553165 0.943989
O O6 0.876488 0.751046 0.978138
O O7 0.877640 0.375567 0.912258
O O8 0.845003 0.262484 0.992130
O O9 0.917980 0.591857 0.194190
O O10 0.000000 0.500000 0.260428
O O11 0.000000 0.000000 0.228354
O O12 0.250000 0.947485 0.108317
O O13 0.383149 0.809352 0.138997
O O14 0.355275 0.315616 0.121125
O O15 0.373724 0.004249 0.058209
O O16 0.250000 0.126199 0.016473
O O17 0.750000 0.209095 0.874818
O O18 0.000000 0.500000 0.125154
#
# Coordination Sequence:
#
# PCOD8192395 Si02
#       7
#     8   8   8   8   8   8   8
#     4  10  20  34  54  83 113 139 178 233 284 327
#     4   9  15  26  45  72 110 148 176 213 272 330
#     4  11  23  41  60  80 108 147 193 233 278 347
#     4  11  22  37  59  89 119 146 188 244 295 340
#     4   9  17  28  46  76 111 143 178 224 274 326
#     4   9  17  29  48  78 113 144 177 222 274 328
#     4  11  23  41  60  82 113 153 195 235 286 356
#
# _framework density 20.710722000000001
#
# number of rings (size 3 to 8) (size 9 to 14) (size 15 to 20)
#    0.000    2.000    0.000    5.143    0.000    6.857 
#    0.000    1.429    0.000    0.000    0.000   35.000 
#    0.000    0.000    0.000    0.000    0.000    0.000 
#
# Total GULP energy -346946.200782 kJ/mol
# GULP energy per Si atom -12390.935742 kJ/mol
# Density = 2.066358 g / cm^3
# Si number density = 20.710722 Si / 1000 Ang^3
#
#
#
# Elastic Constant Matrix: (Units=GPa)
#
#
# Indices 1 2 3 4 5 6 
#
# 1 47.1802 13.3009 30.1004 0.0000 0.0000 0.0000
# 2 13.3009 103.4644 25.2836 0.0000 0.0000 0.0000
# 3 30.1004 25.2836 119.2113 0.0000 0.0000 0.0000
# 4 0.0000 0.0000 0.0000 37.8168 0.0000 0.0000
# 5 0.0000 0.0000 0.0000 0.0000 4.1074 0.0000
# 6 0.0000 0.0000 0.0000 0.0000 0.0000 29.0180
#
#
#
# Elastic Compliance Matrix: (Units=1/GPa)
#
#
# Indices 1 2 3 4 5 6 
#
# 1 0.025580 -0.001804 -0.006076 0.000000 0.000000 0.000000
# 2 -0.001804 0.010321 -0.001734 0.000000 0.000000 0.000000
# 3 -0.006076 -0.001734 0.010290 0.000000 0.000000 0.000000
# 4 0.000000 0.000000 0.000000 0.026443 0.000000 0.000000
# 5 0.000000 0.000000 0.000000 0.000000 0.243461 0.000000
# 6 0.000000 0.000000 0.000000 0.000000 0.000000 0.034461
#
#
# Mechanical properties :
#
#
# Convention : Reuss Voigt Hill
#
# Bulk Modulus (GPa) = 37.08592 45.24731 41.16661
# Shear Modulus (GPa) = 13.20055 27.59984 20.40020
#
# Velocity S-wave (km/s) = 2.52737 3.65449 3.14189
# Velocity P-wave (km/s) = 5.14415 6.30093 5.75170
#
# Compressibility (1/GPa) = 0.02696441
#
# Stress axis : x y z
#
# Youngs Moduli (GPa) = 39.09229 96.89318 97.17788
#
# Poissons Ratio (x) = 0.17476 0.59050
# Poissons Ratio (y) = 0.07051 0.16846
# Poissons Ratio (z) = 0.23754 0.16797
#
# Static dielectric constant tensor:
#      x y z
#    x 3.449140 0.000000 0.000000 
#    y 0.000000 3.825730 0.000000 
#    z 0.000000 0.000000 3.838030 
# 
# 
# High freq. dielectric constant tensor:
#      x y z
#    x 1.749770 0.000000 0.000000 
#    y 0.000000 1.830400 0.000000 
#    z 0.000000 0.000000 1.822060 
# 
# From -- ./inp_files/25401.got.cif
#   From: 2010.03.12/outbox.cif.g09.slc.cpg/sg46_13_cif.got.tgz:25401.got - 2010.04.14 02:56:35.
