data_PCOD8192887
_publ_section_title
;
Structure prediction by ZEFSAII (Michael W. Deem and Ramdas Pophale) SiO2 
 PCOD8192887
Probable space group: I M A 2
;
_chemical_formula_sum "Si O2"
_cell_formula_units_Z 64
_cell_length_a 13.624742
_cell_length_b 24.599954
_cell_length_c 8.884173
_cell_angle_alpha 90.000000
_cell_angle_beta 90.000000
_cell_angle_gamma 90.000000
_cell_volume 2977.690731
_symmetry_space_group_name_H-M "I M A 2"
_symmetry_group_IT_number 46
_symmetry_cell_setting 'orthorhombic'
loop_
_space_group_symop_operation_xyz
x,y,z
-x,-y,z
1/2-x,y,z
1/2+x,-y,z
1/2+x,1/2+y,1/2+z
1/2-x,1/2-y,1/2+z
-x,1/2+y,1/2+z
x,1/2-y,1/2+z
loop_
_atom_site_type_symbol
_atom_site_label
_atom_site_fract_x
_atom_site_fract_y
_atom_site_fract_z
Si Si1 0.358915 0.302219 0.602410
Si Si2 0.961943 0.270226 0.097730
Si Si3 0.500682 0.383640 0.149330
Si Si4 0.634636 0.911292 0.918611
Si Si5 0.635297 0.074118 0.396364
Si Si6 0.638937 0.193361 0.307476
Si Si7 0.360694 0.369017 0.891538
Si Si8 0.866411 0.529584 0.713029
O O1 0.250000 0.281106 0.566652
O O2 0.427393 0.250715 0.581945
O O3 0.383097 0.352910 0.494323
O O4 0.368053 0.319777 0.775638
O O5 0.891303 0.221740 0.152687
O O6 0.948522 0.326018 0.199334
O O7 0.931780 0.281739 0.929238
O O8 0.443076 0.416333 0.280115
O O9 0.576250 0.422759 0.056740
O O10 0.420790 0.356409 0.039704
O O11 0.750000 0.917317 0.868925
O O12 0.605473 0.959223 0.037619
O O13 0.750000 0.064032 0.437381
O O14 0.621783 0.128704 0.299208
O O15 0.594913 0.027304 0.282559
O O16 0.750000 0.206824 0.349117
O O17 0.250000 0.380866 0.940235
O O18 0.409579 0.422821 0.817571
O O19 0.750000 0.533111 0.720941
#
# Coordination Sequence:
#
# PCOD8192887 Si02
#       8
#     8   8   8   8   8   8   8   8
#     4   9  18  33  52  78 114 158 197 223 260 331
#     4  11  21  35  53  79 115 154 190 231 280 330
#     4  11  21  32  52  86 118 146 185 235 288 335
#     4   9  18  33  55  85 119 150 183 228 285 342
#     4   9  19  36  59  85 110 146 197 241 278 332
#     4  10  21  37  58  81 107 144 194 244 288 330
#     4   9  18  33  55  82 112 147 185 222 271 340
#     4   8  16  35  61  82 107 145 184 229 281 335
#
# _framework density 21.493167
#
# number of rings (size 3 to 8) (size 9 to 14) (size 15 to 20)
#    0.000    2.500    0.000    4.500    0.000    2.000 
#    0.000    3.125    0.000   13.500    0.000   23.625 
#    0.000    0.000    0.000    0.000    0.000    0.000 
#
# Total GULP energy -396555.441525 kJ/mol
# GULP energy per Si atom -12392.357548 kJ/mol
# Density = 2.144425 g / cm^3
# Si number density = 21.493167 Si / 1000 Ang^3
#
#
#
# Elastic Constant Matrix: (Units=GPa)
#
#
# Indices 1 2 3 4 5 6 
#
# 1 71.0706 45.9389 37.7840 0.0021 0.0003 0.0002
# 2 45.9389 108.9583 42.4992 -0.0009 0.0001 0.0007
# 3 37.7840 42.4992 84.2172 0.0023 -0.0005 0.0015
# 4 0.0021 -0.0009 0.0023 30.7905 -0.0003 0.0012
# 5 0.0003 0.0001 -0.0005 -0.0003 32.9455 -0.0004
# 6 0.0002 0.0007 0.0015 0.0012 -0.0004 31.7203
#
#
#
# Elastic Compliance Matrix: (Units=1/GPa)
#
#
# Indices 1 2 3 4 5 6 
#
# 1 0.021802 -0.006695 -0.006403 -0.000001 0.000000 0.000000
# 2 -0.006695 0.013483 -0.003800 0.000001 0.000000 0.000000
# 3 -0.006403 -0.003800 0.016665 -0.000001 0.000000 -0.000001
# 4 -0.000001 0.000001 -0.000001 0.032478 0.000000 -0.000001
# 5 0.000000 0.000000 0.000000 0.000000 0.030353 0.000000
# 6 0.000000 0.000000 -0.000001 -0.000001 0.000000 0.031526
#
#
# Mechanical properties :
#
#
# Convention : Reuss Voigt Hill
#
# Bulk Modulus (GPa) = 55.08674 57.41002 56.24838
# Shear Modulus (GPa) = 26.85968 28.29286 27.57627
#
# Velocity S-wave (km/s) = 3.53892 3.63211 3.58582
# Velocity P-wave (km/s) = 6.51031 6.66021 6.58569
#
# Compressibility (1/GPa) = 0.01815319
#
# Stress axis : x y z
#
# Youngs Moduli (GPa) = 45.86749 74.16899 60.00745
#
# Poissons Ratio (x) = 0.49653 0.38423
# Poissons Ratio (y) = 0.30706 0.22805
# Poissons Ratio (z) = 0.29369 0.28187
#
# Static dielectric constant tensor:
#      x y z
#    x 3.999270 0.000000 0.000000 
#    y 0.000000 4.062520 -0.000010 
#    z 0.000000 -0.000010 3.672280 
# 
# 
# High freq. dielectric constant tensor:
#      x y z
#    x 1.852800 0.000000 0.000000 
#    y 0.000000 1.840150 0.000000 
#    z 0.000000 0.000000 1.820300 
# 
# From -- ./inp_files/6068.got.cif
#   From: 2010.03.12/outbox.cif.g09.slc.cpg/sg46_4_cif.got.tgz:6068.got - 2010.04.14 02:56:35.
