data_PCOD8192876
_publ_section_title
;
Structure prediction by ZEFSAII (Michael W. Deem and Ramdas Pophale) SiO2 
 PCOD8192876
Probable space group: I M A 2
;
_chemical_formula_sum "Si O2"
_cell_formula_units_Z 56
_cell_length_a 14.322209
_cell_length_b 13.468342
_cell_length_c 12.260531
_cell_angle_alpha 90.000000
_cell_angle_beta 90.000000
_cell_angle_gamma 90.000000
_cell_volume 2365.012402
_symmetry_space_group_name_H-M "I M A 2"
_symmetry_group_IT_number 46
_symmetry_cell_setting 'orthorhombic'
loop_
_space_group_symop_operation_xyz
x,y,z
-x,-y,z
1/2-x,y,z
1/2+x,-y,z
1/2+x,1/2+y,1/2+z
1/2-x,1/2-y,1/2+z
-x,1/2+y,1/2+z
x,1/2-y,1/2+z
loop_
_atom_site_type_symbol
_atom_site_label
_atom_site_fract_x
_atom_site_fract_y
_atom_site_fract_z
Si Si1 0.455898 0.896113 0.934670
Si Si2 0.147702 0.131167 0.603107
Si Si3 0.968867 0.750724 0.267813
Si Si4 0.360331 0.078707 0.366576
Si Si5 0.599912 0.447225 0.212417
Si Si6 0.143997 0.768878 0.557842
Si Si7 0.355020 0.861502 0.321683
O O1 0.531845 0.827162 0.869267
O O2 0.379047 0.922235 0.840149
O O3 0.500000 0.000000 0.978962
O O4 0.412141 0.835472 0.036874
O O5 0.250000 0.183886 0.593411
O O6 0.070391 0.199524 0.659466
O O7 0.102072 0.103867 0.487064
O O8 0.171390 0.027540 0.665843
O O9 0.897148 0.838624 0.285934
O O10 0.074399 0.795214 0.248611
O O11 0.250000 0.078302 0.369468
O O12 0.395329 0.972833 0.323088
O O13 0.500000 0.500000 0.202966
O O14 0.598536 0.342684 0.147684
O O15 0.250000 0.743998 0.593215
O O16 0.143398 0.826718 0.445065
O O17 0.250000 0.853860 0.272780
#
# Coordination Sequence:
#
# PCOD8192876 Si02
#       7
#     8   8   8   8   8   8   8
#     4  10  22  39  56  92 129 165 217 261 320 391
#     4  11  22  37  62  97 131 168 218 269 324 389
#     4  11  21  36  63  92 131 173 215 270 333 390
#     4  10  21  37  61  98 135 170 219 273 326 389
#     4  11  21  38  63  98 129 160 215 271 326 381
#     4  10  21  36  62  93 125 170 215 268 326 381
#     4   9  19  35  58  94 131 171 221 267 323 385
#
# _framework density 23.678522999999998
#
# number of rings (size 3 to 8) (size 9 to 14) (size 15 to 20)
#    0.000    1.714    4.286    1.286    4.000    1.143 
#    0.000    0.000    0.000   12.000    0.000    0.000 
#    0.000    0.000    0.000    0.000    0.000    0.000 
#
# Total GULP energy -346924.985369 kJ/mol
# GULP energy per Si atom -12390.178049 kJ/mol
# Density = 2.362463 g / cm^3
# Si number density = 23.678523 Si / 1000 Ang^3
#
#
#
# Elastic Constant Matrix: (Units=GPa)
#
#
# Indices 1 2 3 4 5 6 
#
# 1 79.9531 50.9674 34.8095 0.0000 0.0000 0.0000
# 2 50.9674 181.3006 50.7864 0.0000 0.0000 0.0000
# 3 34.8095 50.7864 74.2072 0.0000 0.0000 0.0000
# 4 0.0000 0.0000 0.0000 41.0330 0.0000 0.0000
# 5 0.0000 0.0000 0.0000 0.0000 5.1073 0.0000
# 6 0.0000 0.0000 0.0000 0.0000 0.0000 24.8414
#
#
#
# Elastic Compliance Matrix: (Units=1/GPa)
#
#
# Indices 1 2 3 4 5 6 
#
# 1 0.017066 -0.003161 -0.005842 0.000000 0.000000 0.000000
# 2 -0.003161 0.007409 -0.003588 0.000000 0.000000 0.000000
# 3 -0.005842 -0.003588 0.018672 0.000000 0.000000 0.000000
# 4 0.000000 0.000000 0.000000 0.024371 0.000000 0.000000
# 5 0.000000 0.000000 0.000000 0.000000 0.195800 0.000000
# 6 0.000000 0.000000 0.000000 0.000000 0.000000 0.040255
#
#
# Mechanical properties :
#
#
# Convention : Reuss Voigt Hill
#
# Bulk Modulus (GPa) = 55.66428 67.62083 61.64255
# Shear Modulus (GPa) = 14.93682 27.45617 21.19649
#
# Velocity S-wave (km/s) = 2.51433 3.40889 2.99520
# Velocity P-wave (km/s) = 5.65584 6.64183 6.16857
#
# Compressibility (1/GPa) = 0.01796484
#
# Stress axis : x y z
#
# Youngs Moduli (GPa) = 58.59653 134.96240 53.55680
#
# Poissons Ratio (x) = 0.42663 0.31287
# Poissons Ratio (y) = 0.18523 0.19217
# Poissons Ratio (z) = 0.34231 0.48426
#
# Static dielectric constant tensor:
#      x y z
#    x 4.381900 0.000000 0.000000 
#    y 0.000000 4.765030 0.000000 
#    z 0.000000 0.000000 4.182400 
# 
# 
# High freq. dielectric constant tensor:
#      x y z
#    x 1.932430 0.000000 0.000000 
#    y 0.000000 1.956230 0.000000 
#    z 0.000000 0.000000 1.923660 
# 
# From -- ./inp_files/15928.got.cif
#   From: 2010.03.12/outbox.cif.g09.slc.cpg/sg46_8_cif.got.tgz:15928.got - 2010.04.14 02:56:35.
