data_PCOD8192065
_publ_section_title
;
Structure prediction by ZEFSAII (Michael W. Deem and Ramdas Pophale) SiO2 
 PCOD8192065
Probable space group: I M A 2
;
_chemical_formula_sum "Si O2"
_cell_formula_units_Z 48
_cell_length_a 8.643946
_cell_length_b 19.151740
_cell_length_c 15.210458
_cell_angle_alpha 90.000000
_cell_angle_beta 90.000000
_cell_angle_gamma 90.000000
_cell_volume 2518.039703
_symmetry_space_group_name_H-M "I M A 2"
_symmetry_group_IT_number 46
_symmetry_cell_setting 'orthorhombic'
loop_
_space_group_symop_operation_xyz
x,y,z
-x,-y,z
1/2-x,y,z
1/2+x,-y,z
1/2+x,1/2+y,1/2+z
1/2-x,1/2-y,1/2+z
-x,1/2+y,1/2+z
x,1/2-y,1/2+z
loop_
_atom_site_type_symbol
_atom_site_label
_atom_site_fract_x
_atom_site_fract_y
_atom_site_fract_z
Si Si1 0.931789 0.072838 0.103220
Si Si2 0.566484 0.170170 0.259947
Si Si3 0.433428 0.573596 0.406321
Si Si4 0.065927 0.925329 0.596608
Si Si5 0.932908 0.574587 0.908319
Si Si6 0.566491 0.328014 0.253657
O O1 0.750000 0.064156 0.102290
O O2 0.983500 0.133856 0.168820
O O3 0.992303 0.090950 0.005081
O O4 0.000000 0.000000 0.137523
O O5 0.750000 0.165997 0.275424
O O6 0.480569 0.133642 0.340064
O O7 0.504245 0.249137 0.253978
O O8 0.500000 0.500000 0.373970
O O9 0.250000 0.569195 0.402398
O O10 0.496265 0.633255 0.340952
O O11 0.250000 0.929937 0.591477
O O12 0.008112 0.868066 0.666770
O O13 0.000307 0.902884 0.502352
O O14 0.000000 0.000000 0.626153
O O15 0.750000 0.568025 0.914610
O O16 0.000000 0.500000 0.877841
O O17 0.750000 0.327408 0.253917
#
# Coordination Sequence:
#
# PCOD8192065 Si02
#       6
#     8   8   8   8   8   8
#     4   9  18  31  51  74  98 128 165 206 250 296
#     4  10  20  35  53  77 106 138 173 213 259 314
#     4   9  17  32  52  76 102 132 169 210 251 300
#     4  10  19  34  56  81 106 139 179 221 263 310
#     4  11  22  37  56  79 104 137 178 223 269 314
#     4   9  19  33  53  79 107 138 173 209 256 312
#
# _framework density 19.062448
#
# number of rings (size 3 to 8) (size 9 to 14) (size 15 to 20)
#    0.000    2.333    0.000    4.000    0.000    3.333 
#    0.000    8.333    0.000    4.000    0.000    0.000 
#    0.000    0.000    0.000    0.000    0.000    0.000 
#
# Total GULP energy -297616.464220 kJ/mol
# GULP energy per Si atom -12400.686009 kJ/mol
# Density = 1.901906 g / cm^3
# Si number density = 19.062448 Si / 1000 Ang^3
#
#
#
# Elastic Constant Matrix: (Units=GPa)
#
#
# Indices 1 2 3 4 5 6 
#
# 1 56.5187 34.7311 36.4347 0.0000 0.0000 0.0000
# 2 34.7311 176.7895 109.9069 0.0000 0.0000 0.0000
# 3 36.4347 109.9069 143.6028 0.0000 0.0000 0.0000
# 4 0.0000 0.0000 0.0000 28.3789 0.0000 0.0000
# 5 0.0000 0.0000 0.0000 0.0000 19.5300 0.0000
# 6 0.0000 0.0000 0.0000 0.0000 0.0000 26.1929
#
#
#
# Elastic Compliance Matrix: (Units=1/GPa)
#
#
# Indices 1 2 3 4 5 6 
#
# 1 0.021382 -0.001579 -0.004216 0.000000 0.000000 0.000000
# 2 -0.001579 0.010907 -0.007947 0.000000 0.000000 0.000000
# 3 -0.004216 -0.007947 0.014116 0.000000 0.000000 0.000000
# 4 0.000000 0.000000 0.000000 0.035237 0.000000 0.000000
# 5 0.000000 0.000000 0.000000 0.000000 0.051203 0.000000
# 6 0.000000 0.000000 0.000000 0.000000 0.000000 0.038178
#
#
# Mechanical properties :
#
#
# Convention : Reuss Voigt Hill
#
# Bulk Modulus (GPa) = 52.85606 82.11737 67.48671
# Shear Modulus (GPa) = 24.41213 27.87625 26.14419
#
# Velocity S-wave (km/s) = 3.58249 3.82824 3.70740
# Velocity P-wave (km/s) = 6.70077 7.91910 7.33527
#
# Compressibility (1/GPa) = 0.01891931
#
# Stress axis : x y z
#
# Youngs Moduli (GPa) = 46.76884 91.68053 70.84234
#
# Poissons Ratio (x) = 0.14481 0.29868
# Poissons Ratio (y) = 0.07387 0.56301
# Poissons Ratio (z) = 0.19718 0.72861
#
# Static dielectric constant tensor:
#      x y z
#    x 3.277610 0.000000 0.000000 
#    y 0.000000 3.659720 0.000000 
#    z 0.000000 0.000000 3.819460 
# 
# 
# High freq. dielectric constant tensor:
#      x y z
#    x 1.721720 0.000000 0.000000 
#    y 0.000000 1.737970 0.000000 
#    z 0.000000 0.000000 1.755940 
# 
# From -- ./inp_files/13926.got.cif
#   From: 2010.03.12/outbox.cif.g09.slc.cpg/sg46_7_cif.got.tgz:13926.got - 2010.04.14 02:56:35.
