data_PCOD8192934
_publ_section_title
;
Structure prediction by ZEFSAII (Michael W. Deem and Ramdas Pophale) SiO2 
 PCOD8192934
Probable space group: I M A 2
;
_chemical_formula_sum "Si O2"
_cell_formula_units_Z 40
_cell_length_a 8.556345
_cell_length_b 29.140269
_cell_length_c 7.641289
_cell_angle_alpha 90.000000
_cell_angle_beta 90.000000
_cell_angle_gamma 90.000000
_cell_volume 1905.234641
_symmetry_space_group_name_H-M "I M A 2"
_symmetry_group_IT_number 46
_symmetry_cell_setting 'orthorhombic'
loop_
_space_group_symop_operation_xyz
x,y,z
-x,-y,z
1/2-x,y,z
1/2+x,-y,z
1/2+x,1/2+y,1/2+z
1/2-x,1/2-y,1/2+z
-x,1/2+y,1/2+z
x,1/2-y,1/2+z
loop_
_atom_site_type_symbol
_atom_site_label
_atom_site_fract_x
_atom_site_fract_y
_atom_site_fract_z
Si Si1 0.072828 0.297194 0.235970
Si Si2 0.067640 0.450774 0.519063
Si Si3 0.572546 0.390858 0.816061
Si Si4 0.073815 0.791120 0.384907
Si Si5 0.066566 0.608439 0.221632
O O1 0.250000 0.288456 0.297830
O O2 0.958909 0.255739 0.285965
O O3 0.014608 0.346368 0.305949
O O4 0.060260 0.298154 0.027777
O O5 0.250000 0.453906 0.482478
O O6 0.000000 0.500000 0.568623
O O7 0.038538 0.417987 0.684778
O O8 0.985993 0.434090 0.339945
O O9 0.750000 0.408364 0.790333
O O10 0.561326 0.336708 0.764520
O O11 0.519543 0.399328 0.018255
O O12 0.250000 0.789402 0.464795
O O13 0.250000 0.615988 0.235687
#
# Coordination Sequence:
#
# PCOD8192934 Si02
#       5
#     8   8   8   8   8
#     4  11  22  36  57  89 125 161 208 259 309 368
#     4  12  26  43  67  96 127 164 211 264 322 380
#     4   9  21  42  66  91 123 165 210 259 315 377
#     4  10  21  38  59  85 121 167 209 250 310 377
#     4  10  22  43  67  91 126 167 211 260 319 382
#
# _framework density 20.994789000000001
#
# number of rings (size 3 to 8) (size 9 to 14) (size 15 to 20)
#    0.000    1.600    0.000    6.000    2.800    5.600 
#    0.000    0.000    0.000    0.000    0.000    0.000 
#    0.000    0.000    0.000    0.000    0.000    0.000 
#
# Total GULP energy -247944.189301 kJ/mol
# GULP energy per Si atom -12397.209465 kJ/mol
# Density = 2.094700 g / cm^3
# Si number density = 20.994789 Si / 1000 Ang^3
#
#
#
# Elastic Constant Matrix: (Units=GPa)
#
#
# Indices 1 2 3 4 5 6 
#
# 1 92.0365 19.7302 19.9191 0.0170 0.0024 0.0029
# 2 19.7302 86.0518 18.2881 0.0392 -0.0024 0.0012
# 3 19.9191 18.2881 62.4377 0.0825 -0.0018 0.0010
# 4 0.0170 0.0392 0.0825 -5.0723 0.0020 0.0102
# 5 0.0024 -0.0024 -0.0018 0.0020 32.1163 -0.0116
# 6 0.0029 0.0012 0.0010 0.0102 -0.0116 34.7678
#
#
#
# Elastic Compliance Matrix: (Units=1/GPa)
#
#
# Indices 1 2 3 4 5 6 
#
# 1 0.012006 -0.002068 -0.003225 -0.000028 -0.000001 -0.000001
# 2 -0.002068 0.012748 -0.003074 0.000042 0.000001 0.000000
# 3 -0.003225 -0.003074 0.017945 0.000257 0.000001 0.000000
# 4 -0.000028 0.000042 0.000257 -0.197146 0.000012 0.000058
# 5 -0.000001 0.000001 0.000001 0.000012 0.031137 0.000010
# 6 -0.000001 0.000000 0.000000 0.000058 0.000010 0.028762
#
#
# Mechanical properties :
#
#
# Convention : Reuss Voigt Hill
#
# Bulk Modulus (GPa) = 38.51156 39.60008 39.05582
# Shear Modulus (GPa) = -72.29779 24.53494 -23.88143
#
# Velocity S-wave (km/s) = -5.87459 3.42222 -3.37633
# Velocity P-wave (km/s) = 5.25654 5.87522 1.85567
#
# Compressibility (1/GPa) = 0.02596623
#
# Stress axis : x y z
#
# Youngs Moduli (GPa) = 83.28895 78.44159 55.72615
#
# Poissons Ratio (x) = 0.16218 0.17970
# Poissons Ratio (y) = 0.17220 0.17133
# Poissons Ratio (z) = 0.26858 0.24117
#
# Static dielectric constant tensor:
#      x y z
#    x 3.652840 0.000010 0.000010 
#    y 0.000010 4.183440 0.000120 
#    z 0.000010 0.000120 3.652340 
# 
# 
# High freq. dielectric constant tensor:
#      x y z
#    x 1.825830 0.000000 0.000000 
#    y 0.000000 1.828040 0.000000 
#    z 0.000000 0.000000 1.809520 
# 
# From -- ./inp_files/3536.got.cif
#   From: 2010.03.12/outbox.cif.g09.slc.cpg/sg46_2_cif.got.tgz:3536.got - 2010.04.14 02:56:35.
