data_PCOD8192573
_publ_section_title
;
Structure prediction by ZEFSAII (Michael W. Deem and Ramdas Pophale) SiO2 
 PCOD8192573
Probable space group: I M A 2
;
_chemical_formula_sum "Si O2"
_cell_formula_units_Z 64
_cell_length_a 14.891187
_cell_length_b 8.889636
_cell_length_c 21.977128
_cell_angle_alpha 90.000000
_cell_angle_beta 90.000000
_cell_angle_gamma 90.000000
_cell_volume 2909.271373
_symmetry_space_group_name_H-M "I M A 2"
_symmetry_group_IT_number 46
_symmetry_cell_setting 'orthorhombic'
loop_
_space_group_symop_operation_xyz
x,y,z
-x,-y,z
1/2-x,y,z
1/2+x,-y,z
1/2+x,1/2+y,1/2+z
1/2-x,1/2-y,1/2+z
-x,1/2+y,1/2+z
x,1/2-y,1/2+z
loop_
_atom_site_type_symbol
_atom_site_label
_atom_site_fract_x
_atom_site_fract_y
_atom_site_fract_z
Si Si1 0.097017 0.934178 0.859850
Si Si2 0.974024 0.344978 0.803007
Si Si3 0.151077 0.275591 0.136411
Si Si4 0.848884 0.158532 0.058695
Si Si5 0.848530 0.605907 0.474338
Si Si6 0.850171 0.660101 0.264769
Si Si7 0.903963 0.459782 0.676168
Si Si8 0.979147 0.670704 0.024072
O O1 0.088147 0.754971 0.847594
O O2 0.146427 0.978144 0.922179
O O3 0.147108 0.005370 0.802336
O O4 0.000000 0.000000 0.866877
O O5 0.915759 0.389656 0.743181
O O6 0.000000 0.500000 0.837455
O O7 0.068121 0.266896 0.785522
O O8 0.250000 0.296159 0.106102
O O9 0.137653 0.387933 0.193817
O O10 0.075129 0.313293 0.087208
O O11 0.150610 0.115391 0.172375
O O12 0.750000 0.218984 0.040428
O O13 0.858365 0.162883 0.131853
O O14 0.922680 0.258796 0.026473
O O15 0.860199 0.983105 0.038168
O O16 0.750000 0.680871 0.470432
O O17 0.922451 0.739893 0.471756
O O18 0.750000 0.731914 0.275465
O O19 0.000000 0.500000 0.647082
O O20 0.000000 0.500000 0.005633
#
# Coordination Sequence:
#
# PCOD8192573 Si02
#       8
#     8   8   8   8   8   8   8   8
#     4  10  22  40  65  92 126 173 225 271 332 403
#     4  10  20  38  63  94 131 175 217 277 339 405
#     4  11  21  37  62  95 134 180 224 268 334 410
#     4  11  22  38  65  95 128 173 225 274 328 398
#     4  11  23  45  71  93 126 178 229 274 333 408
#     4  10  20  36  57  89 134 181 225 269 327 406
#     4  11  17  35  62  93 133 176 219 267 336 401
#     4  12  25  41  65  96 133 174 220 283 341 398
#
# _framework density 21.998633999999999
#
# number of rings (size 3 to 8) (size 9 to 14) (size 15 to 20)
#    0.000    1.250    5.000    2.250    0.000    3.500 
#    0.000   10.625    0.000    1.500    0.000    0.000 
#    0.000    0.000    0.000    0.000    0.000    0.000 
#
# Total GULP energy -396475.142250 kJ/mol
# GULP energy per Si atom -12389.848195 kJ/mol
# Density = 2.194856 g / cm^3
# Si number density = 21.998634 Si / 1000 Ang^3
#
#
#
# Elastic Constant Matrix: (Units=GPa)
#
#
# Indices 1 2 3 4 5 6 
#
# 1 135.5937 47.0981 23.4624 0.0000 0.0000 0.0000
# 2 47.0981 130.8253 43.9764 0.0000 0.0000 0.0000
# 3 23.4624 43.9764 78.1802 0.0000 0.0000 0.0000
# 4 0.0000 0.0000 0.0000 27.9588 0.0000 0.0000
# 5 0.0000 0.0000 0.0000 0.0000 -1.1550 0.0000
# 6 0.0000 0.0000 0.0000 0.0000 0.0000 40.4860
#
#
#
# Elastic Compliance Matrix: (Units=1/GPa)
#
#
# Indices 1 2 3 4 5 6 
#
# 1 0.008495 -0.002714 -0.001022 0.000000 0.000000 0.000000
# 2 -0.002714 0.010294 -0.004975 0.000000 0.000000 0.000000
# 3 -0.001022 -0.004975 0.015897 0.000000 0.000000 0.000000
# 4 0.000000 0.000000 0.000000 0.035767 0.000000 0.000000
# 5 0.000000 0.000000 0.000000 0.000000 -0.865791 0.000000
# 6 0.000000 0.000000 0.000000 0.000000 0.000000 0.024700
#
#
# Mechanical properties :
#
#
# Convention : Reuss Voigt Hill
#
# Bulk Modulus (GPa) = 57.93745 63.74145 60.83945
# Shear Modulus (GPa) = -6.68931 28.79546 11.05308
#
# Velocity S-wave (km/s) = -1.74568 3.62189 2.24396
# Velocity P-wave (km/s) = 4.72555 6.82121 5.86770
#
# Compressibility (1/GPa) = 0.01725999
#
# Stress axis : x y z
#
# Youngs Moduli (GPa) = 117.71964 97.14865 62.90692
#
# Poissons Ratio (x) = 0.26371 0.06432
# Poissons Ratio (y) = 0.31955 0.31299
# Poissons Ratio (z) = 0.12036 0.48336
#
# Static dielectric constant tensor:
#      x y z
#    x 4.125080 0.000000 0.000000 
#    y 0.000000 4.005460 0.000000 
#    z 0.000000 0.000000 4.121380 
# 
# 
# High freq. dielectric constant tensor:
#      x y z
#    x 1.876900 0.000000 0.000000 
#    y 0.000000 1.833110 0.000000 
#    z 0.000000 0.000000 1.857780 
# 
# From -- ./inp_files/23694.got.cif
#   From: 2010.03.12/outbox.cif.g09.slc.cpg/sg46_12_cif.got.tgz:23694.got - 2010.04.14 02:56:35.
