data_PCOD8192022
_publ_section_title
;
Structure prediction by ZEFSAII (Michael W. Deem and Ramdas Pophale) SiO2 
 PCOD8192022
Probable space group: I M A 2
;
_chemical_formula_sum "Si O2"
_cell_formula_units_Z 48
_cell_length_a 16.383341
_cell_length_b 13.449642
_cell_length_c 11.775380
_cell_angle_alpha 90.000000
_cell_angle_beta 90.000000
_cell_angle_gamma 90.000000
_cell_volume 2594.705822
_symmetry_space_group_name_H-M "I M A 2"
_symmetry_group_IT_number 46
_symmetry_cell_setting 'orthorhombic'
loop_
_space_group_symop_operation_xyz
x,y,z
-x,-y,z
1/2-x,y,z
1/2+x,-y,z
1/2+x,1/2+y,1/2+z
1/2-x,1/2-y,1/2+z
-x,1/2+y,1/2+z
x,1/2-y,1/2+z
loop_
_atom_site_type_symbol
_atom_site_label
_atom_site_fract_x
_atom_site_fract_y
_atom_site_fract_z
Si Si1 0.155617 0.033012 0.137990
Si Si2 0.430291 0.924436 0.946818
Si Si3 0.532955 0.107912 0.554078
Si Si4 0.580989 0.372980 0.793870
Si Si5 0.036076 0.300753 0.614652
Si Si6 0.843433 0.176226 0.738959
O O1 0.250000 0.037450 0.170225
O O2 0.123744 0.145507 0.115806
O O3 0.104833 0.979363 0.238776
O O4 0.140688 0.974147 0.021797
O O5 0.386990 0.882547 0.838216
O O6 0.500000 0.000000 0.906691
O O7 0.473478 0.839520 0.019560
O O8 0.561129 0.108091 0.424249
O O9 0.458089 0.183376 0.585951
O O10 0.612060 0.145106 0.623017
O O11 0.500000 0.000000 0.589585
O O12 0.500869 0.323637 0.738429
O O13 0.653345 0.293898 0.768880
O O14 0.750000 0.143973 0.726957
#
# Coordination Sequence:
#
# PCOD8192022 Si02
#       6
#     8   8   8   8   8   8
#     4  10  19  33  58  86 111 143 186 239 284 324
#     4   9  17  34  56  81 110 146 191 230 274 338
#     4  11  22  38  58  82 110 154 188 231 278 343
#     4  10  20  37  57  83 111 147 187 234 280 339
#     4   9  19  36  57  80 108 148 194 228 272 338
#     4  11  22  34  53  84 117 144 180 234 293 336
#
# _framework density 18.499206999999998
#
# number of rings (size 3 to 8) (size 9 to 14) (size 15 to 20)
#    0.000    2.000    1.667    4.000    0.000    1.333 
#    0.000    0.833    0.000    1.000    0.000    0.000 
#    0.000    0.000    0.000    0.000    0.000    0.000 
#
# Total GULP energy -297500.688655 kJ/mol
# GULP energy per Si atom -12395.862027 kJ/mol
# Density = 1.845710 g / cm^3
# Si number density = 18.499207 Si / 1000 Ang^3
#
#
#
# Elastic Constant Matrix: (Units=GPa)
#
#
# Indices 1 2 3 4 5 6 
#
# 1 59.1827 34.0449 17.6347 0.0000 0.0000 0.0000
# 2 34.0449 132.8464 32.0919 0.0000 0.0000 0.0000
# 3 17.6347 32.0919 99.3353 0.0000 0.0000 0.0000
# 4 0.0000 0.0000 0.0000 9.8019 0.0000 0.0000
# 5 0.0000 0.0000 0.0000 0.0000 9.7066 0.0000
# 6 0.0000 0.0000 0.0000 0.0000 0.0000 16.7169
#
#
#
# Elastic Compliance Matrix: (Units=1/GPa)
#
#
# Indices 1 2 3 4 5 6 
#
# 1 0.020206 -0.004677 -0.002076 0.000000 0.000000 0.000000
# 2 -0.004677 0.009247 -0.002157 0.000000 0.000000 0.000000
# 3 -0.002076 -0.002157 0.011132 0.000000 0.000000 0.000000
# 4 0.000000 0.000000 0.000000 0.102022 0.000000 0.000000
# 5 0.000000 0.000000 0.000000 0.000000 0.103023 0.000000
# 6 0.000000 0.000000 0.000000 0.000000 0.000000 0.059820
#
#
# Mechanical properties :
#
#
# Convention : Reuss Voigt Hill
#
# Bulk Modulus (GPa) = 43.92676 50.98972 47.45824
# Shear Modulus (GPa) = 15.11223 21.08459 18.09841
#
# Velocity S-wave (km/s) = 2.86127 3.37969 3.13123
# Velocity P-wave (km/s) = 5.89174 6.54620 6.22757
#
# Compressibility (1/GPa) = 0.02276517
#
# Stress axis : x y z
#
# Youngs Moduli (GPa) = 49.49099 108.14198 89.82775
#
# Poissons Ratio (x) = 0.50574 0.18650
# Poissons Ratio (y) = 0.23145 0.19378
# Poissons Ratio (z) = 0.10275 0.23328
#
# Static dielectric constant tensor:
#      x y z
#    x 3.167130 0.000000 0.000000 
#    y 0.000000 3.644330 0.000000 
#    z 0.000000 0.000000 3.416680 
# 
# 
# High freq. dielectric constant tensor:
#      x y z
#    x 1.690690 0.000000 0.000000 
#    y 0.000000 1.721870 0.000000 
#    z 0.000000 0.000000 1.725490 
# 
# From -- ./inp_files/11079.got.cif
#   From: 2010.03.12/outbox.cif.g09.slc.cpg/sg46_6_cif.got.tgz:11079.got - 2010.04.14 02:56:35.
