data_PCOD8192411
_publ_section_title
;
Structure prediction by ZEFSAII (Michael W. Deem and Ramdas Pophale) SiO2 
 PCOD8192411
Probable space group: I M A 2
;
_chemical_formula_sum "Si O2"
_cell_formula_units_Z 48
_cell_length_a 8.636561
_cell_length_b 9.563833
_cell_length_c 30.515750
_cell_angle_alpha 90.000000
_cell_angle_beta 90.000000
_cell_angle_gamma 90.000000
_cell_volume 2520.559055
_symmetry_space_group_name_H-M "I M A 2"
_symmetry_group_IT_number 46
_symmetry_cell_setting 'orthorhombic'
loop_
_space_group_symop_operation_xyz
x,y,z
-x,-y,z
1/2-x,y,z
1/2+x,-y,z
1/2+x,1/2+y,1/2+z
1/2-x,1/2-y,1/2+z
-x,1/2+y,1/2+z
x,1/2-y,1/2+z
loop_
_atom_site_type_symbol
_atom_site_label
_atom_site_fract_x
_atom_site_fract_y
_atom_site_fract_z
Si Si1 0.566943 0.156421 0.997670
Si Si2 0.429547 0.347792 0.681144
Si Si3 0.930940 0.356261 0.250085
Si Si4 0.066359 0.648291 0.349941
Si Si5 0.570005 0.651796 0.585332
Si Si6 0.066313 0.345105 0.921164
O O1 0.750000 0.152764 0.991608
O O2 0.493140 0.253622 0.961292
O O3 0.500000 0.000000 0.993730
O O4 0.520921 0.224671 0.044996
O O5 0.500000 0.500000 0.680775
O O6 0.250000 0.356806 0.692904
O O7 0.515596 0.265862 0.718830
O O8 0.452934 0.274735 0.632970
O O9 0.750000 0.370352 0.248166
O O10 0.985199 0.326960 0.299757
O O11 0.000000 0.500000 0.232121
O O12 0.250000 0.648230 0.356434
O O13 0.000000 0.500000 0.367018
O O14 0.991593 0.775279 0.376362
O O15 0.500000 0.500000 0.590774
O O16 0.750000 0.641931 0.572676
O O17 0.250000 0.351693 0.921623
O O18 0.000000 0.500000 0.924895
#
# Coordination Sequence:
#
# PCOD8192411 Si02
#       6
#     8   8   8   8   8   8
#     4  11  21  36  59  85 112 146 186 228 271 323
#     4  10  20  34  55  82 114 148 186 229 275 325
#     4  10  21  37  58  82 112 146 184 228 275 326
#     4  10  21  39  61  85 110 143 185 228 272 324
#     4   9  17  31  52  80 110 143 184 230 273 319
#     4  12  25  41  59  82 113 146 180 225 277 331
#
# _framework density 19.043396000000001
#
# number of rings (size 3 to 8) (size 9 to 14) (size 15 to 20)
#    0.000    1.667    0.000    6.500    0.000    4.667 
#    0.000    0.833    0.000    4.000    0.000    0.000 
#    0.000    0.000    0.000    0.000    0.000    0.000 
#
# Total GULP energy -297545.511394 kJ/mol
# GULP energy per Si atom -12397.729641 kJ/mol
# Density = 1.900005 g / cm^3
# Si number density = 19.043396 Si / 1000 Ang^3
#
#
#
# Elastic Constant Matrix: (Units=GPa)
#
#
# Indices 1 2 3 4 5 6 
#
# 1 102.5575 32.9895 39.4057 0.0000 0.0000 0.0000
# 2 32.9895 91.5116 57.4628 0.0000 0.0000 0.0000
# 3 39.4057 57.4628 118.7505 0.0000 0.0000 0.0000
# 4 0.0000 0.0000 0.0000 26.2813 0.0000 0.0000
# 5 0.0000 0.0000 0.0000 0.0000 37.6278 0.0000
# 6 0.0000 0.0000 0.0000 0.0000 0.0000 34.8405
#
#
#
# Elastic Compliance Matrix: (Units=1/GPa)
#
#
# Indices 1 2 3 4 5 6 
#
# 1 0.011569 -0.002528 -0.002616 0.000000 0.000000 0.000000
# 2 -0.002528 0.016250 -0.007024 0.000000 0.000000 0.000000
# 3 -0.002616 -0.007024 0.012688 0.000000 0.000000 0.000000
# 4 0.000000 0.000000 0.000000 0.038050 0.000000 0.000000
# 5 0.000000 0.000000 0.000000 0.000000 0.026576 0.000000
# 6 0.000000 0.000000 0.000000 0.000000 0.000000 0.028702
#
#
# Mechanical properties :
#
#
# Convention : Reuss Voigt Hill
#
# Bulk Modulus (GPa) = 61.84064 63.61503 62.72784
# Shear Modulus (GPa) = 30.56969 31.94735 31.25852
#
# Velocity S-wave (km/s) = 4.01092 4.10030 4.05586
# Velocity P-wave (km/s) = 7.34806 7.47626 7.41244
#
# Compressibility (1/GPa) = 0.01617060
#
# Stress axis : x y z
#
# Youngs Moduli (GPa) = 86.43909 61.53980 78.81488
#
# Poissons Ratio (x) = 0.15558 0.20615
# Poissons Ratio (y) = 0.21853 0.55361
# Poissons Ratio (z) = 0.22609 0.43227
#
# Static dielectric constant tensor:
#      x y z
#    x 3.691730 0.000000 0.000000 
#    y 0.000000 3.295120 0.000000 
#    z 0.000000 0.000000 4.146070 
# 
# 
# High freq. dielectric constant tensor:
#      x y z
#    x 1.762470 0.000000 0.000000 
#    y 0.000000 1.710920 0.000000 
#    z 0.000000 0.000000 1.761880 
# 
# From -- ./inp_files/24979.got.cif
#   From: 2010.03.12/outbox.cif.g09.slc.cpg/sg46_13_cif.got.tgz:24979.got - 2010.04.14 02:56:35.
