data_PCOD8192831
_publ_section_title
;
Structure prediction by ZEFSAII (Michael W. Deem and Ramdas Pophale) SiO2 
 PCOD8192831
Probable space group: I M A 2
;
_chemical_formula_sum "Si O2"
_cell_formula_units_Z 20
_cell_length_a 5.365590
_cell_length_b 15.727247
_cell_length_c 10.183423
_cell_angle_alpha 90.000000
_cell_angle_beta 90.000000
_cell_angle_gamma 90.000000
_cell_volume 859.337918
_symmetry_space_group_name_H-M "I M A 2"
_symmetry_group_IT_number 46
_symmetry_cell_setting 'orthorhombic'
loop_
_space_group_symop_operation_xyz
x,y,z
-x,-y,z
1/2-x,y,z
1/2+x,-y,z
1/2+x,1/2+y,1/2+z
1/2-x,1/2-y,1/2+z
-x,1/2+y,1/2+z
x,1/2-y,1/2+z
loop_
_atom_site_type_symbol
_atom_site_label
_atom_site_fract_x
_atom_site_fract_y
_atom_site_fract_z
Si Si1 0.750000 0.879437 0.366400
Si Si2 0.250000 0.800196 0.735535
Si Si3 0.250000 0.448793 0.576945
Si Si4 0.250000 0.843982 0.448240
Si Si5 0.250000 0.176324 0.848950
O O1 0.750000 0.924753 0.228008
O O2 0.495727 0.904239 0.444117
O O3 0.750000 0.777389 0.359452
O O4 0.250000 0.784564 0.578115
O O5 0.250000 0.711231 0.813769
O O6 0.499505 0.853295 0.772358
O O7 0.500000 0.500000 0.541565
O O8 0.250000 0.362268 0.494108
#
# Coordination Sequence:
#
# PCOD8192831 Si02
#       5
#     4   4   4   4   4
#     4  10  23  38  68  98 138 173 243 281 341 398
#     4  10  21  34  61  97 138 171 224 289 344 391
#     4  12  26  46  72 104 146 188 234 286 356 426
#     4  10  21  34  61  97 138 171 224 289 344 391
#     4  10  23  38  68  98 138 173 243 281 341 398
#
# _framework density 23.27373
#
# number of rings (size 3 to 8) (size 9 to 14) (size 15 to 20)
#    0.000    1.600    0.000    3.600   22.400    0.000 
#    0.000    0.000    0.000   24.000    0.000    0.000 
#    0.000    0.000    0.000    0.000    0.000    0.000 
#
# Total GULP energy -123916.333840 kJ/mol
# GULP energy per Si atom -12391.633384 kJ/mol
# Density = 2.322076 g / cm^3
# Si number density = 23.273730 Si / 1000 Ang^3
#
#
#
# Elastic Constant Matrix: (Units=GPa)
#
#
# Indices 1 2 3 4 5 6 
#
# 1 272.1304 7.6738 10.2542 0.0000 0.0000 0.0000
# 2 7.6738 37.3986 -3.1767 0.0000 0.0000 0.0000
# 3 10.2542 -3.1767 45.2181 0.0001 0.0000 0.0000
# 4 0.0000 0.0000 0.0001 39.7470 0.0000 0.0000
# 5 0.0000 0.0000 0.0000 0.0000 27.1273 0.0000
# 6 0.0000 0.0000 0.0000 0.0000 0.0000 -1.8584
#
#
#
# Elastic Compliance Matrix: (Units=1/GPa)
#
#
# Indices 1 2 3 4 5 6 
#
# 1 0.003733 -0.000843 -0.000906 0.000000 0.000000 0.000000
# 2 -0.000843 0.027090 0.002094 0.000000 0.000000 0.000000
# 3 -0.000906 0.002094 0.022468 0.000000 0.000000 0.000000
# 4 0.000000 0.000000 0.000000 0.025159 0.000000 0.000000
# 5 0.000000 0.000000 0.000000 0.000000 0.036863 0.000000
# 6 0.000000 0.000000 0.000000 0.000000 0.000000 -0.538084
#
#
# Mechanical properties :
#
#
# Convention : Reuss Voigt Hill
#
# Bulk Modulus (GPa) = 18.52487 42.69443 30.60965
# Shear Modulus (GPa) = -12.33139 35.66955 11.66908
#
# Velocity S-wave (km/s) = -2.30433 3.91910 2.24159
# Velocity P-wave (km/s) = 0.94707 6.23406 4.45872
#
# Compressibility (1/GPa) = 0.05398149
#
# Stress axis : x y z
#
# Youngs Moduli (GPa) = 267.90960 36.91426 44.50866
#
# Poissons Ratio (x) = 0.03111 0.04031
# Poissons Ratio (y) = 0.22580 -0.09321
# Poissons Ratio (z) = 0.24264 -0.07731
#
# Static dielectric constant tensor:
#      x y z
#    x 7.530580 0.000000 0.000000 
#    y 0.000000 3.525190 0.000000 
#    z 0.000000 0.000000 3.981590 
# 
# 
# High freq. dielectric constant tensor:
#      x y z
#    x 1.976380 0.000000 0.000000 
#    y 0.000000 1.857640 0.000000 
#    z 0.000000 0.000000 1.910130 
# 
# From -- ./inp_files/2823.got.cif
#   From: 2010.03.12/outbox.cif.g09.slc.cpg/sg46_2_cif.got.tgz:2823.got - 2010.04.14 02:56:35.
