data_PCOD8192967
_publ_section_title
;
Structure prediction by ZEFSAII (Michael W. Deem and Ramdas Pophale) SiO2 
 PCOD8192967
Probable space group: I M A 2
;
_chemical_formula_sum "Si O2"
_cell_formula_units_Z 52
_cell_length_a 14.069836
_cell_length_b 11.960800
_cell_length_c 14.426480
_cell_angle_alpha 90.000000
_cell_angle_beta 90.000000
_cell_angle_gamma 90.000000
_cell_volume 2427.781746
_symmetry_space_group_name_H-M "I M A 2"
_symmetry_group_IT_number 46
_symmetry_cell_setting 'orthorhombic'
loop_
_space_group_symop_operation_xyz
x,y,z
-x,-y,z
1/2-x,y,z
1/2+x,-y,z
1/2+x,1/2+y,1/2+z
1/2-x,1/2-y,1/2+z
-x,1/2+y,1/2+z
x,1/2-y,1/2+z
loop_
_atom_site_type_symbol
_atom_site_label
_atom_site_fract_x
_atom_site_fract_y
_atom_site_fract_z
Si Si1 0.641895 0.123260 0.248810
Si Si2 0.950605 0.153262 0.711951
Si Si3 0.985737 0.297831 0.008548
Si Si4 0.142919 0.424822 0.267366
Si Si5 0.142694 0.897244 0.029839
Si Si6 0.143833 0.133982 0.978182
Si Si7 0.000000 0.500000 0.868167
O O1 0.750000 0.130200 0.285258
O O2 0.585447 0.238271 0.267554
O O3 0.638761 0.110731 0.139622
O O4 0.591562 0.019423 0.301937
O O5 0.934993 0.152316 0.600658
O O6 0.065455 0.149234 0.714275
O O7 0.895011 0.052293 0.761668
O O8 0.913567 0.200259 0.975119
O O9 0.086182 0.236128 0.023568
O O10 0.006146 0.391622 0.932698
O O11 0.250000 0.419506 0.224619
O O12 0.144675 0.369661 0.367791
O O13 0.250000 0.892146 0.991374
O O14 0.096650 0.017070 0.008400
O O15 0.250000 0.146431 0.018405
#
# Coordination Sequence:
#
# PCOD8192967 Si02
#       7
#     8   8   8   8   8   8   4
#     4  10  23  42  62  89 127 166 212 261 311 382
#     4  10  22  40  65  90 123 172 214 257 316 380
#     4  11  24  41  61  88 132 166 206 256 312 383
#     4  10  21  38  63  95 126 158 211 271 316 368
#     4   9  21  41  66  91 114 159 214 263 316 366
#     4  10  22  39  63  93 121 157 208 265 320 368
#     4  12  26  38  58  98 128 172 206 248 326 380
#
# _framework density 21.418731000000001
#
# number of rings (size 3 to 8) (size 9 to 14) (size 15 to 20)
#    0.000    1.846    0.000    2.769   10.769    2.462 
#    0.000    2.308    0.000    0.000    0.000    0.000 
#    0.000    0.000    0.000    0.000    0.000    0.000 
#
# Total GULP energy -322155.035471 kJ/mol
# GULP energy per Si atom -12390.578287 kJ/mol
# Density = 2.136998 g / cm^3
# Si number density = 21.418731 Si / 1000 Ang^3
#
#
#
# Elastic Constant Matrix: (Units=GPa)
#
#
# Indices 1 2 3 4 5 6 
#
# 1 145.1466 51.8885 17.1790 0.0000 0.0000 0.0000
# 2 51.8885 110.4989 25.1931 0.0000 0.0000 0.0000
# 3 17.1790 25.1931 34.9201 0.0000 0.0000 0.0000
# 4 0.0000 0.0000 0.0000 39.2474 0.0000 0.0000
# 5 0.0000 0.0000 0.0000 0.0000 24.3509 0.0000
# 6 0.0000 0.0000 0.0000 0.0000 0.0000 21.7432
#
#
#
# Elastic Compliance Matrix: (Units=1/GPa)
#
#
# Indices 1 2 3 4 5 6 
#
# 1 0.008347 -0.003571 -0.001530 0.000000 0.000000 0.000000
# 2 -0.003571 0.012359 -0.007160 0.000000 0.000000 0.000000
# 3 -0.001530 -0.007160 0.034555 0.000000 0.000000 0.000000
# 4 0.000000 0.000000 0.000000 0.025479 0.000000 0.000000
# 5 0.000000 0.000000 0.000000 0.000000 0.041066 0.000000
# 6 0.000000 0.000000 0.000000 0.000000 0.000000 0.045991
#
#
# Mechanical properties :
#
#
# Convention : Reuss Voigt Hill
#
# Bulk Modulus (GPa) = 32.53131 53.23188 42.88159
# Shear Modulus (GPa) = 24.68323 30.15529 27.41926
#
# Velocity S-wave (km/s) = 3.39840 3.75626 3.58180
# Velocity P-wave (km/s) = 5.53354 6.61208 6.09671
#
# Compressibility (1/GPa) = 0.03073962
#
# Stress axis : x y z
#
# Youngs Moduli (GPa) = 119.80004 80.91237 28.93935
#
# Poissons Ratio (x) = 0.28893 0.04429
# Poissons Ratio (y) = 0.42779 0.20720
# Poissons Ratio (z) = 0.18333 0.57931
#
# Static dielectric constant tensor:
#      x y z
#    x 4.237590 0.000000 0.000000 
#    y 0.000000 3.932850 0.000000 
#    z 0.000000 0.000000 3.671380 
# 
# 
# High freq. dielectric constant tensor:
#      x y z
#    x 1.847990 0.000000 0.000000 
#    y 0.000000 1.839100 0.000000 
#    z 0.000000 0.000000 1.831510 
# 
# From -- ./inp_files/15968.got.cif
#   From: 2010.03.12/outbox.cif.g09.slc.cpg/sg46_8_cif.got.tgz:15968.got - 2010.04.14 02:56:35.
