data_PCOD8192742
_publ_section_title
;
Structure prediction by ZEFSAII (Michael W. Deem and Ramdas Pophale) SiO2 
 PCOD8192742
Probable space group: I M A 2
;
_chemical_formula_sum "Si O2"
_cell_formula_units_Z 64
_cell_length_a 8.689953
_cell_length_b 15.345815
_cell_length_c 23.475387
_cell_angle_alpha 90.000000
_cell_angle_beta 90.000000
_cell_angle_gamma 90.000000
_cell_volume 3130.546409
_symmetry_space_group_name_H-M "I M A 2"
_symmetry_group_IT_number 46
_symmetry_cell_setting 'orthorhombic'
loop_
_space_group_symop_operation_xyz
x,y,z
-x,-y,z
1/2-x,y,z
1/2+x,-y,z
1/2+x,1/2+y,1/2+z
1/2-x,1/2-y,1/2+z
-x,1/2+y,1/2+z
x,1/2-y,1/2+z
loop_
_atom_site_type_symbol
_atom_site_label
_atom_site_fract_x
_atom_site_fract_y
_atom_site_fract_z
Si Si1 0.069518 0.651964 0.125000
Si Si2 0.430839 0.088609 0.740945
Si Si3 0.569818 0.253557 0.447950
Si Si4 0.069194 0.409027 0.757425
Si Si5 0.573607 0.590667 0.516912
Si Si6 0.931620 0.590727 0.008181
Si Si7 0.930064 0.757981 0.827605
Si Si8 0.073658 0.163568 0.138072
O O1 0.250000 0.638582 0.117639
O O2 0.012607 0.603878 0.181073
O O3 0.986298 0.608212 0.071943
O O4 0.032249 0.753781 0.126732
O O5 0.250000 0.080082 0.731372
O O6 0.471406 0.167289 0.782754
O O7 0.500000 0.000000 0.767651
O O8 0.750000 0.239241 0.455180
O O9 0.519103 0.331427 0.488651
O O10 0.484007 0.165588 0.465149
O O11 0.528408 0.277246 0.383444
O O12 0.250000 0.418589 0.756832
O O13 0.017300 0.334031 0.801053
O O14 0.010756 0.385765 0.693887
O O15 0.000000 0.500000 0.778366
O O16 0.500000 0.500000 0.497122
O O17 0.750000 0.594393 0.496386
O O18 0.561830 0.598179 0.585107
O O19 0.750000 0.585787 0.007261
O O20 0.000000 0.500000 0.985582
O O21 0.750000 0.758351 0.842758
O O22 0.250000 0.195501 0.147532
#
# Coordination Sequence:
#
# PCOD8192742 Si02
#       8
#     8   8   8   8   8   8   8   8
#     4  12  23  37  63  97 131 167 208 255 314 381
#     4  11  23  42  66  93 128 166 210 260 315 376
#     4  12  26  44  66  94 127 165 215 267 319 380
#     4  10  21  39  63  93 126 164 207 251 307 368
#     4  11  23  40  66  95 130 170 211 259 314 377
#     4  12  25  44  68  95 129 167 211 261 318 381
#     4  10  23  44  66  87 123 171 213 261 317 371
#     4  10  20  38  63  92 128 170 204 250 314 376
#
# _framework density 20.443714
#
# number of rings (size 3 to 8) (size 9 to 14) (size 15 to 20)
#    0.000    1.000    2.500    4.875    0.000    3.500 
#    0.000    2.500    0.000    0.000    0.000    0.000 
#    0.000    0.000    0.000    0.000    0.000    0.000 
#
# Total GULP energy -397018.826171 kJ/mol
# GULP energy per Si atom -12406.838318 kJ/mol
# Density = 2.039718 g / cm^3
# Si number density = 20.443714 Si / 1000 Ang^3
#
#
#
# Elastic Constant Matrix: (Units=GPa)
#
#
# Indices 1 2 3 4 5 6 
#
# 1 122.4673 35.9272 25.9229 0.0000 0.0000 0.0000
# 2 35.9272 122.3512 6.1884 0.0000 0.0000 0.0000
# 3 25.9229 6.1884 70.6035 0.0000 0.0000 0.0000
# 4 0.0000 0.0000 0.0000 10.7546 0.0000 0.0000
# 5 0.0000 0.0000 0.0000 0.0000 41.6709 0.0000
# 6 0.0000 0.0000 0.0000 0.0000 0.0000 37.8300
#
#
#
# Elastic Compliance Matrix: (Units=1/GPa)
#
#
# Indices 1 2 3 4 5 6 
#
# 1 0.009648 -0.002666 -0.003309 0.000000 0.000000 0.000000
# 2 -0.002666 0.008946 0.000195 0.000000 0.000000 0.000000
# 3 -0.003309 0.000195 0.015361 0.000000 0.000000 0.000000
# 4 0.000000 0.000000 0.000000 0.092984 0.000000 0.000000
# 5 0.000000 0.000000 0.000000 0.000000 0.023998 0.000000
# 6 0.000000 0.000000 0.000000 0.000000 0.000000 0.026434
#
#
# Mechanical properties :
#
#
# Convention : Reuss Voigt Hill
#
# Bulk Modulus (GPa) = 44.65116 50.16659 47.40887
# Shear Modulus (GPa) = 25.45887 34.54332 30.00110
#
# Velocity S-wave (km/s) = 3.53273 4.11503 3.83495
# Velocity P-wave (km/s) = 6.20715 6.86805 6.54595
#
# Compressibility (1/GPa) = 0.02239584
#
# Stress axis : x y z
#
# Youngs Moduli (GPa) = 103.65071 111.78073 65.09840
#
# Poissons Ratio (x) = 0.29797 0.21539
# Poissons Ratio (y) = 0.27629 -0.01267
# Poissons Ratio (z) = 0.34294 -0.02175
#
# Static dielectric constant tensor:
#      x y z
#    x 3.680080 0.000000 0.000000 
#    y 0.000000 3.906930 0.000000 
#    z 0.000000 0.000000 3.717740 
# 
# 
# High freq. dielectric constant tensor:
#      x y z
#    x 1.802700 0.000000 0.000000 
#    y 0.000000 1.812930 0.000000 
#    z 0.000000 0.000000 1.798180 
# 
# From -- ./inp_files/23211.got.cif
#   From: 2010.03.12/outbox.cif.g09.slc.cpg/sg46_12_cif.got.tgz:23211.got - 2010.04.14 02:56:35.
