data_PCOD8192366
_publ_section_title
;
Structure prediction by ZEFSAII (Michael W. Deem and Ramdas Pophale) SiO2 
 PCOD8192366
Probable space group: I M A 2
;
_chemical_formula_sum "Si O2"
_cell_formula_units_Z 56
_cell_length_a 9.602592
_cell_length_b 19.508559
_cell_length_c 15.250639
_cell_angle_alpha 90.000000
_cell_angle_beta 90.000000
_cell_angle_gamma 90.000000
_cell_volume 2856.943878
_symmetry_space_group_name_H-M "I M A 2"
_symmetry_group_IT_number 46
_symmetry_cell_setting 'orthorhombic'
loop_
_space_group_symop_operation_xyz
x,y,z
-x,-y,z
1/2-x,y,z
1/2+x,-y,z
1/2+x,1/2+y,1/2+z
1/2-x,1/2-y,1/2+z
-x,1/2+y,1/2+z
x,1/2-y,1/2+z
loop_
_atom_site_type_symbol
_atom_site_label
_atom_site_fract_x
_atom_site_fract_y
_atom_site_fract_z
Si Si1 0.591005 0.327497 0.369080
Si Si2 0.908443 0.322581 0.065049
Si Si3 0.101309 0.445733 0.612752
Si Si4 0.087205 0.569976 0.211796
Si Si5 0.903178 0.172038 0.359981
Si Si6 0.414061 0.305907 0.538481
Si Si7 0.402522 0.056846 0.313223
O O1 0.750000 0.339417 0.402564
O O2 0.549879 0.382655 0.295391
O O3 0.580209 0.250704 0.330502
O O4 0.481742 0.331594 0.447797
O O5 0.750000 0.300434 0.088827
O O6 0.952958 0.387562 0.124119
O O7 0.012432 0.259527 0.082274
O O8 0.920488 0.341085 0.963401
O O9 0.250000 0.453881 0.564569
O O10 0.053838 0.367245 0.605685
O O11 0.117568 0.466087 0.713627
O O12 0.000000 0.500000 0.565306
O O13 0.250000 0.550879 0.211513
O O14 0.000000 0.500000 0.215232
O O15 0.750000 0.145371 0.331011
O O16 0.024820 0.130546 0.313266
O O17 0.250000 0.290715 0.525071
O O18 0.250000 0.060285 0.359098
O O19 0.500000 0.000000 0.361399
#
# Coordination Sequence:
#
# PCOD8192366 Si02
#       7
#     8   8   8   8   8   8   8
#     4   9  20  38  57  80 110 144 186 227 273 334
#     4   9  20  38  58  81 110 144 185 227 273 333
#     4   9  20  35  50  75 108 140 177 218 262 319
#     4  10  22  40  60  84 114 151 192 235 284 340
#     4   9  18  34  55  80 107 138 180 228 271 322
#     4  10  20  35  56  83 112 142 183 231 278 324
#     4  10  20  34  51  75 107 141 176 216 264 318
#
# _framework density 19.601367
#
# number of rings (size 3 to 8) (size 9 to 14) (size 15 to 20)
#    0.000    2.571    0.000    1.714    2.000    6.286 
#    0.000    4.286    0.000    0.000    0.000    0.000 
#    0.000    0.000    0.000    0.000    0.000    0.000 
#
# Total GULP energy -347022.853551 kJ/mol
# GULP energy per Si atom -12393.673341 kJ/mol
# Density = 1.955675 g / cm^3
# Si number density = 19.601367 Si / 1000 Ang^3
#
#
#
# Elastic Constant Matrix: (Units=GPa)
#
#
# Indices 1 2 3 4 5 6 
#
# 1 140.2260 88.5140 29.0584 0.0000 0.0000 0.0000
# 2 88.5140 145.5660 41.9826 0.0000 0.0000 0.0000
# 3 29.0584 41.9826 44.7503 0.0000 0.0000 0.0000
# 4 0.0000 0.0000 0.0000 25.2964 0.0000 0.0000
# 5 0.0000 0.0000 0.0000 0.0000 16.9078 0.0000
# 6 0.0000 0.0000 0.0000 0.0000 0.0000 40.3964
#
#
#
# Elastic Compliance Matrix: (Units=1/GPa)
#
#
# Indices 1 2 3 4 5 6 
#
# 1 0.011625 -0.006706 -0.001257 0.000000 0.000000 0.000000
# 2 -0.006706 0.013287 -0.008110 0.000000 0.000000 0.000000
# 3 -0.001257 -0.008110 0.030771 0.000000 0.000000 0.000000
# 4 0.000000 0.000000 0.000000 0.039531 0.000000 0.000000
# 5 0.000000 0.000000 0.000000 0.000000 0.059144 0.000000
# 6 0.000000 0.000000 0.000000 0.000000 0.000000 0.024755
#
#
# Mechanical properties :
#
#
# Convention : Reuss Voigt Hill
#
# Bulk Modulus (GPa) = 42.48892 72.18358 57.33625
# Shear Modulus (GPa) = 22.82005 27.91927 25.36966
#
# Velocity S-wave (km/s) = 3.41575 3.77815 3.60151
# Velocity P-wave (km/s) = 6.10574 7.47919 6.82709
#
# Compressibility (1/GPa) = 0.02353555
#
# Stress axis : x y z
#
# Youngs Moduli (GPa) = 86.02164 75.26364 32.49793
#
# Poissons Ratio (x) = 0.50473 0.04086
# Poissons Ratio (y) = 0.57688 0.26357
# Poissons Ratio (z) = 0.10815 0.61041
#
# Static dielectric constant tensor:
#      x y z
#    x 3.909020 0.000000 0.000000 
#    y 0.000000 3.536770 0.000000 
#    z 0.000000 0.000000 3.292290 
# 
# 
# High freq. dielectric constant tensor:
#      x y z
#    x 1.772830 0.000000 0.000000 
#    y 0.000000 1.766030 0.000000 
#    z 0.000000 0.000000 1.736650 
# 
# From -- ./inp_files/14194.got.cif
#   From: 2010.03.12/outbox.cif.g09.slc.cpg/sg46_8_cif.got.tgz:14194.got - 2010.04.14 02:56:35.
