data_PCOD8192839
_publ_section_title
;
Structure prediction by ZEFSAII (Michael W. Deem and Ramdas Pophale) SiO2 
 PCOD8192839
Probable space group: I M A 2
;
_chemical_formula_sum "Si O2"
_cell_formula_units_Z 48
_cell_length_a 8.683592
_cell_length_b 18.792033
_cell_length_c 15.152012
_cell_angle_alpha 90.000000
_cell_angle_beta 90.000000
_cell_angle_gamma 90.000000
_cell_volume 2472.540886
_symmetry_space_group_name_H-M "I M A 2"
_symmetry_group_IT_number 46
_symmetry_cell_setting 'orthorhombic'
loop_
_space_group_symop_operation_xyz
x,y,z
-x,-y,z
1/2-x,y,z
1/2+x,-y,z
1/2+x,1/2+y,1/2+z
1/2-x,1/2-y,1/2+z
-x,1/2+y,1/2+z
x,1/2-y,1/2+z
loop_
_atom_site_type_symbol
_atom_site_label
_atom_site_fract_x
_atom_site_fract_y
_atom_site_fract_z
Si Si1 0.931474 0.424131 0.623340
Si Si2 0.567298 0.191919 0.985310
Si Si3 0.431502 0.155111 0.484575
Si Si4 0.569227 0.186472 0.787541
Si Si5 0.066605 0.923867 0.645157
Si Si6 0.931747 0.153901 0.297659
O O1 0.750000 0.428420 0.615427
O O2 0.994664 0.367159 0.552899
O O3 0.981200 0.400905 0.721542
O O4 0.000000 0.500000 0.599558
O O5 0.750000 0.203252 0.992415
O O6 0.490063 0.266548 0.009785
O O7 0.517397 0.167300 0.887218
O O8 0.250000 0.151356 0.494754
O O9 0.508492 0.097972 0.548837
O O10 0.478606 0.132593 0.385796
O O11 0.750000 0.179626 0.779210
O O12 0.497216 0.131863 0.717126
O O13 0.518385 0.267197 0.765781
O O14 0.250000 0.926476 0.645591
O O15 0.000000 0.000000 0.671556
O O16 0.750000 0.152265 0.317469
#
# Coordination Sequence:
#
# PCOD8192839 Si02
#       6
#     8   8   8   8   8   8
#     4  10  21  35  55  81 112 147 181 217 266 320
#     4   9  18  37  60  81 107 144 182 218 263 322
#     4  11  22  36  56  83 108 138 180 229 275 316
#     4   8  16  33  59  81 100 134 182 223 262 314
#     4  11  22  37  55  79 111 147 181 219 266 321
#     4   9  18  36  58  79 104 142 184 222 266 321
#
# _framework density 19.413229000000001
#
# number of rings (size 3 to 8) (size 9 to 14) (size 15 to 20)
#    0.000    2.333    0.000    4.000    0.000    5.333 
#    0.000   11.667    0.000    0.000    0.000    0.000 
#    0.000    0.000    0.000    0.000    0.000    0.000 
#
# Total GULP energy -297618.204499 kJ/mol
# GULP energy per Si atom -12400.758521 kJ/mol
# Density = 1.936904 g / cm^3
# Si number density = 19.413229 Si / 1000 Ang^3
#
#
#
# Elastic Constant Matrix: (Units=GPa)
#
#
# Indices 1 2 3 4 5 6 
#
# 1 58.0589 19.2716 21.8262 0.0000 0.0000 0.0000
# 2 19.2716 53.1711 32.8052 0.0000 0.0000 0.0000
# 3 21.8262 32.8052 65.3326 0.0000 0.0000 0.0000
# 4 0.0000 0.0000 0.0000 24.6248 0.0000 0.0000
# 5 0.0000 0.0000 0.0000 0.0000 17.3393 0.0000
# 6 0.0000 0.0000 0.0000 0.0000 0.0000 32.1839
#
#
#
# Elastic Compliance Matrix: (Units=1/GPa)
#
#
# Indices 1 2 3 4 5 6 
#
# 1 0.020456 -0.004633 -0.004508 0.000000 0.000000 0.000000
# 2 -0.004633 0.028298 -0.012661 0.000000 0.000000 0.000000
# 3 -0.004508 -0.012661 0.023170 0.000000 0.000000 0.000000
# 4 0.000000 0.000000 0.000000 0.040610 0.000000 0.000000
# 5 0.000000 0.000000 0.000000 0.000000 0.057673 0.000000
# 6 0.000000 0.000000 0.000000 0.000000 0.000000 0.031071
#
#
# Mechanical properties :
#
#
# Convention : Reuss Voigt Hill
#
# Bulk Modulus (GPa) = 35.31078 36.04096 35.67587
# Shear Modulus (GPa) = 19.66008 21.67355 20.66681
#
# Velocity S-wave (km/s) = 3.18577 3.34493 3.26632
# Velocity P-wave (km/s) = 5.63566 5.78995 5.71333
#
# Compressibility (1/GPa) = 0.02831997
#
# Stress axis : x y z
#
# Youngs Moduli (GPa) = 48.88461 35.33777 43.15962
#
# Poissons Ratio (x) = 0.16373 0.19454
# Poissons Ratio (y) = 0.22649 0.54646
# Poissons Ratio (z) = 0.22035 0.44743
#
# Static dielectric constant tensor:
#      x y z
#    x 3.247450 0.000000 0.000000 
#    y 0.000000 3.672970 0.000000 
#    z 0.000000 0.000000 3.791440 
# 
# 
# High freq. dielectric constant tensor:
#      x y z
#    x 1.730760 0.000000 0.000000 
#    y 0.000000 1.754200 0.000000 
#    z 0.000000 0.000000 1.768500 
# 
# From -- ./inp_files/13887.got.cif
#   From: 2010.03.12/outbox.cif.g09.slc.cpg/sg46_7_cif.got.tgz:13887.got - 2010.04.14 02:56:35.
