data_PCOD8192905
_publ_section_title
;
Structure prediction by ZEFSAII (Michael W. Deem and Ramdas Pophale) SiO2 
 PCOD8192905
Probable space group: I M A 2
;
_chemical_formula_sum "Si O2"
_cell_formula_units_Z 60
_cell_length_a 9.011126
_cell_length_b 29.757784
_cell_length_c 10.925908
_cell_angle_alpha 90.000000
_cell_angle_beta 90.000000
_cell_angle_gamma 90.000000
_cell_volume 2929.794698
_symmetry_space_group_name_H-M "I M A 2"
_symmetry_group_IT_number 46
_symmetry_cell_setting 'orthorhombic'
loop_
_space_group_symop_operation_xyz
x,y,z
-x,-y,z
1/2-x,y,z
1/2+x,-y,z
1/2+x,1/2+y,1/2+z
1/2-x,1/2-y,1/2+z
-x,1/2+y,1/2+z
x,1/2-y,1/2+z
loop_
_atom_site_type_symbol
_atom_site_label
_atom_site_fract_x
_atom_site_fract_y
_atom_site_fract_z
Si Si1 0.573493 0.879135 0.759100
Si Si2 0.078868 0.334624 0.641995
Si Si3 0.077794 0.692788 0.402368
Si Si4 0.500000 0.500000 0.629116
Si Si5 0.579699 0.205490 0.359700
Si Si6 0.087438 0.078320 0.289977
Si Si7 0.416261 0.957526 0.892064
Si Si8 0.922239 0.116984 0.505641
O O1 0.750000 0.880068 0.764557
O O2 0.512976 0.829213 0.789839
O O3 0.509477 0.913013 0.861721
O O4 0.517658 0.893506 0.625594
O O5 0.250000 0.325793 0.607355
O O6 0.048908 0.384498 0.689325
O O7 0.975471 0.330205 0.525567
O O8 0.028325 0.299202 0.744453
O O9 0.250000 0.682318 0.380348
O O10 0.047432 0.745736 0.415221
O O11 0.594416 0.530783 0.720939
O O12 0.594624 0.467110 0.539217
O O13 0.750000 0.200842 0.315577
O O14 0.544143 0.167887 0.461701
O O15 0.250000 0.087811 0.346300
O O16 0.969581 0.081371 0.400631
O O17 0.250000 0.952825 0.839393
O O18 0.500000 0.000000 0.828535
O O19 0.750000 0.109731 0.535325
#
# Coordination Sequence:
#
# PCOD8192905 Si02
#       8
#     8   8   8   4   8   8   8   8
#     4  12  25  42  63  91 126 166 208 257 311 367
#     4  10  21  37  60  89 123 156 197 253 308 366
#     4  11  23  38  61  90 122 163 208 255 305 366
#     4  10  22  36  68  94 128 156 204 250 306 362
#     4   9  21  40  61  86 120 163 206 253 306 363
#     4  10  21  40  62  89 123 160 199 249 307 362
#     4  10  22  40  65  94 125 163 203 253 309 368
#     4  10  22  42  65  89 122 163 208 254 306 372
#
# _framework density 20.47925
#
# number of rings (size 3 to 8) (size 9 to 14) (size 15 to 20)
#    0.400    1.333    0.000    4.000    1.867    4.267 
#    1.200    0.000    0.000    0.000    0.000    0.000 
#    0.000    0.000    0.000    0.000    0.000    0.000 
#
# Total GULP energy -371956.960103 kJ/mol
# GULP energy per Si atom -12398.565337 kJ/mol
# Density = 2.043264 g / cm^3
# Si number density = 20.479250 Si / 1000 Ang^3
#
#
#
# Elastic Constant Matrix: (Units=GPa)
#
#
# Indices 1 2 3 4 5 6 
#
# 1 131.8028 43.5630 47.5308 -0.0004 0.0000 -0.0001
# 2 43.5630 90.9871 45.8419 -0.0008 0.0000 -0.0002
# 3 47.5308 45.8419 102.1101 -0.0031 0.0010 -0.0003
# 4 -0.0004 -0.0008 -0.0031 20.9305 0.0003 -0.0001
# 5 0.0000 0.0000 0.0010 0.0003 35.3481 -0.0004
# 6 -0.0001 -0.0002 -0.0003 -0.0001 -0.0004 24.2200
#
#
#
# Elastic Compliance Matrix: (Units=1/GPa)
#
#
# Indices 1 2 3 4 5 6 
#
# 1 0.009741 -0.003075 -0.003154 0.000000 0.000000 0.000000
# 2 -0.003075 0.015174 -0.005381 0.000000 0.000000 0.000000
# 3 -0.003154 -0.005381 0.013677 0.000002 0.000000 0.000000
# 4 0.000000 0.000000 0.000002 0.047777 0.000000 0.000000
# 5 0.000000 0.000000 0.000000 0.000000 0.028290 0.000001
# 6 0.000000 0.000000 0.000000 0.000000 0.000001 0.041288
#
#
# Mechanical properties :
#
#
# Convention : Reuss Voigt Hill
#
# Bulk Modulus (GPa) = 65.05037 66.53015 65.79026
# Shear Modulus (GPa) = 27.13115 28.63067 27.88091
#
# Velocity S-wave (km/s) = 3.64374 3.74308 3.69375
# Velocity P-wave (km/s) = 7.03815 7.15808 7.09836
#
# Compressibility (1/GPa) = 0.01537270
#
# Stress axis : x y z
#
# Youngs Moduli (GPa) = 102.66274 65.90325 73.11461
#
# Poissons Ratio (x) = 0.20263 0.23059
# Poissons Ratio (y) = 0.31566 0.39343
# Poissons Ratio (z) = 0.32377 0.35462
#
# Static dielectric constant tensor:
#      x y z
#    x 3.689540 0.000000 0.000000 
#    y 0.000000 3.725530 0.000000 
#    z 0.000000 0.000000 3.553380 
# 
# 
# High freq. dielectric constant tensor:
#      x y z
#    x 1.806090 0.000000 0.000000 
#    y 0.000000 1.798790 0.000000 
#    z 0.000000 0.000000 1.790160 
# 
# From -- ./inp_files/9647.got.cif
#   From: 2010.03.12/outbox.cif.g09.slc.cpg/sg46_5_cif.got.tgz:9647.got - 2010.04.14 02:56:35.
