data_PCOD8192125
_publ_section_title
;
Structure prediction by ZEFSAII (Michael W. Deem and Ramdas Pophale) SiO2 
 PCOD8192125
Probable space group: I M A 2
;
_chemical_formula_sum "Si O2"
_cell_formula_units_Z 60
_cell_length_a 20.576856
_cell_length_b 12.193799
_cell_length_c 12.618035
_cell_angle_alpha 90.000000
_cell_angle_beta 90.000000
_cell_angle_gamma 90.000000
_cell_volume 3165.991744
_symmetry_space_group_name_H-M "I M A 2"
_symmetry_group_IT_number 46
_symmetry_cell_setting 'orthorhombic'
loop_
_space_group_symop_operation_xyz
x,y,z
-x,-y,z
1/2-x,y,z
1/2+x,-y,z
1/2+x,1/2+y,1/2+z
1/2-x,1/2-y,1/2+z
-x,1/2+y,1/2+z
x,1/2-y,1/2+z
loop_
_atom_site_type_symbol
_atom_site_label
_atom_site_fract_x
_atom_site_fract_y
_atom_site_fract_z
Si Si1 0.393010 0.151278 0.274860
Si Si2 0.000000 0.000000 0.998702
Si Si3 0.558756 0.087684 0.600828
Si Si4 0.025368 0.669722 0.667557
Si Si5 0.826532 0.541216 0.196827
Si Si6 0.609178 0.636370 0.397819
Si Si7 0.677639 0.764210 0.094349
Si Si8 0.569322 0.057014 0.364361
O O1 0.450622 0.139179 0.189736
O O2 0.415572 0.248232 0.352187
O O3 0.327832 0.177974 0.209539
O O4 0.379037 0.039988 0.340163
O O5 0.040733 0.910898 0.068641
O O6 0.951295 0.942291 0.916937
O O7 0.532223 0.203187 0.640772
O O8 0.582060 0.107040 0.479618
O O9 0.500000 0.000000 0.612194
O O10 0.623317 0.055703 0.667159
O O11 0.071436 0.646505 0.769841
O O12 0.750000 0.506736 0.188597
O O13 0.839861 0.579386 0.317645
O O14 0.843905 0.637772 0.112496
O O15 0.638272 0.665879 0.510868
O O16 0.750000 0.766422 0.052625
O O17 0.500000 0.000000 0.362264
#
# Coordination Sequence:
#
# PCOD8192125 Si02
#       8
#     8   4   8   8   8   8   8   8
#     4  10  19  35  54  79 118 149 192 241 296 362
#     4  12  24  36  60  92 124 162 192 260 312 360
#     4  11  23  36  61  89 117 157 205 248 301 356
#     4  11  21  37  55  84 121 151 193 248 298 356
#     4  10  23  40  57  87 126 159 203 255 301 358
#     4  11  22  33  59  88 122 156 199 241 314 358
#     4  10  19  35  57  82 117 160 199 246 304 364
#     4   9  19  35  55  81 117 152 185 242 304 348
#
# _framework density 18.951407
#
# number of rings (size 3 to 8) (size 9 to 14) (size 15 to 20)
#    0.000    1.600    3.333    2.800    8.400    0.533 
#    0.000    0.667    0.000    6.400    0.000    0.000 
#    0.000    0.000    0.000    0.000    0.000    0.000 
#
# Total GULP energy -371803.032974 kJ/mol
# GULP energy per Si atom -12393.434432 kJ/mol
# Density = 1.890827 g / cm^3
# Si number density = 18.951407 Si / 1000 Ang^3
#
#
#
# Elastic Constant Matrix: (Units=GPa)
#
#
# Indices 1 2 3 4 5 6 
#
# 1 59.8208 23.0605 25.2483 0.0000 0.0000 0.0000
# 2 23.0605 98.3968 38.7209 0.0000 0.0000 0.0000
# 3 25.2483 38.7209 98.5557 0.0000 0.0000 0.0000
# 4 0.0000 0.0000 0.0000 36.2036 0.0000 0.0000
# 5 0.0000 0.0000 0.0000 0.0000 16.5414 0.0000
# 6 0.0000 0.0000 0.0000 0.0000 0.0000 22.5780
#
#
#
# Elastic Compliance Matrix: (Units=1/GPa)
#
#
# Indices 1 2 3 4 5 6 
#
# 1 0.019502 -0.003081 -0.003786 0.000000 0.000000 0.000000
# 2 -0.003081 0.012508 -0.004125 0.000000 0.000000 0.000000
# 3 -0.003786 -0.004125 0.012737 0.000000 0.000000 0.000000
# 4 0.000000 0.000000 0.000000 0.027622 0.000000 0.000000
# 5 0.000000 0.000000 0.000000 0.000000 0.060454 0.000000
# 6 0.000000 0.000000 0.000000 0.000000 0.000000 0.044291
#
#
# Mechanical properties :
#
#
# Convention : Reuss Voigt Hill
#
# Bulk Modulus (GPa) = 43.92856 47.87033 45.89944
# Shear Modulus (GPa) = 24.19137 26.38084 25.28611
#
# Velocity S-wave (km/s) = 3.57668 3.73503 3.65672
# Velocity P-wave (km/s) = 6.34719 6.62684 6.48852
#
# Compressibility (1/GPa) = 0.02276424
#
# Stress axis : x y z
#
# Youngs Moduli (GPa) = 51.27669 79.94740 78.51120
#
# Poissons Ratio (x) = 0.24630 0.29722
# Poissons Ratio (y) = 0.15797 0.32386
# Poissons Ratio (z) = 0.19412 0.32979
#
# Static dielectric constant tensor:
#      x y z
#    x 3.252600 0.000000 0.000000 
#    y 0.000000 3.568970 0.000000 
#    z 0.000000 0.000000 3.764290 
# 
# 
# High freq. dielectric constant tensor:
#      x y z
#    x 1.698600 0.000000 0.000000 
#    y 0.000000 1.728590 0.000000 
#    z 0.000000 0.000000 1.755670 
# 
# From -- ./inp_files/12456.got.cif
#   From: 2010.03.12/outbox.cif.g09.slc.cpg/sg46_7_cif.got.tgz:12456.got - 2010.04.14 02:56:35.
