data_PCOD8192473
_publ_section_title
;
Structure prediction by ZEFSAII (Michael W. Deem and Ramdas Pophale) SiO2 
 PCOD8192473
Probable space group: I M A 2
;
_chemical_formula_sum "Si O2"
_cell_formula_units_Z 64
_cell_length_a 8.716327
_cell_length_b 20.270808
_cell_length_c 19.609912
_cell_angle_alpha 90.000000
_cell_angle_beta 90.000000
_cell_angle_gamma 90.000000
_cell_volume 3464.816347
_symmetry_space_group_name_H-M "I M A 2"
_symmetry_group_IT_number 46
_symmetry_cell_setting 'orthorhombic'
loop_
_space_group_symop_operation_xyz
x,y,z
-x,-y,z
1/2-x,y,z
1/2+x,-y,z
1/2+x,1/2+y,1/2+z
1/2-x,1/2-y,1/2+z
-x,1/2+y,1/2+z
x,1/2-y,1/2+z
loop_
_atom_site_type_symbol
_atom_site_label
_atom_site_fract_x
_atom_site_fract_y
_atom_site_fract_z
Si Si1 0.931412 0.676827 0.627350
Si Si2 0.069788 0.931713 0.872887
Si Si3 0.428047 0.068842 0.370076
Si Si4 0.569697 0.318218 0.120471
Si Si5 0.067875 0.825877 0.271544
Si Si6 0.068970 0.569411 0.529850
Si Si7 0.928285 0.569131 0.029559
Si Si8 0.569987 0.178646 0.773980
O O1 0.750000 0.676233 0.632010
O O2 0.987493 0.749182 0.605804
O O3 0.999600 0.652155 0.699124
O O4 0.987632 0.627406 0.569848
O O5 0.250000 0.936225 0.862265
O O6 0.996393 0.873241 0.826926
O O7 0.026683 0.918355 0.951042
O O8 0.000000 0.000000 0.846593
O O9 0.250000 0.068557 0.351200
O O10 0.512245 0.127329 0.331413
O O11 0.456777 0.080136 0.449753
O O12 0.500000 0.000000 0.345758
O O13 0.750000 0.306885 0.111473
O O14 0.512403 0.371994 0.067560
O O15 0.529437 0.342656 0.196791
O O16 0.250000 0.828127 0.265509
O O17 0.007148 0.752191 0.288625
O O18 0.250000 0.569862 0.542998
O O19 0.000000 0.500000 0.554827
O O20 0.750000 0.568994 0.048342
O O21 0.000000 0.500000 0.053664
O O22 0.750000 0.179592 0.785569
#
# Coordination Sequence:
#
# PCOD8192473 Si02
#       8
#     8   8   8   8   8   8   8   8
#     4  11  22  37  56  79 109 142 179 224 272 323
#     4   9  18  34  54  77 106 138 173 214 260 310
#     4  10  21  37  56  80 109 141 178 221 269 322
#     4  10  20  36  57  80 109 144 183 225 270 322
#     4  10  20  36  57  80 107 140 179 221 267 320
#     4  10  20  35  55  79 107 140 178 220 267 320
#     4  10  21  37  56  80 111 145 183 226 272 324
#     4   8  17  34  54  77 105 138 175 215 260 313
#
# _framework density 18.471398000000001
#
# number of rings (size 3 to 8) (size 9 to 14) (size 15 to 20)
#    0.000    2.250    0.000    3.750    0.000    4.000 
#    0.000    8.750    0.000    0.000    0.000    0.000 
#    0.000    0.000    0.000    0.000    0.000    0.000 
#
# Total GULP energy -396861.458850 kJ/mol
# GULP energy per Si atom -12401.920589 kJ/mol
# Density = 1.842936 g / cm^3
# Si number density = 18.471398 Si / 1000 Ang^3
#
#
#
# Elastic Constant Matrix: (Units=GPa)
#
#
# Indices 1 2 3 4 5 6 
#
# 1 98.5545 50.7325 43.1134 0.0000 0.0000 0.0000
# 2 50.7325 121.1551 70.0113 0.0000 0.0000 0.0000
# 3 43.1134 70.0113 78.6325 -0.0001 0.0000 0.0000
# 4 0.0000 0.0000 -0.0001 25.6403 0.0000 0.0000
# 5 0.0000 0.0000 0.0000 0.0000 27.5729 0.0000
# 6 0.0000 0.0000 0.0000 0.0000 0.0000 35.5939
#
#
#
# Elastic Compliance Matrix: (Units=1/GPa)
#
#
# Indices 1 2 3 4 5 6 
#
# 1 0.013827 -0.002902 -0.004997 0.000000 0.000000 0.000000
# 2 -0.002902 0.017610 -0.014088 0.000000 0.000000 0.000000
# 3 -0.004997 -0.014088 0.028001 0.000000 0.000000 0.000000
# 4 0.000000 0.000000 0.000000 0.039001 0.000000 0.000000
# 5 0.000000 0.000000 0.000000 0.000000 0.036267 0.000000
# 6 0.000000 0.000000 0.000000 0.000000 0.000000 0.028095
#
#
# Mechanical properties :
#
#
# Convention : Reuss Voigt Hill
#
# Bulk Modulus (GPa) = 64.67123 69.56184 67.11654
# Shear Modulus (GPa) = 23.59268 26.72708 25.15988
#
# Velocity S-wave (km/s) = 3.57775 3.80800 3.69467
# Velocity P-wave (km/s) = 7.22181 7.55483 7.39020
#
# Compressibility (1/GPa) = 0.01546283
#
# Stress axis : x y z
#
# Youngs Moduli (GPa) = 72.32448 56.78505 35.71317
#
# Poissons Ratio (x) = 0.16480 0.17846
# Poissons Ratio (y) = 0.20990 0.50314
# Poissons Ratio (z) = 0.36141 0.80000
#
# Static dielectric constant tensor:
#      x y z
#    x 3.405300 0.000000 0.000000 
#    y 0.000000 3.593480 0.000000 
#    z 0.000000 0.000000 3.442820 
# 
# 
# High freq. dielectric constant tensor:
#      x y z
#    x 1.719180 0.000000 0.000000 
#    y 0.000000 1.725540 0.000000 
#    z 0.000000 0.000000 1.715890 
# 
# From -- ./inp_files/18544.got.cif
#   From: 2010.03.12/outbox.cif.g09.slc.cpg/sg46_10_cif.got.tgz:18544.got - 2010.04.14 02:56:35.
