data_PCOD8192034
_publ_section_title
;
Structure prediction by ZEFSAII (Michael W. Deem and Ramdas Pophale) SiO2 
 PCOD8192034
Probable space group: I M A 2
;
_chemical_formula_sum "Si O2"
_cell_formula_units_Z 64
_cell_length_a 8.968494
_cell_length_b 20.772395
_cell_length_c 19.315549
_cell_angle_alpha 90.000000
_cell_angle_beta 90.000000
_cell_angle_gamma 90.000000
_cell_volume 3598.430762
_symmetry_space_group_name_H-M "I M A 2"
_symmetry_group_IT_number 46
_symmetry_cell_setting 'orthorhombic'
loop_
_space_group_symop_operation_xyz
x,y,z
-x,-y,z
1/2-x,y,z
1/2+x,-y,z
1/2+x,1/2+y,1/2+z
1/2-x,1/2-y,1/2+z
-x,1/2+y,1/2+z
x,1/2-y,1/2+z
loop_
_atom_site_type_symbol
_atom_site_label
_atom_site_fract_x
_atom_site_fract_y
_atom_site_fract_z
Si Si1 0.076320 0.125268 0.775460
Si Si2 0.574591 0.116998 0.635277
Si Si3 0.926293 0.811096 0.000697
Si Si4 0.577429 0.565344 0.419925
Si Si5 0.925889 0.935768 0.502210
Si Si6 0.425572 0.188326 0.413934
Si Si7 0.579262 0.233889 0.131063
Si Si8 0.075447 0.740096 0.786742
O O1 0.250000 0.133119 0.757227
O O2 0.050569 0.076540 0.838591
O O3 0.988248 0.096408 0.710094
O O4 0.013800 0.194193 0.798644
O O5 0.750000 0.103541 0.633464
O O6 0.493022 0.074679 0.578171
O O7 0.535698 0.191481 0.622558
O O8 0.750000 0.811451 0.000222
O O9 0.989837 0.874977 0.963750
O O10 0.983757 0.748035 0.959987
O O11 0.981212 0.809190 0.079798
O O12 0.500000 0.500000 0.444178
O O13 0.750000 0.558447 0.437124
O O14 0.750000 0.944261 0.508609
O O15 0.969274 0.877179 0.452365
O O16 0.000000 0.000000 0.470543
O O17 0.250000 0.193032 0.399579
O O18 0.513926 0.188203 0.341359
O O19 0.750000 0.222961 0.111042
O O20 0.546801 0.212193 0.209815
O O21 0.250000 0.754090 0.797473
#
# Coordination Sequence:
#
# PCOD8192034 Si02
#       8
#     8   8   8   8   8   8   8   8
#     4  10  19  34  53  75 109 149 185 223 265 317
#     4  10  20  34  52  79 112 144 184 225 264 322
#     4  10  19  35  56  80 106 137 179 224 266 317
#     4  10  22  37  53  76 107 141 179 221 265 317
#     4  11  23  38  56  79 109 147 184 224 275 329
#     4  10  20  36  57  81 108 140 182 225 273 325
#     4   9  19  33  51  81 112 138 173 219 268 318
#     4  10  20  33  53  83 113 140 177 225 275 321
#
# _framework density 17.785530999999999
#
# number of rings (size 3 to 8) (size 9 to 14) (size 15 to 20)
#    0.000    2.000    2.500    2.250    0.000    6.000 
#    0.000    1.250    0.000    0.750    0.000    0.000 
#    0.000    0.000    0.000    0.000    0.000    0.000 
#
# Total GULP energy -396888.140708 kJ/mol
# GULP energy per Si atom -12402.754397 kJ/mol
# Density = 1.774505 g / cm^3
# Si number density = 17.785531 Si / 1000 Ang^3
#
#
#
# Elastic Constant Matrix: (Units=GPa)
#
#
# Indices 1 2 3 4 5 6 
#
# 1 61.9391 44.3073 38.0491 0.0000 0.0000 0.0000
# 2 44.3073 116.6979 57.6990 0.0000 0.0000 0.0000
# 3 38.0491 57.6990 97.6252 0.0000 0.0000 0.0000
# 4 0.0000 0.0000 0.0000 22.5473 0.0000 0.0000
# 5 0.0000 0.0000 0.0000 0.0000 33.1246 0.0000
# 6 0.0000 0.0000 0.0000 0.0000 0.0000 28.8642
#
#
#
# Elastic Compliance Matrix: (Units=1/GPa)
#
#
# Indices 1 2 3 4 5 6 
#
# 1 0.024186 -0.006389 -0.005650 0.000000 0.000000 0.000000
# 2 -0.006389 0.013795 -0.005663 0.000000 0.000000 0.000000
# 3 -0.005650 -0.005663 0.015792 0.000000 0.000000 0.000000
# 4 0.000000 0.000000 0.000000 0.044351 0.000000 0.000000
# 5 0.000000 0.000000 0.000000 0.000000 0.030189 0.000000
# 6 0.000000 0.000000 0.000000 0.000000 0.000000 0.034645
#
#
# Mechanical properties :
#
#
# Convention : Reuss Voigt Hill
#
# Bulk Modulus (GPa) = 54.44078 61.81921 58.12999
# Shear Modulus (GPa) = 24.45143 25.98766 25.21955
#
# Velocity S-wave (km/s) = 3.71184 3.82667 3.76969
# Velocity P-wave (km/s) = 7.00331 7.37280 7.19043
#
# Compressibility (1/GPa) = 0.01836858
#
# Stress axis : x y z
#
# Youngs Moduli (GPa) = 41.34562 72.49045 63.32158
#
# Poissons Ratio (x) = 0.46316 0.35779
# Poissons Ratio (y) = 0.26417 0.35859
# Poissons Ratio (z) = 0.23362 0.41051
#
# Static dielectric constant tensor:
#      x y z
#    x 3.250500 0.000000 0.000000 
#    y 0.000000 3.179360 0.000000 
#    z 0.000000 0.000000 3.330830 
# 
# 
# High freq. dielectric constant tensor:
#      x y z
#    x 1.692580 0.000000 0.000000 
#    y 0.000000 1.664980 0.000000 
#    z 0.000000 0.000000 1.688590 
# 
# From -- ./inp_files/18573.got.cif
#   From: 2010.03.12/outbox.cif.g09.slc.cpg/sg46_10_cif.got.tgz:18573.got - 2010.04.14 02:56:35.
