data_PCOD8192062
_publ_section_title
;
Structure prediction by ZEFSAII (Michael W. Deem and Ramdas Pophale) SiO2 
 PCOD8192062
Probable space group: I M A 2
;
_chemical_formula_sum "Si O2"
_cell_formula_units_Z 40
_cell_length_a 8.838880
_cell_length_b 13.510174
_cell_length_c 18.432961
_cell_angle_alpha 90.000000
_cell_angle_beta 90.000000
_cell_angle_gamma 90.000000
_cell_volume 2201.168476
_symmetry_space_group_name_H-M "I M A 2"
_symmetry_group_IT_number 46
_symmetry_cell_setting 'orthorhombic'
loop_
_space_group_symop_operation_xyz
x,y,z
-x,-y,z
1/2-x,y,z
1/2+x,-y,z
1/2+x,1/2+y,1/2+z
1/2-x,1/2-y,1/2+z
-x,1/2+y,1/2+z
x,1/2-y,1/2+z
loop_
_atom_site_type_symbol
_atom_site_label
_atom_site_fract_x
_atom_site_fract_y
_atom_site_fract_z
Si Si1 0.572183 0.105606 0.612680
Si Si2 0.071006 0.607441 0.819002
Si Si3 0.574209 0.285997 0.966076
Si Si4 0.571151 0.789493 0.181761
Si Si5 0.927069 0.604710 0.534167
O O1 0.750000 0.102323 0.627966
O O2 0.535369 0.138070 0.530588
O O3 0.494132 0.180512 0.668596
O O4 0.500000 0.000000 0.627298
O O5 0.250000 0.597279 0.812335
O O6 0.021508 0.663392 0.891939
O O7 0.000000 0.500000 0.819534
O O8 0.007851 0.668884 0.752410
O O9 0.750000 0.258975 0.965517
O O10 0.483691 0.184089 0.975389
O O11 0.750000 0.783910 0.192777
O O12 0.526575 0.860361 0.114730
O O13 0.750000 0.593769 0.526048
O O14 0.000000 0.500000 0.516636
#
# Coordination Sequence:
#
# PCOD8192062 Si02
#       5
#     8   8   8   8   8
#     4  10  19  34  56  80 107 140 176 218 263 311
#     4  11  22  36  55  80 109 141 174 214 263 314
#     4   9  20  36  54  78 108 139 175 216 260 311
#     4  10  21  36  54  79 108 140 178 219 262 312
#     4  10  20  34  55  79 105 138 176 217 262 310
#
# _framework density 18.172166000000001
#
# number of rings (size 3 to 8) (size 9 to 14) (size 15 to 20)
#    0.000    2.000    0.000    3.600    0.000    6.400 
#    0.000    1.000    0.000    4.800    0.000    0.000 
#    0.000    0.000    0.000    0.000    0.000    0.000 
#
# Total GULP energy -248095.131988 kJ/mol
# GULP energy per Si atom -12404.756599 kJ/mol
# Density = 1.813080 g / cm^3
# Si number density = 18.172166 Si / 1000 Ang^3
#
#
#
# Elastic Constant Matrix: (Units=GPa)
#
#
# Indices 1 2 3 4 5 6 
#
# 1 62.3567 53.8278 49.6899 0.0000 0.0000 0.0000
# 2 53.8278 164.6696 78.0397 0.0000 0.0000 0.0000
# 3 49.6899 78.0397 130.6821 0.0000 0.0000 0.0000
# 4 0.0000 0.0000 0.0000 19.1538 0.0000 0.0000
# 5 0.0000 0.0000 0.0000 0.0000 28.2420 0.0000
# 6 0.0000 0.0000 0.0000 0.0000 0.0000 34.5414
#
#
#
# Elastic Compliance Matrix: (Units=1/GPa)
#
#
# Indices 1 2 3 4 5 6 
#
# 1 0.025960 -0.005311 -0.006699 0.000000 0.000000 0.000000
# 2 -0.005311 0.009556 -0.003687 0.000000 0.000000 0.000000
# 3 -0.006699 -0.003687 0.012401 0.000000 0.000000 0.000000
# 4 0.000000 0.000000 0.000000 0.052209 0.000000 0.000000
# 5 0.000000 0.000000 0.000000 0.000000 0.035408 0.000000
# 6 0.000000 0.000000 0.000000 0.000000 0.000000 0.028951
#
#
# Mechanical properties :
#
#
# Convention : Reuss Voigt Hill
#
# Bulk Modulus (GPa) = 60.52399 80.09148 70.30774
# Shear Modulus (GPa) = 24.82771 28.13084 26.47927
#
# Velocity S-wave (km/s) = 3.70029 3.93875 3.82138
# Velocity P-wave (km/s) = 7.18571 8.05323 7.63180
#
# Compressibility (1/GPa) = 0.01652237
#
# Stress axis : x y z
#
# Youngs Moduli (GPa) = 38.52130 104.64279 80.63574
#
# Poissons Ratio (x) = 0.55575 0.54020
# Poissons Ratio (y) = 0.20458 0.29733
# Poissons Ratio (z) = 0.25806 0.38586
#
# Static dielectric constant tensor:
#      x y z
#    x 3.462310 0.000000 0.000000 
#    y 0.000000 3.410110 0.000000 
#    z 0.000000 0.000000 3.426740 
# 
# 
# High freq. dielectric constant tensor:
#      x y z
#    x 1.718630 0.000000 0.000000 
#    y 0.000000 1.713850 0.000000 
#    z 0.000000 0.000000 1.695020 
# 
# From -- ./inp_files/13648.got.cif
#   From: 2010.03.12/outbox.cif.g09.slc.cpg/sg46_7_cif.got.tgz:13648.got - 2010.04.14 02:56:35.
