data_PCOD8192304
_publ_section_title
;
Structure prediction by ZEFSAII (Michael W. Deem and Ramdas Pophale) SiO2 
 PCOD8192304
Probable space group: I M A 2
;
_chemical_formula_sum "Si O2"
_cell_formula_units_Z 64
_cell_length_a 8.951184
_cell_length_b 18.708791
_cell_length_c 20.914837
_cell_angle_alpha 90.000000
_cell_angle_beta 90.000000
_cell_angle_gamma 90.000000
_cell_volume 3502.520551
_symmetry_space_group_name_H-M "I M A 2"
_symmetry_group_IT_number 46
_symmetry_cell_setting 'orthorhombic'
loop_
_space_group_symop_operation_xyz
x,y,z
-x,-y,z
1/2-x,y,z
1/2+x,-y,z
1/2+x,1/2+y,1/2+z
1/2-x,1/2-y,1/2+z
-x,1/2+y,1/2+z
x,1/2-y,1/2+z
loop_
_atom_site_type_symbol
_atom_site_label
_atom_site_fract_x
_atom_site_fract_y
_atom_site_fract_z
Si Si1 0.076525 0.830302 0.614420
Si Si2 0.085095 0.159681 0.488182
Si Si3 0.429365 0.325859 0.343419
Si Si4 0.424719 0.923479 0.736694
Si Si5 0.571341 0.819861 0.118095
Si Si6 0.572863 0.924116 0.229923
Si Si7 0.927725 0.664277 0.849505
Si Si8 0.586721 0.829018 0.981817
O O1 0.250000 0.812325 0.608834
O O2 0.042327 0.888963 0.668020
O O3 0.021088 0.862838 0.546736
O O4 0.991512 0.758209 0.633952
O O5 0.250000 0.125967 0.499606
O O6 0.016375 0.135874 0.419192
O O7 0.101775 0.244132 0.483435
O O8 0.250000 0.331950 0.339457
O O9 0.505622 0.374772 0.291424
O O10 0.483215 0.244249 0.332445
O O11 0.489252 0.351155 0.414350
O O12 0.250000 0.931595 0.749816
O O13 0.500000 0.000000 0.738754
O O14 0.750000 0.812589 0.114952
O O15 0.518202 0.873931 0.172309
O O16 0.507115 0.849686 0.049297
O O17 0.750000 0.931773 0.230469
O O18 0.512450 0.889884 0.295768
O O19 0.500000 0.000000 0.219368
O O20 0.750000 0.666091 0.850955
O O21 0.750000 0.864737 0.981899
#
# Coordination Sequence:
#
# PCOD8192304 Si02
#       8
#     8   8   8   8   8   8   8   8
#     4  10  20  33  51  77 103 123 155 207 255 291
#     4   8  14  28  51  75  99 128 162 197 237 292
#     4   9  16  31  56  78  97 123 158 203 249 292
#     4  11  24  38  50  69  99 132 166 204 246 294
#     4   9  17  32  55  77  98 131 170 200 236 294
#     4  10  20  33  49  71 101 136 172 206 241 285
#     4   8  15  30  53  78 100 128 167 203 238 290
#     4   7  12  25  48  77 100 119 152 198 241 284
#
# _framework density 18.272555000000001
#
# number of rings (size 3 to 8) (size 9 to 14) (size 15 to 20)
#    0.000    3.000    0.000    3.750    0.000    3.500 
#    0.000    8.125    0.000    4.500    0.000    0.000 
#    0.000    0.000    0.000    0.000    0.000    0.000 
#
# Total GULP energy -396475.389058 kJ/mol
# GULP energy per Si atom -12389.855908 kJ/mol
# Density = 1.823097 g / cm^3
# Si number density = 18.272555 Si / 1000 Ang^3
#
#
#
# Elastic Constant Matrix: (Units=GPa)
#
#
# Indices 1 2 3 4 5 6 
#
# 1 31.8834 -15.1255 -9.4551 0.0000 0.0000 0.0000
# 2 -15.1255 -63.3377 -106.8425 0.0000 0.0000 0.0000
# 3 -9.4551 -106.8425 -21.7923 0.0000 0.0000 0.0000
# 4 0.0000 0.0000 0.0000 0.5000 0.0000 0.0000
# 5 0.0000 0.0000 0.0000 0.0000 21.1972 0.0000
# 6 0.0000 0.0000 0.0000 0.0000 0.0000 21.8150
#
#
#
# Elastic Compliance Matrix: (Units=1/GPa)
#
#
# Indices 1 2 3 4 5 6 
#
# 1 0.029527 -0.002003 -0.002993 0.000000 0.000000 0.000000
# 2 -0.002003 0.002307 -0.010444 0.000000 0.000000 0.000000
# 3 -0.002993 -0.010444 0.006615 0.000000 0.000000 0.000000
# 4 0.000000 0.000000 0.000000 1.999928 0.000000 0.000000
# 5 0.000000 0.000000 0.000000 0.000000 0.047176 0.000000
# 6 0.000000 0.000000 0.000000 0.000000 0.000000 0.045840
#
#
# Mechanical properties :
#
#
# Convention : Reuss Voigt Hill
#
# Bulk Modulus (GPa) = 132.09359 -35.12141 48.48609
# Shear Modulus (GPa) = 2.30969 13.91421 8.11195
#
# Velocity S-wave (km/s) = 1.12551 2.76249 2.10928
# Velocity P-wave (km/s) = 8.61027 3.01454 5.70303
#
# Compressibility (1/GPa) = 0.00757039
#
# Stress axis : x y z
#
# Youngs Moduli (GPa) = 33.86764 433.38242 151.17115
#
# Poissons Ratio (x) = 0.86786 0.45244
# Poissons Ratio (y) = 0.06782 1.57882
# Poissons Ratio (z) = 0.10136 4.52623
#
# Static dielectric constant tensor:
#      x y z
#    x 3.081160 0.000000 0.000000 
#    y 0.000000 3.055220 0.000000 
#    z 0.000000 0.000000 4.152870 
# 
# 
# High freq. dielectric constant tensor:
#      x y z
#    x 1.675370 0.000000 0.000000 
#    y 0.000000 1.672020 0.000000 
#    z 0.000000 0.000000 1.738250 
# 
# From -- ./inp_files/21437.got.cif
#   From: 2010.03.12/outbox.cif.g09.slc.cpg/sg46_11_cif.got.tgz:21437.got - 2010.04.14 02:56:35.
