data_PCOD8192654
_publ_section_title
;
Structure prediction by ZEFSAII (Michael W. Deem and Ramdas Pophale) SiO2 
 PCOD8192654
Probable space group: I M A 2
;
_chemical_formula_sum "Si O2"
_cell_formula_units_Z 56
_cell_length_a 15.909407
_cell_length_b 5.064586
_cell_length_c 34.249563
_cell_angle_alpha 90.000000
_cell_angle_beta 90.000000
_cell_angle_gamma 90.000000
_cell_volume 2759.643468
_symmetry_space_group_name_H-M "I M A 2"
_symmetry_group_IT_number 46
_symmetry_cell_setting 'orthorhombic'
loop_
_space_group_symop_operation_xyz
x,y,z
-x,-y,z
1/2-x,y,z
1/2+x,-y,z
1/2+x,1/2+y,1/2+z
1/2-x,1/2-y,1/2+z
-x,1/2+y,1/2+z
x,1/2-y,1/2+z
loop_
_atom_site_type_symbol
_atom_site_label
_atom_site_fract_x
_atom_site_fract_y
_atom_site_fract_z
Si Si1 0.151438 0.681984 0.229830
Si Si2 0.653593 0.427478 0.977662
Si Si3 0.844583 0.929212 0.926322
Si Si4 0.946423 0.758516 0.851761
Si Si5 0.500000 0.000000 0.533773
Si Si6 0.051952 0.766092 0.156798
Si Si7 0.000000 0.000000 0.083658
Si Si8 0.849736 0.681774 0.775044
O O1 0.250000 0.680748 0.233736
O O2 0.131644 0.702653 0.183737
O O3 0.112763 0.420038 0.249160
O O4 0.113364 0.920738 0.254970
O O5 0.750000 0.383765 0.993581
O O6 0.644166 0.719524 0.960787
O O7 0.633891 0.216441 0.943678
O O8 0.581703 0.397353 0.010286
O O9 0.750000 0.923835 0.909844
O O10 0.905935 0.865732 0.891260
O O11 0.876893 0.686623 0.819926
O O12 0.000000 0.500000 0.861769
O O13 0.000000 0.000000 0.834326
O O14 0.467502 0.253040 0.558306
O O15 0.000000 0.500000 0.150896
O O16 0.073487 0.884668 0.113171
O O17 0.000000 0.000000 0.178728
O O18 0.750000 0.688097 0.774525
#
# Coordination Sequence:
#
# PCOD8192654 Si02
#       8
#     8   8   8   8   4   8   4   8
#     4  10  21  37  60  86 112 153 207 247 290 351
#     4  10  23  40  64  94 118 160 207 243 303 367
#     4  10  22  42  61  84 121 160 201 245 299 360
#     4  12  25  37  57  88 122 153 205 253 299 351
#     4  12  22  40  68  88 127 156 193 254 304 358
#     4  10  20  37  60  81 118 152 187 240 288 366
#     4  10  22  40  60  90 119 158 189 226 312 380
#     4  10  22  39  56  80 119 162 201 245 302 351
#
# _framework density 20.292477000000002
#
# number of rings (size 3 to 8) (size 9 to 14) (size 15 to 20)
#    0.429    1.143    0.714    3.857    3.000    3.429 
#    0.000    7.143    0.000    0.000    0.000    0.000 
#    0.000    0.000    0.000    0.000    0.000    0.000 
#
# Total GULP energy -347005.840927 kJ/mol
# GULP energy per Si atom -12393.065747 kJ/mol
# Density = 2.024629 g / cm^3
# Si number density = 20.292477 Si / 1000 Ang^3
#
#
#
# Elastic Constant Matrix: (Units=GPa)
#
#
# Indices 1 2 3 4 5 6 
#
# 1 55.7178 31.2276 41.8214 0.0000 0.0000 0.0000
# 2 31.2276 133.9340 28.3093 0.0000 0.0000 0.0000
# 3 41.8214 28.3093 100.7955 0.0000 0.0000 0.0000
# 4 0.0000 0.0000 0.0000 6.1349 0.0000 0.0000
# 5 0.0000 0.0000 0.0000 0.0000 0.1376 0.0000
# 6 0.0000 0.0000 0.0000 0.0000 0.0000 19.8687
#
#
#
# Elastic Compliance Matrix: (Units=1/GPa)
#
#
# Indices 1 2 3 4 5 6 
#
# 1 0.028286 -0.004374 -0.010508 0.000000 0.000000 0.000000
# 2 -0.004374 0.008614 -0.000604 0.000000 0.000000 0.000000
# 3 -0.010508 -0.000604 0.014451 0.000000 0.000000 0.000000
# 4 0.000000 0.000000 0.000000 0.163001 0.000000 0.000000
# 5 0.000000 0.000000 0.000000 0.000000 7.265133 0.000000
# 6 0.000000 0.000000 0.000000 0.000000 0.000000 0.050330
#
#
# Mechanical properties :
#
#
# Convention : Reuss Voigt Hill
#
# Bulk Modulus (GPa) = 49.07221 54.79598 51.93409
# Shear Modulus (GPa) = 0.66071 17.83419 9.24745
#
# Velocity S-wave (km/s) = 0.57123 2.96777 2.13705
# Velocity P-wave (km/s) = 4.96689 6.22939 5.63362
#
# Compressibility (1/GPa) = 0.02037813
#
# Stress axis : x y z
#
# Youngs Moduli (GPa) = 35.35292 116.09050 69.20093
#
# Poissons Ratio (x) = 0.50779 0.72715
# Poissons Ratio (y) = 0.15464 0.04183
# Poissons Ratio (z) = 0.37148 0.07017
#
# Static dielectric constant tensor:
#      x y z
#    x 3.496250 0.000000 0.000000 
#    y 0.000000 4.180300 0.000000 
#    z 0.000000 0.000000 3.554280 
# 
# 
# High freq. dielectric constant tensor:
#      x y z
#    x 1.766670 0.000000 0.000000 
#    y 0.000000 1.823180 0.000000 
#    z 0.000000 0.000000 1.788270 
# 
# From -- ./inp_files/25414.got.cif
#   From: 2010.03.12/outbox.cif.g09.slc.cpg/sg46_13_cif.got.tgz:25414.got - 2010.04.14 02:56:35.
