data_PCOD8192338
_publ_section_title
;
Structure prediction by ZEFSAII (Michael W. Deem and Ramdas Pophale) SiO2 
 PCOD8192338
Probable space group: I M A 2
;
_chemical_formula_sum "Si O2"
_cell_formula_units_Z 56
_cell_length_a 8.755738
_cell_length_b 23.874425
_cell_length_c 13.603068
_cell_angle_alpha 90.000000
_cell_angle_beta 90.000000
_cell_angle_gamma 90.000000
_cell_volume 2843.560988
_symmetry_space_group_name_H-M "I M A 2"
_symmetry_group_IT_number 46
_symmetry_cell_setting 'orthorhombic'
loop_
_space_group_symop_operation_xyz
x,y,z
-x,-y,z
1/2-x,y,z
1/2+x,-y,z
1/2+x,1/2+y,1/2+z
1/2-x,1/2-y,1/2+z
-x,1/2+y,1/2+z
x,1/2-y,1/2+z
loop_
_atom_site_type_symbol
_atom_site_label
_atom_site_fract_x
_atom_site_fract_y
_atom_site_fract_z
Si Si1 0.428349 0.440778 0.628300
Si Si2 0.429446 0.376526 0.435511
Si Si3 0.925130 0.341564 0.730761
Si Si4 0.930947 0.441202 0.263643
Si Si5 0.430257 0.441572 0.053441
Si Si6 0.927837 0.276442 0.540806
Si Si7 0.573636 0.339542 0.953012
O O1 0.500000 0.500000 0.652954
O O2 0.250000 0.448167 0.631014
O O3 0.482428 0.418640 0.521900
O O4 0.475889 0.396805 0.711674
O O5 0.250000 0.380153 0.415092
O O6 0.521463 0.392438 0.338025
O O7 0.473703 0.313762 0.466067
O O8 0.750000 0.359075 0.716381
O O9 0.967846 0.292169 0.653782
O O10 0.957374 0.320283 0.840841
O O11 0.750000 0.446257 0.257405
O O12 0.000000 0.500000 0.300979
O O13 0.996677 0.425273 0.157637
O O14 0.500000 0.500000 0.014515
O O15 0.250000 0.448353 0.064940
O O16 0.469244 0.392811 0.976743
O O17 0.750000 0.286213 0.516845
O O18 0.972720 0.211872 0.523691
O O19 0.750000 0.356323 0.968568
#
# Coordination Sequence:
#
# PCOD8192338 Si02
#       7
#     8   8   8   8   8   8   8
#     4  10  20  33  52  78 110 147 186 230 277 327
#     4  10  20  34  53  81 115 150 190 233 279 331
#     4   9  19  36  56  79 110 145 183 228 273 323
#     4  11  21  35  56  82 114 150 188 231 281 336
#     4  11  23  40  60  83 112 145 184 231 281 333
#     4   9  19  36  57  82 113 149 189 231 276 328
#     4  10  21  38  60  85 112 146 187 228 276 334
#
# _framework density 19.693618000000001
#
# number of rings (size 3 to 8) (size 9 to 14) (size 15 to 20)
#    0.000    2.000    0.000    4.714    0.000    5.714 
#    0.000    2.857    0.000    0.000    0.000    0.000 
#    0.000    0.000    0.000    0.000    0.000    0.000 
#
# Total GULP energy -347299.838678 kJ/mol
# GULP energy per Si atom -12403.565667 kJ/mol
# Density = 1.964879 g / cm^3
# Si number density = 19.693618 Si / 1000 Ang^3
#
#
#
# Elastic Constant Matrix: (Units=GPa)
#
#
# Indices 1 2 3 4 5 6 
#
# 1 98.0218 39.8983 37.0615 0.0001 0.0000 0.0000
# 2 39.8983 121.4360 57.1884 0.0002 0.0000 0.0000
# 3 37.0615 57.1884 94.9095 0.0007 -0.0001 0.0000
# 4 0.0001 0.0002 0.0007 23.1530 -0.0001 0.0000
# 5 0.0000 0.0000 -0.0001 -0.0001 27.9944 0.0000
# 6 0.0000 0.0000 0.0000 0.0000 0.0000 31.8059
#
#
#
# Elastic Compliance Matrix: (Units=1/GPa)
#
#
# Indices 1 2 3 4 5 6 
#
# 1 0.012500 -0.002525 -0.003360 0.000000 0.000000 0.000000
# 2 -0.002525 0.012007 -0.006249 0.000000 0.000000 0.000000
# 3 -0.003360 -0.006249 0.015614 0.000000 0.000000 0.000000
# 4 0.000000 0.000000 0.000000 0.043191 0.000000 0.000000
# 5 0.000000 0.000000 0.000000 0.000000 0.035721 0.000000
# 6 0.000000 0.000000 0.000000 0.000000 0.000000 0.031441
#
#
# Mechanical properties :
#
#
# Convention : Reuss Voigt Hill
#
# Bulk Modulus (GPa) = 63.07738 64.74040 63.90889
# Shear Modulus (GPa) = 27.77382 28.60528 28.18955
#
# Velocity S-wave (km/s) = 3.75946 3.81532 3.78750
# Velocity P-wave (km/s) = 7.13748 7.23561 7.18671
#
# Compressibility (1/GPa) = 0.01585354
#
# Stress axis : x y z
#
# Youngs Moduli (GPa) = 80.00165 83.28332 64.04570
#
# Poissons Ratio (x) = 0.21025 0.21518
# Poissons Ratio (y) = 0.20197 0.40023
# Poissons Ratio (z) = 0.26879 0.52045
#
# Static dielectric constant tensor:
#      x y z
#    x 3.587210 0.000000 0.000000 
#    y 0.000000 3.567690 0.000000 
#    z 0.000000 0.000000 3.586050 
# 
# 
# High freq. dielectric constant tensor:
#      x y z
#    x 1.769650 0.000000 0.000000 
#    y 0.000000 1.762030 0.000000 
#    z 0.000000 0.000000 1.764950 
# 
# From -- ./inp_files/14189.got.cif
#   From: 2010.03.12/outbox.cif.g09.slc.cpg/sg46_8_cif.got.tgz:14189.got - 2010.04.14 02:56:35.
