data_PCOD8192700
_publ_section_title
;
Structure prediction by ZEFSAII (Michael W. Deem and Ramdas Pophale) SiO2 
 PCOD8192700
Probable space group: I M A 2
;
_chemical_formula_sum "Si O2"
_cell_formula_units_Z 48
_cell_length_a 17.432857
_cell_length_b 13.868611
_cell_length_c 9.464313
_cell_angle_alpha 90.000000
_cell_angle_beta 90.000000
_cell_angle_gamma 90.000000
_cell_volume 2288.182339
_symmetry_space_group_name_H-M "I M A 2"
_symmetry_group_IT_number 46
_symmetry_cell_setting 'orthorhombic'
loop_
_space_group_symop_operation_xyz
x,y,z
-x,-y,z
1/2-x,y,z
1/2+x,-y,z
1/2+x,1/2+y,1/2+z
1/2-x,1/2-y,1/2+z
-x,1/2+y,1/2+z
x,1/2-y,1/2+z
loop_
_atom_site_type_symbol
_atom_site_label
_atom_site_fract_x
_atom_site_fract_y
_atom_site_fract_z
Si Si1 0.078624 0.461203 0.608620
Si Si2 0.554344 0.306030 0.123396
Si Si3 0.835554 0.363820 0.684854
Si Si4 0.335613 0.547213 0.994974
Si Si5 0.542582 0.697025 0.396705
Si Si6 0.839438 0.646477 0.853316
O O1 0.131704 0.554376 0.578237
O O2 0.057220 0.407692 0.463589
O O3 0.118738 0.384945 0.710125
O O4 0.000000 0.500000 0.680765
O O5 0.617188 0.233343 0.182884
O O6 0.488994 0.322328 0.239912
O O7 0.598447 0.406313 0.091898
O O8 0.518000 0.261937 0.982181
O O9 0.750000 0.339297 0.634780
O O10 0.838071 0.406172 0.840933
O O11 0.250000 0.562342 0.059723
O O12 0.352349 0.433042 0.976607
O O13 0.623834 0.752270 0.397279
O O14 0.750000 0.661506 0.821702
#
# Coordination Sequence:
#
# PCOD8192700 Si02
#       6
#     8   8   8   8   8   8
#     4  11  21  41  66  90 126 165 220 262 315 382
#     4  12  22  41  63  97 132 167 215 264 323 385
#     4  10  20  37  65  95 128 170 213 264 322 388
#     4   9  20  39  66  94 126 168 214 264 320 385
#     4  12  24  41  65  94 131 173 213 268 318 382
#     4  10  23  43  67  94 126 171 219 265 322 387
#
# _framework density 20.977350000000001
#
# number of rings (size 3 to 8) (size 9 to 14) (size 15 to 20)
#    0.000    1.333    5.000    2.000    2.333    1.333 
#    3.000    0.000    0.000    0.000    0.000    0.000 
#    0.000    0.000    0.000    0.000    0.000    0.000 
#
# Total GULP energy -297619.962890 kJ/mol
# GULP energy per Si atom -12400.831787 kJ/mol
# Density = 2.092960 g / cm^3
# Si number density = 20.977350 Si / 1000 Ang^3
#
#
#
# Elastic Constant Matrix: (Units=GPa)
#
#
# Indices 1 2 3 4 5 6 
#
# 1 131.0269 52.1186 33.8702 0.0000 0.0000 0.0000
# 2 52.1186 83.9925 26.5013 0.0000 0.0000 0.0000
# 3 33.8702 26.5013 63.4035 0.0000 0.0000 0.0000
# 4 0.0000 0.0000 0.0000 30.1682 0.0000 0.0000
# 5 0.0000 0.0000 0.0000 0.0000 24.6731 0.0000
# 6 0.0000 0.0000 0.0000 0.0000 0.0000 37.0375
#
#
#
# Elastic Compliance Matrix: (Units=1/GPa)
#
#
# Indices 1 2 3 4 5 6 
#
# 1 0.010733 -0.005588 -0.003398 0.000000 0.000000 0.000000
# 2 -0.005588 0.016624 -0.003963 0.000000 0.000000 0.000000
# 3 -0.003398 -0.003963 0.019244 0.000000 0.000000 0.000000
# 4 0.000000 0.000000 0.000000 0.033147 0.000000 0.000000
# 5 0.000000 0.000000 0.000000 0.000000 0.040530 0.000000
# 6 0.000000 0.000000 0.000000 0.000000 0.000000 0.027000
#
#
# Mechanical properties :
#
#
# Convention : Reuss Voigt Hill
#
# Bulk Modulus (GPa) = 48.30407 55.93369 52.11888
# Shear Modulus (GPa) = 27.76591 29.43794 28.60193
#
# Velocity S-wave (km/s) = 3.64210 3.75016 3.69652
# Velocity P-wave (km/s) = 6.38461 6.74339 6.56645
#
# Compressibility (1/GPa) = 0.02070219
#
# Stress axis : x y z
#
# Youngs Moduli (GPa) = 93.16967 60.15501 51.96479
#
# Poissons Ratio (x) = 0.33614 0.17658
# Poissons Ratio (y) = 0.52062 0.20595
# Poissons Ratio (z) = 0.31659 0.23841
#
# Static dielectric constant tensor:
#      x y z
#    x 4.087100 0.000000 0.000000 
#    y 0.000000 3.906680 0.000000 
#    z 0.000000 0.000000 3.484620 
# 
# 
# High freq. dielectric constant tensor:
#      x y z
#    x 1.837580 0.000000 0.000000 
#    y 0.000000 1.825000 0.000000 
#    z 0.000000 0.000000 1.788380 
# 
# From -- ./inp_files/6614.got.cif
#   From: 2010.03.12/outbox.cif.g09.slc.cpg/sg46_4_cif.got.tgz:6614.got - 2010.04.14 02:56:35.
