data_PCOD8192385
_publ_section_title
;
Structure prediction by ZEFSAII (Michael W. Deem and Ramdas Pophale) SiO2 
 PCOD8192385
Probable space group: I M A 2
;
_chemical_formula_sum "Si O2"
_cell_formula_units_Z 56
_cell_length_a 8.635150
_cell_length_b 20.742248
_cell_length_c 14.875453
_cell_angle_alpha 90.000000
_cell_angle_beta 90.000000
_cell_angle_gamma 90.000000
_cell_volume 2664.378427
_symmetry_space_group_name_H-M "I M A 2"
_symmetry_group_IT_number 46
_symmetry_cell_setting 'orthorhombic'
loop_
_space_group_symop_operation_xyz
x,y,z
-x,-y,z
1/2-x,y,z
1/2+x,-y,z
1/2+x,1/2+y,1/2+z
1/2-x,1/2-y,1/2+z
-x,1/2+y,1/2+z
x,1/2-y,1/2+z
loop_
_atom_site_type_symbol
_atom_site_label
_atom_site_fract_x
_atom_site_fract_y
_atom_site_fract_z
Si Si1 0.570238 0.142426 0.028400
Si Si2 0.078846 0.436944 0.195573
Si Si3 0.431041 0.271967 0.977002
Si Si4 0.069311 0.809376 0.646955
Si Si5 0.566228 0.570890 0.693437
Si Si6 0.566470 0.304316 0.783687
Si Si7 0.418786 0.060859 0.902684
O O1 0.750000 0.145130 0.051023
O O2 0.488181 0.091987 0.094664
O O3 0.499929 0.212873 0.035576
O O4 0.531022 0.120868 0.926330
O O5 0.250000 0.424374 0.152749
O O6 0.103019 0.452663 0.299165
O O7 0.000000 0.500000 0.149237
O O8 0.965394 0.375906 0.197220
O O9 0.250000 0.265268 0.958094
O O10 0.515028 0.282901 0.882948
O O11 0.473160 0.323604 0.053860
O O12 0.250000 0.802334 0.625616
O O13 0.013319 0.749430 0.710379
O O14 0.500000 0.500000 0.718321
O O15 0.750000 0.567476 0.699553
O O16 0.506695 0.625834 0.762739
O O17 0.750000 0.310939 0.782481
O O18 0.250000 0.072615 0.946849
O O19 0.500000 0.000000 0.949897
#
# Coordination Sequence:
#
# PCOD8192385 Si02
#       7
#     8   8   8   8   8   8   8
#     4  12  23  38  59  89 126 165 213 268 329 390
#     4  10  21  37  59  87 123 164 210 259 319 385
#     4  12  25  41  65  95 128 167 217 270 328 393
#     4  11  23  41  66  94 128 167 212 266 327 389
#     4  12  25  43  67  95 132 177 226 279 340 406
#     4  11  24  44  69  98 134 175 222 274 335 400
#     4  10  20  34  53  82 119 159 202 249 308 378
#
# _framework density 21.018035000000001
#
# number of rings (size 3 to 8) (size 9 to 14) (size 15 to 20)
#    0.000    0.857    1.429    6.857    0.000    5.714 
#    0.000    0.714    0.000    0.000    0.000    0.000 
#    0.000    0.000    0.000    0.000    0.000    0.000 
#
# Total GULP energy -346981.458997 kJ/mol
# GULP energy per Si atom -12392.194964 kJ/mol
# Density = 2.097020 g / cm^3
# Si number density = 21.018035 Si / 1000 Ang^3
#
#
#
# Elastic Constant Matrix: (Units=GPa)
#
#
# Indices 1 2 3 4 5 6 
#
# 1 113.2425 42.8012 9.5419 -0.0001 0.0000 0.0000
# 2 42.8012 125.7107 25.4167 -0.0001 0.0000 0.0000
# 3 9.5419 25.4167 62.1312 -0.0002 0.0000 0.0000
# 4 -0.0001 -0.0001 -0.0002 24.5282 0.0000 0.0000
# 5 0.0000 0.0000 0.0000 0.0000 30.1476 0.0000
# 6 0.0000 0.0000 0.0000 0.0000 0.0000 37.7091
#
#
#
# Elastic Compliance Matrix: (Units=1/GPa)
#
#
# Indices 1 2 3 4 5 6 
#
# 1 0.010136 -0.003419 -0.000158 0.000000 0.000000 0.000000
# 2 -0.003419 0.009825 -0.003494 0.000000 0.000000 0.000000
# 3 -0.000158 -0.003494 0.017549 0.000000 0.000000 0.000000
# 4 0.000000 0.000000 0.000000 0.040769 0.000000 0.000000
# 5 0.000000 0.000000 0.000000 0.000000 0.033170 0.000000
# 6 0.000000 0.000000 0.000000 0.000000 0.000000 0.026519
#
#
# Mechanical properties :
#
#
# Convention : Reuss Voigt Hill
#
# Bulk Modulus (GPa) = 42.79457 50.73378 46.76418
# Shear Modulus (GPa) = 31.26943 33.36530 32.31736
#
# Velocity S-wave (km/s) = 3.86131 3.98862 3.92548
# Velocity P-wave (km/s) = 6.34702 6.73815 6.54551
#
# Compressibility (1/GPa) = 0.02336745
#
# Stress axis : x y z
#
# Youngs Moduli (GPa) = 98.65596 101.77694 56.98436
#
# Poissons Ratio (x) = 0.34799 0.00900
# Poissons Ratio (y) = 0.33732 0.19912
# Poissons Ratio (z) = 0.01558 0.35564
#
# Static dielectric constant tensor:
#      x y z
#    x 4.070460 0.000000 0.000000 
#    y 0.000000 4.027500 0.000000 
#    z 0.000000 0.000000 3.904550 
# 
# 
# High freq. dielectric constant tensor:
#      x y z
#    x 1.840030 0.000000 0.000000 
#    y 0.000000 1.828890 0.000000 
#    z 0.000000 0.000000 1.808790 
# 
# From -- ./inp_files/14154.got.cif
#   From: 2010.03.12/outbox.cif.g09.slc.cpg/sg46_8_cif.got.tgz:14154.got - 2010.04.14 02:56:35.
