data_PCOD8192170
_publ_section_title
;
Structure prediction by ZEFSAII (Michael W. Deem and Ramdas Pophale) SiO2 
 PCOD8192170
Probable space group: I M A 2
;
_chemical_formula_sum "Si O2"
_cell_formula_units_Z 64
_cell_length_a 8.746945
_cell_length_b 28.447306
_cell_length_c 12.469982
_cell_angle_alpha 90.000000
_cell_angle_beta 90.000000
_cell_angle_gamma 90.000000
_cell_volume 3102.868473
_symmetry_space_group_name_H-M "I M A 2"
_symmetry_group_IT_number 46
_symmetry_cell_setting 'orthorhombic'
loop_
_space_group_symop_operation_xyz
x,y,z
-x,-y,z
1/2-x,y,z
1/2+x,-y,z
1/2+x,1/2+y,1/2+z
1/2-x,1/2-y,1/2+z
-x,1/2+y,1/2+z
x,1/2-y,1/2+z
loop_
_atom_site_type_symbol
_atom_site_label
_atom_site_fract_x
_atom_site_fract_y
_atom_site_fract_z
Si Si1 0.071141 0.103973 0.534010
Si Si2 0.929155 0.704922 0.535870
Si Si3 0.578541 0.299030 0.977651
Si Si4 0.423698 0.955662 0.103871
Si Si5 0.924464 0.576548 0.803470
Si Si6 0.921663 0.331216 0.744114
Si Si7 0.430772 0.448134 0.251597
Si Si8 0.070125 0.618711 0.431566
O O1 0.250000 0.117065 0.534103
O O2 0.030593 0.072589 0.428849
O O3 0.024725 0.072439 0.635321
O O4 0.976303 0.152236 0.531503
O O5 0.750000 0.696437 0.552751
O O6 0.958660 0.758457 0.504011
O O7 0.023636 0.699308 0.644726
O O8 0.990875 0.669595 0.442952
O O9 0.750000 0.288645 0.021454
O O10 0.584272 0.299509 0.849346
O O11 0.250000 0.967228 0.094384
O O12 0.472205 0.956301 0.228767
O O13 0.500000 0.000000 0.043769
O O14 0.465375 0.907161 0.044691
O O15 0.750000 0.562753 0.783347
O O16 0.952837 0.629239 0.764039
O O17 0.750000 0.351962 0.720860
O O18 0.500000 0.500000 0.265704
O O19 0.250000 0.451513 0.267160
O O20 0.498597 0.411666 0.336657
O O21 0.250000 0.624741 0.410563
#
# Coordination Sequence:
#
# PCOD8192170 Si02
#       8
#     8   8   8   8   8   8   8   8
#     4   9  21  41  63  90 125 163 206 260 314 372
#     4  12  24  38  62  91 123 164 208 257 315 378
#     4  10  22  39  62  91 123 163 209 260 314 374
#     4  11  23  37  57  85 119 154 193 247 302 362
#     4  10  19  35  60  87 117 153 195 243 303 365
#     4  10  20  37  59  84 117 155 196 246 304 363
#     4  11  24  43  66  92 127 170 218 268 323 384
#     4  11  24  42  63  88 122 160 208 263 314 374
#
# _framework density 20.626075
#
# number of rings (size 3 to 8) (size 9 to 14) (size 15 to 20)
#    0.000    1.500    1.250    3.750    0.000    7.000 
#    0.000    1.250    0.000    0.000    0.000    0.000 
#    0.000    0.000    0.000    0.000    0.000    0.000 
#
# Total GULP energy -396758.835072 kJ/mol
# GULP energy per Si atom -12398.713596 kJ/mol
# Density = 2.057913 g / cm^3
# Si number density = 20.626075 Si / 1000 Ang^3
#
#
#
# Elastic Constant Matrix: (Units=GPa)
#
#
# Indices 1 2 3 4 5 6 
#
# 1 83.0636 17.6265 32.6308 0.0002 0.0000 0.0000
# 2 17.6265 62.8650 14.7725 0.0003 0.0000 0.0000
# 3 32.6308 14.7725 97.0841 0.0013 -0.0003 -0.0002
# 4 0.0002 0.0003 0.0013 16.4319 0.0001 0.0000
# 5 0.0000 0.0000 -0.0003 0.0001 27.4079 0.0002
# 6 0.0000 0.0000 -0.0002 0.0000 0.0002 37.9838
#
#
#
# Elastic Compliance Matrix: (Units=1/GPa)
#
#
# Indices 1 2 3 4 5 6 
#
# 1 0.014399 -0.003007 -0.004382 0.000000 0.000000 0.000000
# 2 -0.003007 0.017125 -0.001595 0.000000 0.000000 0.000000
# 3 -0.004382 -0.001595 0.012016 -0.000001 0.000000 0.000000
# 4 0.000000 0.000000 -0.000001 0.060857 0.000000 0.000000
# 5 0.000000 0.000000 0.000000 0.000000 0.036486 0.000000
# 6 0.000000 0.000000 0.000000 0.000000 0.000000 0.026327
#
#
# Mechanical properties :
#
#
# Convention : Reuss Voigt Hill
#
# Bulk Modulus (GPa) = 39.10690 41.45249 40.27969
# Shear Modulus (GPa) = 25.81286 28.23024 27.02155
#
# Velocity S-wave (km/s) = 3.54145 3.70356 3.62341
# Velocity P-wave (km/s) = 5.97692 6.19913 6.08904
#
# Compressibility (1/GPa) = 0.02557094
#
# Stress axis : x y z
#
# Youngs Moduli (GPa) = 69.45155 58.39369 83.22362
#
# Poissons Ratio (x) = 0.17562 0.36467
# Poissons Ratio (y) = 0.20887 0.13274
# Poissons Ratio (z) = 0.30433 0.09314
#
# Static dielectric constant tensor:
#      x y z
#    x 3.800340 0.000000 0.000000 
#    y 0.000000 3.686440 0.000000 
#    z 0.000000 0.000000 3.962320 
# 
# 
# High freq. dielectric constant tensor:
#      x y z
#    x 1.817500 0.000000 0.000000 
#    y 0.000000 1.804260 0.000000 
#    z 0.000000 0.000000 1.809300 
# 
# From -- ./inp_files/9670.got.cif
#   From: 2010.03.12/outbox.cif.g09.slc.cpg/sg46_5_cif.got.tgz:9670.got - 2010.04.14 02:56:35.
