data_PCOD8192309
_publ_section_title
;
Structure prediction by ZEFSAII (Michael W. Deem and Ramdas Pophale) SiO2 
 PCOD8192309
Probable space group: I M A 2
;
_chemical_formula_sum "Si O2"
_cell_formula_units_Z 52
_cell_length_a 13.366978
_cell_length_b 12.411234
_cell_length_c 17.265269
_cell_angle_alpha 90.000000
_cell_angle_beta 90.000000
_cell_angle_gamma 90.000000
_cell_volume 2864.320072
_symmetry_space_group_name_H-M "I M A 2"
_symmetry_group_IT_number 46
_symmetry_cell_setting 'orthorhombic'
loop_
_space_group_symop_operation_xyz
x,y,z
-x,-y,z
1/2-x,y,z
1/2+x,-y,z
1/2+x,1/2+y,1/2+z
1/2-x,1/2-y,1/2+z
-x,1/2+y,1/2+z
x,1/2-y,1/2+z
loop_
_atom_site_type_symbol
_atom_site_label
_atom_site_fract_x
_atom_site_fract_y
_atom_site_fract_z
Si Si1 0.865611 0.866024 0.570250
Si Si2 0.026363 0.826082 0.365914
Si Si3 0.860309 0.450323 0.468708
Si Si4 0.634170 0.140524 0.796659
Si Si5 0.000000 0.500000 0.185087
Si Si6 0.137876 0.470698 0.902802
Si Si7 0.455223 0.330209 0.497479
O O1 0.750000 0.863866 0.596368
O O2 0.878080 0.928837 0.489726
O O3 0.906587 0.743351 0.564065
O O4 0.932398 0.921912 0.634363
O O5 0.079454 0.758136 0.297603
O O6 0.933386 0.904544 0.342551
O O7 0.978183 0.742380 0.424233
O O8 0.110969 0.902590 0.404349
O O9 0.750000 0.421143 0.499139
O O10 0.873836 0.415619 0.379951
O O11 0.876204 0.578312 0.473187
O O12 0.939922 0.386777 0.522868
O O13 0.750000 0.154778 0.771849
O O14 0.577217 0.067848 0.735471
O O15 0.250000 0.453978 0.873476
#
# Coordination Sequence:
#
# PCOD8192309 Si02
#       7
#     8   8   8   8   4   8   8
#     4  10  20  33  50  72 100 133 165 201 244 291
#     4   9  16  29  48  74 102 128 157 199 251 300
#     4   9  17  30  51  78 102 124 158 207 258 299
#     4  10  20  33  50  72 100 133 165 201 244 291
#     4  12  22  36  48  68 100 136 174 202 232 292
#     4   9  17  30  51  78 102 124 158 207 258 299
#     4   9  16  29  48  74 102 128 157 199 251 300
#
# _framework density 18.154395000000001
#
# number of rings (size 3 to 8) (size 9 to 14) (size 15 to 20)
#    0.000    2.462    0.000    5.077    0.000    1.231 
#    0.000    3.077    0.000    3.692    0.000   10.769 
#    0.000    0.000    0.000    0.000    0.000    0.000 
#
# Total GULP energy -322156.964462 kJ/mol
# GULP energy per Si atom -12390.652479 kJ/mol
# Density = 1.811308 g / cm^3
# Si number density = 18.154395 Si / 1000 Ang^3
#
#
#
# Elastic Constant Matrix: (Units=GPa)
#
#
# Indices 1 2 3 4 5 6 
#
# 1 136.3884 24.9285 32.7373 0.0000 0.0000 0.0000
# 2 24.9285 72.8654 17.9488 0.0000 0.0000 0.0000
# 3 32.7373 17.9488 30.9508 0.0000 0.0000 0.0000
# 4 0.0000 0.0000 0.0000 8.6884 0.0000 0.0000
# 5 0.0000 0.0000 0.0000 0.0000 22.0623 0.0000
# 6 0.0000 0.0000 0.0000 0.0000 0.0000 30.4987
#
#
#
# Elastic Compliance Matrix: (Units=1/GPa)
#
#
# Indices 1 2 3 4 5 6 
#
# 1 0.009882 -0.000940 -0.009907 0.000000 0.000000 0.000000
# 2 -0.000940 0.016101 -0.008342 0.000000 0.000000 0.000000
# 3 -0.009907 -0.008342 0.047626 0.000000 0.000000 0.000000
# 4 0.000000 0.000000 0.000000 0.115097 0.000000 0.000000
# 5 0.000000 0.000000 0.000000 0.000000 0.045326 0.000000
# 6 0.000000 0.000000 0.000000 0.000000 0.000000 0.032788
#
#
# Mechanical properties :
#
#
# Convention : Reuss Voigt Hill
#
# Bulk Modulus (GPa) = 28.38554 43.49265 35.93910
# Shear Modulus (GPa) = 15.77577 23.22253 19.49915
#
# Velocity S-wave (km/s) = 2.95104 3.58043 3.28086
# Velocity P-wave (km/s) = 5.22313 6.41106 5.84734
#
# Compressibility (1/GPa) = 0.03522920
#
# Stress axis : x y z
#
# Youngs Moduli (GPa) = 101.19573 62.10945 20.99695
#
# Poissons Ratio (x) = 0.05841 0.20801
# Poissons Ratio (y) = 0.09516 0.17516
# Poissons Ratio (z) = 1.00254 0.51814
#
# Static dielectric constant tensor:
#      x y z
#    x 3.804390 0.000000 0.000000 
#    y 0.000000 3.843810 0.000000 
#    z 0.000000 0.000000 2.826560 
# 
# 
# High freq. dielectric constant tensor:
#      x y z
#    x 1.728700 0.000000 0.000000 
#    y 0.000000 1.723510 0.000000 
#    z 0.000000 0.000000 1.634790 
# 
# From -- ./inp_files/19544.got.cif
#   From: 2010.03.12/outbox.cif.g09.slc.cpg/sg46_10_cif.got.tgz:19544.got - 2010.04.14 02:56:35.
