data_PCOD8192405
_publ_section_title
;
Structure prediction by ZEFSAII (Michael W. Deem and Ramdas Pophale) SiO2 
 PCOD8192405
Probable space group: I M A 2
;
_chemical_formula_sum "Si O2"
_cell_formula_units_Z 64
_cell_length_a 9.358867
_cell_length_b 29.582259
_cell_length_c 12.411303
_cell_angle_alpha 90.000000
_cell_angle_beta 90.000000
_cell_angle_gamma 90.000000
_cell_volume 3436.149010
_symmetry_space_group_name_H-M "I M A 2"
_symmetry_group_IT_number 46
_symmetry_cell_setting 'orthorhombic'
loop_
_space_group_symop_operation_xyz
x,y,z
-x,-y,z
1/2-x,y,z
1/2+x,-y,z
1/2+x,1/2+y,1/2+z
1/2-x,1/2-y,1/2+z
-x,1/2+y,1/2+z
x,1/2-y,1/2+z
loop_
_atom_site_type_symbol
_atom_site_label
_atom_site_fract_x
_atom_site_fract_y
_atom_site_fract_z
Si Si1 0.583997 0.044858 0.058840
Si Si2 0.083531 0.544954 0.314043
Si Si3 0.594193 0.281630 0.225115
Si Si4 0.418143 0.874771 0.219219
Si Si5 0.418809 0.142347 0.435839
Si Si6 0.406050 0.794412 0.067595
Si Si7 0.584540 0.746147 0.905557
Si Si8 0.081518 0.878188 0.645822
O O1 0.750000 0.033463 0.068123
O O2 0.539939 0.083632 0.142422
O O3 0.500000 0.000000 0.091617
O O4 0.545926 0.060360 0.936467
O O5 0.250000 0.534391 0.303384
O O6 0.036506 0.583034 0.229341
O O7 0.000000 0.500000 0.282156
O O8 0.750000 0.282942 0.283804
O O9 0.611431 0.256017 0.112771
O O10 0.480536 0.251243 0.287758
O O11 0.537543 0.331801 0.204228
O O12 0.250000 0.874231 0.248383
O O13 0.510091 0.877469 0.327805
O O14 0.463616 0.829498 0.155973
O O15 0.250000 0.132145 0.433030
O O16 0.448759 0.195910 0.448654
O O17 0.490975 0.116471 0.536288
O O18 0.250000 0.811557 0.025799
O O19 0.516891 0.788200 0.971109
O O20 0.750000 0.755583 0.900764
O O21 0.250000 0.878974 0.617968
#
# Coordination Sequence:
#
# PCOD8192405 Si02
#       8
#     8   8   8   8   8   8   8   8
#     4   9  19  37  61  87 114 141 174 223 280 333
#     4   9  19  37  61  87 114 141 174 223 280 333
#     4  10  20  34  55  79 105 144 190 229 267 320
#     4  10  21  37  59  84 110 145 190 234 272 322
#     4  11  23  37  54  78 115 154 187 228 276 330
#     4  10  20  34  55  79 105 144 190 229 267 320
#     4  11  23  35  49  74 113 152 183 226 279 328
#     4  10  21  37  59  84 110 145 190 234 272 322
#
# _framework density 18.625502000000001
#
# number of rings (size 3 to 8) (size 9 to 14) (size 15 to 20)
#    0.000    2.000    2.500    0.750    1.750    3.500 
#    0.000    0.625    0.000    0.000    0.000    0.000 
#    0.000    0.000    0.000    0.000    0.000    0.000 
#
# Total GULP energy -396718.845345 kJ/mol
# GULP energy per Si atom -12397.463917 kJ/mol
# Density = 1.858311 g / cm^3
# Si number density = 18.625502 Si / 1000 Ang^3
#
#
#
# Elastic Constant Matrix: (Units=GPa)
#
#
# Indices 1 2 3 4 5 6 
#
# 1 81.0344 45.9691 60.4797 -0.0003 -0.0001 0.0000
# 2 45.9691 103.2879 51.4305 0.0003 0.0003 0.0001
# 3 60.4797 51.4305 101.7426 -0.0039 0.0005 0.0005
# 4 -0.0003 0.0003 -0.0039 32.4529 0.0011 0.0003
# 5 -0.0001 0.0003 0.0005 0.0011 22.8916 -0.0016
# 6 0.0000 0.0001 0.0005 0.0003 -0.0016 28.4580
#
#
#
# Elastic Compliance Matrix: (Units=1/GPa)
#
#
# Indices 1 2 3 4 5 6 
#
# 1 0.023801 -0.004741 -0.011751 -0.000001 0.000000 0.000000
# 2 -0.004741 0.013883 -0.004199 -0.000001 0.000000 0.000000
# 3 -0.011751 -0.004199 0.018937 0.000002 0.000000 0.000000
# 4 -0.000001 -0.000001 0.000002 0.030814 -0.000001 0.000000
# 5 0.000000 0.000000 0.000000 -0.000001 0.043684 0.000002
# 6 0.000000 0.000000 0.000000 0.000000 0.000002 0.035139
#
#
# Mechanical properties :
#
#
# Convention : Reuss Voigt Hill
#
# Bulk Modulus (GPa) = 65.63178 66.86928 66.25053
# Shear Modulus (GPa) = 23.50502 25.30620 24.40561
#
# Velocity S-wave (km/s) = 3.55629 3.69003 3.62378
# Velocity P-wave (km/s) = 7.22337 7.35765 7.29082
#
# Compressibility (1/GPa) = 0.01523652
#
# Stress axis : x y z
#
# Youngs Moduli (GPa) = 42.01569 72.03157 52.80700
#
# Poissons Ratio (x) = 0.34152 0.62055
# Poissons Ratio (y) = 0.19921 0.22175
# Poissons Ratio (z) = 0.49374 0.30248
#
# Static dielectric constant tensor:
#      x y z
#    x 3.374820 0.000000 0.000000 
#    y 0.000000 3.312340 0.000000 
#    z 0.000000 0.000000 3.361480 
# 
# 
# High freq. dielectric constant tensor:
#      x y z
#    x 1.718330 0.000000 0.000000 
#    y 0.000000 1.710000 0.000000 
#    z 0.000000 0.000000 1.723380 
# 
# From -- ./inp_files/9706.got.cif
#   From: 2010.03.12/outbox.cif.g09.slc.cpg/sg46_5_cif.got.tgz:9706.got - 2010.04.14 02:56:35.
