data_PCOD8192694
_publ_section_title
;
Structure prediction by ZEFSAII (Michael W. Deem and Ramdas Pophale) SiO2 
 PCOD8192694
Probable space group: I M A 2
;
_chemical_formula_sum "Si O2"
_cell_formula_units_Z 64
_cell_length_a 14.224673
_cell_length_b 9.133003
_cell_length_c 21.876682
_cell_angle_alpha 90.000000
_cell_angle_beta 90.000000
_cell_angle_gamma 90.000000
_cell_volume 2842.086854
_symmetry_space_group_name_H-M "I M A 2"
_symmetry_group_IT_number 46
_symmetry_cell_setting 'orthorhombic'
loop_
_space_group_symop_operation_xyz
x,y,z
-x,-y,z
1/2-x,y,z
1/2+x,-y,z
1/2+x,1/2+y,1/2+z
1/2-x,1/2-y,1/2+z
-x,1/2+y,1/2+z
x,1/2-y,1/2+z
loop_
_atom_site_type_symbol
_atom_site_label
_atom_site_fract_x
_atom_site_fract_y
_atom_site_fract_z
Si Si1 0.145065 0.354926 0.278960
Si Si2 0.523342 0.655363 0.526703
Si Si3 0.857877 0.554544 0.411320
Si Si4 0.855711 0.143103 0.488719
Si Si5 0.357346 0.758644 0.360740
Si Si6 0.477609 0.665462 0.743918
Si Si7 0.358593 0.397483 0.080283
Si Si8 0.357800 0.896463 0.689555
O O1 0.250000 0.309774 0.259017
O O2 0.132589 0.344165 0.351560
O O3 0.126661 0.521580 0.254925
O O4 0.077969 0.242223 0.246007
O O5 0.500000 0.500000 0.558116
O O6 0.579590 0.625169 0.463908
O O7 0.425242 0.734201 0.513716
O O8 0.583952 0.747231 0.575336
O O9 0.750000 0.545993 0.433923
O O10 0.893569 0.393433 0.390979
O O11 0.750000 0.192551 0.507877
O O12 0.862063 0.122993 0.415577
O O13 0.878266 0.985197 0.517554
O O14 0.250000 0.739550 0.336126
O O15 0.422878 0.820990 0.307872
O O16 0.500000 0.500000 0.725714
O O17 0.416524 0.745603 0.691168
O O18 0.250000 0.357503 0.089726
O O19 0.395474 0.496348 0.136423
O O20 0.250000 0.855493 0.676971
#
# Coordination Sequence:
#
# PCOD8192694 Si02
#       8
#     8   8   8   8   8   8   8   8
#     4  10  22  39  64  94 129 179 227 270 325 398
#     4  12  23  36  64  99 135 170 218 284 343 402
#     4  10  20  37  63  96 135 177 223 272 335 405
#     4  10  22  39  59  89 135 186 226 269 331 408
#     4  10  20  38  63  94 136 180 224 271 336 409
#     4  12  25  38  64 102 136 172 218 285 342 399
#     4  10  24  46  69  94 127 176 232 280 335 405
#     4  10  22  46  74  93 123 178 232 277 333 406
#
# _framework density 22.518664000000001
#
# number of rings (size 3 to 8) (size 9 to 14) (size 15 to 20)
#    0.000    1.500    2.500    2.250    0.000    5.500 
#    0.000    5.000    0.000    4.500    0.000    0.000 
#    0.000    0.000    0.000    0.000    0.000    0.000 
#
# Total GULP energy -396850.797831 kJ/mol
# GULP energy per Si atom -12401.587432 kJ/mol
# Density = 2.246741 g / cm^3
# Si number density = 22.518664 Si / 1000 Ang^3
#
#
#
# Elastic Constant Matrix: (Units=GPa)
#
#
# Indices 1 2 3 4 5 6 
#
# 1 113.3389 77.9757 37.2520 0.0000 0.0000 0.0000
# 2 77.9757 150.2746 45.8740 0.0000 0.0000 0.0000
# 3 37.2520 45.8740 84.5433 0.0000 0.0000 0.0000
# 4 0.0000 0.0000 0.0000 37.4866 0.0000 0.0000
# 5 0.0000 0.0000 0.0000 0.0000 23.0856 0.0000
# 6 0.0000 0.0000 0.0000 0.0000 0.0000 30.9585
#
#
#
# Elastic Compliance Matrix: (Units=1/GPa)
#
#
# Indices 1 2 3 4 5 6 
#
# 1 0.014222 -0.006552 -0.002711 0.000000 0.000000 0.000000
# 2 -0.006552 0.010994 -0.003078 0.000000 0.000000 0.000000
# 3 -0.002711 -0.003078 0.014693 0.000000 0.000000 0.000000
# 4 0.000000 0.000000 0.000000 0.026676 0.000000 0.000000
# 5 0.000000 0.000000 0.000000 0.000000 0.043317 0.000000
# 6 0.000000 0.000000 0.000000 0.000000 0.000000 0.032301
#
#
# Mechanical properties :
#
#
# Convention : Reuss Voigt Hill
#
# Bulk Modulus (GPa) = 65.67860 74.48446 70.08153
# Shear Modulus (GPa) = 29.07611 30.77648 29.92630
#
# Velocity S-wave (km/s) = 3.59723 3.70091 3.64944
# Velocity P-wave (km/s) = 6.81784 7.17014 6.99621
#
# Compressibility (1/GPa) = 0.01522566
#
# Stress axis : x y z
#
# Youngs Moduli (GPa) = 70.31429 90.95939 68.05768
#
# Poissons Ratio (x) = 0.59595 0.18453
# Poissons Ratio (y) = 0.46069 0.20952
# Poissons Ratio (z) = 0.19065 0.28002
#
# Static dielectric constant tensor:
#      x y z
#    x 4.213960 0.000000 0.000000 
#    y 0.000000 3.889760 0.000000 
#    z 0.000000 0.000000 4.038820 
# 
# 
# High freq. dielectric constant tensor:
#      x y z
#    x 1.906030 0.000000 0.000000 
#    y 0.000000 1.862280 0.000000 
#    z 0.000000 0.000000 1.879910 
# 
# From -- ./inp_files/23677.got.cif
#   From: 2010.03.12/outbox.cif.g09.slc.cpg/sg46_12_cif.got.tgz:23677.got - 2010.04.14 02:56:35.
