data_PCOD8192845
_publ_section_title
;
Structure prediction by ZEFSAII (Michael W. Deem and Ramdas Pophale) SiO2 
 PCOD8192845
Probable space group: I M A 2
;
_chemical_formula_sum "Si O2"
_cell_formula_units_Z 64
_cell_length_a 9.052902
_cell_length_b 29.137304
_cell_length_c 12.684824
_cell_angle_alpha 90.000000
_cell_angle_beta 90.000000
_cell_angle_gamma 90.000000
_cell_volume 3345.966820
_symmetry_space_group_name_H-M "I M A 2"
_symmetry_group_IT_number 46
_symmetry_cell_setting 'orthorhombic'
loop_
_space_group_symop_operation_xyz
x,y,z
-x,-y,z
1/2-x,y,z
1/2+x,-y,z
1/2+x,1/2+y,1/2+z
1/2-x,1/2-y,1/2+z
-x,1/2+y,1/2+z
x,1/2-y,1/2+z
loop_
_atom_site_type_symbol
_atom_site_label
_atom_site_fract_x
_atom_site_fract_y
_atom_site_fract_z
Si Si1 0.575572 0.451826 0.323120
Si Si2 0.923278 0.142514 0.223910
Si Si3 0.912107 0.797962 0.858259
Si Si4 0.578966 0.373209 0.487648
Si Si5 0.576632 0.879905 0.429959
Si Si6 0.587085 0.782248 0.508093
Si Si7 0.073494 0.451137 0.109895
Si Si8 0.922582 0.246184 0.194983
O O1 0.500000 0.500000 0.350955
O O2 0.750000 0.458304 0.302260
O O3 0.545355 0.419320 0.422852
O O4 0.498145 0.430940 0.217894
O O5 0.750000 0.139262 0.242678
O O6 0.966048 0.120503 0.110288
O O7 0.977211 0.195538 0.229364
O O8 0.000602 0.113076 0.316138
O O9 0.750000 0.817439 0.829238
O O10 0.008204 0.790230 0.754135
O O11 0.897382 0.746697 0.902327
O O12 0.986102 0.831997 0.940104
O O13 0.750000 0.359196 0.479704
O O14 0.750000 0.879379 0.409841
O O15 0.523286 0.832224 0.481126
O O16 0.529997 0.919678 0.510826
O O17 0.750000 0.786020 0.562714
O O18 0.468964 0.754038 0.575299
O O19 0.250000 0.455140 0.123556
O O20 0.000000 0.500000 0.087104
O O21 0.750000 0.249297 0.208522
#
# Coordination Sequence:
#
# PCOD8192845 Si02
#       8
#     8   8   8   8   8   8   8   8
#     4  10  21  39  64  88 115 146 180 231 286 341
#     4  10  21  37  57  80 114 155 192 234 279 332
#     4  11  22  35  55  80 112 152 192 235 279 330
#     4  10  22  40  58  84 117 150 192 237 283 337
#     4  10  22  39  58  83 115 149 190 238 282 335
#     4  10  21  36  53  78 111 149 191 234 279 329
#     4  10  21  39  63  88 116 146 181 232 286 341
#     4  11  22  35  53  77 111 153 193 236 281 331
#
# _framework density 19.127504999999999
#
# number of rings (size 3 to 8) (size 9 to 14) (size 15 to 20)
#    0.000    1.750    2.500    2.250    1.750    4.000 
#    0.000    0.625    0.000    3.000    0.000    0.000 
#    0.000    0.000    0.000    0.000    0.000    0.000 
#
# Total GULP energy -396715.125225 kJ/mol
# GULP energy per Si atom -12397.347663 kJ/mol
# Density = 1.908397 g / cm^3
# Si number density = 19.127505 Si / 1000 Ang^3
#
#
#
# Elastic Constant Matrix: (Units=GPa)
#
#
# Indices 1 2 3 4 5 6 
#
# 1 83.7953 45.3463 59.1845 -0.0005 0.0001 0.0000
# 2 45.3463 78.2090 53.4435 -0.0002 0.0001 -0.0001
# 3 59.1845 53.4435 127.2122 -0.0013 -0.0002 -0.0001
# 4 -0.0005 -0.0002 -0.0013 36.1467 0.0000 -0.0002
# 5 0.0001 0.0001 -0.0002 0.0000 35.1339 -0.0005
# 6 0.0000 -0.0001 -0.0001 -0.0002 -0.0005 24.6174
#
#
#
# Elastic Compliance Matrix: (Units=1/GPa)
#
#
# Indices 1 2 3 4 5 6 
#
# 1 0.020519 -0.007537 -0.006380 0.000000 0.000000 0.000000
# 2 -0.007537 0.020704 -0.005191 0.000000 0.000000 0.000000
# 3 -0.006380 -0.005191 0.013010 0.000000 0.000000 0.000000
# 4 0.000000 0.000000 0.000000 0.027665 0.000000 0.000000
# 5 0.000000 0.000000 0.000000 0.000000 0.028463 0.000001
# 6 0.000000 0.000000 0.000000 0.000000 0.000001 0.040622
#
#
# Mechanical properties :
#
#
# Convention : Reuss Voigt Hill
#
# Bulk Modulus (GPa) = 62.43805 67.24057 64.83931
# Shear Modulus (GPa) = 25.70206 27.92907 26.81556
#
# Velocity S-wave (km/s) = 3.66966 3.82534 3.74831
# Velocity P-wave (km/s) = 7.11823 7.39873 7.25983
#
# Compressibility (1/GPa) = 0.01601587
#
# Stress axis : x y z
#
# Youngs Moduli (GPa) = 48.73612 48.29996 76.86488
#
# Poissons Ratio (x) = 0.36406 0.49036
# Poissons Ratio (y) = 0.36735 0.39902
# Poissons Ratio (z) = 0.31092 0.25074
#
# Static dielectric constant tensor:
#      x y z
#    x 3.539980 0.000000 0.000000 
#    y 0.000000 3.384040 0.000000 
#    z 0.000000 0.000000 3.562530 
# 
# 
# High freq. dielectric constant tensor:
#      x y z
#    x 1.748550 0.000000 0.000000 
#    y 0.000000 1.727300 0.000000 
#    z 0.000000 0.000000 1.749160 
# 
# From -- ./inp_files/9690.got.cif
#   From: 2010.03.12/outbox.cif.g09.slc.cpg/sg46_5_cif.got.tgz:9690.got - 2010.04.14 02:56:35.
