data_PCOD8192485
_publ_section_title
;
Structure prediction by ZEFSAII (Michael W. Deem and Ramdas Pophale) SiO2 
 PCOD8192485
Probable space group: I M A 2
;
_chemical_formula_sum "Si O2"
_cell_formula_units_Z 64
_cell_length_a 8.719788
_cell_length_b 14.554595
_cell_length_c 23.647583
_cell_angle_alpha 90.000000
_cell_angle_beta 90.000000
_cell_angle_gamma 90.000000
_cell_volume 3001.185295
_symmetry_space_group_name_H-M "I M A 2"
_symmetry_group_IT_number 46
_symmetry_cell_setting 'orthorhombic'
loop_
_space_group_symop_operation_xyz
x,y,z
-x,-y,z
1/2-x,y,z
1/2+x,-y,z
1/2+x,1/2+y,1/2+z
1/2-x,1/2-y,1/2+z
-x,1/2+y,1/2+z
x,1/2-y,1/2+z
loop_
_atom_site_type_symbol
_atom_site_label
_atom_site_fract_x
_atom_site_fract_y
_atom_site_fract_z
Si Si1 0.570262 0.900042 0.125000
Si Si2 0.571652 0.097577 0.782387
Si Si3 0.425394 0.698603 0.396326
Si Si4 0.926133 0.885025 0.395004
Si Si5 0.068452 0.589092 0.013008
Si Si6 0.070723 0.237470 0.221799
Si Si7 0.923891 0.299291 0.525768
Si Si8 0.425139 0.586711 0.786311
O O1 0.750000 0.910282 0.132974
O O2 0.506633 0.821274 0.168200
O O3 0.532646 0.864705 0.062268
O O4 0.500000 0.000000 0.136813
O O5 0.750000 0.091846 0.772053
O O6 0.535035 0.124192 0.847851
O O7 0.507974 0.164914 0.733253
O O8 0.500000 0.000000 0.769958
O O9 0.250000 0.735347 0.387034
O O10 0.552200 0.776182 0.390372
O O11 0.440257 0.664275 0.461188
O O12 0.750000 0.909696 0.380193
O O13 0.972602 0.921160 0.455789
O O14 0.050342 0.931347 0.352792
O O15 0.250000 0.580008 0.004111
O O16 0.031021 0.691414 0.036479
O O17 0.000000 0.500000 0.048714
O O18 0.250000 0.254018 0.216781
O O19 0.025511 0.177111 0.275954
O O20 0.750000 0.313463 0.546307
O O21 0.500000 0.500000 0.752594
O O22 0.250000 0.599697 0.768411
#
# Coordination Sequence:
#
# PCOD8192485 Si02
#       8
#     8   8   8   8   8   8   8   8
#     4  11  25  44  68  95 125 160 206 262 316 378
#     4  11  23  40  65  94 129 169 208 256 312 373
#     4   9  19  37  59  88 125 166 208 254 309 365
#     4  11  20  31  51  80 117 161 202 247 299 361
#     4  10  20  35  55  83 121 163 206 254 305 365
#     4  11  24  43  64  90 122 158 205 258 314 374
#     4   9  20  39  63  91 127 167 210 261 312 369
#     4  12  23  35  53  81 116 156 200 248 303 365
#
# _framework density 21.324908000000001
#
# number of rings (size 3 to 8) (size 9 to 14) (size 15 to 20)
#    0.000    1.500    1.250    5.250    0.000    6.500 
#    0.000    1.875    0.000    1.500    0.000    0.000 
#    0.000    0.000    0.000    0.000    0.000    0.000 
#
# Total GULP energy -396476.879583 kJ/mol
# GULP energy per Si atom -12389.902487 kJ/mol
# Density = 2.127637 g / cm^3
# Si number density = 21.324908 Si / 1000 Ang^3
#
#
#
# Elastic Constant Matrix: (Units=GPa)
#
#
# Indices 1 2 3 4 5 6 
#
# 1 96.7390 52.0082 33.8074 0.0000 0.0000 0.0000
# 2 52.0082 156.9431 47.8511 0.0000 0.0000 0.0000
# 3 33.8074 47.8511 79.9825 0.0000 0.0000 0.0000
# 4 0.0000 0.0000 0.0000 24.1809 0.0000 0.0000
# 5 0.0000 0.0000 0.0000 0.0000 14.9432 0.0000
# 6 0.0000 0.0000 0.0000 0.0000 0.0000 39.5474
#
#
#
# Elastic Compliance Matrix: (Units=1/GPa)
#
#
# Indices 1 2 3 4 5 6 
#
# 1 0.013409 -0.003321 -0.003681 0.000000 0.000000 0.000000
# 2 -0.003321 0.008616 -0.003751 0.000000 0.000000 0.000000
# 3 -0.003681 -0.003751 0.016303 0.000000 0.000000 0.000000
# 4 0.000000 0.000000 0.000000 0.041355 0.000000 0.000000
# 5 0.000000 0.000000 0.000000 0.000000 0.066920 0.000000
# 6 0.000000 0.000000 0.000000 0.000000 0.000000 0.025286
#
#
# Mechanical properties :
#
#
# Convention : Reuss Voigt Hill
#
# Bulk Modulus (GPa) = 59.44674 66.77755 63.11214
# Shear Modulus (GPa) = 25.12544 29.06750 27.09647
#
# Velocity S-wave (km/s) = 3.43625 3.69599 3.56848
# Velocity P-wave (km/s) = 6.60915 7.04245 6.82924
#
# Compressibility (1/GPa) = 0.01682178
#
# Stress axis : x y z
#
# Youngs Moduli (GPa) = 74.57706 116.06391 61.34020
#
# Poissons Ratio (x) = 0.38548 0.22578
# Poissons Ratio (y) = 0.24769 0.23008
# Poissons Ratio (z) = 0.27450 0.43533
#
# Static dielectric constant tensor:
#      x y z
#    x 3.887530 0.000000 0.000000 
#    y 0.000000 4.091110 0.000000 
#    z 0.000000 0.000000 3.719680 
# 
# 
# High freq. dielectric constant tensor:
#      x y z
#    x 1.836230 0.000000 0.000000 
#    y 0.000000 1.844360 0.000000 
#    z 0.000000 0.000000 1.814000 
# 
# From -- ./inp_files/23227.got.cif
#   From: 2010.03.12/outbox.cif.g09.slc.cpg/sg46_12_cif.got.tgz:23227.got - 2010.04.14 02:56:35.
