data_PCOD8192287
_publ_section_title
;
Structure prediction by ZEFSAII (Michael W. Deem and Ramdas Pophale) SiO2 
 PCOD8192287
Probable space group: I M A 2
;
_chemical_formula_sum "Si O2"
_cell_formula_units_Z 64
_cell_length_a 8.768063
_cell_length_b 14.774780
_cell_length_c 27.252103
_cell_angle_alpha 90.000000
_cell_angle_beta 90.000000
_cell_angle_gamma 90.000000
_cell_volume 3530.406436
_symmetry_space_group_name_H-M "I M A 2"
_symmetry_group_IT_number 46
_symmetry_cell_setting 'orthorhombic'
loop_
_space_group_symop_operation_xyz
x,y,z
-x,-y,z
1/2-x,y,z
1/2+x,-y,z
1/2+x,1/2+y,1/2+z
1/2-x,1/2-y,1/2+z
-x,1/2+y,1/2+z
x,1/2-y,1/2+z
loop_
_atom_site_type_symbol
_atom_site_label
_atom_site_fract_x
_atom_site_fract_y
_atom_site_fract_z
Si Si1 0.927393 0.783497 0.220020
Si Si2 0.430803 0.594712 0.910778
Si Si3 0.430521 0.406192 0.629609
Si Si4 0.070784 0.408146 0.361154
Si Si5 0.071700 0.907333 0.298494
Si Si6 0.069205 0.225576 0.945208
Si Si7 0.931618 0.096252 0.024826
Si Si8 0.928016 0.590846 0.250631
O O1 0.750000 0.796908 0.231989
O O2 0.971628 0.828480 0.168555
O O3 0.970348 0.677157 0.217083
O O4 0.018555 0.824845 0.265252
O O5 0.500000 0.500000 0.929468
O O6 0.250000 0.594242 0.917683
O O7 0.479785 0.610943 0.854319
O O8 0.505280 0.672973 0.943599
O O9 0.500000 0.500000 0.649787
O O10 0.250000 0.416760 0.621489
O O11 0.511149 0.379265 0.579152
O O12 0.250000 0.419888 0.362263
O O13 0.020323 0.324428 0.394924
O O14 0.009688 0.391571 0.305911
O O15 0.000000 0.500000 0.383119
O O16 0.250000 0.918710 0.294516
O O17 0.000000 0.000000 0.278250
O O18 0.250000 0.226513 0.952937
O O19 0.990379 0.175566 0.990303
O O20 0.750000 0.090330 0.023728
O O21 0.000000 0.000000 0.007657
O O22 0.750000 0.574597 0.252435
O O23 0.000000 0.500000 0.227655
#
# Coordination Sequence:
#
# PCOD8192287 Si02
#       8
#     8   8   8   8   8   8   8   8
#     4  10  20  33  52  75 102 135 173 215 260 309
#     4  10  21  36  52  74 104 140 178 217 257 302
#     4  10  20  35  54  77 103 132 165 206 258 314
#     4   9  18  30  47  71 102 136 169 204 246 295
#     4  10  20  32  49  74 106 140 175 212 253 303
#     4  11  21  34  54  78 103 136 174 214 259 308
#     4  11  22  37  56  79 107 136 167 208 257 313
#     4   9  18  33  49  70 100 135 171 208 248 292
#
# _framework density 18.128223999999999
#
# number of rings (size 3 to 8) (size 9 to 14) (size 15 to 20)
#    0.000    2.000    0.000    4.875    0.000    7.000 
#    0.000    2.500    0.000    0.750    0.000    3.500 
#    0.000    0.000    0.000    0.000    0.000    0.000 
#
# Total GULP energy -396873.537179 kJ/mol
# GULP energy per Si atom -12402.298037 kJ/mol
# Density = 1.808696 g / cm^3
# Si number density = 18.128224 Si / 1000 Ang^3
#
#
#
# Elastic Constant Matrix: (Units=GPa)
#
#
# Indices 1 2 3 4 5 6 
#
# 1 81.6871 55.0128 41.9850 0.0000 0.0000 0.0000
# 2 55.0128 161.0038 72.6701 0.0000 0.0000 0.0000
# 3 41.9850 72.6701 78.2696 0.0000 0.0000 0.0000
# 4 0.0000 0.0000 0.0000 30.4490 0.0000 0.0000
# 5 0.0000 0.0000 0.0000 0.0000 23.7321 0.0000
# 6 0.0000 0.0000 0.0000 0.0000 0.0000 33.3030
#
#
#
# Elastic Compliance Matrix: (Units=1/GPa)
#
#
# Indices 1 2 3 4 5 6 
#
# 1 0.017725 -0.003038 -0.006687 0.000000 0.000000 0.000000
# 2 -0.003038 0.011212 -0.008780 0.000000 0.000000 0.000000
# 3 -0.006687 -0.008780 0.024516 0.000000 0.000000 0.000000
# 4 0.000000 0.000000 0.000000 0.032842 0.000000 0.000000
# 5 0.000000 0.000000 0.000000 0.000000 0.042137 0.000000
# 6 0.000000 0.000000 0.000000 0.000000 0.000000 0.030027
#
#
# Mechanical properties :
#
#
# Convention : Reuss Voigt Hill
#
# Bulk Modulus (GPa) = 60.82174 73.36625 67.09400
# Shear Modulus (GPa) = 24.88173 27.58299 26.23236
#
# Velocity S-wave (km/s) = 3.70880 3.90494 3.80813
# Velocity P-wave (km/s) = 7.20860 7.80320 7.51179
#
# Compressibility (1/GPa) = 0.01644149
#
# Stress axis : x y z
#
# Youngs Moduli (GPa) = 56.41793 89.18883 40.79018
#
# Poissons Ratio (x) = 0.27096 0.27277
# Poissons Ratio (y) = 0.17140 0.35815
# Poissons Ratio (z) = 0.37728 0.78311
#
# Static dielectric constant tensor:
#      x y z
#    x 3.359410 0.000000 0.000000 
#    y 0.000000 3.452970 0.000000 
#    z 0.000000 0.000000 3.230620 
# 
# 
# High freq. dielectric constant tensor:
#      x y z
#    x 1.710190 0.000000 0.000000 
#    y 0.000000 1.705150 0.000000 
#    z 0.000000 0.000000 1.678640 
# 
# From -- ./inp_files/25187.got.cif
#   From: 2010.03.12/outbox.cif.g09.slc.cpg/sg46_13_cif.got.tgz:25187.got - 2010.04.14 02:56:35.
