data_PCOD8192730
_publ_section_title
;
Structure prediction by ZEFSAII (Michael W. Deem and Ramdas Pophale) SiO2 
 PCOD8192730
Probable space group: I M A 2
;
_chemical_formula_sum "Si O2"
_cell_formula_units_Z 48
_cell_length_a 8.536038
_cell_length_b 15.109066
_cell_length_c 18.391891
_cell_angle_alpha 90.000000
_cell_angle_beta 90.000000
_cell_angle_gamma 90.000000
_cell_volume 2372.030902
_symmetry_space_group_name_H-M "I M A 2"
_symmetry_group_IT_number 46
_symmetry_cell_setting 'orthorhombic'
loop_
_space_group_symop_operation_xyz
x,y,z
-x,-y,z
1/2-x,y,z
1/2+x,-y,z
1/2+x,1/2+y,1/2+z
1/2-x,1/2-y,1/2+z
-x,1/2+y,1/2+z
x,1/2-y,1/2+z
loop_
_atom_site_type_symbol
_atom_site_label
_atom_site_fract_x
_atom_site_fract_y
_atom_site_fract_z
Si Si1 0.936005 0.905373 0.549890
Si Si2 0.565043 0.405765 0.345876
Si Si3 0.936113 0.760466 0.271666
Si Si4 0.934241 0.593065 0.884229
Si Si5 0.934935 0.232805 0.116905
Si Si6 0.935107 0.905309 0.003278
O O1 0.750000 0.900697 0.559369
O O2 0.988629 0.887663 0.466650
O O3 0.017756 0.833404 0.600580
O O4 0.000000 0.000000 0.575937
O O5 0.500000 0.500000 0.319721
O O6 0.750000 0.410909 0.351766
O O7 0.512704 0.334435 0.286710
O O8 0.496399 0.379022 0.423964
O O9 0.750000 0.751861 0.271564
O O10 0.996938 0.829015 0.332668
O O11 0.997039 0.795548 0.194677
O O12 0.750000 0.587034 0.879918
O O13 0.000000 0.500000 0.855807
O O14 0.750000 0.221183 0.115887
O O15 0.012156 0.169626 0.058045
O O16 0.750000 0.909990 0.000350
O O17 0.000000 0.000000 0.028999
#
# Coordination Sequence:
#
# PCOD8192730 Si02
#       6
#     8   8   8   8   8   8
#     4  10  20  38  62  89 117 151 193 241 292 349
#     4  11  22  39  63  91 119 153 195 244 295 351
#     4  11  23  40  59  85 120 159 197 240 292 350
#     4   9  20  37  61  87 114 147 188 234 284 338
#     4  12  25  40  58  86 120 158 199 244 297 354
#     4  11  22  40  64  90 118 154 197 245 296 352
#
# _framework density 20.235823
#
# number of rings (size 3 to 8) (size 9 to 14) (size 15 to 20)
#    0.000    1.333    0.000    7.500    0.000    4.667 
#    0.000    5.000    0.000    0.000    0.000    0.000 
#    0.000    0.000    0.000    0.000    0.000    0.000 
#
# Total GULP energy -297752.629624 kJ/mol
# GULP energy per Si atom -12406.359568 kJ/mol
# Density = 2.018977 g / cm^3
# Si number density = 20.235823 Si / 1000 Ang^3
#
#
#
# Elastic Constant Matrix: (Units=GPa)
#
#
# Indices 1 2 3 4 5 6 
#
# 1 133.5227 25.0403 18.3847 0.0000 0.0000 0.0000
# 2 25.0403 83.1567 15.6620 0.0000 0.0000 0.0000
# 3 18.3847 15.6620 45.3360 0.0000 0.0000 0.0000
# 4 0.0000 0.0000 0.0000 15.6441 0.0000 0.0000
# 5 0.0000 0.0000 0.0000 0.0000 33.3371 0.0000
# 6 0.0000 0.0000 0.0000 0.0000 0.0000 38.6795
#
#
#
# Elastic Compliance Matrix: (Units=1/GPa)
#
#
# Indices 1 2 3 4 5 6 
#
# 1 0.008225 -0.001977 -0.002652 0.000000 0.000000 0.000000
# 2 -0.001977 0.013338 -0.003806 0.000000 0.000000 0.000000
# 3 -0.002652 -0.003806 0.024448 0.000000 0.000000 0.000000
# 4 0.000000 0.000000 0.000000 0.063922 0.000000 0.000000
# 5 0.000000 0.000000 0.000000 0.000000 0.029997 0.000000
# 6 0.000000 0.000000 0.000000 0.000000 0.000000 0.025854
#
#
# Mechanical properties :
#
#
# Convention : Reuss Voigt Hill
#
# Bulk Modulus (GPa) = 34.31736 42.24327 38.28031
# Shear Modulus (GPa) = 25.99194 31.06070 28.52632
#
# Velocity S-wave (km/s) = 3.58781 3.92208 3.75866
# Velocity P-wave (km/s) = 5.84455 6.43670 6.14776
#
# Compressibility (1/GPa) = 0.02913977
#
# Stress axis : x y z
#
# Youngs Moduli (GPa) = 121.57477 74.97543 40.90323
#
# Poissons Ratio (x) = 0.14825 0.10850
# Poissons Ratio (y) = 0.24039 0.15567
# Poissons Ratio (z) = 0.32247 0.28535
#
# Static dielectric constant tensor:
#      x y z
#    x 3.755470 0.000000 0.000000 
#    y 0.000000 3.825360 0.000000 
#    z 0.000000 0.000000 3.698330 
# 
# 
# High freq. dielectric constant tensor:
#      x y z
#    x 1.803990 0.000000 0.000000 
#    y 0.000000 1.801290 0.000000 
#    z 0.000000 0.000000 1.788170 
# 
# From -- ./inp_files/18166.got.cif
#   From: 2010.03.12/outbox.cif.g09.slc.cpg/sg46_10_cif.got.tgz:18166.got - 2010.04.14 02:56:35.
