data_PCOD8192685
_publ_section_title
;
Structure prediction by ZEFSAII (Michael W. Deem and Ramdas Pophale) SiO2 
 PCOD8192685
Probable space group: I M A 2
;
_chemical_formula_sum "Si O2"
_cell_formula_units_Z 48
_cell_length_a 8.609721
_cell_length_b 20.314088
_cell_length_c 14.322785
_cell_angle_alpha 90.000000
_cell_angle_beta 90.000000
_cell_angle_gamma 90.000000
_cell_volume 2505.035475
_symmetry_space_group_name_H-M "I M A 2"
_symmetry_group_IT_number 46
_symmetry_cell_setting 'orthorhombic'
loop_
_space_group_symop_operation_xyz
x,y,z
-x,-y,z
1/2-x,y,z
1/2+x,-y,z
1/2+x,1/2+y,1/2+z
1/2-x,1/2-y,1/2+z
-x,1/2+y,1/2+z
x,1/2-y,1/2+z
loop_
_atom_site_type_symbol
_atom_site_label
_atom_site_fract_x
_atom_site_fract_y
_atom_site_fract_z
Si Si1 0.930040 0.727559 0.721480
Si Si2 0.067657 0.069685 0.524483
Si Si3 0.931970 0.806219 0.012122
Si Si4 0.566823 0.429936 0.412438
Si Si5 0.430087 0.815788 0.405655
Si Si6 0.432495 0.118989 0.724661
O O1 0.750000 0.716126 0.744043
O O2 0.974849 0.699895 0.620427
O O3 0.971780 0.804192 0.726461
O O4 0.031421 0.687756 0.796044
O O5 0.250000 0.064516 0.527219
O O6 0.006516 0.090104 0.626783
O O7 0.022411 0.123813 0.449125
O O8 0.000000 0.000000 0.493290
O O9 0.750000 0.794547 0.994590
O O10 0.981541 0.877652 0.977970
O O11 0.023779 0.752379 0.953445
O O12 0.500000 0.500000 0.443406
O O13 0.750000 0.426983 0.428725
O O14 0.529229 0.417408 0.304198
O O15 0.250000 0.828983 0.420433
O O16 0.250000 0.106280 0.740318
#
# Coordination Sequence:
#
# PCOD8192685 Si02
#       6
#     8   8   8   8   8   8
#     4  10  21  39  64  91 121 159 202 250 301 353
#     4  11  23  41  62  89 124 163 204 251 304 361
#     4  11  22  41  65  89 120 160 203 251 301 356
#     4  12  25  40  60  90 125 164 202 249 304 363
#     4  12  24  38  61  92 124 161 202 249 299 358
#     4  10  20  37  62  91 124 161 199 247 304 360
#
# _framework density 19.161407000000001
#
# number of rings (size 3 to 8) (size 9 to 14) (size 15 to 20)
#    0.000    1.000    3.333    4.500    0.000    4.000 
#    0.000    0.833    0.000    4.000    0.000    0.000 
#    0.000    0.000    0.000    0.000    0.000    0.000 
#
# Total GULP energy -297766.357133 kJ/mol
# GULP energy per Si atom -12406.931547 kJ/mol
# Density = 1.911779 g / cm^3
# Si number density = 19.161407 Si / 1000 Ang^3
#
#
#
# Elastic Constant Matrix: (Units=GPa)
#
#
# Indices 1 2 3 4 5 6 
#
# 1 43.6429 -4.0752 17.7213 0.0002 0.0000 0.0000
# 2 -4.0752 96.5046 36.9954 0.0004 0.0000 0.0000
# 3 17.7213 36.9954 101.8708 -0.0010 0.0000 0.0000
# 4 0.0002 0.0004 -0.0010 -6.3248 0.0003 0.0002
# 5 0.0000 0.0000 0.0000 0.0003 22.9361 0.0000
# 6 0.0000 0.0000 0.0000 0.0002 0.0000 31.7767
#
#
#
# Elastic Compliance Matrix: (Units=1/GPa)
#
#
# Indices 1 2 3 4 5 6 
#
# 1 0.025491 0.003225 -0.005606 0.000002 0.000000 0.000000
# 2 0.003225 0.012446 -0.005081 0.000002 0.000000 0.000000
# 3 -0.005606 -0.005081 0.012637 -0.000003 0.000000 0.000000
# 4 0.000002 0.000002 -0.000003 -0.158108 0.000002 0.000001
# 5 0.000000 0.000000 0.000000 0.000002 0.043599 0.000000
# 6 0.000000 0.000000 0.000000 0.000001 0.000000 0.031470
#
#
# Mechanical properties :
#
#
# Convention : Reuss Voigt Hill
#
# Bulk Modulus (GPa) = 28.04977 38.14460 33.09718
# Shear Modulus (GPa) = -883.55618 22.43604 -430.56007
#
# Velocity S-wave (km/s) = -21.49682 3.42555 -15.00632
# Velocity P-wave (km/s) = 24.52510 5.96624 16.82089
#
# Compressibility (1/GPa) = 0.03565092
#
# Stress axis : x y z
#
# Youngs Moduli (GPa) = 39.23015 80.34544 79.13425
#
# Poissons Ratio (x) = -0.25914 0.44360
# Poissons Ratio (y) = -0.12653 0.40209
# Poissons Ratio (z) = 0.21991 0.40824
#
# Static dielectric constant tensor:
#      x y z
#    x 3.485250 0.000000 0.000000 
#    y 0.000000 3.565150 0.000000 
#    z 0.000000 0.000000 3.622750 
# 
# 
# High freq. dielectric constant tensor:
#      x y z
#    x 1.749490 0.000000 0.000000 
#    y 0.000000 1.748190 0.000000 
#    z 0.000000 0.000000 1.748950 
# 
# From -- ./inp_files/13899.got.cif
#   From: 2010.03.12/outbox.cif.g09.slc.cpg/sg46_7_cif.got.tgz:13899.got - 2010.04.14 02:56:35.
