data_PCOD8192892
_publ_section_title
;
Structure prediction by ZEFSAII (Michael W. Deem and Ramdas Pophale) SiO2 
 PCOD8192892
Probable space group: I M A 2
;
_chemical_formula_sum "Si O2"
_cell_formula_units_Z 40
_cell_length_a 17.472458
_cell_length_b 18.989995
_cell_length_c 5.137060
_cell_angle_alpha 90.000000
_cell_angle_beta 90.000000
_cell_angle_gamma 90.000000
_cell_volume 1704.486217
_symmetry_space_group_name_H-M "I M A 2"
_symmetry_group_IT_number 46
_symmetry_cell_setting 'orthorhombic'
loop_
_space_group_symop_operation_xyz
x,y,z
-x,-y,z
1/2-x,y,z
1/2+x,-y,z
1/2+x,1/2+y,1/2+z
1/2-x,1/2-y,1/2+z
-x,1/2+y,1/2+z
x,1/2-y,1/2+z
loop_
_atom_site_type_symbol
_atom_site_label
_atom_site_fract_x
_atom_site_fract_y
_atom_site_fract_z
Si Si1 0.877472 0.927028 0.995840
Si Si2 0.334987 0.279814 0.349379
Si Si3 0.250000 0.542075 0.472044
Si Si4 0.087147 0.795814 0.504548
Si Si5 0.527350 0.575330 0.989425
Si Si6 0.750000 0.363490 0.971476
O O1 0.826782 0.862270 0.895673
O O2 0.944757 0.935417 0.785275
O O3 0.826425 0.996600 0.009526
O O4 0.906926 0.904727 0.281858
O O5 0.250000 0.246820 0.312712
O O6 0.379793 0.239000 0.582570
O O7 0.250000 0.603540 0.683898
O O8 0.250000 0.574471 0.184365
O O9 0.065682 0.755886 0.769176
O O10 0.176705 0.814009 0.503836
O O11 0.040293 0.868147 0.483791
O O12 0.500000 0.500000 0.883529
#
# Coordination Sequence:
#
# PCOD8192892 Si02
#       6
#     8   8   4   8   8   4
#     4  12  24  42  67  96 136 179 232 277 333 412
#     4  10  21  37  58  87 126 166 210 265 320 376
#     4  12  24  43  70 105 138 186 236 284 344 415
#     4  12  26  48  75 106 139 181 234 294 358 423
#     4  12  27  45  68 100 140 184 226 282 346 411
#     4  12  26  47  74 103 138 176 230 298 358 415
#
# _framework density 23.467482
#
# number of rings (size 3 to 8) (size 9 to 14) (size 15 to 20)
#    0.000    0.400    1.000    8.400    0.000    4.800 
#    0.000    0.000    0.000    0.000    0.000    0.000 
#    0.000    0.000    0.000    0.000    0.000    0.000 
#
# Total GULP energy -248045.550489 kJ/mol
# GULP energy per Si atom -12402.277524 kJ/mol
# Density = 2.341407 g / cm^3
# Si number density = 23.467482 Si / 1000 Ang^3
#
#
#
# Elastic Constant Matrix: (Units=GPa)
#
#
# Indices 1 2 3 4 5 6 
#
# 1 84.9651 29.2521 22.4020 0.0000 0.0000 0.0000
# 2 29.2521 113.2604 29.3828 0.0000 0.0000 0.0000
# 3 22.4020 29.3828 146.9399 0.0000 0.0000 0.0000
# 4 0.0000 0.0000 0.0000 41.3476 0.0000 0.0000
# 5 0.0000 0.0000 0.0000 0.0000 22.0147 0.0000
# 6 0.0000 0.0000 0.0000 0.0000 0.0000 38.7252
#
#
#
# Elastic Compliance Matrix: (Units=1/GPa)
#
#
# Indices 1 2 3 4 5 6 
#
# 1 0.013187 -0.003042 -0.001402 0.000000 0.000000 0.000000
# 2 -0.003042 0.010014 -0.001539 0.000000 0.000000 0.000000
# 3 -0.001402 -0.001539 0.007327 0.000000 0.000000 0.000000
# 4 0.000000 0.000000 0.000000 0.024185 0.000000 0.000000
# 5 0.000000 0.000000 0.000000 0.000000 0.045424 0.000000
# 6 0.000000 0.000000 0.000000 0.000000 0.000000 0.025823
#
#
# Mechanical properties :
#
#
# Convention : Reuss Voigt Hill
#
# Bulk Modulus (GPa) = 53.87348 56.35990 55.11669
# Shear Modulus (GPa) = 34.69505 38.02606 36.36055
#
# Velocity S-wave (km/s) = 3.84921 4.02975 3.94051
# Velocity P-wave (km/s) = 6.53924 6.76167 6.65139
#
# Compressibility (1/GPa) = 0.01856201
#
# Stress axis : x y z
#
# Youngs Moduli (GPa) = 75.83501 99.85972 136.48249
#
# Poissons Ratio (x) = 0.30377 0.19136
# Poissons Ratio (y) = 0.23069 0.21000
# Poissons Ratio (z) = 0.10633 0.15365
#
# Static dielectric constant tensor:
#      x y z
#    x 4.079050 0.000000 0.000000 
#    y 0.000000 4.220870 0.000000 
#    z 0.000000 0.000000 4.574790 
# 
# 
# High freq. dielectric constant tensor:
#      x y z
#    x 1.921340 0.000000 0.000000 
#    y 0.000000 1.942160 0.000000 
#    z 0.000000 0.000000 1.954190 
# 
# From -- ./inp_files/1606.got.cif
#   From: 2010.03.12/outbox.cif.g09.slc.cpg/sg46_1_cif.got.tgz:1606.got - 2010.04.14 02:56:35.
