data_PCOD8192236
_publ_section_title
;
Structure prediction by ZEFSAII (Michael W. Deem and Ramdas Pophale) SiO2 
 PCOD8192236
Probable space group: I M A 2
;
_chemical_formula_sum "Si O2"
_cell_formula_units_Z 44
_cell_length_a 12.251325
_cell_length_b 15.021975
_cell_length_c 10.873649
_cell_angle_alpha 90.000000
_cell_angle_beta 90.000000
_cell_angle_gamma 90.000000
_cell_volume 2001.176552
_symmetry_space_group_name_H-M "I M A 2"
_symmetry_group_IT_number 46
_symmetry_cell_setting 'orthorhombic'
loop_
_space_group_symop_operation_xyz
x,y,z
-x,-y,z
1/2-x,y,z
1/2+x,-y,z
1/2+x,1/2+y,1/2+z
1/2-x,1/2-y,1/2+z
-x,1/2+y,1/2+z
x,1/2-y,1/2+z
loop_
_atom_site_type_symbol
_atom_site_label
_atom_site_fract_x
_atom_site_fract_y
_atom_site_fract_z
Si Si1 0.873573 0.619678 0.532820
Si Si2 0.500000 0.000000 0.855831
Si Si3 0.456419 0.845921 0.681385
Si Si4 0.017982 0.850914 0.262617
Si Si5 0.125609 0.322975 0.985603
Si Si6 0.750000 0.336554 0.776329
Si Si7 0.250000 0.796600 0.550791
O O1 0.750000 0.604229 0.579761
O O2 0.883107 0.716449 0.470082
O O3 0.904202 0.544740 0.434881
O O4 0.958985 0.611202 0.643268
O O5 0.560547 0.073665 0.774710
O O6 0.453220 0.753846 0.756055
O O7 0.573499 0.853635 0.614351
O O8 0.359863 0.852032 0.580513
O O9 0.138568 0.896343 0.278286
O O10 0.939054 0.870800 0.376112
O O11 0.250000 0.355552 0.983510
O O12 0.750000 0.287159 0.643485
O O13 0.750000 0.275669 0.903411
#
# Coordination Sequence:
#
# PCOD8192236 Si02
#       7
#     8   4   8   8   8   4   4
#     4  10  23  40  63  95 133 171 221 274 343 398
#     4  12  24  42  60  98 136 168 208 284 352 418
#     4  10  22  36  60  92 128 167 214 268 337 395
#     4  10  19  39  63  94 122 168 225 271 322 399
#     4  10  19  37  65  91 122 169 225 271 313 389
#     4  10  20  34  68  94 134 158 225 276 346 386
#     4  10  20  36  60  98 126 172 207 278 326 412
#
# _framework density 21.987065999999999
#
# number of rings (size 3 to 8) (size 9 to 14) (size 15 to 20)
#    0.000    1.818    3.636    0.545    1.273    1.455 
#    1.636    0.909    0.000    0.000    0.000    0.000 
#    0.000    0.000    0.000    0.000    0.000    0.000 
#
# Total GULP energy -272703.223990 kJ/mol
# GULP energy per Si atom -12395.601090 kJ/mol
# Density = 2.193702 g / cm^3
# Si number density = 21.987066 Si / 1000 Ang^3
#
#
#
# Elastic Constant Matrix: (Units=GPa)
#
#
# Indices 1 2 3 4 5 6 
#
# 1 206.5975 14.5875 50.1477 0.0000 0.0000 0.0000
# 2 14.5875 55.5265 18.6385 0.0000 0.0000 0.0000
# 3 50.1477 18.6385 94.4029 0.0000 0.0000 0.0000
# 4 0.0000 0.0000 0.0000 34.2915 0.0000 0.0000
# 5 0.0000 0.0000 0.0000 0.0000 43.7166 0.0000
# 6 0.0000 0.0000 0.0000 0.0000 0.0000 10.4945
#
#
#
# Elastic Compliance Matrix: (Units=1/GPa)
#
#
# Indices 1 2 3 4 5 6 
#
# 1 0.005570 -0.000503 -0.002859 0.000000 0.000000 0.000000
# 2 -0.000503 0.019333 -0.003550 0.000000 0.000000 0.000000
# 3 -0.002859 -0.003550 0.012813 0.000000 0.000000 0.000000
# 4 0.000000 0.000000 0.000000 0.029162 0.000000 0.000000
# 5 0.000000 0.000000 0.000000 0.000000 0.022875 0.000000
# 6 0.000000 0.000000 0.000000 0.000000 0.000000 0.095288
#
#
# Mechanical properties :
#
#
# Convention : Reuss Voigt Hill
#
# Bulk Modulus (GPa) = 41.85708 58.14159 49.99933
# Shear Modulus (GPa) = 24.17457 35.91073 30.04265
#
# Velocity S-wave (km/s) = 3.31945 4.04575 3.70047
# Velocity P-wave (km/s) = 5.81121 6.95163 6.40684
#
# Compressibility (1/GPa) = 0.02389082
#
# Stress axis : x y z
#
# Youngs Moduli (GPa) = 179.53495 51.72452 78.04788
#
# Poissons Ratio (x) = 0.02604 0.22317
# Poissons Ratio (y) = 0.09039 0.27704
# Poissons Ratio (z) = 0.51336 0.18360
#
# Static dielectric constant tensor:
#      x y z
#    x 4.456340 0.000000 0.000000 
#    y 0.000000 3.440530 0.000000 
#    z 0.000000 0.000000 3.881580 
# 
# 
# High freq. dielectric constant tensor:
#      x y z
#    x 1.888610 0.000000 0.000000 
#    y 0.000000 1.809730 0.000000 
#    z 0.000000 0.000000 1.871740 
# 
# From -- ./inp_files/10246.got.cif
#   From: 2010.03.12/outbox.cif.g09.slc.cpg/sg46_6_cif.got.tgz:10246.got - 2010.04.14 02:56:35.
