data_PCOD8192195
_publ_section_title
;
Structure prediction by ZEFSAII (Michael W. Deem and Ramdas Pophale) SiO2 
 PCOD8192195
Probable space group: I M A 2
;
_chemical_formula_sum "Si O2"
_cell_formula_units_Z 64
_cell_length_a 8.733272
_cell_length_b 24.918060
_cell_length_c 15.081164
_cell_angle_alpha 90.000000
_cell_angle_beta 90.000000
_cell_angle_gamma 90.000000
_cell_volume 3281.905536
_symmetry_space_group_name_H-M "I M A 2"
_symmetry_group_IT_number 46
_symmetry_cell_setting 'orthorhombic'
loop_
_space_group_symop_operation_xyz
x,y,z
-x,-y,z
1/2-x,y,z
1/2+x,-y,z
1/2+x,1/2+y,1/2+z
1/2-x,1/2-y,1/2+z
-x,1/2+y,1/2+z
x,1/2-y,1/2+z
loop_
_atom_site_type_symbol
_atom_site_label
_atom_site_fract_x
_atom_site_fract_y
_atom_site_fract_z
Si Si1 0.570022 0.644726 0.430910
Si Si2 0.570237 0.333952 0.619797
Si Si3 0.068287 0.138448 0.293751
Si Si4 0.570616 0.605216 0.134642
Si Si5 0.069954 0.224641 0.600322
Si Si6 0.929865 0.443443 0.306543
Si Si7 0.570736 0.763421 0.403491
Si Si8 0.430618 0.441784 0.947621
O O1 0.750000 0.632884 0.427454
O O2 0.517204 0.646156 0.532470
O O3 0.480736 0.599399 0.378994
O O4 0.531311 0.701444 0.382707
O O5 0.750000 0.338253 0.603689
O O6 0.518023 0.372127 0.700960
O O7 0.520942 0.273248 0.646405
O O8 0.250000 0.137901 0.278109
O O9 0.006199 0.196075 0.329896
O O10 0.016634 0.093320 0.363673
O O11 0.750000 0.593979 0.146267
O O12 0.535690 0.668387 0.148480
O O13 0.481408 0.572089 0.208146
O O14 0.512066 0.585961 0.038437
O O15 0.250000 0.238645 0.603576
O O16 0.007481 0.220339 0.499960
O O17 0.750000 0.448607 0.307875
O O18 0.000000 0.500000 0.334610
O O19 0.750000 0.773203 0.407298
O O20 0.500000 0.500000 0.936851
O O21 0.250000 0.446251 0.950146
#
# Coordination Sequence:
#
# PCOD8192195 Si02
#       8
#     8   8   8   8   8   8   8   8
#     4  10  21  41  66  89 113 153 202 251 304 359
#     4  11  23  37  55  87 126 159 193 247 308 359
#     4  10  19  36  59  85 115 158 205 246 290 354
#     4  10  20  37  61  89 120 160 203 245 292 353
#     4   9  17  34  58  84 116 159 203 238 284 353
#     4  12  26  43  62  88 121 157 200 250 300 359
#     4   8  15  31  58  86 111 146 195 240 283 345
#     4  10  21  37  60  86 118 156 201 248 293 344
#
# _framework density 19.500865999999998
#
# number of rings (size 3 to 8) (size 9 to 14) (size 15 to 20)
#    0.000    2.000    1.250    3.750    1.750    2.500 
#    0.000    3.125    0.000    1.500    0.000    0.000 
#    0.000    0.000    0.000    0.000    0.000    0.000 
#
# Total GULP energy -396779.569463 kJ/mol
# GULP energy per Si atom -12399.361546 kJ/mol
# Density = 1.945648 g / cm^3
# Si number density = 19.500866 Si / 1000 Ang^3
#
#
#
# Elastic Constant Matrix: (Units=GPa)
#
#
# Indices 1 2 3 4 5 6 
#
# 1 67.0668 42.2852 28.7811 0.0000 0.0000 0.0000
# 2 42.2852 113.6014 49.8260 -0.0002 -0.0002 0.0000
# 3 28.7811 49.8260 98.6257 -0.0007 -0.0006 -0.0001
# 4 0.0000 -0.0002 -0.0007 22.5173 0.0000 0.0000
# 5 0.0000 -0.0002 -0.0006 0.0000 26.3613 -0.0001
# 6 0.0000 0.0000 -0.0001 0.0000 -0.0001 30.6174
#
#
#
# Elastic Compliance Matrix: (Units=1/GPa)
#
#
# Indices 1 2 3 4 5 6 
#
# 1 0.020015 -0.006280 -0.002668 0.000000 0.000000 0.000000
# 2 -0.006280 0.013279 -0.004876 0.000000 0.000000 0.000000
# 3 -0.002668 -0.004876 0.013381 0.000000 0.000000 0.000000
# 4 0.000000 0.000000 0.000000 0.044410 0.000000 0.000000
# 5 0.000000 0.000000 0.000000 0.000000 0.037934 0.000000
# 6 0.000000 0.000000 0.000000 0.000000 0.000000 0.032661
#
#
# Mechanical properties :
#
#
# Convention : Reuss Voigt Hill
#
# Bulk Modulus (GPa) = 52.55629 57.89761 55.22695
# Shear Modulus (GPa) = 25.55310 26.45931 26.00621
#
# Velocity S-wave (km/s) = 3.62381 3.68751 3.65580
# Velocity P-wave (km/s) = 6.67223 6.91986 6.79717
#
# Compressibility (1/GPa) = 0.01902722
#
# Stress axis : x y z
#
# Youngs Moduli (GPa) = 49.96279 75.30813 74.73095
#
# Poissons Ratio (x) = 0.47291 0.19940
# Poissons Ratio (y) = 0.31375 0.36438
# Poissons Ratio (z) = 0.13331 0.36720
#
# Static dielectric constant tensor:
#      x y z
#    x 3.309950 0.000000 0.000000 
#    y 0.000000 3.674700 0.000000 
#    z 0.000000 0.000000 3.645590 
# 
# 
# High freq. dielectric constant tensor:
#      x y z
#    x 1.737290 0.000000 0.000000 
#    y 0.000000 1.756720 0.000000 
#    z 0.000000 0.000000 1.765350 
# 
# From -- ./inp_files/14464.got.cif
#   From: 2010.03.12/outbox.cif.g09.slc.cpg/sg46_8_cif.got.tgz:14464.got - 2010.04.14 02:56:35.
