data_PCOD8192352
_publ_section_title
;
Structure prediction by ZEFSAII (Michael W. Deem and Ramdas Pophale) SiO2 
 PCOD8192352
Probable space group: I M A 2
;
_chemical_formula_sum "Si O2"
_cell_formula_units_Z 56
_cell_length_a 8.857346
_cell_length_b 14.010261
_cell_length_c 22.817863
_cell_angle_alpha 90.000000
_cell_angle_beta 90.000000
_cell_angle_gamma 90.000000
_cell_volume 2831.553713
_symmetry_space_group_name_H-M "I M A 2"
_symmetry_group_IT_number 46
_symmetry_cell_setting 'orthorhombic'
loop_
_space_group_symop_operation_xyz
x,y,z
-x,-y,z
1/2-x,y,z
1/2+x,-y,z
1/2+x,1/2+y,1/2+z
1/2-x,1/2-y,1/2+z
-x,1/2+y,1/2+z
x,1/2-y,1/2+z
loop_
_atom_site_type_symbol
_atom_site_label
_atom_site_fract_x
_atom_site_fract_y
_atom_site_fract_z
Si Si1 0.429592 0.198431 0.087240
Si Si2 0.924913 0.907345 0.549450
Si Si3 0.928380 0.396220 0.699175
Si Si4 0.571192 0.594724 0.356187
Si Si5 0.072971 0.713379 0.817168
Si Si6 0.417720 0.641847 0.473746
Si Si7 0.084694 0.858655 0.438088
O O1 0.250000 0.188271 0.087097
O O2 0.480501 0.308874 0.078804
O O3 0.498884 0.164665 0.147708
O O4 0.496192 0.131687 0.035721
O O5 0.750000 0.919007 0.557446
O O6 0.965789 0.910698 0.480134
O O7 0.000000 0.000000 0.580373
O O8 0.750000 0.405155 0.689860
O O9 0.970533 0.340551 0.758179
O O10 0.000000 0.500000 0.701647
O O11 0.500000 0.500000 0.326057
O O12 0.750000 0.590233 0.353525
O O13 0.516525 0.687291 0.320515
O O14 0.517267 0.592978 0.423668
O O15 0.250000 0.737557 0.821649
O O16 0.026794 0.642473 0.870761
O O17 0.250000 0.594963 0.477604
O O18 0.399156 0.750996 0.458229
O O19 0.250000 0.908159 0.443451
#
# Coordination Sequence:
#
# PCOD8192352 Si02
#       7
#     8   8   8   8   8   8   8
#     4  10  21  38  58  83 114 148 191 238 283 333
#     4  10  20  33  53  82 115 148 183 224 272 332
#     4  11  24  42  63  84 109 144 187 235 285 337
#     4  11  21  34  56  86 119 153 188 229 279 337
#     4   9  20  39  59  82 113 149 189 233 280 331
#     4   9  17  32  54  80 111 146 183 225 276 329
#     4   8  15  30  52  77 108 142 176 218 267 319
#
# _framework density 19.777128999999999
#
# number of rings (size 3 to 8) (size 9 to 14) (size 15 to 20)
#    0.000    2.286    0.000    3.857    0.000    7.429 
#    0.000    5.000    0.000    1.714    0.000    0.000 
#    0.000    0.000    0.000    0.000    0.000    0.000 
#
# Total GULP energy -347107.449707 kJ/mol
# GULP energy per Si atom -12396.694632 kJ/mol
# Density = 1.973212 g / cm^3
# Si number density = 19.777129 Si / 1000 Ang^3
#
#
#
# Elastic Constant Matrix: (Units=GPa)
#
#
# Indices 1 2 3 4 5 6 
#
# 1 113.4775 57.8082 47.7253 0.0000 0.0000 0.0000
# 2 57.8082 115.2298 49.9077 0.0000 0.0000 0.0000
# 3 47.7253 49.9077 128.8879 0.0000 0.0000 0.0000
# 4 0.0000 0.0000 0.0000 18.3955 0.0000 0.0000
# 5 0.0000 0.0000 0.0000 0.0000 27.3410 0.0000
# 6 0.0000 0.0000 0.0000 0.0000 0.0000 33.2942
#
#
#
# Elastic Compliance Matrix: (Units=1/GPa)
#
#
# Indices 1 2 3 4 5 6 
#
# 1 0.012551 -0.005147 -0.002654 0.000000 0.000000 0.000000
# 2 -0.005147 0.012538 -0.002949 0.000000 0.000000 0.000000
# 3 -0.002654 -0.002949 0.009883 0.000000 0.000000 0.000000
# 4 0.000000 0.000000 0.000000 0.054361 0.000000 0.000000
# 5 0.000000 0.000000 0.000000 0.000000 0.036575 0.000000
# 6 0.000000 0.000000 0.000000 0.000000 0.000000 0.030035
#
#
# Mechanical properties :
#
#
# Convention : Reuss Voigt Hill
#
# Bulk Modulus (GPa) = 74.23147 74.27530 74.25338
# Shear Modulus (GPa) = 27.48254 29.28306 28.38280
#
# Velocity S-wave (km/s) = 3.73179 3.85210 3.79242
# Velocity P-wave (km/s) = 7.49559 7.57777 7.53679
#
# Compressibility (1/GPa) = 0.01347138
#
# Stress axis : x y z
#
# Youngs Moduli (GPa) = 79.67800 79.76047 101.17889
#
# Poissons Ratio (x) = 0.41050 0.26857
# Poissons Ratio (y) = 0.41008 0.29838
# Poissons Ratio (z) = 0.21150 0.23522
#
# Static dielectric constant tensor:
#      x y z
#    x 3.709070 0.000000 0.000000 
#    y 0.000000 3.812360 0.000000 
#    z 0.000000 0.000000 3.657730 
# 
# 
# High freq. dielectric constant tensor:
#      x y z
#    x 1.778850 0.000000 0.000000 
#    y 0.000000 1.774720 0.000000 
#    z 0.000000 0.000000 1.751390 
# 
# From -- ./inp_files/21112.got.cif
#   From: 2010.03.12/outbox.cif.g09.slc.cpg/sg46_11_cif.got.tgz:21112.got - 2010.04.14 02:56:35.
