data_PCOD8192851
_publ_section_title
;
Structure prediction by ZEFSAII (Michael W. Deem and Ramdas Pophale) SiO2 
 PCOD8192851
Probable space group: I M A 2
;
_chemical_formula_sum "Si O2"
_cell_formula_units_Z 52
_cell_length_a 19.873547
_cell_length_b 25.061025
_cell_length_c 5.037763
_cell_angle_alpha 90.000000
_cell_angle_beta 90.000000
_cell_angle_gamma 90.000000
_cell_volume 2509.065208
_symmetry_space_group_name_H-M "I M A 2"
_symmetry_group_IT_number 46
_symmetry_cell_setting 'orthorhombic'
loop_
_space_group_symop_operation_xyz
x,y,z
-x,-y,z
1/2-x,y,z
1/2+x,-y,z
1/2+x,1/2+y,1/2+z
1/2-x,1/2-y,1/2+z
-x,1/2+y,1/2+z
x,1/2-y,1/2+z
loop_
_atom_site_type_symbol
_atom_site_label
_atom_site_fract_x
_atom_site_fract_y
_atom_site_fract_z
Si Si1 0.064340 0.461769 0.849110
Si Si2 0.036006 0.397319 0.345034
Si Si3 0.173039 0.716319 0.206744
Si Si4 0.380262 0.894871 0.828608
Si Si5 0.395769 0.212906 0.779943
Si Si6 0.827576 0.048435 0.325740
Si Si7 0.750000 0.783258 0.873838
O O1 0.057497 0.414292 0.638272
O O2 0.131090 0.494491 0.779572
O O3 0.000000 0.500000 0.841467
O O4 0.074783 0.433988 0.133228
O O5 0.051146 0.334759 0.308514
O O6 0.957824 0.410009 0.302147
O O7 0.250000 0.697087 0.236884
O O8 0.157607 0.764117 0.410331
O O9 0.124958 0.667523 0.270324
O O10 0.338074 0.929612 0.621018
O O11 0.352132 0.906312 0.121263
O O12 0.406898 0.241267 0.498549
O O13 0.320182 0.186799 0.804448
O O14 0.750000 0.034817 0.279919
O O15 0.750000 0.730332 0.686503
#
# Coordination Sequence:
#
# PCOD8192851 Si02
#       7
#     8   8   8   8   8   8   4
#     4  12  23  45  65  89 127 164 204 255 308 371
#     4  12  24  40  67  94 122 166 204 248 313 368
#     4  10  21  36  54  81 119 156 196 248 297 346
#     4  12  23  40  64  90 121 164 208 247 308 374
#     4  10  21  39  62  91 127 161 204 252 301 368
#     4  12  25  42  66  91 120 160 210 258 302 366
#     4   8  16  34  58  82 118 166 198 236 300 360
#
# _framework density 20.72485
#
# number of rings (size 3 to 8) (size 9 to 14) (size 15 to 20)
#    0.000    0.923    3.077    4.615    0.000    2.462 
#    2.769    0.000    0.000    0.000    0.000    0.000 
#    0.000    0.000    0.000    0.000    0.000    0.000 
#
# Total GULP energy -322516.190928 kJ/mol
# GULP energy per Si atom -12404.468882 kJ/mol
# Density = 2.067768 g / cm^3
# Si number density = 20.724850 Si / 1000 Ang^3
#
#
#
# Elastic Constant Matrix: (Units=GPa)
#
#
# Indices 1 2 3 4 5 6 
#
# 1 106.2203 34.1423 14.0280 0.0000 0.0000 0.0000
# 2 34.1423 77.0648 8.3385 0.0000 0.0000 0.0000
# 3 14.0280 8.3385 83.1970 0.0000 0.0000 0.0000
# 4 0.0000 0.0000 0.0000 31.4812 0.0000 0.0000
# 5 0.0000 0.0000 0.0000 0.0000 22.7053 0.0000
# 6 0.0000 0.0000 0.0000 0.0000 0.0000 34.1818
#
#
#
# Elastic Compliance Matrix: (Units=1/GPa)
#
#
# Indices 1 2 3 4 5 6 
#
# 1 0.011136 -0.004782 -0.001398 0.000000 0.000000 0.000000
# 2 -0.004782 0.015172 -0.000714 0.000000 0.000000 0.000000
# 3 -0.001398 -0.000714 0.012327 0.000000 0.000000 0.000000
# 4 0.000000 0.000000 0.000000 0.031765 0.000000 0.000000
# 5 0.000000 0.000000 0.000000 0.000000 0.044043 0.000000
# 6 0.000000 0.000000 0.000000 0.000000 0.000000 0.029255
#
#
# Mechanical properties :
#
#
# Convention : Reuss Voigt Hill
#
# Bulk Modulus (GPa) = 40.24907 42.16664 41.20786
# Shear Modulus (GPa) = 30.16218 31.67186 30.91702
#
# Velocity S-wave (km/s) = 3.81906 3.91347 3.86655
# Velocity P-wave (km/s) = 6.23777 6.38830 6.31349
#
# Compressibility (1/GPa) = 0.02484529
#
# Stress axis : x y z
#
# Youngs Moduli (GPa) = 89.79649 65.91014 81.12251
#
# Poissons Ratio (x) = 0.31521 0.11344
# Poissons Ratio (y) = 0.42945 0.05794
# Poissons Ratio (z) = 0.12557 0.04708
#
# Static dielectric constant tensor:
#      x y z
#    x 3.850530 0.000000 0.000000 
#    y 0.000000 3.496020 0.000000 
#    z 0.000000 0.000000 3.937450 
# 
# 
# High freq. dielectric constant tensor:
#      x y z
#    x 1.808580 0.000000 0.000000 
#    y 0.000000 1.794130 0.000000 
#    z 0.000000 0.000000 1.831930 
# 
# From -- ./inp_files/2073.got.cif
#   From: 2010.03.12/outbox.cif.g09.slc.cpg/sg46_2_cif.got.tgz:2073.got - 2010.04.14 02:56:35.
