data_PCOD8192257
_publ_section_title
;
Structure prediction by ZEFSAII (Michael W. Deem and Ramdas Pophale) SiO2 
 PCOD8192257
Probable space group: I M A 2
;
_chemical_formula_sum "Si O2"
_cell_formula_units_Z 64
_cell_length_a 21.150833
_cell_length_b 9.704361
_cell_length_c 14.653221
_cell_angle_alpha 90.000000
_cell_angle_beta 90.000000
_cell_angle_gamma 90.000000
_cell_volume 3007.651549
_symmetry_space_group_name_H-M "I M A 2"
_symmetry_group_IT_number 46
_symmetry_cell_setting 'orthorhombic'
loop_
_space_group_symop_operation_xyz
x,y,z
-x,-y,z
1/2-x,y,z
1/2+x,-y,z
1/2+x,1/2+y,1/2+z
1/2-x,1/2-y,1/2+z
-x,1/2+y,1/2+z
x,1/2-y,1/2+z
loop_
_atom_site_type_symbol
_atom_site_label
_atom_site_fract_x
_atom_site_fract_y
_atom_site_fract_z
Si Si1 0.877720 0.740287 0.261000
Si Si2 0.819372 0.013747 0.262606
Si Si3 0.322070 0.001213 0.879231
Si Si4 0.065579 0.349603 0.081022
Si Si5 0.322243 0.618128 0.563550
Si Si6 0.022893 0.156234 0.389210
Si Si7 0.075961 0.669282 0.118713
Si Si8 0.602704 0.248868 0.823478
O O1 0.865698 0.603851 0.321045
O O2 0.884226 0.714983 0.152140
O O3 0.942252 0.811374 0.294877
O O4 0.822290 0.849734 0.278896
O O5 0.750000 0.064987 0.291361
O O6 0.833473 0.040633 0.157386
O O7 0.871585 0.094419 0.321247
O O8 0.250000 0.027046 0.849268
O O9 0.341230 0.843481 0.862157
O O10 0.331792 0.004934 0.988832
O O11 0.078401 0.511519 0.087901
O O12 0.996718 0.289189 0.105709
O O13 0.070616 0.308031 0.973667
O O14 0.250000 0.677753 0.556172
O O15 0.373963 0.742535 0.557419
O O16 0.959656 0.251810 0.387243
O O17 0.000000 0.000000 0.395765
O O18 0.090395 0.686263 0.224334
#
# Coordination Sequence:
#
# PCOD8192257 Si02
#       8
#     8   8   8   8   8   8   8   8
#     4  12  25  41  65  96 132 171 211 266 333 391
#     4  10  22  41  65  90 127 174 215 262 324 392
#     4  11  24  41  64  96 131 165 216 273 323 388
#     4  11  23  40  61  91 134 168 205 267 329 379
#     4   9  21  40  63  91 124 167 220 271 317 381
#     4  12  24  40  65  94 126 171 216 266 320 390
#     4  10  19  39  62  87 128 161 206 266 319 383
#     4  11  21  40  66  93 125 167 221 263 320 386
#
# _framework density 21.279060999999999
#
# number of rings (size 3 to 8) (size 9 to 14) (size 15 to 20)
#    0.000    1.250    5.000    1.500    1.750    1.000 
#    0.000    0.000    0.000    0.750    0.000    0.000 
#    0.000    0.000    0.000    0.000    0.000    0.000 
#
# Total GULP energy -396477.047728 kJ/mol
# GULP energy per Si atom -12389.907741 kJ/mol
# Density = 2.123063 g / cm^3
# Si number density = 21.279061 Si / 1000 Ang^3
#
#
#
# Elastic Constant Matrix: (Units=GPa)
#
#
# Indices 1 2 3 4 5 6 
#
# 1 75.2968 34.7994 23.5108 0.0000 0.0000 0.0000
# 2 34.7994 83.6461 29.9107 0.0000 0.0000 0.0000
# 3 23.5108 29.9107 83.6971 0.0000 0.0000 0.0000
# 4 0.0000 0.0000 0.0000 22.6849 0.0000 0.0000
# 5 0.0000 0.0000 0.0000 0.0000 32.4554 0.0000
# 6 0.0000 0.0000 0.0000 0.0000 0.0000 32.1262
#
#
#
# Elastic Compliance Matrix: (Units=1/GPa)
#
#
# Indices 1 2 3 4 5 6 
#
# 1 0.016909 -0.006118 -0.002563 0.000000 0.000000 0.000000
# 2 -0.006118 0.015920 -0.003971 0.000000 0.000000 0.000000
# 3 -0.002563 -0.003971 0.014087 0.000000 0.000000 0.000000
# 4 0.000000 0.000000 0.000000 0.044082 0.000000 0.000000
# 5 0.000000 0.000000 0.000000 0.000000 0.030811 0.000000
# 6 0.000000 0.000000 0.000000 0.000000 0.000000 0.031127
#
#
# Mechanical properties :
#
#
# Convention : Reuss Voigt Hill
#
# Bulk Modulus (GPa) = 46.27134 46.56463 46.41799
# Shear Modulus (GPa) = 26.96219 27.74792 27.35506
#
# Velocity S-wave (km/s) = 3.56346 3.61501 3.58933
# Velocity P-wave (km/s) = 6.22280 6.27334 6.24812
#
# Compressibility (1/GPa) = 0.02161165
#
# Stress axis : x y z
#
# Youngs Moduli (GPa) = 59.14139 62.81291 70.98765
#
# Poissons Ratio (x) = 0.38428 0.18197
# Poissons Ratio (y) = 0.36182 0.28188
# Poissons Ratio (z) = 0.15160 0.24942
#
# Static dielectric constant tensor:
#      x y z
#    x 3.853800 0.000000 0.000000 
#    y 0.000000 3.697440 0.000000 
#    z 0.000000 0.000000 4.123620 
# 
# 
# High freq. dielectric constant tensor:
#      x y z
#    x 1.829910 0.000000 0.000000 
#    y 0.000000 1.820430 0.000000 
#    z 0.000000 0.000000 1.845050 
# 
# From -- ./inp_files/17392.got.cif
#   From: 2010.03.12/outbox.cif.g09.slc.cpg/sg46_9_cif.got.tgz:17392.got - 2010.04.14 02:56:35.
