data_PCOD8192916
_publ_section_title
;
Structure prediction by ZEFSAII (Michael W. Deem and Ramdas Pophale) SiO2 
 PCOD8192916
Probable space group: I M A 2
;
_chemical_formula_sum "Si O2"
_cell_formula_units_Z 64
_cell_length_a 9.455440
_cell_length_b 14.193094
_cell_length_c 23.651349
_cell_angle_alpha 90.000000
_cell_angle_beta 90.000000
_cell_angle_gamma 90.000000
_cell_volume 3174.057126
_symmetry_space_group_name_H-M "I M A 2"
_symmetry_group_IT_number 46
_symmetry_cell_setting 'orthorhombic'
loop_
_space_group_symop_operation_xyz
x,y,z
-x,-y,z
1/2-x,y,z
1/2+x,-y,z
1/2+x,1/2+y,1/2+z
1/2-x,1/2-y,1/2+z
-x,1/2+y,1/2+z
x,1/2-y,1/2+z
loop_
_atom_site_type_symbol
_atom_site_label
_atom_site_fract_x
_atom_site_fract_y
_atom_site_fract_z
Si Si1 0.409300 0.700335 0.633530
Si Si2 0.913531 0.733597 0.439698
Si Si3 0.038895 0.391439 0.133745
Si Si4 0.084644 0.737896 0.326377
Si Si5 0.902986 0.589969 0.011070
Si Si6 0.588958 0.406060 0.747672
Si Si7 0.405926 0.092672 0.756309
Si Si8 0.085230 0.403567 0.540556
O O1 0.250000 0.670668 0.616954
O O2 0.412106 0.814689 0.637385
O O3 0.454959 0.655324 0.693258
O O4 0.520585 0.665259 0.587432
O O5 0.750000 0.742906 0.419847
O O6 0.964717 0.825184 0.474055
O O7 0.931207 0.641936 0.478765
O O8 0.020198 0.724387 0.388059
O O9 0.127264 0.379866 0.191158
O O10 0.000000 0.500000 0.130044
O O11 0.119363 0.371927 0.075115
O O12 0.250000 0.708433 0.326378
O O13 0.066622 0.844737 0.304476
O O14 0.995847 0.673926 0.284418
O O15 0.750000 0.560401 0.987658
O O16 0.000000 0.500000 0.005151
O O17 0.500000 0.500000 0.752682
O O18 0.750000 0.438227 0.741939
O O19 0.250000 0.079904 0.784831
O O20 0.500000 0.000000 0.762098
O O21 0.250000 0.421252 0.554963
O O22 0.000000 0.500000 0.541356
#
# Coordination Sequence:
#
# PCOD8192916 Si02
#       8
#     8   8   8   8   8   8   8   8
#     4  11  22  40  66  95 130 167 207 256 312 374
#     4  10  23  43  63  87 123 163 208 261 312 369
#     4  10  21  37  61  97 132 165 201 246 307 375
#     4  11  24  43  64  89 123 162 212 264 312 369
#     4  10  21  39  61  90 126 161 200 249 304 368
#     4  10  23  42  63  91 125 163 208 258 310 368
#     4  11  23  39  64  94 127 165 204 249 309 376
#     4  11  24  43  65  93 128 163 209 260 314 376
#
# _framework density 20.163467000000001
#
# number of rings (size 3 to 8) (size 9 to 14) (size 15 to 20)
#    0.000    1.500    2.500    1.875    0.000    9.500 
#    0.000    3.750    0.000    0.000    0.000    0.000 
#    0.000    0.000    0.000    0.000    0.000    0.000 
#
# Total GULP energy -396575.132220 kJ/mol
# GULP energy per Si atom -12392.972882 kJ/mol
# Density = 2.011757 g / cm^3
# Si number density = 20.163467 Si / 1000 Ang^3
#
#
#
# Elastic Constant Matrix: (Units=GPa)
#
#
# Indices 1 2 3 4 5 6 
#
# 1 133.9151 58.5423 41.0059 0.0000 0.0000 0.0000
# 2 58.5423 118.4905 26.4113 0.0000 0.0000 0.0000
# 3 41.0059 26.4113 81.7691 0.0000 0.0000 0.0000
# 4 0.0000 0.0000 0.0000 23.0471 0.0000 0.0000
# 5 0.0000 0.0000 0.0000 0.0000 2.6678 0.0000
# 6 0.0000 0.0000 0.0000 0.0000 0.0000 30.0760
#
#
#
# Elastic Compliance Matrix: (Units=1/GPa)
#
#
# Indices 1 2 3 4 5 6 
#
# 1 0.010561 -0.004350 -0.003891 0.000000 0.000000 0.000000
# 2 -0.004350 0.010886 -0.001335 0.000000 0.000000 0.000000
# 3 -0.003891 -0.001335 0.014612 0.000000 0.000000 0.000000
# 4 0.000000 0.000000 0.000000 0.043389 0.000000 0.000000
# 5 0.000000 0.000000 0.000000 0.000000 0.374839 0.000000
# 6 0.000000 0.000000 0.000000 0.000000 0.000000 0.033249
#
#
# Mechanical properties :
#
#
# Convention : Reuss Voigt Hill
#
# Bulk Modulus (GPa) = 59.14661 65.12153 62.13407
# Shear Modulus (GPa) = 9.75945 25.03920 17.39932
#
# Velocity S-wave (km/s) = 2.20242 3.52776 2.94073
# Velocity P-wave (km/s) = 5.98872 6.99717 6.51249
#
# Compressibility (1/GPa) = 0.01690714
#
# Stress axis : x y z
#
# Youngs Moduli (GPa) = 94.69121 91.85792 68.43771
#
# Poissons Ratio (x) = 0.39962 0.26628
# Poissons Ratio (y) = 0.41195 0.09134
# Poissons Ratio (z) = 0.36843 0.12260
#
# Static dielectric constant tensor:
#      x y z
#    x 3.642360 0.000000 0.000000 
#    y 0.000000 3.720280 0.000000 
#    z 0.000000 0.000000 3.872550 
# 
# 
# High freq. dielectric constant tensor:
#      x y z
#    x 1.789020 0.000000 0.000000 
#    y 0.000000 1.794930 0.000000 
#    z 0.000000 0.000000 1.786160 
# 
# From -- ./inp_files/23245.got.cif
#   From: 2010.03.12/outbox.cif.g09.slc.cpg/sg46_12_cif.got.tgz:23245.got - 2010.04.14 02:56:35.
