data_PCOD8192450
_publ_section_title
;
Structure prediction by ZEFSAII (Michael W. Deem and Ramdas Pophale) SiO2 
 PCOD8192450
Probable space group: I M A 2
;
_chemical_formula_sum "Si O2"
_cell_formula_units_Z 48
_cell_length_a 18.435330
_cell_length_b 11.442366
_cell_length_c 12.108160
_cell_angle_alpha 90.000000
_cell_angle_beta 90.000000
_cell_angle_gamma 90.000000
_cell_volume 2554.141199
_symmetry_space_group_name_H-M "I M A 2"
_symmetry_group_IT_number 46
_symmetry_cell_setting 'orthorhombic'
loop_
_space_group_symop_operation_xyz
x,y,z
-x,-y,z
1/2-x,y,z
1/2+x,-y,z
1/2+x,1/2+y,1/2+z
1/2-x,1/2-y,1/2+z
-x,1/2+y,1/2+z
x,1/2-y,1/2+z
loop_
_atom_site_type_symbol
_atom_site_label
_atom_site_fract_x
_atom_site_fract_y
_atom_site_fract_z
Si Si1 0.750000 0.079960 0.620991
Si Si2 0.250000 0.408622 0.468139
Si Si3 0.630444 0.803478 0.122072
Si Si4 0.480030 0.135432 0.511960
Si Si5 0.750000 0.657641 0.218908
Si Si6 0.636760 0.163788 0.447400
Si Si7 0.250000 0.652928 0.376087
Si Si8 0.919031 0.538023 0.807870
O O1 0.678298 0.119761 0.556522
O O2 0.750000 0.121671 0.747238
O O3 0.750000 0.939971 0.623243
O O4 0.177379 0.351111 0.519083
O O5 0.250000 0.390597 0.339571
O O6 0.250000 0.549991 0.469030
O O7 0.561743 0.719419 0.097069
O O8 0.678560 0.732709 0.206937
O O9 0.608253 0.916692 0.191135
O O10 0.555536 0.199423 0.483386
O O11 0.425578 0.132614 0.407024
O O12 0.500000 0.000000 0.550390
O O13 0.676836 0.274661 0.396578
O O14 0.633552 0.065352 0.351300
O O15 0.000000 0.500000 0.784093
#
# Coordination Sequence:
#
# PCOD8192450 Si02
#       8
#     4   4   8   8   4   8   4   8
#     4  10  20  35  56  78 106 149 186 222 280 338
#     4  10  24  37  50  82 116 143 190 242 286 338
#     4  11  21  35  59  81 110 148 183 236 290 339
#     4   9  19  37  57  83 111 143 188 232 284 353
#     4  10  20  35  52  76 108 143 182 226 280 342
#     4   9  20  37  58  79 111 147 186 234 280 343
#     4  10  22  37  54  82 114 147 192 238 282 340
#     4   9  20  36  54  81 109 141 189 232 278 343
#
# _framework density 18.793009000000001
#
# number of rings (size 3 to 8) (size 9 to 14) (size 15 to 20)
#    0.000    2.667    0.000    3.000    0.000   10.667 
#    0.000    0.000    0.000    2.000    0.000    0.000 
#    0.000    0.000    0.000    0.000    0.000    0.000 
#
# Total GULP energy -297333.118141 kJ/mol
# GULP energy per Si atom -12388.879923 kJ/mol
# Density = 1.875024 g / cm^3
# Si number density = 18.793009 Si / 1000 Ang^3
#
#
#
# Elastic Constant Matrix: (Units=GPa)
#
#
# Indices 1 2 3 4 5 6 
#
# 1 94.3725 47.5976 29.5723 0.0000 0.0000 0.0000
# 2 47.5976 94.1217 39.6754 0.0000 0.0000 0.0000
# 3 29.5723 39.6754 74.0739 0.0000 0.0000 0.0000
# 4 0.0000 0.0000 0.0000 36.4225 0.0000 0.0000
# 5 0.0000 0.0000 0.0000 0.0000 20.6092 0.0000
# 6 0.0000 0.0000 0.0000 0.0000 0.0000 26.6980
#
#
#
# Elastic Compliance Matrix: (Units=1/GPa)
#
#
# Indices 1 2 3 4 5 6 
#
# 1 0.014551 -0.006341 -0.002412 0.000000 0.000000 0.000000
# 2 -0.006341 0.016487 -0.006299 0.000000 0.000000 0.000000
# 3 -0.002412 -0.006299 0.017837 0.000000 0.000000 0.000000
# 4 0.000000 0.000000 0.000000 0.027456 0.000000 0.000000
# 5 0.000000 0.000000 0.000000 0.000000 0.048522 0.000000
# 6 0.000000 0.000000 0.000000 0.000000 0.000000 0.037456
#
#
# Mechanical properties :
#
#
# Convention : Reuss Voigt Hill
#
# Bulk Modulus (GPa) = 53.28006 55.13988 54.20997
# Shear Modulus (GPa) = 25.16744 26.46077 25.81411
#
# Velocity S-wave (km/s) = 3.66347 3.75642 3.71023
# Velocity P-wave (km/s) = 6.80494 6.94396 6.87480
#
# Compressibility (1/GPa) = 0.01876875
#
# Stress axis : x y z
#
# Youngs Moduli (GPa) = 68.72585 60.65548 56.06333
#
# Poissons Ratio (x) = 0.38464 0.13525
# Poissons Ratio (y) = 0.43581 0.35314
# Poissons Ratio (z) = 0.16580 0.38206
#
# Static dielectric constant tensor:
#      x y z
#    x 3.469920 0.000000 0.000000 
#    y 0.000000 3.568150 0.000000 
#    z 0.000000 0.000000 3.407940 
# 
# 
# High freq. dielectric constant tensor:
#      x y z
#    x 1.739630 0.000000 0.000000 
#    y 0.000000 1.726190 0.000000 
#    z 0.000000 0.000000 1.723840 
# 
# From -- ./inp_files/11837.got.cif
#   From: 2010.03.12/outbox.cif.g09.slc.cpg/sg46_6_cif.got.tgz:11837.got - 2010.04.14 02:56:35.
