data_PCOD8192886
_publ_section_title
;
Structure prediction by ZEFSAII (Michael W. Deem and Ramdas Pophale) SiO2 
 PCOD8192886
Probable space group: I M A 2
;
_chemical_formula_sum "Si O2"
_cell_formula_units_Z 64
_cell_length_a 24.498186
_cell_length_b 10.438115
_cell_length_c 12.273624
_cell_angle_alpha 90.000000
_cell_angle_beta 90.000000
_cell_angle_gamma 90.000000
_cell_volume 3138.548322
_symmetry_space_group_name_H-M "I M A 2"
_symmetry_group_IT_number 46
_symmetry_cell_setting 'orthorhombic'
loop_
_space_group_symop_operation_xyz
x,y,z
-x,-y,z
1/2-x,y,z
1/2+x,-y,z
1/2+x,1/2+y,1/2+z
1/2-x,1/2-y,1/2+z
-x,1/2+y,1/2+z
x,1/2-y,1/2+z
loop_
_atom_site_type_symbol
_atom_site_label
_atom_site_fract_x
_atom_site_fract_y
_atom_site_fract_z
Si Si1 0.811878 0.483404 0.970320
Si Si2 0.356143 0.101350 0.247540
Si Si3 0.558894 0.447633 0.283602
Si Si4 0.689582 0.757598 0.052707
Si Si5 0.595426 0.693467 0.390492
Si Si6 0.092019 0.838386 0.564183
Si Si7 0.519117 0.198778 0.380973
Si Si8 0.049733 0.923895 0.160351
O O1 0.750000 0.433085 0.967943
O O2 0.827901 0.527099 0.847731
O O3 0.818674 0.602966 0.054425
O O4 0.848164 0.363063 0.011728
O O5 0.311897 0.166720 0.167256
O O6 0.389240 0.223556 0.286913
O O7 0.397752 0.009570 0.184810
O O8 0.500000 0.500000 0.250440
O O9 0.591491 0.547691 0.355102
O O10 0.590372 0.423684 0.171482
O O11 0.556713 0.321792 0.357167
O O12 0.750000 0.783658 0.002248
O O13 0.640923 0.813936 0.982022
O O14 0.538644 0.755770 0.430729
O O15 0.048746 0.887104 0.473074
O O16 0.074767 0.691955 0.589788
O O17 0.516901 0.120583 0.268701
O O18 0.000000 0.000000 0.096639
#
# Coordination Sequence:
#
# PCOD8192886 Si02
#       8
#     8   8   8   8   8   8   8   8
#     4  10  22  43  65  89 123 168 221 270 307 366
#     4  11  21  38  64  92 127 165 205 263 318 379
#     4   9  21  37  56  87 126 160 200 252 310 381
#     4  10  23  39  62  94 123 165 217 262 316 371
#     4  10  21  37  61  89 126 161 203 256 321 370
#     4  11  23  38  63  88 124 169 208 255 311 379
#     4  10  21  37  57  89 123 161 204 251 312 381
#     4  11  23  38  59  94 132 161 207 255 323 385
#
# _framework density 20.391591999999999
#
# number of rings (size 3 to 8) (size 9 to 14) (size 15 to 20)
#    0.000    1.750    2.500    1.125    3.500    3.500 
#    0.000    1.875    0.000    0.000    0.000    0.000 
#    0.000    0.000    0.000    0.000    0.000    0.000 
#
# Total GULP energy -396547.557350 kJ/mol
# GULP energy per Si atom -12392.111167 kJ/mol
# Density = 2.034518 g / cm^3
# Si number density = 20.391592 Si / 1000 Ang^3
#
#
#
# Elastic Constant Matrix: (Units=GPa)
#
#
# Indices 1 2 3 4 5 6 
#
# 1 145.4366 51.1602 57.2823 0.0000 0.0000 0.0000
# 2 51.1602 88.5753 23.1512 0.0000 0.0000 0.0000
# 3 57.2823 23.1512 71.0817 0.0000 0.0000 0.0000
# 4 0.0000 0.0000 0.0000 5.9711 0.0000 0.0000
# 5 0.0000 0.0000 0.0000 0.0000 14.4232 0.0000
# 6 0.0000 0.0000 0.0000 0.0000 0.0000 32.5846
#
#
#
# Elastic Compliance Matrix: (Units=1/GPa)
#
#
# Indices 1 2 3 4 5 6 
#
# 1 0.011596 -0.004651 -0.007830 0.000000 0.000000 0.000000
# 2 -0.004651 0.014206 -0.000879 0.000000 0.000000 0.000000
# 3 -0.007830 -0.000879 0.020664 0.000000 0.000000 0.000000
# 4 0.000000 0.000000 0.000000 0.167473 0.000000 0.000000
# 5 0.000000 0.000000 0.000000 0.000000 0.069333 0.000000
# 6 0.000000 0.000000 0.000000 0.000000 0.000000 0.030689
#
#
# Mechanical properties :
#
#
# Convention : Reuss Voigt Hill
#
# Bulk Modulus (GPa) = 50.64106 63.14233 56.89169
# Shear Modulus (GPa) = 14.39831 22.16245 18.28038
#
# Velocity S-wave (km/s) = 2.66012 3.30031 2.99735
# Velocity P-wave (km/s) = 5.85860 6.74943 6.31973
#
# Compressibility (1/GPa) = 0.01974682
#
# Stress axis : x y z
#
# Youngs Moduli (GPa) = 86.23748 70.39308 48.39257
#
# Poissons Ratio (x) = 0.32741 0.37891
# Poissons Ratio (y) = 0.40110 0.04252
# Poissons Ratio (z) = 0.67523 0.06185
#
# Static dielectric constant tensor:
#      x y z
#    x 3.687530 0.000000 0.000000 
#    y 0.000000 4.125900 0.000000 
#    z 0.000000 0.000000 3.690640 
# 
# 
# High freq. dielectric constant tensor:
#      x y z
#    x 1.791460 0.000000 0.000000 
#    y 0.000000 1.795950 0.000000 
#    z 0.000000 0.000000 1.796360 
# 
# From -- ./inp_files/12846.got.cif
#   From: 2010.03.12/outbox.cif.g09.slc.cpg/sg46_7_cif.got.tgz:12846.got - 2010.04.14 02:56:35.
