data_PCOD8192701
_publ_section_title
;
Structure prediction by ZEFSAII (Michael W. Deem and Ramdas Pophale) SiO2 
 PCOD8192701
Probable space group: I M A 2
;
_chemical_formula_sum "Si O2"
_cell_formula_units_Z 56
_cell_length_a 14.132543
_cell_length_b 11.991185
_cell_length_c 15.124354
_cell_angle_alpha 90.000000
_cell_angle_beta 90.000000
_cell_angle_gamma 90.000000
_cell_volume 2563.062832
_symmetry_space_group_name_H-M "I M A 2"
_symmetry_group_IT_number 46
_symmetry_cell_setting 'orthorhombic'
loop_
_space_group_symop_operation_xyz
x,y,z
-x,-y,z
1/2-x,y,z
1/2+x,-y,z
1/2+x,1/2+y,1/2+z
1/2-x,1/2-y,1/2+z
-x,1/2+y,1/2+z
x,1/2-y,1/2+z
loop_
_atom_site_type_symbol
_atom_site_label
_atom_site_fract_x
_atom_site_fract_y
_atom_site_fract_z
Si Si1 0.355759 0.039702 0.904250
Si Si2 0.356963 0.746059 0.194910
Si Si3 0.545213 0.740706 0.943344
Si Si4 0.522365 0.629661 0.767249
Si Si5 0.862926 0.775942 0.632323
Si Si6 0.355291 0.820109 0.003295
Si Si7 0.643596 0.495232 0.205897
O O1 0.250000 0.090073 0.915626
O O2 0.432535 0.136081 0.908602
O O3 0.366327 0.980558 0.810360
O O4 0.376514 0.947458 0.977886
O O5 0.250000 0.736989 0.233434
O O6 0.423618 0.802464 0.267745
O O7 0.395347 0.622045 0.167925
O O8 0.360750 0.822467 0.108792
O O9 0.568373 0.652452 0.864550
O O10 0.433486 0.735387 0.965235
O O11 0.609559 0.721570 0.029436
O O12 0.500000 0.500000 0.753565
O O13 0.589175 0.674509 0.687358
O O14 0.750000 0.762497 0.642781
O O15 0.906061 0.891942 0.671524
O O16 0.250000 0.782815 0.971091
O O17 0.750000 0.509593 0.172973
#
# Coordination Sequence:
#
# PCOD8192701 Si02
#       7
#     8   8   8   8   8   8   8
#     4  10  20  37  65  98 130 170 223 283 338 405
#     4  10  22  43  68  99 135 177 225 282 351 418
#     4  12  24  42  66  99 133 183 231 284 349 422
#     4  12  28  46  67 103 144 189 236 289 358 433
#     4  11  25  46  71 102 138 182 235 295 355 423
#     4  10  22  38  62  97 137 172 222 289 342 408
#     4   9  19  40  69  98 130 169 223 279 342 413
#
# _framework density 21.848859999999998
#
# number of rings (size 3 to 8) (size 9 to 14) (size 15 to 20)
#    0.000    1.429    2.857    1.714    2.000    4.571 
#    0.000    0.000    0.000    0.000    0.000    0.000 
#    0.000    0.000    0.000    0.000    0.000    0.000 
#
# Total GULP energy -347070.219310 kJ/mol
# GULP energy per Si atom -12395.364975 kJ/mol
# Density = 2.179913 g / cm^3
# Si number density = 21.848860 Si / 1000 Ang^3
#
#
#
# Elastic Constant Matrix: (Units=GPa)
#
#
# Indices 1 2 3 4 5 6 
#
# 1 110.4942 33.0893 23.2662 0.0000 0.0000 0.0000
# 2 33.0893 142.9595 54.1159 0.0000 0.0000 0.0000
# 3 23.2662 54.1159 114.2606 0.0000 0.0000 0.0000
# 4 0.0000 0.0000 0.0000 37.6208 0.0000 0.0000
# 5 0.0000 0.0000 0.0000 0.0000 19.9623 0.0000
# 6 0.0000 0.0000 0.0000 0.0000 0.0000 24.5202
#
#
#
# Elastic Compliance Matrix: (Units=1/GPa)
#
#
# Indices 1 2 3 4 5 6 
#
# 1 0.009842 -0.001851 -0.001127 0.000000 0.000000 0.000000
# 2 -0.001851 0.008871 -0.003825 0.000000 0.000000 0.000000
# 3 -0.001127 -0.003825 0.010793 0.000000 0.000000 0.000000
# 4 0.000000 0.000000 0.000000 0.026581 0.000000 0.000000
# 5 0.000000 0.000000 0.000000 0.000000 0.050094 0.000000
# 6 0.000000 0.000000 0.000000 0.000000 0.000000 0.040783
#
#
# Mechanical properties :
#
#
# Convention : Reuss Voigt Hill
#
# Bulk Modulus (GPa) = 62.89398 65.40633 64.15016
# Shear Modulus (GPa) = 30.14399 33.57019 31.85709
#
# Velocity S-wave (km/s) = 3.71841 3.92404 3.82261
# Velocity P-wave (km/s) = 6.87632 7.10856 6.99340
#
# Compressibility (1/GPa) = 0.01589977
#
# Stress axis : x y z
#
# Youngs Moduli (GPa) = 101.60516 112.72349 92.65381
#
# Poissons Ratio (x) = 0.20869 0.10444
# Poissons Ratio (y) = 0.18810 0.35437
# Poissons Ratio (z) = 0.11453 0.43112
#
# Static dielectric constant tensor:
#      x y z
#    x 4.138560 0.000000 0.000000 
#    y 0.000000 3.888480 0.000000 
#    z 0.000000 0.000000 3.911630 
# 
# 
# High freq. dielectric constant tensor:
#      x y z
#    x 1.868790 0.000000 0.000000 
#    y 0.000000 1.846120 0.000000 
#    z 0.000000 0.000000 1.857260 
# 
# From -- ./inp_files/15918.got.cif
#   From: 2010.03.12/outbox.cif.g09.slc.cpg/sg46_8_cif.got.tgz:15918.got - 2010.04.14 02:56:35.
