data_PCOD8192689
_publ_section_title
;
Structure prediction by ZEFSAII (Michael W. Deem and Ramdas Pophale) SiO2 
 PCOD8192689
Probable space group: I M A 2
;
_chemical_formula_sum "Si O2"
_cell_formula_units_Z 64
_cell_length_a 29.475010
_cell_length_b 11.607566
_cell_length_c 9.066883
_cell_angle_alpha 90.000000
_cell_angle_beta 90.000000
_cell_angle_gamma 90.000000
_cell_volume 3102.081005
_symmetry_space_group_name_H-M "I M A 2"
_symmetry_group_IT_number 46
_symmetry_cell_setting 'orthorhombic'
loop_
_space_group_symop_operation_xyz
x,y,z
-x,-y,z
1/2-x,y,z
1/2+x,-y,z
1/2+x,1/2+y,1/2+z
1/2-x,1/2-y,1/2+z
-x,1/2+y,1/2+z
x,1/2-y,1/2+z
loop_
_atom_site_type_symbol
_atom_site_label
_atom_site_fract_x
_atom_site_fract_y
_atom_site_fract_z
Si Si1 0.383474 0.351169 0.843210
Si Si2 0.699593 0.696537 0.684458
Si Si3 0.506608 0.133660 0.609510
Si Si4 0.199213 0.407532 0.376158
Si Si5 0.945681 0.014873 0.170595
Si Si6 0.941065 0.242893 0.340503
Si Si7 0.091290 0.140252 0.660879
Si Si8 0.609168 0.042724 0.880880
O O1 0.336179 0.389058 0.766043
O O2 0.426365 0.427381 0.792582
O O3 0.390517 0.219262 0.793000
O O4 0.376269 0.357890 0.018391
O O5 0.750000 0.657894 0.733447
O O6 0.693193 0.683638 0.509457
O O7 0.691839 0.831409 0.728386
O O8 0.538939 0.191354 0.489537
O O9 0.524728 0.161780 0.773032
O O10 0.456618 0.188898 0.601646
O O11 0.500000 0.000000 0.575952
O O12 0.250000 0.462338 0.378519
O O13 0.162420 0.509947 0.390238
O O14 0.932444 0.143123 0.222297
O O15 0.920379 0.992186 0.016591
O O16 0.000000 0.000000 0.156765
O O17 0.895460 0.317637 0.373880
O O18 0.088342 0.011906 0.729699
#
# Coordination Sequence:
#
# PCOD8192689 Si02
#       8
#     8   8   8   8   8   8   8   8
#     4  12  23  39  62  94 132 170 214 264 320 389
#     4  10  20  37  62  95 132 165 201 259 327 388
#     4  12  24  43  62  92 127 178 217 274 323 384
#     4  10  21  41  66  97 133 168 210 265 333 396
#     4  12  26  44  64  91 130 178 221 269 324 383
#     4  12  26  45  63  88 127 170 230 270 317 386
#     4  12  24  37  61  92 131 168 217 261 321 389
#     4  12  25  42  66  94 128 175 215 271 331 389
#
# _framework density 20.631312000000001
#
# number of rings (size 3 to 8) (size 9 to 14) (size 15 to 20)
#    0.000    0.500    5.000    4.875    1.750    0.000 
#    0.000    0.000    0.000    1.500    0.000    0.000 
#    0.000    0.000    0.000    0.000    0.000    0.000 
#
# Total GULP energy -396725.193821 kJ/mol
# GULP energy per Si atom -12397.662307 kJ/mol
# Density = 2.058435 g / cm^3
# Si number density = 20.631312 Si / 1000 Ang^3
#
#
#
# Elastic Constant Matrix: (Units=GPa)
#
#
# Indices 1 2 3 4 5 6 
#
# 1 131.0448 42.0162 18.9877 0.0000 0.0000 0.0000
# 2 42.0162 101.0883 37.5379 0.0000 0.0000 0.0000
# 3 18.9877 37.5379 100.3322 0.0000 0.0000 0.0000
# 4 0.0000 0.0000 0.0000 27.8800 0.0000 0.0000
# 5 0.0000 0.0000 0.0000 0.0000 28.7709 0.0000
# 6 0.0000 0.0000 0.0000 0.0000 0.0000 34.3628
#
#
#
# Elastic Compliance Matrix: (Units=1/GPa)
#
#
# Indices 1 2 3 4 5 6 
#
# 1 0.008815 -0.003535 -0.000345 0.000000 0.000000 0.000000
# 2 -0.003535 0.012906 -0.004160 0.000000 0.000000 0.000000
# 3 -0.000345 -0.004160 0.011589 0.000000 0.000000 0.000000
# 4 0.000000 0.000000 0.000000 0.035868 0.000000 0.000000
# 5 0.000000 0.000000 0.000000 0.000000 0.034757 0.000000
# 6 0.000000 0.000000 0.000000 0.000000 0.000000 0.029101
#
#
# Mechanical properties :
#
#
# Convention : Reuss Voigt Hill
#
# Bulk Modulus (GPa) = 58.04331 58.83879 58.44105
# Shear Modulus (GPa) = 32.28721 33.79763 33.04242
#
# Velocity S-wave (km/s) = 3.96025 4.05182 4.00630
# Velocity P-wave (km/s) = 7.00758 7.10428 7.05609
#
# Compressibility (1/GPa) = 0.01722851
#
# Stress axis : x y z
#
# Youngs Moduli (GPa) = 113.44860 77.48064 86.29199
#
# Poissons Ratio (x) = 0.27393 0.02981
# Poissons Ratio (y) = 0.40109 0.35895
# Poissons Ratio (z) = 0.03919 0.32230
#
# Static dielectric constant tensor:
#      x y z
#    x 4.110310 0.000000 0.000000 
#    y 0.000000 3.589630 0.000000 
#    z 0.000000 0.000000 3.808310 
# 
# 
# High freq. dielectric constant tensor:
#      x y z
#    x 1.810410 0.000000 0.000000 
#    y 0.000000 1.776410 0.000000 
#    z 0.000000 0.000000 1.824780 
# 
# From -- ./inp_files/8502.got.cif
#   From: 2010.03.12/outbox.cif.g09.slc.cpg/sg46_5_cif.got.tgz:8502.got - 2010.04.14 02:56:35.
