data_PCOD8192987
_publ_section_title
;
Structure prediction by ZEFSAII (Michael W. Deem and Ramdas Pophale) SiO2 
 PCOD8192987
Probable space group: I M A 2
;
_chemical_formula_sum "Si O2"
_cell_formula_units_Z 64
_cell_length_a 8.872481
_cell_length_b 24.777940
_cell_length_c 14.835091
_cell_angle_alpha 90.000000
_cell_angle_beta 90.000000
_cell_angle_gamma 90.000000
_cell_volume 3261.373136
_symmetry_space_group_name_H-M "I M A 2"
_symmetry_group_IT_number 46
_symmetry_cell_setting 'orthorhombic'
loop_
_space_group_symop_operation_xyz
x,y,z
-x,-y,z
1/2-x,y,z
1/2+x,-y,z
1/2+x,1/2+y,1/2+z
1/2-x,1/2-y,1/2+z
-x,1/2+y,1/2+z
x,1/2-y,1/2+z
loop_
_atom_site_type_symbol
_atom_site_label
_atom_site_fract_x
_atom_site_fract_y
_atom_site_fract_z
Si Si1 0.074892 0.893545 0.461210
Si Si2 0.572857 0.133425 0.780764
Si Si3 0.580389 0.273184 0.977803
Si Si4 0.427174 0.556493 0.773044
Si Si5 0.421152 0.757834 0.684999
Si Si6 0.075098 0.333837 0.452692
Si Si7 0.925825 0.649217 0.659234
Si Si8 0.571787 0.941519 0.634805
O O1 0.250000 0.901657 0.487848
O O2 0.044199 0.831254 0.434536
O O3 0.027794 0.928931 0.375312
O O4 0.971811 0.909806 0.544577
O O5 0.750000 0.122824 0.771835
O O6 0.527420 0.193496 0.748981
O O7 0.518745 0.128462 0.884263
O O8 0.486857 0.089099 0.722714
O O9 0.750000 0.254491 0.953077
O O10 0.466931 0.229024 0.938312
O O11 0.561743 0.280090 0.084443
O O12 0.500000 0.500000 0.746281
O O13 0.250000 0.552077 0.762268
O O14 0.484960 0.600931 0.704105
O O15 0.250000 0.740287 0.705814
O O16 0.525699 0.706163 0.702948
O O17 0.250000 0.341449 0.432461
O O18 0.031936 0.351490 0.553592
O O19 0.750000 0.641111 0.675627
O O20 0.750000 0.946684 0.640154
O O21 0.500000 0.000000 0.631657
#
# Coordination Sequence:
#
# PCOD8192987 Si02
#       8
#     8   8   8   8   8   8   8   8
#     4  10  21  39  61  89 123 161 202 246 297 361
#     4  11  22  39  62  89 122 162 205 250 301 359
#     4   9  17  34  57  84 120 161 199 236 287 354
#     4  11  24  41  63  88 118 156 205 254 303 358
#     4   9  18  34  58  85 117 156 196 238 290 354
#     4  10  22  38  57  88 125 160 200 251 306 361
#     4  10  22  40  61  86 121 157 199 252 305 358
#     4  12  25  41  63  89 123 163 204 251 302 361
#
# _framework density 19.623636999999999
#
# number of rings (size 3 to 8) (size 9 to 14) (size 15 to 20)
#    0.000    1.750    1.250    3.000    1.750    5.000 
#    0.000    0.625    0.000    3.000    0.000    0.000 
#    0.000    0.000    0.000    0.000    0.000    0.000 
#
# Total GULP energy -396933.352757 kJ/mol
# GULP energy per Si atom -12404.167274 kJ/mol
# Density = 1.957897 g / cm^3
# Si number density = 19.623637 Si / 1000 Ang^3
#
#
#
# Elastic Constant Matrix: (Units=GPa)
#
#
# Indices 1 2 3 4 5 6 
#
# 1 80.4840 22.1015 20.6142 0.0001 0.0000 0.0000
# 2 22.1015 63.5536 4.5957 0.0002 0.0000 0.0000
# 3 20.6142 4.5957 40.7205 0.0008 -0.0002 0.0000
# 4 0.0001 0.0002 0.0008 22.8517 -0.0001 0.0000
# 5 0.0000 0.0000 -0.0002 -0.0001 27.5181 0.0000
# 6 0.0000 0.0000 0.0000 0.0000 0.0000 36.6513
#
#
#
# Elastic Compliance Matrix: (Units=1/GPa)
#
#
# Indices 1 2 3 4 5 6 
#
# 1 0.015663 -0.004914 -0.007375 0.000000 0.000000 0.000000
# 2 -0.004914 0.017406 0.000523 0.000000 0.000000 0.000000
# 3 -0.007375 0.000523 0.028232 -0.000001 0.000000 0.000000
# 4 0.000000 0.000000 -0.000001 0.043760 0.000000 0.000000
# 5 0.000000 0.000000 0.000000 0.000000 0.036340 0.000000
# 6 0.000000 0.000000 0.000000 0.000000 0.000000 0.027284
#
#
# Mechanical properties :
#
#
# Convention : Reuss Voigt Hill
#
# Bulk Modulus (GPa) = 26.47591 31.04233 28.75912
# Shear Modulus (GPa) = 24.41340 26.56734 25.49037
#
# Velocity S-wave (km/s) = 3.53098 3.68345 3.60802
# Velocity P-wave (km/s) = 5.49044 5.82612 5.66077
#
# Compressibility (1/GPa) = 0.03777018
#
# Stress axis : x y z
#
# Youngs Moduli (GPa) = 63.84461 57.45235 35.42087
#
# Poissons Ratio (x) = 0.28231 0.26122
# Poissons Ratio (y) = 0.31372 -0.01853
# Poissons Ratio (z) = 0.47083 -0.03005
#
# Static dielectric constant tensor:
#      x y z
#    x 3.581940 0.000000 0.000000 
#    y 0.000000 3.577140 0.000000 
#    z 0.000000 0.000000 3.626340 
# 
# 
# High freq. dielectric constant tensor:
#      x y z
#    x 1.766610 0.000000 0.000000 
#    y 0.000000 1.759050 0.000000 
#    z 0.000000 0.000000 1.768030 
# 
# From -- ./inp_files/14472.got.cif
#   From: 2010.03.12/outbox.cif.g09.slc.cpg/sg46_8_cif.got.tgz:14472.got - 2010.04.14 02:56:35.
