data_PCOD8192883
_publ_section_title
;
Structure prediction by ZEFSAII (Michael W. Deem and Ramdas Pophale) SiO2 
 PCOD8192883
Probable space group: I M A 2
;
_chemical_formula_sum "Si O2"
_cell_formula_units_Z 56
_cell_length_a 19.432650
_cell_length_b 14.241327
_cell_length_c 10.292593
_cell_angle_alpha 90.000000
_cell_angle_beta 90.000000
_cell_angle_gamma 90.000000
_cell_volume 2848.441385
_symmetry_space_group_name_H-M "I M A 2"
_symmetry_group_IT_number 46
_symmetry_cell_setting 'orthorhombic'
loop_
_space_group_symop_operation_xyz
x,y,z
-x,-y,z
1/2-x,y,z
1/2+x,-y,z
1/2+x,1/2+y,1/2+z
1/2-x,1/2-y,1/2+z
-x,1/2+y,1/2+z
x,1/2-y,1/2+z
loop_
_atom_site_type_symbol
_atom_site_label
_atom_site_fract_x
_atom_site_fract_y
_atom_site_fract_z
Si Si1 0.672552 0.112883 0.030070
Si Si2 0.563380 0.795707 0.831772
Si Si3 0.022739 0.399980 0.092460
Si Si4 0.324051 0.583309 0.825520
Si Si5 0.427132 0.721582 0.946799
Si Si6 0.599320 0.596768 0.823364
Si Si7 0.430480 0.450444 0.537098
O O1 0.750000 0.112771 0.968743
O O2 0.678341 0.126630 0.182848
O O3 0.634881 0.014655 0.001507
O O4 0.627373 0.197056 0.973268
O O5 0.573267 0.857675 0.702045
O O6 0.484909 0.756950 0.845247
O O7 0.616551 0.708088 0.821584
O O8 0.581295 0.853625 0.960961
O O9 0.000000 0.500000 0.150576
O O10 0.055233 0.421843 0.952463
O O11 0.963261 0.320617 0.076034
O O12 0.250000 0.603021 0.892945
O O13 0.387339 0.631056 0.895189
O O14 0.333913 0.469997 0.827094
O O15 0.559273 0.570968 0.689995
O O16 0.500000 0.500000 0.487007
#
# Coordination Sequence:
#
# PCOD8192883 Si02
#       7
#     8   8   8   8   8   8   8
#     4  10  22  38  58  83 116 155 196 236 286 348
#     4  11  23  34  58  90 118 148 186 243 295 338
#     4  11  21  34  54  88 122 146 180 241 296 337
#     4  10  21  37  57  80 111 155 199 237 282 346
#     4  11  20  35  57  86 115 152 188 237 290 352
#     4  10  21  37  58  83 113 150 196 237 285 337
#     4  11  21  38  60  86 115 154 197 239 283 342
#
# _framework density 19.659875
#
# number of rings (size 3 to 8) (size 9 to 14) (size 15 to 20)
#    0.000    1.429    2.857    3.857    6.000    0.000 
#    0.000    0.714    0.000    5.143    0.000    0.000 
#    0.000    0.000    0.000    0.000    0.000    0.000 
#
# Total GULP energy -346981.527794 kJ/mol
# GULP energy per Si atom -12392.197421 kJ/mol
# Density = 1.961513 g / cm^3
# Si number density = 19.659875 Si / 1000 Ang^3
#
#
#
# Elastic Constant Matrix: (Units=GPa)
#
#
# Indices 1 2 3 4 5 6 
#
# 1 64.5044 15.8075 17.0356 0.0000 0.0000 0.0000
# 2 15.8075 110.2493 33.4672 0.0000 0.0000 0.0000
# 3 17.0356 33.4672 75.8112 0.0000 0.0000 0.0000
# 4 0.0000 0.0000 0.0000 32.1073 0.0000 0.0000
# 5 0.0000 0.0000 0.0000 0.0000 14.0664 0.0000
# 6 0.0000 0.0000 0.0000 0.0000 0.0000 23.3856
#
#
#
# Elastic Compliance Matrix: (Units=1/GPa)
#
#
# Indices 1 2 3 4 5 6 
#
# 1 0.016679 -0.001448 -0.003109 0.000000 0.000000 0.000000
# 2 -0.001448 0.010600 -0.004354 0.000000 0.000000 0.000000
# 3 -0.003109 -0.004354 0.015811 0.000000 0.000000 0.000000
# 4 0.000000 0.000000 0.000000 0.031146 0.000000 0.000000
# 5 0.000000 0.000000 0.000000 0.000000 0.071091 0.000000
# 6 0.000000 0.000000 0.000000 0.000000 0.000000 0.042761
#
#
# Mechanical properties :
#
#
# Convention : Reuss Voigt Hill
#
# Bulk Modulus (GPa) = 39.57460 42.57616 41.07538
# Shear Modulus (GPa) = 23.32836 26.19550 24.76193
#
# Velocity S-wave (km/s) = 3.44844 3.65421 3.55282
# Velocity P-wave (km/s) = 6.00241 6.28552 6.14560
#
# Compressibility (1/GPa) = 0.02526873
#
# Stress axis : x y z
#
# Youngs Moduli (GPa) = 59.95703 94.34323 63.24585
#
# Poissons Ratio (x) = 0.13658 0.19662
# Poissons Ratio (y) = 0.08680 0.27537
# Poissons Ratio (z) = 0.18639 0.41076
#
# Static dielectric constant tensor:
#      x y z
#    x 3.515660 0.000000 0.000000 
#    y 0.000000 3.856190 0.000000 
#    z 0.000000 0.000000 3.423410 
# 
# 
# High freq. dielectric constant tensor:
#      x y z
#    x 1.729890 0.000000 0.000000 
#    y 0.000000 1.788400 0.000000 
#    z 0.000000 0.000000 1.758920 
# 
# From -- ./inp_files/12408.got.cif
#   From: 2010.03.12/outbox.cif.g09.slc.cpg/sg46_7_cif.got.tgz:12408.got - 2010.04.14 02:56:35.
