data_PCOD8192049
_publ_section_title
;
Structure prediction by ZEFSAII (Michael W. Deem and Ramdas Pophale) SiO2 
 PCOD8192049
Probable space group: I M A 2
;
_chemical_formula_sum "Si O2"
_cell_formula_units_Z 48
_cell_length_a 17.491166
_cell_length_b 8.287389
_cell_length_c 17.112869
_cell_angle_alpha 90.000000
_cell_angle_beta 90.000000
_cell_angle_gamma 90.000000
_cell_volume 2480.614694
_symmetry_space_group_name_H-M "I M A 2"
_symmetry_group_IT_number 46
_symmetry_cell_setting 'orthorhombic'
loop_
_space_group_symop_operation_xyz
x,y,z
-x,-y,z
1/2-x,y,z
1/2+x,-y,z
1/2+x,1/2+y,1/2+z
1/2-x,1/2-y,1/2+z
-x,1/2+y,1/2+z
x,1/2-y,1/2+z
loop_
_atom_site_type_symbol
_atom_site_label
_atom_site_fract_x
_atom_site_fract_y
_atom_site_fract_z
Si Si1 0.064262 0.624037 0.433660
Si Si2 0.552978 0.347710 0.070108
Si Si3 0.419152 0.567389 0.683313
Si Si4 0.662966 0.562474 0.988199
Si Si5 0.159212 0.407180 0.539904
Si Si6 0.161180 0.864913 0.339891
O O1 0.021866 0.737982 0.498009
O O2 0.135403 0.537035 0.475378
O O3 0.102457 0.721540 0.362449
O O4 0.000000 0.500000 0.401411
O O5 0.500000 0.500000 0.088202
O O6 0.566603 0.244464 0.147594
O O7 0.633889 0.418480 0.042736
O O8 0.500000 0.500000 0.713810
O O9 0.383677 0.443947 0.620857
O O10 0.359359 0.577411 0.753562
O O11 0.750000 0.577590 0.008922
O O12 0.626975 0.735010 0.010125
O O13 0.648172 0.517320 0.897577
O O14 0.250000 0.415077 0.551729
O O15 0.250000 0.808270 0.342931
#
# Coordination Sequence:
#
# PCOD8192049 Si02
#       6
#     8   8   8   8   8   8
#     4  10  20  34  57  85 109 141 188 234 278 331
#     4  10  19  34  55  79 109 141 181 228 271 325
#     4  11  23  36  54  81 112 147 187 232 283 333
#     4   9  19  35  58  82 104 138 183 224 269 327
#     4  10  19  36  60  83 110 145 185 230 278 334
#     4  10  22  39  56  80 115 152 186 228 283 338
#
# _framework density 19.350042999999999
#
# number of rings (size 3 to 8) (size 9 to 14) (size 15 to 20)
#    0.000    2.000    0.000    5.000    0.000    9.333 
#    0.000    1.667    0.000    2.000    0.000    0.000 
#    0.000    0.000    0.000    0.000    0.000    0.000 
#
# Total GULP energy -297547.408737 kJ/mol
# GULP energy per Si atom -12397.808697 kJ/mol
# Density = 1.930600 g / cm^3
# Si number density = 19.350043 Si / 1000 Ang^3
#
#
#
# Elastic Constant Matrix: (Units=GPa)
#
#
# Indices 1 2 3 4 5 6 
#
# 1 88.6513 44.6291 41.4345 0.0000 0.0000 0.0000
# 2 44.6291 120.9025 51.2478 0.0000 0.0000 0.0000
# 3 41.4345 51.2478 99.3316 0.0000 0.0000 0.0000
# 4 0.0000 0.0000 0.0000 24.1022 0.0000 0.0000
# 5 0.0000 0.0000 0.0000 0.0000 23.5915 0.0000
# 6 0.0000 0.0000 0.0000 0.0000 0.0000 37.2738
#
#
#
# Elastic Compliance Matrix: (Units=1/GPa)
#
#
# Indices 1 2 3 4 5 6 
#
# 1 0.015234 -0.003750 -0.004420 0.000000 0.000000 0.000000
# 2 -0.003750 0.011509 -0.004374 0.000000 0.000000 0.000000
# 3 -0.004420 -0.004374 0.014167 0.000000 0.000000 0.000000
# 4 0.000000 0.000000 0.000000 0.041490 0.000000 0.000000
# 5 0.000000 0.000000 0.000000 0.000000 0.042388 0.000000
# 6 0.000000 0.000000 0.000000 0.000000 0.000000 0.026828
#
#
# Mechanical properties :
#
#
# Convention : Reuss Voigt Hill
#
# Bulk Modulus (GPa) = 63.19671 64.83423 64.01547
# Shear Modulus (GPa) = 27.47581 28.43178 27.95379
#
# Velocity S-wave (km/s) = 3.77229 3.83735 3.80496
# Velocity P-wave (km/s) = 7.19056 7.29469 7.24281
#
# Compressibility (1/GPa) = 0.01582361
#
# Stress axis : x y z
#
# Youngs Moduli (GPa) = 65.64412 86.88684 70.58413
#
# Poissons Ratio (x) = 0.32581 0.31197
# Poissons Ratio (y) = 0.24615 0.30872
# Poissons Ratio (z) = 0.29014 0.38002
#
# Static dielectric constant tensor:
#      x y z
#    x 3.532070 0.000000 0.000000 
#    y 0.000000 3.951780 0.000000 
#    z 0.000000 0.000000 3.263850 
# 
# 
# High freq. dielectric constant tensor:
#      x y z
#    x 1.769080 0.000000 0.000000 
#    y 0.000000 1.761740 0.000000 
#    z 0.000000 0.000000 1.727510 
# 
# From -- ./inp_files/16559.got.cif
#   From: 2010.03.12/outbox.cif.g09.slc.cpg/sg46_9_cif.got.tgz:16559.got - 2010.04.14 02:56:35.
