data_PCOD8192398
_publ_section_title
;
Structure prediction by ZEFSAII (Michael W. Deem and Ramdas Pophale) SiO2 
 PCOD8192398
Probable space group: I M A 2
;
_chemical_formula_sum "Si O2"
_cell_formula_units_Z 64
_cell_length_a 9.019489
_cell_length_b 24.735812
_cell_length_c 15.066076
_cell_angle_alpha 90.000000
_cell_angle_beta 90.000000
_cell_angle_gamma 90.000000
_cell_volume 3361.307609
_symmetry_space_group_name_H-M "I M A 2"
_symmetry_group_IT_number 46
_symmetry_cell_setting 'orthorhombic'
loop_
_space_group_symop_operation_xyz
x,y,z
-x,-y,z
1/2-x,y,z
1/2+x,-y,z
1/2+x,1/2+y,1/2+z
1/2-x,1/2-y,1/2+z
-x,1/2+y,1/2+z
x,1/2-y,1/2+z
loop_
_atom_site_type_symbol
_atom_site_label
_atom_site_fract_x
_atom_site_fract_y
_atom_site_fract_z
Si Si1 0.573570 0.642678 0.430910
Si Si2 0.577979 0.331687 0.607109
Si Si3 0.919749 0.144683 0.301827
Si Si4 0.421135 0.613307 0.122163
Si Si5 0.079637 0.220534 0.594762
Si Si6 0.922794 0.443472 0.305090
Si Si7 0.582364 0.762767 0.392397
Si Si8 0.574496 0.442576 0.940146
O O1 0.750000 0.635889 0.434112
O O2 0.511850 0.637064 0.530875
O O3 0.499647 0.598587 0.369779
O O4 0.525876 0.701039 0.392703
O O5 0.750000 0.326581 0.580120
O O6 0.558798 0.366673 0.697209
O O7 0.513637 0.272161 0.625294
O O8 0.750000 0.150708 0.328455
O O9 0.985931 0.095696 0.360391
O O10 0.990094 0.202492 0.323523
O O11 0.250000 0.630408 0.113257
O O12 0.515884 0.667051 0.141154
O O13 0.448135 0.572950 0.203403
O O14 0.476054 0.583084 0.033617
O O15 0.250000 0.229029 0.623528
O O16 0.065347 0.211872 0.489704
O O17 0.750000 0.447392 0.328660
O O18 0.000000 0.500000 0.322636
O O19 0.750000 0.764440 0.359249
O O20 0.500000 0.500000 0.926960
O O21 0.750000 0.450520 0.936593
#
# Coordination Sequence:
#
# PCOD8192398 Si02
#       8
#     8   8   8   8   8   8   8   8
#     4  10  22  41  61  86 117 153 196 247 301 354
#     4  10  21  37  58  85 118 157 196 243 295 350
#     4  10  21  36  57  84 117 154 195 239 288 344
#     4  10  21  37  58  85 118 156 195 235 290 352
#     4  10  20  34  54  84 119 156 194 236 288 346
#     4  11  24  41  62  88 116 154 201 249 300 355
#     4   9  19  34  54  83 116 150 190 233 286 346
#     4  10  21  38  58  83 116 154 194 238 284 342
#
# _framework density 19.040209000000001
#
# number of rings (size 3 to 8) (size 9 to 14) (size 15 to 20)
#    0.000    2.000    1.250    2.625    1.750    5.500 
#    0.000    0.625    0.000    1.500    0.000    0.000 
#    0.000    0.000    0.000    0.000    0.000    0.000 
#
# Total GULP energy -396877.444877 kJ/mol
# GULP energy per Si atom -12402.420152 kJ/mol
# Density = 1.899687 g / cm^3
# Si number density = 19.040209 Si / 1000 Ang^3
#
#
#
# Elastic Constant Matrix: (Units=GPa)
#
#
# Indices 1 2 3 4 5 6 
#
# 1 91.0873 53.5680 50.5277 -0.0001 0.0001 0.0000
# 2 53.5680 118.6026 62.5160 -0.0001 0.0002 0.0000
# 3 50.5277 62.5160 108.4036 -0.0002 0.0008 0.0001
# 4 -0.0001 -0.0001 -0.0002 28.2449 0.0002 0.0000
# 5 0.0001 0.0002 0.0008 0.0002 15.7720 -0.0001
# 6 0.0000 0.0000 0.0001 0.0000 -0.0001 35.7372
#
#
#
# Elastic Compliance Matrix: (Units=1/GPa)
#
#
# Indices 1 2 3 4 5 6 
#
# 1 0.016582 -0.004907 -0.004899 0.000000 0.000000 0.000000
# 2 -0.004907 0.013566 -0.005536 0.000000 0.000000 0.000000
# 3 -0.004899 -0.005536 0.014701 0.000000 -0.000001 0.000000
# 4 0.000000 0.000000 0.000000 0.035405 0.000000 0.000000
# 5 0.000000 0.000000 -0.000001 0.000000 0.063403 0.000000
# 6 0.000000 0.000000 0.000000 0.000000 0.000000 0.027982
#
#
# Mechanical properties :
#
#
# Convention : Reuss Voigt Hill
#
# Bulk Modulus (GPa) = 70.60066 72.36855 71.48461
# Shear Modulus (GPa) = 24.14932 26.04962 25.09947
#
# Velocity S-wave (km/s) = 3.56523 3.70285 3.63469
# Velocity P-wave (km/s) = 7.35582 7.50814 7.43237
#
# Compressibility (1/GPa) = 0.01416417
#
# Stress axis : x y z
#
# Youngs Moduli (GPa) = 60.30676 73.71351 68.02250
#
# Poissons Ratio (x) = 0.36172 0.33325
# Poissons Ratio (y) = 0.29593 0.37659
# Poissons Ratio (z) = 0.29545 0.40810
#
# Static dielectric constant tensor:
#      x y z
#    x 3.521120 0.000000 0.000000 
#    y 0.000000 3.336090 0.000000 
#    z 0.000000 0.000000 3.539040 
# 
# 
# High freq. dielectric constant tensor:
#      x y z
#    x 1.744070 0.000000 0.000000 
#    y 0.000000 1.730410 0.000000 
#    z 0.000000 0.000000 1.743980 
# 
# From -- ./inp_files/14465.got.cif
#   From: 2010.03.12/outbox.cif.g09.slc.cpg/sg46_8_cif.got.tgz:14465.got - 2010.04.14 02:56:35.
