data_PCOD8192404
_publ_section_title
;
Structure prediction by ZEFSAII (Michael W. Deem and Ramdas Pophale) SiO2 
 PCOD8192404
Probable space group: I M A 2
;
_chemical_formula_sum "Si O2"
_cell_formula_units_Z 64
_cell_length_a 8.809405
_cell_length_b 24.548514
_cell_length_c 15.101191
_cell_angle_alpha 90.000000
_cell_angle_beta 90.000000
_cell_angle_gamma 90.000000
_cell_volume 3265.750373
_symmetry_space_group_name_H-M "I M A 2"
_symmetry_group_IT_number 46
_symmetry_cell_setting 'orthorhombic'
loop_
_space_group_symop_operation_xyz
x,y,z
-x,-y,z
1/2-x,y,z
1/2+x,-y,z
1/2+x,1/2+y,1/2+z
1/2-x,1/2-y,1/2+z
-x,1/2+y,1/2+z
x,1/2-y,1/2+z
loop_
_atom_site_type_symbol
_atom_site_label
_atom_site_fract_x
_atom_site_fract_y
_atom_site_fract_z
Si Si1 0.925199 0.861356 0.877090
Si Si2 0.928702 0.606952 0.719505
Si Si3 0.425276 0.785281 0.177880
Si Si4 0.074421 0.141487 0.518100
Si Si5 0.422374 0.234879 0.000019
Si Si6 0.070861 0.058598 0.032161
Si Si7 0.926848 0.338144 0.200957
Si Si8 0.429019 0.943460 0.389291
O O1 0.750000 0.871852 0.853461
O O2 0.949979 0.799679 0.911459
O O3 0.024601 0.870172 0.789230
O O4 0.983165 0.903289 0.951531
O O5 0.750000 0.602208 0.733281
O O6 0.983956 0.585113 0.624190
O O7 0.977394 0.669942 0.730741
O O8 0.009346 0.570215 0.792302
O O9 0.250000 0.799537 0.191216
O O10 0.465901 0.725544 0.214823
O O11 0.464072 0.787285 0.074112
O O12 0.250000 0.124352 0.511681
O O13 0.047626 0.201961 0.479320
O O14 0.021936 0.137703 0.619632
O O15 0.972857 0.102248 0.459631
O O16 0.250000 0.225808 0.035052
O O17 0.250000 0.053102 0.033011
O O18 0.000000 0.000000 0.018046
O O19 0.750000 0.347018 0.181322
O O20 0.250000 0.949062 0.384806
O O21 0.500000 0.000000 0.422056
#
# Coordination Sequence:
#
# PCOD8192404 Si02
#       8
#     8   8   8   8   8   8   8   8
#     4  10  20  37  58  86 119 159 203 250 299 359
#     4  11  22  39  61  87 121 163 204 247 296 360
#     4  10  20  34  54  86 124 159 196 242 300 358
#     4  10  21  40  65  91 117 158 203 249 306 363
#     4   9  18  35  58  85 118 156 199 243 296 361
#     4  10  22  39  60  85 118 156 200 247 295 349
#     4  10  22  38  57  88 125 161 199 251 307 360
#     4  12  26  44  64  90 122 157 202 255 303 362
#
# _framework density 19.597332999999999
#
# number of rings (size 3 to 8) (size 9 to 14) (size 15 to 20)
#    0.000    1.750    1.250    3.000    1.750    5.000 
#    0.000    0.625    0.000    1.500    0.000    0.000 
#    0.000    0.000    0.000    0.000    0.000    0.000 
#
# Total GULP energy -396935.519040 kJ/mol
# GULP energy per Si atom -12404.234970 kJ/mol
# Density = 1.955273 g / cm^3
# Si number density = 19.597333 Si / 1000 Ang^3
#
#
#
# Elastic Constant Matrix: (Units=GPa)
#
#
# Indices 1 2 3 4 5 6 
#
# 1 85.1928 42.0121 39.3138 -0.0002 0.0001 0.0000
# 2 42.0121 103.0034 51.0037 0.0000 0.0000 0.0000
# 3 39.3138 51.0037 108.8837 -0.0015 0.0003 0.0002
# 4 -0.0002 0.0000 -0.0015 27.7448 0.0001 0.0001
# 5 0.0001 0.0000 0.0003 0.0001 33.7213 -0.0001
# 6 0.0000 0.0000 0.0002 0.0001 -0.0001 33.1357
#
#
#
# Elastic Compliance Matrix: (Units=1/GPa)
#
#
# Indices 1 2 3 4 5 6 
#
# 1 0.015635 -0.004663 -0.003461 0.000000 0.000000 0.000000
# 2 -0.004663 0.014031 -0.004889 0.000000 0.000000 0.000000
# 3 -0.003461 -0.004889 0.012724 0.000001 0.000000 0.000000
# 4 0.000000 0.000000 0.000001 0.036043 0.000000 0.000000
# 5 0.000000 0.000000 0.000000 0.000000 0.029655 0.000000
# 6 0.000000 0.000000 0.000000 0.000000 0.000000 0.030179
#
#
# Mechanical properties :
#
#
# Convention : Reuss Voigt Hill
#
# Bulk Modulus (GPa) = 61.10988 62.41545 61.76267
# Shear Modulus (GPa) = 29.45567 29.90371 29.67969
#
# Velocity S-wave (km/s) = 3.88112 3.91052 3.89585
# Velocity P-wave (km/s) = 7.16481 7.23241 7.19869
#
# Compressibility (1/GPa) = 0.01636397
#
# Stress axis : x y z
#
# Youngs Moduli (GPa) = 63.95997 71.26962 78.59357
#
# Poissons Ratio (x) = 0.33235 0.27199
# Poissons Ratio (y) = 0.29827 0.38423
# Poissons Ratio (z) = 0.22135 0.34842
#
# Static dielectric constant tensor:
#      x y z
#    x 3.531690 0.000000 0.000000 
#    y 0.000000 3.618320 0.000000 
#    z 0.000000 0.000000 3.465940 
# 
# 
# High freq. dielectric constant tensor:
#      x y z
#    x 1.766430 0.000000 0.000000 
#    y 0.000000 1.759160 0.000000 
#    z 0.000000 0.000000 1.759480 
# 
# From -- ./inp_files/14428.got.cif
#   From: 2010.03.12/outbox.cif.g09.slc.cpg/sg46_8_cif.got.tgz:14428.got - 2010.04.14 02:56:35.
