data_PCOD8192963
_publ_section_title
;
Structure prediction by ZEFSAII (Michael W. Deem and Ramdas Pophale) SiO2 
 PCOD8192963
Probable space group: I M A 2
;
_chemical_formula_sum "Si O2"
_cell_formula_units_Z 32
_cell_length_a 11.448258
_cell_length_b 27.830410
_cell_length_c 5.145440
_cell_angle_alpha 90.000000
_cell_angle_beta 90.000000
_cell_angle_gamma 90.000000
_cell_volume 1639.387166
_symmetry_space_group_name_H-M "I M A 2"
_symmetry_group_IT_number 46
_symmetry_cell_setting 'orthorhombic'
loop_
_space_group_symop_operation_xyz
x,y,z
-x,-y,z
1/2-x,y,z
1/2+x,-y,z
1/2+x,1/2+y,1/2+z
1/2-x,1/2-y,1/2+z
-x,1/2+y,1/2+z
x,1/2-y,1/2+z
loop_
_atom_site_type_symbol
_atom_site_label
_atom_site_fract_x
_atom_site_fract_y
_atom_site_fract_z
Si Si1 0.250000 0.918941 0.291250
Si Si2 0.250000 0.517704 0.290059
Si Si3 0.384941 0.218873 0.319768
Si Si4 0.498379 0.383138 0.816593
Si Si5 0.879817 0.574023 0.317368
O O1 0.250000 0.961412 0.500917
O O2 0.138001 0.885241 0.328654
O O3 0.250000 0.940855 0.002889
O O4 0.134754 0.484018 0.322027
O O5 0.250000 0.202862 0.318996
O O6 0.416353 0.249712 0.570795
O O7 0.464788 0.172268 0.318837
O O8 0.454771 0.409203 0.559151
O O9 0.444671 0.411002 0.057786
O O10 0.750000 0.598351 0.325084
#
# Coordination Sequence:
#
# PCOD8192963 Si02
#       5
#     4   4   8   8   8
#     4  12  26  40  58  89 126 173 204 234 290 372
#     4  10  24  42  58  95 116 161 218 248 304 332
#     4  10  21  38  63  92 115 145 195 255 308 354
#     4  12  23  40  63  88 129 160 199 246 305 365
#     4  10  22  39  63  90 113 161 204 261 305 335
#
# _framework density 19.519489
#
# number of rings (size 3 to 8) (size 9 to 14) (size 15 to 20)
#    0.750    0.500    0.000    6.750    0.000    8.000 
#    0.000    1.250    0.000    0.000    0.000    0.000 
#    0.000    0.000    0.000    0.000    0.000    0.000 
#
# Total GULP energy -198435.243447 kJ/mol
# GULP energy per Si atom -12402.202715 kJ/mol
# Density = 1.947506 g / cm^3
# Si number density = 19.519489 Si / 1000 Ang^3
#
#
#
# Elastic Constant Matrix: (Units=GPa)
#
#
# Indices 1 2 3 4 5 6 
#
# 1 152.4876 60.4138 46.4799 -0.0445 0.0144 -0.0037
# 2 60.4138 125.9648 38.9517 -0.0503 0.0262 0.0149
# 3 46.4799 38.9517 151.6714 -0.0216 -0.0693 -0.0874
# 4 -0.0445 -0.0503 -0.0216 60.1353 0.2255 0.3165
# 5 0.0144 0.0262 -0.0693 0.2255 19.5800 0.0167
# 6 -0.0037 0.0149 -0.0874 0.3165 0.0167 -40.6867
#
#
#
# Elastic Compliance Matrix: (Units=1/GPa)
#
#
# Indices 1 2 3 4 5 6 
#
# 1 0.008476 -0.003543 -0.001688 0.000003 -0.000008 0.000002
# 2 -0.003543 0.010105 -0.001509 0.000005 -0.000016 0.000007
# 3 -0.001688 -0.001509 0.007498 0.000000 0.000030 -0.000016
# 4 0.000003 0.000005 0.000000 0.016629 -0.000192 0.000129
# 5 -0.000008 -0.000016 0.000030 -0.000192 0.051075 0.000019
# 6 0.000002 0.000007 -0.000016 0.000129 0.000019 -0.024577
#
#
# Mechanical properties :
#
#
# Convention : Reuss Voigt Hill
#
# Bulk Modulus (GPa) = 79.37350 80.20163 79.78757
# Shear Modulus (GPa) = 57.54681 26.75761 42.15221
#
# Velocity S-wave (km/s) = 5.43560 3.70647 4.65208
# Velocity P-wave (km/s) = 8.95245 7.71326 8.35586
#
# Compressibility (1/GPa) = 0.01259866
#
# Stress axis : x y z
#
# Youngs Moduli (GPa) = 117.97817 98.96220 133.36992
#
# Poissons Ratio (x) = 0.35066 0.22506
# Poissons Ratio (y) = 0.41804 0.20128
# Poissons Ratio (z) = 0.19909 0.14936
#
# Static dielectric constant tensor:
#      x y z
#    x 3.583700 0.000030 0.000130 
#    y 0.000030 3.397600 0.000310 
#    z 0.000130 0.000310 3.632240 
# 
# 
# High freq. dielectric constant tensor:
#      x y z
#    x 1.753360 0.000000 0.000020 
#    y 0.000000 1.752010 -0.000010 
#    z 0.000020 -0.000010 1.783820 
# 
# From -- ./inp_files/668.got.cif
#   From: 2010.03.12/outbox.cif.g09.slc.cpg/sg46_1_cif.got.tgz:668.got - 2010.04.14 02:56:35.
