data_PCOD8192843
_publ_section_title
;
Structure prediction by ZEFSAII (Michael W. Deem and Ramdas Pophale) SiO2 
 PCOD8192843
Probable space group: I M A 2
;
_chemical_formula_sum "Si O2"
_cell_formula_units_Z 48
_cell_length_a 19.292413
_cell_length_b 17.341048
_cell_length_c 5.767837
_cell_angle_alpha 90.000000
_cell_angle_beta 90.000000
_cell_angle_gamma 90.000000
_cell_volume 1929.633674
_symmetry_space_group_name_H-M "I M A 2"
_symmetry_group_IT_number 46
_symmetry_cell_setting 'orthorhombic'
loop_
_space_group_symop_operation_xyz
x,y,z
-x,-y,z
1/2-x,y,z
1/2+x,-y,z
1/2+x,1/2+y,1/2+z
1/2-x,1/2-y,1/2+z
-x,1/2+y,1/2+z
x,1/2-y,1/2+z
loop_
_atom_site_type_symbol
_atom_site_label
_atom_site_fract_x
_atom_site_fract_y
_atom_site_fract_z
Si Si1 0.600355 0.064260 0.699250
Si Si2 0.325699 0.020291 0.316272
Si Si3 0.173876 0.643020 0.574782
Si Si4 0.586832 0.771741 0.809107
Si Si5 0.938121 0.927103 0.990963
Si Si6 0.461708 0.658172 0.806013
O O1 0.544600 0.107766 0.539467
O O2 0.648381 0.001942 0.571241
O O3 0.648501 0.130980 0.810885
O O4 0.556808 0.013117 0.884074
O O5 0.250000 0.060238 0.334964
O O6 0.378832 0.077914 0.190217
O O7 0.319585 0.942521 0.172026
O O8 0.250000 0.684224 0.585011
O O9 0.115063 0.688352 0.724211
O O10 0.623633 0.746997 0.564001
O O11 0.511310 0.731257 0.840783
O O12 0.579551 0.863833 0.794070
O O13 0.009895 0.901097 0.112479
#
# Coordination Sequence:
#
# PCOD8192843 Si02
#       6
#     8   8   8   8   8   8
#     4  10  21  35  60  96 133 169 224 280 343 411
#     4   9  19  36  58  91 133 171 213 273 345 411
#     4   9  19  36  58  91 133 171 213 273 345 411
#     4  10  24  44  64  88 126 180 222 264 334 400
#     4  10  23  39  61  94 130 172 220 278 338 407
#     4  10  23  39  61  94 130 172 220 278 338 407
#
# _framework density 24.875187
#
# number of rings (size 3 to 8) (size 9 to 14) (size 15 to 20)
#    0.000    2.333    0.000    0.500    9.333    8.667 
#    0.000    0.000    0.000    8.000    0.000    0.000 
#    0.000    0.000    0.000    0.000    0.000    0.000 
#
# Total GULP energy -297334.504500 kJ/mol
# GULP energy per Si atom -12388.937688 kJ/mol
# Density = 2.481857 g / cm^3
# Si number density = 24.875187 Si / 1000 Ang^3
#
#
#
# Elastic Constant Matrix: (Units=GPa)
#
#
# Indices 1 2 3 4 5 6 
#
# 1 89.1802 -10.5254 -9.4033 0.0000 0.0000 0.0000
# 2 -10.5254 59.9483 8.1717 0.0000 0.0000 0.0000
# 3 -9.4033 8.1717 106.8332 0.0000 0.0000 0.0000
# 4 0.0000 0.0000 0.0000 32.9859 0.0000 0.0000
# 5 0.0000 0.0000 0.0000 0.0000 19.5700 0.0000
# 6 0.0000 0.0000 0.0000 0.0000 0.0000 14.6448
#
#
#
# Elastic Compliance Matrix: (Units=1/GPa)
#
#
# Indices 1 2 3 4 5 6 
#
# 1 0.011530 0.001906 0.000869 0.000000 0.000000 0.000000
# 2 0.001906 0.017172 -0.001146 0.000000 0.000000 0.000000
# 3 0.000869 -0.001146 0.009525 0.000000 0.000000 0.000000
# 4 0.000000 0.000000 0.000000 0.030316 0.000000 0.000000
# 5 0.000000 0.000000 0.000000 0.000000 0.051099 0.000000
# 6 0.000000 0.000000 0.000000 0.000000 0.000000 0.068284
#
#
# Mechanical properties :
#
#
# Convention : Reuss Voigt Hill
#
# Bulk Modulus (GPa) = 24.10531 25.82751 24.96641
# Shear Modulus (GPa) = 25.18964 31.28805 28.23884
#
# Velocity S-wave (km/s) = 3.18565 3.55040 3.37296
# Velocity P-wave (km/s) = 4.82107 5.21656 5.02271
#
# Compressibility (1/GPa) = 0.04148463
#
# Stress axis : x y z
#
# Youngs Moduli (GPa) = 86.73154 58.23490 104.99220
#
# Poissons Ratio (x) = -0.11099 -0.09124
# Poissons Ratio (y) = -0.16530 0.12029
# Poissons Ratio (z) = -0.07537 0.06672
#
# Static dielectric constant tensor:
#      x y z
#    x 4.867240 0.000000 0.000000 
#    y 0.000000 4.003340 0.000000 
#    z 0.000000 0.000000 5.055720 
# 
# 
# High freq. dielectric constant tensor:
#      x y z
#    x 1.963780 0.000000 0.000000 
#    y 0.000000 1.967630 0.000000 
#    z 0.000000 0.000000 2.009460 
# 
# From -- ./inp_files/2048.got.cif
#   From: 2010.03.12/outbox.cif.g09.slc.cpg/sg46_2_cif.got.tgz:2048.got - 2010.04.14 02:56:35.
