data_PCOD8192368
_publ_section_title
;
Structure prediction by ZEFSAII (Michael W. Deem and Ramdas Pophale) SiO2 
 PCOD8192368
Probable space group: I M A 2
;
_chemical_formula_sum "Si O2"
_cell_formula_units_Z 64
_cell_length_a 8.879209
_cell_length_b 20.381968
_cell_length_c 19.504686
_cell_angle_alpha 90.000000
_cell_angle_beta 90.000000
_cell_angle_gamma 90.000000
_cell_volume 3529.875250
_symmetry_space_group_name_H-M "I M A 2"
_symmetry_group_IT_number 46
_symmetry_cell_setting 'orthorhombic'
loop_
_space_group_symop_operation_xyz
x,y,z
-x,-y,z
1/2-x,y,z
1/2+x,-y,z
1/2+x,1/2+y,1/2+z
1/2-x,1/2-y,1/2+z
-x,1/2+y,1/2+z
x,1/2-y,1/2+z
loop_
_atom_site_type_symbol
_atom_site_label
_atom_site_fract_x
_atom_site_fract_y
_atom_site_fract_z
Si Si1 0.072863 0.567609 0.198080
Si Si2 0.572832 0.067083 0.540843
Si Si3 0.071687 0.931602 0.189991
Si Si4 0.426510 0.816007 0.447336
Si Si5 0.425846 0.317750 0.443664
Si Si6 0.074436 0.685296 0.790675
Si Si7 0.570916 0.931421 0.046032
Si Si8 0.426874 0.180295 0.786727
O O1 0.250000 0.561975 0.207901
O O2 0.027409 0.580698 0.119364
O O3 0.000000 0.500000 0.224524
O O4 0.011839 0.627315 0.241859
O O5 0.750000 0.060273 0.531755
O O6 0.507544 0.126131 0.494746
O O7 0.500000 0.000000 0.514000
O O8 0.250000 0.940167 0.180923
O O9 0.029709 0.877325 0.245891
O O10 0.998776 0.909422 0.118362
O O11 0.000000 0.000000 0.214948
O O12 0.250000 0.810528 0.457869
O O13 0.495487 0.747434 0.472107
O O14 0.469801 0.831308 0.368798
O O15 0.250000 0.305384 0.449274
O O16 0.477965 0.378608 0.489565
O O17 0.473403 0.332168 0.365541
O O18 0.250000 0.702562 0.783823
O O19 0.980299 0.747476 0.763800
O O20 0.750000 0.938252 0.052822
O O21 0.500000 0.000000 0.022011
O O22 0.250000 0.173658 0.774608
#
# Coordination Sequence:
#
# PCOD8192368 Si02
#       8
#     8   8   8   8   8   8   8   8
#     4  10  20  35  53  75 104 135 169 208 250 297
#     4   9  19  34  52  75 102 132 167 206 246 293
#     4  10  20  34  52  75 103 133 168 208 250 297
#     4   9  18  34  54  75 100 132 169 205 245 294
#     4   9  20  36  52  74 102 130 165 208 250 296
#     4   9  19  35  53  74 102 135 169 206 248 297
#     4  10  20  35  53  74 101 131 166 206 249 298
#     4  10  20  35  54  76 102 132 168 209 252 298
#
# _framework density 18.130953000000002
#
# number of rings (size 3 to 8) (size 9 to 14) (size 15 to 20)
#    0.000    2.500    0.000    2.250    0.000    5.500 
#    0.000    5.000    0.000    0.000    0.000    0.000 
#    0.000    0.000    0.000    0.000    0.000    0.000 
#
# Total GULP energy -396877.950237 kJ/mol
# GULP energy per Si atom -12402.435945 kJ/mol
# Density = 1.808969 g / cm^3
# Si number density = 18.130953 Si / 1000 Ang^3
#
#
#
# Elastic Constant Matrix: (Units=GPa)
#
#
# Indices 1 2 3 4 5 6 
#
# 1 61.4578 57.2072 40.1519 0.0000 0.0000 0.0000
# 2 57.2072 167.1845 95.7905 0.0000 0.0000 0.0000
# 3 40.1519 95.7905 92.2462 0.0000 0.0000 0.0000
# 4 0.0000 0.0000 0.0000 41.0088 0.0000 0.0000
# 5 0.0000 0.0000 0.0000 0.0000 23.6422 0.0000
# 6 0.0000 0.0000 0.0000 0.0000 0.0000 36.6837
#
#
#
# Elastic Compliance Matrix: (Units=1/GPa)
#
#
# Indices 1 2 3 4 5 6 
#
# 1 0.024736 -0.005667 -0.004882 0.000000 0.000000 0.000000
# 2 -0.005667 0.016066 -0.014217 0.000000 0.000000 0.000000
# 3 -0.004882 -0.014217 0.027729 0.000000 0.000000 0.000000
# 4 0.000000 0.000000 0.000000 0.024385 0.000000 0.000000
# 5 0.000000 0.000000 0.000000 0.000000 0.042297 0.000000
# 6 0.000000 0.000000 0.000000 0.000000 0.000000 0.027260
#
#
# Mechanical properties :
#
#
# Convention : Reuss Voigt Hill
#
# Bulk Modulus (GPa) = 52.63441 78.57641 65.60541
# Shear Modulus (GPa) = 22.90021 28.78286 25.84154
#
# Velocity S-wave (km/s) = 3.55779 3.98867 3.77937
# Velocity P-wave (km/s) = 6.78014 8.04021 7.43691
#
# Compressibility (1/GPa) = 0.01899898
#
# Stress axis : x y z
#
# Youngs Moduli (GPa) = 40.42711 62.24211 36.06338
#
# Poissons Ratio (x) = 0.35271 0.17607
# Poissons Ratio (y) = 0.22909 0.51271
# Poissons Ratio (z) = 0.19738 0.88490
#
# Static dielectric constant tensor:
#      x y z
#    x 3.343320 0.000000 0.000000 
#    y 0.000000 3.533510 0.000000 
#    z 0.000000 0.000000 3.421660 
# 
# 
# High freq. dielectric constant tensor:
#      x y z
#    x 1.706300 0.000000 0.000000 
#    y 0.000000 1.710490 0.000000 
#    z 0.000000 0.000000 1.699130 
# 
# From -- ./inp_files/21278.got.cif
#   From: 2010.03.12/outbox.cif.g09.slc.cpg/sg46_11_cif.got.tgz:21278.got - 2010.04.14 02:56:35.
