data_PCOD8192818
_publ_section_title
;
Structure prediction by ZEFSAII (Michael W. Deem and Ramdas Pophale) SiO2 
 PCOD8192818
Probable space group: I M A 2
;
_chemical_formula_sum "Si O2"
_cell_formula_units_Z 40
_cell_length_a 13.766516
_cell_length_b 8.992182
_cell_length_c 15.233693
_cell_angle_alpha 90.000000
_cell_angle_beta 90.000000
_cell_angle_gamma 90.000000
_cell_volume 1885.794355
_symmetry_space_group_name_H-M "I M A 2"
_symmetry_group_IT_number 46
_symmetry_cell_setting 'orthorhombic'
loop_
_space_group_symop_operation_xyz
x,y,z
-x,-y,z
1/2-x,y,z
1/2+x,-y,z
1/2+x,1/2+y,1/2+z
1/2-x,1/2-y,1/2+z
-x,1/2+y,1/2+z
x,1/2-y,1/2+z
loop_
_atom_site_type_symbol
_atom_site_label
_atom_site_fract_x
_atom_site_fract_y
_atom_site_fract_z
Si Si1 0.952695 0.161091 0.820060
Si Si2 0.750000 0.712758 0.944747
Si Si3 0.544583 0.662910 0.486746
Si Si4 0.250000 0.462256 0.124161
Si Si5 0.750000 0.288592 0.249363
Si Si6 0.087822 0.249022 0.672784
Si Si7 0.750000 0.563275 0.751289
O O1 0.838929 0.151962 0.806747
O O2 0.000411 0.248504 0.740458
O O3 0.000000 0.000000 0.828523
O O4 0.979084 0.244568 0.912017
O O5 0.750000 0.631431 0.849929
O O6 0.842440 0.822272 0.955595
O O7 0.750000 0.582880 0.020884
O O8 0.500000 0.500000 0.499316
O O9 0.534381 0.742070 0.579617
O O10 0.250000 0.638029 0.150402
O O11 0.345570 0.398045 0.172920
O O12 0.750000 0.112662 0.247879
O O13 0.155460 0.388957 0.696209
#
# Coordination Sequence:
#
# PCOD8192818 Si02
#       7
#     8   4   8   4   4   8   4
#     4  11  23  43  68  95 135 182 228 283 339 423
#     4  10  20  46  68 104 138 192 233 281 366 411
#     4  10  23  39  70 102 132 180 232 282 335 426
#     4   9  20  42  71  91 133 174 233 270 332 430
#     4  12  26  42  64 106 128 177 236 288 346 399
#     4  10  21  43  68  95 133 184 217 275 354 405
#     4  11  24  42  73  99 143 173 222 297 346 422
#
# _framework density 21.211220999999998
#
# number of rings (size 3 to 8) (size 9 to 14) (size 15 to 20)
#    0.000    1.600    4.000    0.600    2.800    3.200 
#    3.600    0.000    0.000    0.000    0.000    0.000 
#    0.000    0.000    0.000    0.000    0.000    0.000 
#
# Total GULP energy -247800.138936 kJ/mol
# GULP energy per Si atom -12390.006947 kJ/mol
# Density = 2.116294 g / cm^3
# Si number density = 21.211221 Si / 1000 Ang^3
#
#
#
# Elastic Constant Matrix: (Units=GPa)
#
#
# Indices 1 2 3 4 5 6 
#
# 1 142.6469 36.7803 68.5207 0.0000 0.0000 0.0000
# 2 36.7803 100.9591 37.1974 0.0000 0.0000 0.0000
# 3 68.5207 37.1974 173.4090 0.0000 0.0000 0.0000
# 4 0.0000 0.0000 0.0000 29.6765 0.0000 0.0000
# 5 0.0000 0.0000 0.0000 0.0000 4.8631 0.0000
# 6 0.0000 0.0000 0.0000 0.0000 0.0000 13.4158
#
#
#
# Elastic Compliance Matrix: (Units=1/GPa)
#
#
# Indices 1 2 3 4 5 6 
#
# 1 0.009064 -0.002153 -0.003120 0.000000 0.000000 0.000000
# 2 -0.002153 0.011266 -0.001566 0.000000 0.000000 0.000000
# 3 -0.003120 -0.001566 0.007335 0.000000 0.000000 0.000000
# 4 0.000000 0.000000 0.000000 0.033697 0.000000 0.000000
# 5 0.000000 0.000000 0.000000 0.000000 0.205631 0.000000
# 6 0.000000 0.000000 0.000000 0.000000 0.000000 0.074539
#
#
# Mechanical properties :
#
#
# Convention : Reuss Voigt Hill
#
# Bulk Modulus (GPa) = 71.48680 78.00130 74.74405
# Shear Modulus (GPa) = 13.89380 27.89216 20.89298
#
# Velocity S-wave (km/s) = 2.56211 3.63019 3.14187
# Velocity P-wave (km/s) = 6.52136 7.37729 6.96249
#
# Compressibility (1/GPa) = 0.01398860
#
# Stress axis : x y z
#
# Youngs Moduli (GPa) = 110.32726 88.76076 136.32528
#
# Poissons Ratio (x) = 0.19107 0.42530
# Poissons Ratio (y) = 0.23749 0.21350
# Poissons Ratio (z) = 0.34420 0.13901
#
# Static dielectric constant tensor:
#      x y z
#    x 4.755000 0.000000 0.000000 
#    y 0.000000 3.487340 0.000000 
#    z 0.000000 0.000000 4.508470 
# 
# 
# High freq. dielectric constant tensor:
#      x y z
#    x 1.840940 0.000000 0.000000 
#    y 0.000000 1.799640 0.000000 
#    z 0.000000 0.000000 1.852720 
# 
# From -- ./inp_files/15719.got.cif
#   From: 2010.03.12/outbox.cif.g09.slc.cpg/sg46_8_cif.got.tgz:15719.got - 2010.04.14 02:56:35.
