data_PCOD8192447
_publ_section_title
;
Structure prediction by ZEFSAII (Michael W. Deem and Ramdas Pophale) SiO2 
 PCOD8192447
Probable space group: I M A 2
;
_chemical_formula_sum "Si O2"
_cell_formula_units_Z 64
_cell_length_a 8.615418
_cell_length_b 14.695591
_cell_length_c 27.359927
_cell_angle_alpha 90.000000
_cell_angle_beta 90.000000
_cell_angle_gamma 90.000000
_cell_volume 3464.003674
_symmetry_space_group_name_H-M "I M A 2"
_symmetry_group_IT_number 46
_symmetry_cell_setting 'orthorhombic'
loop_
_space_group_symop_operation_xyz
x,y,z
-x,-y,z
1/2-x,y,z
1/2+x,-y,z
1/2+x,1/2+y,1/2+z
1/2-x,1/2-y,1/2+z
-x,1/2+y,1/2+z
x,1/2-y,1/2+z
loop_
_atom_site_type_symbol
_atom_site_label
_atom_site_fract_x
_atom_site_fract_y
_atom_site_fract_z
Si Si1 0.432275 0.094347 0.212310
Si Si2 0.066434 0.404232 0.984922
Si Si3 0.434381 0.096325 0.101714
Si Si4 0.566512 0.276286 0.065517
Si Si5 0.566434 0.095768 0.378673
Si Si6 0.432275 0.905653 0.651286
Si Si7 0.433488 0.276286 0.798078
Si Si8 0.934381 0.096325 0.761881
O O1 0.250000 0.084019 0.212549
O O2 0.491561 0.114160 0.157406
O O3 0.487527 0.174790 0.247922
O O4 0.500000 0.000000 0.232482
O O5 0.250000 0.411518 0.982060
O O6 0.000000 0.500000 0.004769
O O7 0.999998 0.381848 0.931798
O O8 0.016702 0.323230 0.020181
O O9 0.250000 0.098143 0.096968
O O10 0.509470 0.172679 0.067392
O O11 0.500000 0.000000 0.083261
O O12 0.750000 0.281179 0.058138
O O13 0.512474 0.325210 0.115674
O O14 0.750000 0.088482 0.381535
O O15 0.516700 0.176771 0.343415
O O16 0.500000 0.000000 0.358827
O O17 0.250000 0.915981 0.651047
O O18 0.491561 0.885840 0.706190
O O19 0.500000 0.000000 0.631114
O O20 0.250000 0.281179 0.805457
O O21 0.490531 0.172679 0.796204
O O22 0.750000 0.098143 0.766628
O O23 0.000000 0.000000 0.780334
#
# Coordination Sequence:
#
# PCOD8192447 Si02
#       8
#     8   8   8   8   8   8   8   8
#     4   9  19  32  49  74 107 142 178 217 261 310
#     4  11  22  38  58  82 110 140 172 213 262 316
#     4  10  20  35  52  74 104 142 182 223 265 309
#     4  11  21  34  53  79 107 140 179 220 263 314
#     4  11  22  38  58  82 110 140 172 213 262 316
#     4   9  19  32  49  74 107 142 178 217 261 310
#     4  11  21  34  53  79 107 140 179 220 263 314
#     4  10  20  35  52  74 104 142 182 223 265 309
#
# _framework density 18.475731
#
# number of rings (size 3 to 8) (size 9 to 14) (size 15 to 20)
#    0.000    1.750    0.000    6.000    0.000    5.000 
#    0.000    0.000    0.000    0.750    0.000    5.250 
#    0.000    0.000    0.000    0.000    0.000    0.000 
#
# Total GULP energy -396937.824338 kJ/mol
# GULP energy per Si atom -12404.307011 kJ/mol
# Density = 1.843368 g / cm^3
# Si number density = 18.475731 Si / 1000 Ang^3
#
#
#
# Elastic Constant Matrix: (Units=GPa)
#
#
# Indices 1 2 3 4 5 6 
#
# 1 101.0778 48.0235 40.2823 0.0000 0.0000 0.0000
# 2 48.0235 148.8607 66.6346 0.0000 0.0000 0.0000
# 3 40.2823 66.6346 78.2928 0.0000 0.0000 0.0000
# 4 0.0000 0.0000 0.0000 30.9797 0.0000 0.0000
# 5 0.0000 0.0000 0.0000 0.0000 26.6687 0.0000
# 6 0.0000 0.0000 0.0000 0.0000 0.0000 35.3490
#
#
#
# Elastic Compliance Matrix: (Units=1/GPa)
#
#
# Indices 1 2 3 4 5 6 
#
# 1 0.012771 -0.001904 -0.004950 0.000000 0.000000 0.000000
# 2 -0.001904 0.011136 -0.008498 0.000000 0.000000 0.000000
# 3 -0.004950 -0.008498 0.022552 0.000000 0.000000 0.000000
# 4 0.000000 0.000000 0.000000 0.032279 0.000000 0.000000
# 5 0.000000 0.000000 0.000000 0.000000 0.037497 0.000000
# 6 0.000000 0.000000 0.000000 0.000000 0.000000 0.028289
#
#
# Mechanical properties :
#
#
# Convention : Reuss Voigt Hill
#
# Bulk Modulus (GPa) = 63.47484 70.90135 67.18810
# Shear Modulus (GPa) = 27.70384 30.15223 28.92803
#
# Velocity S-wave (km/s) = 3.87650 4.04417 3.96123
# Velocity P-wave (km/s) = 7.38016 7.76311 7.57405
#
# Compressibility (1/GPa) = 0.01575427
#
# Stress axis : x y z
#
# Youngs Moduli (GPa) = 78.30362 89.79913 44.34185
#
# Poissons Ratio (x) = 0.17099 0.21950
# Poissons Ratio (y) = 0.14910 0.37682
# Poissons Ratio (z) = 0.38761 0.76312
#
# Static dielectric constant tensor:
#      x y z
#    x 3.409820 0.000000 0.000000 
#    y 0.000000 3.421880 0.000000 
#    z 0.000000 0.000000 3.328510 
# 
# 
# High freq. dielectric constant tensor:
#      x y z
#    x 1.728910 0.000000 0.000000 
#    y 0.000000 1.718730 0.000000 
#    z 0.000000 0.000000 1.695390 
# 
# From -- ./inp_files/23187.got.cif
#   From: 2010.03.12/outbox.cif.g09.slc.cpg/sg46_12_cif.got.tgz:23187.got - 2010.04.14 02:56:35.
