data_PCOD8192946
_publ_section_title
;
Structure prediction by ZEFSAII (Michael W. Deem and Ramdas Pophale) SiO2 
 PCOD8192946
Probable space group: I M A 2
;
_chemical_formula_sum "Si O2"
_cell_formula_units_Z 48
_cell_length_a 8.650406
_cell_length_b 9.109324
_cell_length_c 30.228971
_cell_angle_alpha 90.000000
_cell_angle_beta 90.000000
_cell_angle_gamma 90.000000
_cell_volume 2382.023296
_symmetry_space_group_name_H-M "I M A 2"
_symmetry_group_IT_number 46
_symmetry_cell_setting 'orthorhombic'
loop_
_space_group_symop_operation_xyz
x,y,z
-x,-y,z
1/2-x,y,z
1/2+x,-y,z
1/2+x,1/2+y,1/2+z
1/2-x,1/2-y,1/2+z
-x,1/2+y,1/2+z
x,1/2-y,1/2+z
loop_
_atom_site_type_symbol
_atom_site_label
_atom_site_fract_x
_atom_site_fract_y
_atom_site_fract_z
Si Si1 0.066824 0.342174 0.106440
Si Si2 0.429264 0.157303 0.863158
Si Si3 0.070396 0.659394 0.785073
Si Si4 0.931321 0.153095 0.700876
Si Si5 0.430916 0.341291 0.950380
Si Si6 0.067273 0.658736 0.529243
O O1 0.250000 0.348074 0.102976
O O2 0.000000 0.500000 0.091940
O O3 0.015951 0.300730 0.155890
O O4 0.001944 0.215481 0.075204
O O5 0.250000 0.139258 0.853830
O O6 0.502555 0.229059 0.820238
O O7 0.464323 0.253873 0.905846
O O8 0.500000 0.000000 0.872424
O O9 0.250000 0.646490 0.794211
O O10 0.034612 0.720365 0.736266
O O11 0.000000 0.500000 0.790649
O O12 0.750000 0.132463 0.691683
O O13 0.000000 0.000000 0.718918
O O14 0.500000 0.500000 0.942362
O O15 0.250000 0.348405 0.961964
O O16 0.521318 0.268512 0.990523
O O17 0.250000 0.648731 0.533219
O O18 0.000000 0.500000 0.517982
#
# Coordination Sequence:
#
# PCOD8192946 Si02
#       6
#     8   8   8   8   8   8
#     4  11  22  39  63  90 121 159 201 248 299 356
#     4  11  24  41  64  91 123 159 200 247 298 355
#     4  11  24  40  61  88 122 160 202 249 300 356
#     4  10  21  38  60  88 119 156 201 250 301 357
#     4  11  24  42  64  92 123 159 200 246 297 353
#     4  12  25  42  63  89 122 159 200 248 299 357
#
# _framework density 20.150936000000002
#
# number of rings (size 3 to 8) (size 9 to 14) (size 15 to 20)
#    0.000    1.000    0.000    8.000    0.000   10.000 
#    0.000    1.667    0.000    0.000    0.000    0.000 
#    0.000    0.000    0.000    0.000    0.000    0.000 
#
# Total GULP energy -297768.657228 kJ/mol
# GULP energy per Si atom -12407.027384 kJ/mol
# Density = 2.010507 g / cm^3
# Si number density = 20.150936 Si / 1000 Ang^3
#
#
#
# Elastic Constant Matrix: (Units=GPa)
#
#
# Indices 1 2 3 4 5 6 
#
# 1 162.4441 69.5360 72.3491 0.0000 0.0000 0.0000
# 2 69.5360 125.8207 48.0882 0.0001 0.0000 0.0000
# 3 72.3491 48.0882 90.3890 0.0000 0.0000 0.0000
# 4 0.0000 0.0001 0.0000 -112.2759 0.0000 0.0000
# 5 0.0000 0.0000 0.0000 0.0000 30.1655 0.0000
# 6 0.0000 0.0000 0.0000 0.0000 0.0000 38.5559
#
#
#
# Elastic Compliance Matrix: (Units=1/GPa)
#
#
# Indices 1 2 3 4 5 6 
#
# 1 0.010535 -0.003263 -0.006697 0.000000 0.000000 0.000000
# 2 -0.003263 0.010987 -0.003233 0.000000 0.000000 0.000000
# 3 -0.006697 -0.003233 0.018144 0.000000 0.000000 0.000000
# 4 0.000000 0.000000 0.000000 -0.008907 0.000000 0.000000
# 5 0.000000 0.000000 0.000000 0.000000 0.033150 0.000000
# 6 0.000000 0.000000 0.000000 0.000000 0.000000 0.025936
#
#
# Mechanical properties :
#
#
# Convention : Reuss Voigt Hill
#
# Bulk Modulus (GPa) = 75.30306 84.28893 79.79600
# Shear Modulus (GPa) = 41.43911 3.86780 22.65346
#
# Velocity S-wave (km/s) = 4.53971 1.38693 3.35653
# Velocity P-wave (km/s) = 8.05787 6.66966 7.39641
#
# Compressibility (1/GPa) = 0.01327967
#
# Stress axis : x y z
#
# Youngs Moduli (GPa) = 94.91914 91.01708 55.11551
#
# Poissons Ratio (x) = 0.29699 0.36909
# Poissons Ratio (y) = 0.30972 0.17821
# Poissons Ratio (z) = 0.63565 0.29430
#
# Static dielectric constant tensor:
#      x y z
#    x 3.897840 0.000000 0.000000 
#    y 0.000000 3.825010 0.000000 
#    z 0.000000 0.000000 3.819010 
# 
# 
# High freq. dielectric constant tensor:
#      x y z
#    x 1.808730 0.000000 0.000000 
#    y 0.000000 1.796510 0.000000 
#    z 0.000000 0.000000 1.802020 
# 
# From -- ./inp_files/24988.got.cif
#   From: 2010.03.12/outbox.cif.g09.slc.cpg/sg46_13_cif.got.tgz:24988.got - 2010.04.14 02:56:35.
