data_PCOD8192582
_publ_section_title
;
Structure prediction by ZEFSAII (Michael W. Deem and Ramdas Pophale) SiO2 
 PCOD8192582
Probable space group: I M A 2
;
_chemical_formula_sum "Si O2"
_cell_formula_units_Z 56
_cell_length_a 8.735298
_cell_length_b 14.426828
_cell_length_c 22.082871
_cell_angle_alpha 90.000000
_cell_angle_beta 90.000000
_cell_angle_gamma 90.000000
_cell_volume 2782.941741
_symmetry_space_group_name_H-M "I M A 2"
_symmetry_group_IT_number 46
_symmetry_cell_setting 'orthorhombic'
loop_
_space_group_symop_operation_xyz
x,y,z
-x,-y,z
1/2-x,y,z
1/2+x,-y,z
1/2+x,1/2+y,1/2+z
1/2-x,1/2-y,1/2+z
-x,1/2+y,1/2+z
x,1/2-y,1/2+z
loop_
_atom_site_type_symbol
_atom_site_label
_atom_site_fract_x
_atom_site_fract_y
_atom_site_fract_z
Si Si1 0.571758 0.092752 0.655840
Si Si2 0.069604 0.793163 0.420582
Si Si3 0.429406 0.399292 0.808257
Si Si4 0.426006 0.787786 0.202431
Si Si5 0.431887 0.097036 0.525918
Si Si6 0.570789 0.094063 0.954699
Si Si7 0.570797 0.406447 0.590418
O O1 0.750000 0.077288 0.640146
O O2 0.550054 0.176896 0.702927
O O3 0.481757 0.115469 0.594515
O O4 0.500000 0.000000 0.685755
O O5 0.250000 0.810576 0.419346
O O6 0.030981 0.683433 0.413361
O O7 0.992925 0.852072 0.368251
O O8 0.002950 0.822444 0.485195
O O9 0.500000 0.500000 0.797908
O O10 0.250000 0.411112 0.815303
O O11 0.465581 0.333594 0.751762
O O12 0.250000 0.813215 0.217678
O O13 0.472427 0.822978 0.135468
O O14 0.250000 0.096026 0.520250
O O15 0.500000 0.000000 0.502130
O O16 0.750000 0.078905 0.957548
O O17 0.500000 0.000000 0.926532
O O18 0.505603 0.111880 0.022841
O O19 0.500000 0.500000 0.618056
O O20 0.750000 0.419902 0.587307
#
# Coordination Sequence:
#
# PCOD8192582 Si02
#       7
#     8   8   8   8   8   8   8
#     4  10  20  36  58  85 118 152 189 234 283 336
#     4  11  22  39  60  82 112 151 193 236 286 337
#     4  12  26  43  62  85 113 145 186 234 283 339
#     4  10  21  38  59  82 112 151 192 234 281 332
#     4  11  21  34  55  85 119 153 190 233 284 340
#     4   9  19  35  57  84 115 148 182 226 276 329
#     4   9  17  31  52  81 113 144 179 219 270 327
#
# _framework density 20.122592000000001
#
# number of rings (size 3 to 8) (size 9 to 14) (size 15 to 20)
#    0.000    1.714    0.000    6.000    0.000    6.286 
#    0.000    3.571    0.000    0.000    0.000    0.000 
#    0.000    0.000    0.000    0.000    0.000    0.000 
#
# Total GULP energy -347216.442589 kJ/mol
# GULP energy per Si atom -12400.587235 kJ/mol
# Density = 2.007679 g / cm^3
# Si number density = 20.122592 Si / 1000 Ang^3
#
#
#
# Elastic Constant Matrix: (Units=GPa)
#
#
# Indices 1 2 3 4 5 6 
#
# 1 108.7039 56.3185 30.5418 0.0000 0.0000 0.0000
# 2 56.3185 140.9250 40.2276 0.0000 0.0000 0.0000
# 3 30.5418 40.2276 52.9757 0.0000 0.0000 0.0000
# 4 0.0000 0.0000 0.0000 31.9441 0.0000 0.0000
# 5 0.0000 0.0000 0.0000 0.0000 31.0954 0.0000
# 6 0.0000 0.0000 0.0000 0.0000 0.0000 36.1116
#
#
#
# Elastic Compliance Matrix: (Units=1/GPa)
#
#
# Indices 1 2 3 4 5 6 
#
# 1 0.012322 -0.003698 -0.004296 0.000000 0.000000 0.000000
# 2 -0.003698 0.010170 -0.005590 0.000000 0.000000 0.000000
# 3 -0.004296 -0.005590 0.025598 0.000000 0.000000 0.000000
# 4 0.000000 0.000000 0.000000 0.031305 0.000000 0.000000
# 5 0.000000 0.000000 0.000000 0.000000 0.032159 0.000000
# 6 0.000000 0.000000 0.000000 0.000000 0.000000 0.027692
#
#
# Mechanical properties :
#
#
# Convention : Reuss Voigt Hill
#
# Bulk Modulus (GPa) = 47.79766 61.86448 54.83107
# Shear Modulus (GPa) = 28.83695 31.53131 30.18413
#
# Velocity S-wave (km/s) = 3.78969 3.96278 3.87720
# Velocity P-wave (km/s) = 6.55391 7.19366 6.88122
#
# Compressibility (1/GPa) = 0.02092152
#
# Stress axis : x y z
#
# Youngs Moduli (GPa) = 81.15398 98.33174 39.06502
#
# Poissons Ratio (x) = 0.36364 0.16782
# Poissons Ratio (y) = 0.30012 0.21839
# Poissons Ratio (z) = 0.34863 0.54971
#
# Static dielectric constant tensor:
#      x y z
#    x 3.656280 0.000000 0.000000 
#    y 0.000000 3.817290 0.000000 
#    z 0.000000 0.000000 3.480420 
# 
# 
# High freq. dielectric constant tensor:
#      x y z
#    x 1.787260 0.000000 0.000000 
#    y 0.000000 1.801190 0.000000 
#    z 0.000000 0.000000 1.760480 
# 
# From -- ./inp_files/21116.got.cif
#   From: 2010.03.12/outbox.cif.g09.slc.cpg/sg46_11_cif.got.tgz:21116.got - 2010.04.14 02:56:35.
