data_PCOD8192011
_publ_section_title
;
Structure prediction by ZEFSAII (Michael W. Deem and Ramdas Pophale) SiO2 
 PCOD8192011
Probable space group: I M A 2
;
_chemical_formula_sum "Si O2"
_cell_formula_units_Z 64
_cell_length_a 8.974522
_cell_length_b 25.036819
_cell_length_c 14.952956
_cell_angle_alpha 90.000000
_cell_angle_beta 90.000000
_cell_angle_gamma 90.000000
_cell_volume 3359.831764
_symmetry_space_group_name_H-M "I M A 2"
_symmetry_group_IT_number 46
_symmetry_cell_setting 'orthorhombic'
loop_
_space_group_symop_operation_xyz
x,y,z
-x,-y,z
1/2-x,y,z
1/2+x,-y,z
1/2+x,1/2+y,1/2+z
1/2-x,1/2-y,1/2+z
-x,1/2+y,1/2+z
x,1/2-y,1/2+z
loop_
_atom_site_type_symbol
_atom_site_label
_atom_site_fract_x
_atom_site_fract_y
_atom_site_fract_z
Si Si1 0.419064 0.720283 0.603300
Si Si2 0.579368 0.254306 0.808170
Si Si3 0.080341 0.324721 0.080044
Si Si4 0.425175 0.601525 0.581179
Si Si5 0.426731 0.352630 0.274832
Si Si6 0.421092 0.351979 0.888720
Si Si7 0.426541 0.444670 0.755507
Si Si8 0.574554 0.056043 0.888235
O O1 0.250000 0.726313 0.572316
O O2 0.438463 0.723320 0.709049
O O3 0.505487 0.768174 0.555849
O O4 0.480787 0.662709 0.572373
O O5 0.750000 0.240416 0.831491
O O6 0.481138 0.201419 0.823186
O O7 0.521629 0.300549 0.872118
O O8 0.250000 0.310362 0.099044
O O9 0.017968 0.351584 0.170838
O O10 0.061587 0.364409 0.995119
O O11 0.250000 0.599482 0.604593
O O12 0.515400 0.572157 0.658579
O O13 0.464061 0.572198 0.489404
O O14 0.250000 0.358527 0.285009
O O15 0.507075 0.402278 0.319135
O O16 0.250000 0.338635 0.864420
O O17 0.476407 0.402105 0.830810
O O18 0.500000 0.500000 0.785075
O O19 0.250000 0.451373 0.751131
O O20 0.750000 0.052451 0.872852
O O21 0.500000 0.000000 0.866382
#
# Coordination Sequence:
#
# PCOD8192011 Si02
#       8
#     8   8   8   8   8   8   8   8
#     4   9  18  33  53  82 117 151 186 226 275 335
#     4  10  19  33  56  84 116 151 187 231 280 338
#     4   9  20  37  57  82 116 153 189 234 284 339
#     4  10  21  38  58  84 118 152 189 233 283 343
#     4  10  21  39  61  84 114 151 192 240 291 340
#     4  10  21  37  56  84 117 152 192 235 284 341
#     4  11  23  38  59  83 115 154 195 238 285 341
#     4  11  24  41  61  85 114 150 195 243 291 343
#
# _framework density 19.048573000000001
#
# number of rings (size 3 to 8) (size 9 to 14) (size 15 to 20)
#    0.000    2.000    1.250    1.875    1.750    4.500 
#    0.000    0.625    0.000    1.500    0.000    0.000 
#    0.000    0.000    0.000    0.000    0.000    0.000 
#
# Total GULP energy -396838.081466 kJ/mol
# GULP energy per Si atom -12401.190046 kJ/mol
# Density = 1.900522 g / cm^3
# Si number density = 19.048573 Si / 1000 Ang^3
#
#
#
# Elastic Constant Matrix: (Units=GPa)
#
#
# Indices 1 2 3 4 5 6 
#
# 1 74.6922 53.5730 44.6546 0.0000 0.0000 0.0000
# 2 53.5730 147.6603 70.6828 -0.0001 0.0000 0.0000
# 3 44.6546 70.6828 98.3131 -0.0002 0.0001 0.0001
# 4 0.0000 -0.0001 -0.0002 26.2595 0.0000 0.0000
# 5 0.0000 0.0000 0.0001 0.0000 22.6638 0.0000
# 6 0.0000 0.0000 0.0001 0.0000 0.0000 34.2059
#
#
#
# Elastic Compliance Matrix: (Units=1/GPa)
#
#
# Indices 1 2 3 4 5 6 
#
# 1 0.020141 -0.004465 -0.005938 0.000000 0.000000 0.000000
# 2 -0.004465 0.011316 -0.006108 0.000000 0.000000 0.000000
# 3 -0.005938 -0.006108 0.017260 0.000000 0.000000 0.000000
# 4 0.000000 0.000000 0.000000 0.038082 0.000000 0.000000
# 5 0.000000 0.000000 0.000000 0.000000 0.044123 0.000000
# 6 0.000000 0.000000 0.000000 0.000000 0.000000 0.029235
#
#
# Mechanical properties :
#
#
# Convention : Reuss Voigt Hill
#
# Bulk Modulus (GPa) = 63.71318 73.16516 68.43917
# Shear Modulus (GPa) = 25.20052 26.74285 25.97169
#
# Velocity S-wave (km/s) = 3.64120 3.75097 3.69649
# Velocity P-wave (km/s) = 7.15529 7.56656 7.36380
#
# Compressibility (1/GPa) = 0.01569534
#
# Stress axis : x y z
#
# Youngs Moduli (GPa) = 49.65054 88.37179 57.93811
#
# Poissons Ratio (x) = 0.39457 0.34404
# Poissons Ratio (y) = 0.22168 0.35386
# Poissons Ratio (z) = 0.29483 0.53974
#
# Static dielectric constant tensor:
#      x y z
#    x 3.522870 0.000000 0.000000 
#    y 0.000000 3.563190 0.000000 
#    z 0.000000 0.000000 3.540330 
# 
# 
# High freq. dielectric constant tensor:
#      x y z
#    x 1.742790 0.000000 0.000000 
#    y 0.000000 1.734310 0.000000 
#    z 0.000000 0.000000 1.743870 
# 
# From -- ./inp_files/14485.got.cif
#   From: 2010.03.12/outbox.cif.g09.slc.cpg/sg46_8_cif.got.tgz:14485.got - 2010.04.14 02:56:35.
