data_PCOD8192869
_publ_section_title
;
Structure prediction by ZEFSAII (Michael W. Deem and Ramdas Pophale) SiO2 
 PCOD8192869
Probable space group: I M A 2
;
_chemical_formula_sum "Si O2"
_cell_formula_units_Z 44
_cell_length_a 13.403063
_cell_length_b 19.298912
_cell_length_c 8.496608
_cell_angle_alpha 90.000000
_cell_angle_beta 90.000000
_cell_angle_gamma 90.000000
_cell_volume 2197.771144
_symmetry_space_group_name_H-M "I M A 2"
_symmetry_group_IT_number 46
_symmetry_cell_setting 'orthorhombic'
loop_
_space_group_symop_operation_xyz
x,y,z
-x,-y,z
1/2-x,y,z
1/2+x,-y,z
1/2+x,1/2+y,1/2+z
1/2-x,1/2-y,1/2+z
-x,1/2+y,1/2+z
x,1/2-y,1/2+z
loop_
_atom_site_type_symbol
_atom_site_label
_atom_site_fract_x
_atom_site_fract_y
_atom_site_fract_z
Si Si1 0.360228 0.414705 0.399260
Si Si2 0.642628 0.089265 0.338759
Si Si3 0.605544 0.025610 0.661047
Si Si4 0.000000 0.500000 0.630195
Si Si5 0.454292 0.838357 0.813149
Si Si6 0.865572 0.275083 0.013762
O O1 0.250000 0.390733 0.459441
O O2 0.339760 0.462007 0.245501
O O3 0.418234 0.459315 0.529625
O O4 0.427684 0.347882 0.352703
O O5 0.750000 0.083362 0.250944
O O6 0.661450 0.052432 0.507548
O O7 0.555134 0.056609 0.237077
O O8 0.617940 0.170067 0.371676
O O9 0.594458 0.085919 0.792632
O O10 0.500000 0.000000 0.598187
O O11 0.397645 0.800888 0.956156
O O12 0.439829 0.794512 0.654739
O O13 0.750000 0.274459 0.070368
#
# Coordination Sequence:
#
# PCOD8192869 Si02
#       6
#     8   8   8   4   8   8
#     4  11  23  40  61  87 118 161 203 245 305 357
#     4  10  21  36  59  89 119 152 193 244 302 355
#     4   9  17  38  61  85 118 155 195 243 295 353
#     4  12  22  38  60  90 124 152 192 258 292 358
#     4  10  21  39  59  87 120 153 196 251 290 356
#     4  10  22  38  61  90 119 154 195 243 302 356
#
# _framework density 20.020282000000002
#
# number of rings (size 3 to 8) (size 9 to 14) (size 15 to 20)
#    0.000    1.818    3.636    1.636    2.545    2.182 
#    0.000    0.909    0.000    0.000    0.000    0.000 
#    0.000    0.000    0.000    0.000    0.000    0.000 
#
# Total GULP energy -272675.279137 kJ/mol
# GULP energy per Si atom -12394.330870 kJ/mol
# Density = 1.997472 g / cm^3
# Si number density = 20.020282 Si / 1000 Ang^3
#
#
#
# Elastic Constant Matrix: (Units=GPa)
#
#
# Indices 1 2 3 4 5 6 
#
# 1 159.2357 45.3865 44.8426 0.0000 0.0000 0.0000
# 2 45.3865 81.4908 21.9707 0.0000 0.0000 0.0000
# 3 44.8426 21.9707 51.5088 0.0000 0.0001 0.0000
# 4 0.0000 0.0000 0.0000 34.3267 0.0000 0.0000
# 5 0.0000 0.0000 0.0001 0.0000 4.2224 0.0000
# 6 0.0000 0.0000 0.0000 0.0000 0.0000 16.3038
#
#
#
# Elastic Compliance Matrix: (Units=1/GPa)
#
#
# Indices 1 2 3 4 5 6 
#
# 1 0.009039 -0.003291 -0.006465 0.000000 0.000000 0.000000
# 2 -0.003291 0.015064 -0.003560 0.000000 0.000000 0.000000
# 3 -0.006465 -0.003560 0.026561 0.000000 0.000000 0.000000
# 4 0.000000 0.000000 0.000000 0.029132 0.000000 0.000000
# 5 0.000000 0.000000 0.000000 0.000000 0.236831 0.000000
# 6 0.000000 0.000000 0.000000 0.000000 0.000000 0.061336
#
#
# Mechanical properties :
#
#
# Convention : Reuss Voigt Hill
#
# Bulk Modulus (GPa) = 41.61301 57.40390 49.50845
# Shear Modulus (GPa) = 12.11810 22.97292 17.54551
#
# Velocity S-wave (km/s) = 2.46294 3.39113 2.96359
# Velocity P-wave (km/s) = 5.37760 6.63838 6.04097
#
# Compressibility (1/GPa) = 0.02403095
#
# Stress axis : x y z
#
# Youngs Moduli (GPa) = 110.63529 66.38250 37.64881
#
# Poissons Ratio (x) = 0.21847 0.24341
# Poissons Ratio (y) = 0.36411 0.13404
# Poissons Ratio (z) = 0.71527 0.23635
#
# Static dielectric constant tensor:
#      x y z
#    x 3.660000 0.000000 0.000000 
#    y 0.000000 3.701220 0.000000 
#    z 0.000000 0.000000 3.526360 
# 
# 
# High freq. dielectric constant tensor:
#      x y z
#    x 1.778920 0.000000 0.000000 
#    y 0.000000 1.770680 0.000000 
#    z 0.000000 0.000000 1.775920 
# 
# From -- ./inp_files/5647.got.cif
#   From: 2010.03.12/outbox.cif.g09.slc.cpg/sg46_3_cif.got.tgz:5647.got - 2010.04.14 02:56:35.
