data_PCOD8192118
_publ_section_title
;
Structure prediction by ZEFSAII (Michael W. Deem and Ramdas Pophale) SiO2 
 PCOD8192118
Probable space group: I M A 2
;
_chemical_formula_sum "Si O2"
_cell_formula_units_Z 48
_cell_length_a 18.991136
_cell_length_b 14.921343
_cell_length_c 8.728271
_cell_angle_alpha 90.000000
_cell_angle_beta 90.000000
_cell_angle_gamma 90.000000
_cell_volume 2473.358557
_symmetry_space_group_name_H-M "I M A 2"
_symmetry_group_IT_number 46
_symmetry_cell_setting 'orthorhombic'
loop_
_space_group_symop_operation_xyz
x,y,z
-x,-y,z
1/2-x,y,z
1/2+x,-y,z
1/2+x,1/2+y,1/2+z
1/2-x,1/2-y,1/2+z
-x,1/2+y,1/2+z
x,1/2-y,1/2+z
loop_
_atom_site_type_symbol
_atom_site_label
_atom_site_fract_x
_atom_site_fract_y
_atom_site_fract_z
Si Si1 0.534090 0.132192 0.542860
Si Si2 0.750000 0.629495 0.974958
Si Si3 0.168476 0.858277 0.016592
Si Si4 0.388251 0.045267 0.602936
Si Si5 0.750000 0.820070 0.120073
Si Si6 0.408259 0.763580 0.275159
Si Si7 0.172529 0.449230 0.422709
O O1 0.454958 0.097811 0.539924
O O2 0.547324 0.165198 0.371253
O O3 0.538368 0.214012 0.661140
O O4 0.594240 0.059962 0.588126
O O5 0.819290 0.569670 0.004216
O O6 0.750000 0.714077 0.090351
O O7 0.750000 0.664467 0.801203
O O8 0.250000 0.844233 0.987756
O O9 0.128564 0.808714 0.881440
O O10 0.146352 0.963030 0.014268
O O11 0.150031 0.818373 0.181440
O O12 0.378936 0.072248 0.781686
O O13 0.680219 0.865991 0.042455
O O14 0.250000 0.469842 0.350298
#
# Coordination Sequence:
#
# PCOD8192118 Si02
#       7
#     8   4   8   8   4   8   8
#     4  10  24  40  63  89 131 163 209 246 317 371
#     4  12  24  42  70  91 122 159 209 263 308 363
#     4  10  19  34  61  92 127 163 204 255 305 366
#     4  11  22  42  65  92 123 168 205 260 312 367
#     4  10  24  40  62  99 120 157 207 261 314 369
#     4  10  21  39  58  91 127 167 205 251 305 380
#     4   9  19  38  62  90 124 154 206 255 306 362
#
# _framework density 19.40681
#
# number of rings (size 3 to 8) (size 9 to 14) (size 15 to 20)
#    0.500    1.333    2.500    1.500    2.333    2.667 
#    6.000    1.667    0.000    0.000    0.000    0.000 
#    0.000    0.000    0.000    0.000    0.000    0.000 
#
# Total GULP energy -297557.046337 kJ/mol
# GULP energy per Si atom -12398.210264 kJ/mol
# Density = 1.936264 g / cm^3
# Si number density = 19.406810 Si / 1000 Ang^3
#
#
#
# Elastic Constant Matrix: (Units=GPa)
#
#
# Indices 1 2 3 4 5 6 
#
# 1 89.5554 31.2390 26.0363 0.0000 0.0000 0.0000
# 2 31.2390 71.8743 13.3227 0.0000 0.0000 0.0000
# 3 26.0363 13.3227 84.7025 0.0000 0.0000 0.0000
# 4 0.0000 0.0000 0.0000 35.9411 0.0000 0.0000
# 5 0.0000 0.0000 0.0000 0.0000 24.8622 0.0000
# 6 0.0000 0.0000 0.0000 0.0000 0.0000 27.0301
#
#
#
# Elastic Compliance Matrix: (Units=1/GPa)
#
#
# Indices 1 2 3 4 5 6 
#
# 1 0.014086 -0.005479 -0.003468 0.000000 0.000000 0.000000
# 2 -0.005479 0.016462 -0.000905 0.000000 0.000000 0.000000
# 3 -0.003468 -0.000905 0.013014 0.000000 0.000000 0.000000
# 4 0.000000 0.000000 0.000000 0.027823 0.000000 0.000000
# 5 0.000000 0.000000 0.000000 0.000000 0.040222 0.000000
# 6 0.000000 0.000000 0.000000 0.000000 0.000000 0.036996
#
#
# Mechanical properties :
#
#
# Convention : Reuss Voigt Hill
#
# Bulk Modulus (GPa) = 41.91479 43.03646 42.47562
# Shear Modulus (GPa) = 28.36705 29.26896 28.81800
#
# Velocity S-wave (km/s) = 3.82737 3.88774 3.85768
# Velocity P-wave (km/s) = 6.41690 6.50975 6.46349
#
# Compressibility (1/GPa) = 0.02385793
#
# Stress axis : x y z
#
# Youngs Moduli (GPa) = 70.99343 60.74430 76.83815
#
# Poissons Ratio (x) = 0.33284 0.26647
# Poissons Ratio (y) = 0.38900 0.06954
# Poissons Ratio (z) = 0.24620 0.05498
#
# Static dielectric constant tensor:
#      x y z
#    x 3.288570 0.000000 0.000000 
#    y 0.000000 3.670020 0.000000 
#    z 0.000000 0.000000 3.508990 
# 
# 
# High freq. dielectric constant tensor:
#      x y z
#    x 1.736590 0.000000 0.000000 
#    y 0.000000 1.764870 0.000000 
#    z 0.000000 0.000000 1.760710 
# 
# From -- ./inp_files/6626.got.cif
#   From: 2010.03.12/outbox.cif.g09.slc.cpg/sg46_4_cif.got.tgz:6626.got - 2010.04.14 02:56:35.
