data_PCOD8192026
_publ_section_title
;
Structure prediction by ZEFSAII (Michael W. Deem and Ramdas Pophale) SiO2 
 PCOD8192026
Probable space group: I M A 2
;
_chemical_formula_sum "Si O2"
_cell_formula_units_Z 64
_cell_length_a 13.218939
_cell_length_b 18.299059
_cell_length_c 12.087383
_cell_angle_alpha 90.000000
_cell_angle_beta 90.000000
_cell_angle_gamma 90.000000
_cell_volume 2923.867172
_symmetry_space_group_name_H-M "I M A 2"
_symmetry_group_IT_number 46
_symmetry_cell_setting 'orthorhombic'
loop_
_space_group_symop_operation_xyz
x,y,z
-x,-y,z
1/2-x,y,z
1/2+x,-y,z
1/2+x,1/2+y,1/2+z
1/2-x,1/2-y,1/2+z
-x,1/2+y,1/2+z
x,1/2-y,1/2+z
loop_
_atom_site_type_symbol
_atom_site_label
_atom_site_fract_x
_atom_site_fract_y
_atom_site_fract_z
Si Si1 0.002020 0.758409 0.673090
Si Si2 0.366055 0.874081 0.549933
Si Si3 0.631834 0.865082 0.064822
Si Si4 0.632653 0.529446 0.120846
Si Si5 0.139007 0.497005 0.721289
Si Si6 0.561119 0.361392 0.812228
Si Si7 0.639604 0.610246 0.910839
Si Si8 0.133351 0.366185 0.309703
O O1 0.929050 0.706579 0.601361
O O2 0.937121 0.803896 0.760501
O O3 0.067042 0.807700 0.591749
O O4 0.085896 0.709642 0.739057
O O5 0.250000 0.865471 0.589601
O O6 0.416814 0.949434 0.599591
O O7 0.365897 0.873030 0.416295
O O8 0.750000 0.849119 0.085614
O O9 0.598300 0.936386 0.134642
O O10 0.607216 0.880948 0.936997
O O11 0.750000 0.518022 0.093246
O O12 0.612933 0.557451 0.244781
O O13 0.596985 0.591685 0.033267
O O14 0.250000 0.524677 0.681909
O O15 0.063972 0.566359 0.733382
O O16 0.149907 0.465012 0.844375
O O17 0.445538 0.342257 0.850357
O O18 0.750000 0.650743 0.913560
O O19 0.250000 0.342398 0.294045
#
# Coordination Sequence:
#
# PCOD8192026 Si02
#       8
#     8   8   8   8   8   8   8   8
#     4  12  25  39  61  92 127 172 211 248 309 380
#     4  11  25  44  63  88 123 164 214 268 313 368
#     4  10  22  42  64  94 133 163 202 261 321 379
#     4   9  19  38  64  90 116 152 207 260 311 367
#     4  10  20  37  63  93 122 160 207 266 317 359
#     4  12  23  38  65  93 125 165 212 260 316 379
#     4  10  19  33  61  99 126 152 200 267 324 365
#     4  10  22  41  64  93 128 166 203 254 323 385
#
# _framework density 21.888819000000002
#
# number of rings (size 3 to 8) (size 9 to 14) (size 15 to 20)
#    0.000    1.500    2.500    2.625    0.000    3.000 
#    0.000    6.875    0.000    1.500    0.000    0.000 
#    0.000    0.000    0.000    0.000    0.000    0.000 
#
# Total GULP energy -396677.667025 kJ/mol
# GULP energy per Si atom -12396.177095 kJ/mol
# Density = 2.183900 g / cm^3
# Si number density = 21.888819 Si / 1000 Ang^3
#
#
#
# Elastic Constant Matrix: (Units=GPa)
#
#
# Indices 1 2 3 4 5 6 
#
# 1 62.8777 25.3817 30.0474 0.0000 0.0000 0.0000
# 2 25.3817 122.8218 66.8928 0.0000 0.0000 0.0000
# 3 30.0474 66.8928 142.8876 -0.0001 0.0000 0.0000
# 4 0.0000 0.0000 -0.0001 32.9828 0.0000 0.0000
# 5 0.0000 0.0000 0.0000 0.0000 28.2110 0.0000
# 6 0.0000 0.0000 0.0000 0.0000 0.0000 26.4007
#
#
#
# Elastic Compliance Matrix: (Units=1/GPa)
#
#
# Indices 1 2 3 4 5 6 
#
# 1 0.018129 -0.002242 -0.002763 0.000000 0.000000 0.000000
# 2 -0.002242 0.011205 -0.004774 0.000000 0.000000 0.000000
# 3 -0.002763 -0.004774 0.009815 0.000000 0.000000 0.000000
# 4 0.000000 0.000000 0.000000 0.030319 0.000000 0.000000
# 5 0.000000 0.000000 0.000000 0.000000 0.035447 0.000000
# 6 0.000000 0.000000 0.000000 0.000000 0.000000 0.037878
#
#
# Mechanical properties :
#
#
# Convention : Reuss Voigt Hill
#
# Bulk Modulus (GPa) = 51.04333 63.69231 57.36782
# Shear Modulus (GPa) = 29.60659 31.26992 30.43825
#
# Velocity S-wave (km/s) = 3.68175 3.78376 3.73310
# Velocity P-wave (km/s) = 6.43768 6.94625 6.69679
#
# Compressibility (1/GPa) = 0.01959120
#
# Stress axis : x y z
#
# Youngs Moduli (GPa) = 55.15997 89.24228 101.88857
#
# Poissons Ratio (x) = 0.20006 0.28150
# Poissons Ratio (y) = 0.12365 0.48646
# Poissons Ratio (z) = 0.15240 0.42608
#
# Static dielectric constant tensor:
#      x y z
#    x 4.018060 0.000000 0.000000 
#    y 0.000000 3.787340 0.000000 
#    z 0.000000 0.000000 3.967380 
# 
# 
# High freq. dielectric constant tensor:
#      x y z
#    x 1.867360 0.000000 0.000000 
#    y 0.000000 1.844750 0.000000 
#    z 0.000000 0.000000 1.856750 
# 
# From -- ./inp_files/11334.got.cif
#   From: 2010.03.12/outbox.cif.g09.slc.cpg/sg46_6_cif.got.tgz:11334.got - 2010.04.14 02:56:35.
