data_PCOD8192527
_publ_section_title
;
Structure prediction by ZEFSAII (Michael W. Deem and Ramdas Pophale) SiO2 
 PCOD8192527
Probable space group: I M A 2
;
_chemical_formula_sum "Si O2"
_cell_formula_units_Z 60
_cell_length_a 13.684207
_cell_length_b 11.920331
_cell_length_c 18.992004
_cell_angle_alpha 90.000000
_cell_angle_beta 90.000000
_cell_angle_gamma 90.000000
_cell_volume 3097.980952
_symmetry_space_group_name_H-M "I M A 2"
_symmetry_group_IT_number 46
_symmetry_cell_setting 'orthorhombic'
loop_
_space_group_symop_operation_xyz
x,y,z
-x,-y,z
1/2-x,y,z
1/2+x,-y,z
1/2+x,1/2+y,1/2+z
1/2-x,1/2-y,1/2+z
-x,1/2+y,1/2+z
x,1/2-y,1/2+z
loop_
_atom_site_type_symbol
_atom_site_label
_atom_site_fract_x
_atom_site_fract_y
_atom_site_fract_z
Si Si1 0.365877 0.823766 0.775650
Si Si2 0.000000 0.500000 0.206555
Si Si3 0.862625 0.397198 0.021186
Si Si4 0.945989 0.230570 0.924701
Si Si5 0.137270 0.783100 0.132305
Si Si6 0.355390 0.308089 0.495537
Si Si7 0.398291 0.954005 0.023871
Si Si8 0.863281 0.616227 0.098880
O O1 0.250000 0.847364 0.785737
O O2 0.417217 0.772416 0.843735
O O3 0.383754 0.731275 0.714753
O O4 0.420677 0.938449 0.755750
O O5 0.062248 0.408379 0.162352
O O6 0.750000 0.376615 0.003928
O O7 0.897513 0.329322 0.091353
O O8 0.884043 0.527105 0.036382
O O9 0.924921 0.355340 0.954193
O O10 0.061261 0.202582 0.935863
O O11 0.874048 0.145008 0.967798
O O12 0.250000 0.799734 0.116293
O O13 0.090817 0.897696 0.101286
O O14 0.250000 0.262106 0.467144
O O15 0.330836 0.436418 0.519550
O O16 0.386200 0.238183 0.565601
O O17 0.500000 0.000000 0.998074
O O18 0.750000 0.606128 0.124648
#
# Coordination Sequence:
#
# PCOD8192527 Si02
#       8
#     8   4   8   8   8   8   8   8
#     4  11  24  38  56  86 117 148 189 236 287 340
#     4  12  22  34  58  82 120 150 182 226 292 352
#     4   9  16  32  58  84 109 141 187 239 281 322
#     4  10  21  37  55  85 110 147 191 234 286 333
#     4   9  17  33  55  81 107 139 182 234 279 320
#     4  10  21  35  56  84 116 149 188 232 282 343
#     4   9  19  33  57  81 109 142 189 233 280 329
#     4  10  20  35  58  88 116 146 186 236 286 341
#
# _framework density 19.367453000000001
#
# number of rings (size 3 to 8) (size 9 to 14) (size 15 to 20)
#    0.000    2.133    1.333    2.000    6.533    1.600 
#    0.000    0.667    2.933    0.000    0.000    0.000 
#    0.000    0.000    0.000    0.000    0.000    0.000 
#
# Total GULP energy -371709.484021 kJ/mol
# GULP energy per Si atom -12390.316134 kJ/mol
# Density = 1.932337 g / cm^3
# Si number density = 19.367453 Si / 1000 Ang^3
#
#
#
# Elastic Constant Matrix: (Units=GPa)
#
#
# Indices 1 2 3 4 5 6 
#
# 1 82.9248 9.2456 34.6309 0.0000 0.0000 0.0000
# 2 9.2456 69.8288 26.7083 0.0000 0.0000 0.0000
# 3 34.6309 26.7083 110.6912 0.0000 0.0000 0.0000
# 4 0.0000 0.0000 0.0000 17.8528 0.0000 0.0000
# 5 0.0000 0.0000 0.0000 0.0000 22.9135 0.0000
# 6 0.0000 0.0000 0.0000 0.0000 0.0000 21.1448
#
#
#
# Elastic Compliance Matrix: (Units=1/GPa)
#
#
# Indices 1 2 3 4 5 6 
#
# 1 0.013874 -0.000195 -0.004294 0.000000 0.000000 0.000000
# 2 -0.000195 0.015779 -0.003746 0.000000 0.000000 0.000000
# 3 -0.004294 -0.003746 0.011281 0.000000 0.000000 0.000000
# 4 0.000000 0.000000 0.000000 0.056014 0.000000 0.000000
# 5 0.000000 0.000000 0.000000 0.000000 0.043642 0.000000
# 6 0.000000 0.000000 0.000000 0.000000 0.000000 0.047293
#
#
# Mechanical properties :
#
#
# Convention : Reuss Voigt Hill
#
# Bulk Modulus (GPa) = 40.87436 44.95716 42.91576
# Shear Modulus (GPa) = 23.52849 25.23957 24.38403
#
# Velocity S-wave (km/s) = 3.48925 3.61390 3.55212
# Velocity P-wave (km/s) = 6.11421 6.37784 6.24741
#
# Compressibility (1/GPa) = 0.02446521
#
# Stress axis : x y z
#
# Youngs Moduli (GPa) = 72.07774 63.37349 88.64135
#
# Poissons Ratio (x) = 0.01234 0.38059
# Poissons Ratio (y) = 0.01403 0.33209
# Poissons Ratio (z) = 0.30947 0.23743
#
# Static dielectric constant tensor:
#      x y z
#    x 3.792920 0.000000 0.000000 
#    y 0.000000 3.869720 0.000000 
#    z 0.000000 0.000000 3.199490 
# 
# 
# High freq. dielectric constant tensor:
#      x y z
#    x 1.775540 0.000000 0.000000 
#    y 0.000000 1.748860 0.000000 
#    z 0.000000 0.000000 1.711380 
# 
# From -- ./inp_files/19595.got.cif
#   From: 2010.03.12/outbox.cif.g09.slc.cpg/sg46_10_cif.got.tgz:19595.got - 2010.04.14 02:56:35.
