data_PCOD8192873
_publ_section_title
;
Structure prediction by ZEFSAII (Michael W. Deem and Ramdas Pophale) SiO2 
 PCOD8192873
Probable space group: I M A 2
;
_chemical_formula_sum "Si O2"
_cell_formula_units_Z 48
_cell_length_a 17.175231
_cell_length_b 12.044645
_cell_length_c 11.953882
_cell_angle_alpha 90.000000
_cell_angle_beta 90.000000
_cell_angle_gamma 90.000000
_cell_volume 2472.894312
_symmetry_space_group_name_H-M "I M A 2"
_symmetry_group_IT_number 46
_symmetry_cell_setting 'orthorhombic'
loop_
_space_group_symop_operation_xyz
x,y,z
-x,-y,z
1/2-x,y,z
1/2+x,-y,z
1/2+x,1/2+y,1/2+z
1/2-x,1/2-y,1/2+z
-x,1/2+y,1/2+z
x,1/2-y,1/2+z
loop_
_atom_site_type_symbol
_atom_site_label
_atom_site_fract_x
_atom_site_fract_y
_atom_site_fract_z
Si Si1 0.910090 0.026621 0.102980
Si Si2 0.158702 0.468467 0.264511
Si Si3 0.157199 0.410781 0.022648
Si Si4 0.340713 0.830834 0.913705
Si Si5 0.158172 0.586133 0.838490
Si Si6 0.657995 0.667143 0.471912
O O1 0.888859 0.064160 0.226637
O O2 0.889608 0.127298 0.019604
O O3 0.000000 0.000000 0.093486
O O4 0.863095 0.914851 0.073284
O O5 0.250000 0.447875 0.256314
O O6 0.121554 0.447841 0.142579
O O7 0.140763 0.593514 0.305087
O O8 0.123755 0.381534 0.355309
O O9 0.250000 0.409419 0.028072
O O10 0.129397 0.496860 0.929119
O O11 0.123234 0.289357 0.992985
O O12 0.250000 0.840145 0.946165
O O13 0.365031 0.706190 0.885737
O O14 0.250000 0.578299 0.814270
O O15 0.750000 0.674240 0.465003
#
# Coordination Sequence:
#
# PCOD8192873 Si02
#       6
#     8   8   8   8   8   8
#     4  11  23  40  56  83 118 159 196 235 297 357
#     4   8  15  29  50  80 111 136 174 232 289 336
#     4   9  18  30  53  87 112 137 181 237 293 342
#     4   9  19  37  62  86 112 149 196 250 297 345
#     4  10  21  36  61  90 116 148 197 251 294 343
#     4   9  18  34  57  81 110 148 189 236 287 344
#
# _framework density 19.410454999999999
#
# number of rings (size 3 to 8) (size 9 to 14) (size 15 to 20)
#    0.000    2.667    0.000    2.500    4.667    0.000 
#    3.000    0.000    0.000    4.000    0.000    0.000 
#    0.000    0.000    0.000    0.000    0.000    0.000 
#
# Total GULP energy -297575.726646 kJ/mol
# GULP energy per Si atom -12398.988610 kJ/mol
# Density = 1.936628 g / cm^3
# Si number density = 19.410455 Si / 1000 Ang^3
#
#
#
# Elastic Constant Matrix: (Units=GPa)
#
#
# Indices 1 2 3 4 5 6 
#
# 1 30.8050 24.7635 35.4375 0.0000 0.0000 0.0000
# 2 24.7635 180.9730 87.7837 0.0000 0.0000 0.0000
# 3 35.4375 87.7837 159.7159 0.0000 0.0000 0.0000
# 4 0.0000 0.0000 0.0000 27.9903 0.0000 0.0000
# 5 0.0000 0.0000 0.0000 0.0000 11.1187 0.0000
# 6 0.0000 0.0000 0.0000 0.0000 0.0000 7.4116
#
#
#
# Elastic Compliance Matrix: (Units=1/GPa)
#
#
# Indices 1 2 3 4 5 6 
#
# 1 0.043992 -0.001752 -0.008798 0.000000 0.000000 0.000000
# 2 -0.001752 0.007604 -0.003791 0.000000 0.000000 0.000000
# 3 -0.008798 -0.003791 0.010297 0.000000 0.000000 0.000000
# 4 0.000000 0.000000 0.000000 0.035727 0.000000 0.000000
# 5 0.000000 0.000000 0.000000 0.000000 0.089938 0.000000
# 6 0.000000 0.000000 0.000000 0.000000 0.000000 0.134924
#
#
# Mechanical properties :
#
#
# Convention : Reuss Voigt Hill
#
# Bulk Modulus (GPa) = 30.11035 74.16262 52.13648
# Shear Modulus (GPa) = 13.80329 24.20473 19.00401
#
# Velocity S-wave (km/s) = 2.66959 3.53511 3.13239
# Velocity P-wave (km/s) = 5.00484 7.41304 6.32462
#
# Compressibility (1/GPa) = 0.03321117
#
# Stress axis : x y z
#
# Youngs Moduli (GPa) = 22.73165 131.50696 97.11940
#
# Poissons Ratio (x) = 0.23041 0.85444
# Poissons Ratio (y) = 0.03983 0.36815
# Poissons Ratio (z) = 0.19999 0.49850
#
# Static dielectric constant tensor:
#      x y z
#    x 3.017200 0.000000 0.000000 
#    y 0.000000 3.876560 0.000000 
#    z 0.000000 0.000000 3.753340 
# 
# 
# High freq. dielectric constant tensor:
#      x y z
#    x 1.703690 0.000000 0.000000 
#    y 0.000000 1.767800 0.000000 
#    z 0.000000 0.000000 1.764040 
# 
# From -- ./inp_files/11776.got.cif
#   From: 2010.03.12/outbox.cif.g09.slc.cpg/sg46_6_cif.got.tgz:11776.got - 2010.04.14 02:56:35.
