data_PCOD8192790
_publ_section_title
;
Structure prediction by ZEFSAII (Michael W. Deem and Ramdas Pophale) SiO2 
 PCOD8192790
Probable space group: I M A 2
;
_chemical_formula_sum "Si O2"
_cell_formula_units_Z 44
_cell_length_a 14.468985
_cell_length_b 12.025362
_cell_length_c 13.408575
_cell_angle_alpha 90.000000
_cell_angle_beta 90.000000
_cell_angle_gamma 90.000000
_cell_volume 2333.022089
_symmetry_space_group_name_H-M "I M A 2"
_symmetry_group_IT_number 46
_symmetry_cell_setting 'orthorhombic'
loop_
_space_group_symop_operation_xyz
x,y,z
-x,-y,z
1/2-x,y,z
1/2+x,-y,z
1/2+x,1/2+y,1/2+z
1/2-x,1/2-y,1/2+z
-x,1/2+y,1/2+z
x,1/2-y,1/2+z
loop_
_atom_site_type_symbol
_atom_site_label
_atom_site_fract_x
_atom_site_fract_y
_atom_site_fract_z
Si Si1 0.643225 0.868792 0.035400
Si Si2 0.857360 0.983181 0.427407
Si Si3 0.050291 0.387228 0.334020
Si Si4 0.483226 0.849017 0.333363
Si Si5 0.355396 0.136326 0.626662
Si Si6 0.000000 0.500000 0.654916
O O1 0.750000 0.889745 0.058245
O O2 0.607883 0.752129 0.081239
O O3 0.585881 0.967659 0.085481
O O4 0.629048 0.865747 0.916272
O O5 0.750000 0.979249 0.393733
O O6 0.867042 0.960775 0.545074
O O7 0.914067 0.890293 0.365663
O O8 0.903254 0.103573 0.406406
O O9 0.090377 0.399922 0.224116
O O10 0.000000 0.500000 0.364015
O O11 0.978244 0.284079 0.335441
O O12 0.466324 0.896120 0.222280
O O13 0.250000 0.151526 0.657800
#
# Coordination Sequence:
#
# PCOD8192790 Si02
#       6
#     8   8   8   8   8   4
#     4  11  22  38  61  88 121 156 200 249 297 357
#     4   9  19  37  63  89 115 150 197 253 296 343
#     4  12  24  37  59  87 126 162 195 247 300 359
#     4  10  22  37  61  92 118 156 206 244 292 365
#     4  10  21  37  61  89 115 151 202 251 298 347
#     4  10  20  40  58  88 120 152 200 244 306 352
#
# _framework density 18.859658
#
# number of rings (size 3 to 8) (size 9 to 14) (size 15 to 20)
#    0.000    1.818    4.545    0.545    2.545    3.636 
#    0.000    1.818    0.000    0.000    0.000    0.000 
#    0.000    0.000    0.000    0.000    0.000    0.000 
#
# Total GULP energy -272783.574497 kJ/mol
# GULP energy per Si atom -12399.253386 kJ/mol
# Density = 1.881673 g / cm^3
# Si number density = 18.859658 Si / 1000 Ang^3
#
#
#
# Elastic Constant Matrix: (Units=GPa)
#
#
# Indices 1 2 3 4 5 6 
#
# 1 101.4150 40.2927 42.1424 0.0000 0.0000 0.0000
# 2 40.2927 117.4878 30.4126 0.0000 0.0000 0.0000
# 3 42.1424 30.4126 109.3388 0.0000 0.0000 0.0000
# 4 0.0000 0.0000 0.0000 30.0984 0.0000 0.0000
# 5 0.0000 0.0000 0.0000 0.0000 27.9335 0.0000
# 6 0.0000 0.0000 0.0000 0.0000 0.0000 23.4216
#
#
#
# Elastic Compliance Matrix: (Units=1/GPa)
#
#
# Indices 1 2 3 4 5 6 
#
# 1 0.012872 -0.003373 -0.004023 0.000000 0.000000 0.000000
# 2 -0.003373 0.010056 -0.001497 0.000000 0.000000 0.000000
# 3 -0.004023 -0.001497 0.011113 0.000000 0.000000 0.000000
# 4 0.000000 0.000000 0.000000 0.033224 0.000000 0.000000
# 5 0.000000 0.000000 0.000000 0.000000 0.035799 0.000000
# 6 0.000000 0.000000 0.000000 0.000000 0.000000 0.042696
#
#
# Mechanical properties :
#
#
# Convention : Reuss Voigt Hill
#
# Bulk Modulus (GPa) = 61.52085 61.54856 61.53471
# Shear Modulus (GPa) = 29.59185 30.65028 30.12106
#
# Velocity S-wave (km/s) = 3.96543 4.03572 4.00073
# Velocity P-wave (km/s) = 7.32512 7.37712 7.35117
#
# Compressibility (1/GPa) = 0.01625465
#
# Stress axis : x y z
#
# Youngs Moduli (GPa) = 77.68517 99.44456 89.98559
#
# Poissons Ratio (x) = 0.33545 0.36203
# Poissons Ratio (y) = 0.26205 0.13470
# Poissons Ratio (z) = 0.31254 0.14886
#
# Static dielectric constant tensor:
#      x y z
#    x 3.302050 0.000000 0.000000 
#    y 0.000000 3.415330 0.000000 
#    z 0.000000 0.000000 3.544150 
# 
# 
# High freq. dielectric constant tensor:
#      x y z
#    x 1.714920 0.000000 0.000000 
#    y 0.000000 1.720070 0.000000 
#    z 0.000000 0.000000 1.747690 
# 
# From -- ./inp_files/15800.got.cif
#   From: 2010.03.12/outbox.cif.g09.slc.cpg/sg46_8_cif.got.tgz:15800.got - 2010.04.14 02:56:35.
