data_PCOD8192543
_publ_section_title
;
Structure prediction by ZEFSAII (Michael W. Deem and Ramdas Pophale) SiO2 
 PCOD8192543
Probable space group: I M A 2
;
_chemical_formula_sum "Si O2"
_cell_formula_units_Z 48
_cell_length_a 8.801222
_cell_length_b 9.593341
_cell_length_c 30.716069
_cell_angle_alpha 90.000000
_cell_angle_beta 90.000000
_cell_angle_gamma 90.000000
_cell_volume 2593.453658
_symmetry_space_group_name_H-M "I M A 2"
_symmetry_group_IT_number 46
_symmetry_cell_setting 'orthorhombic'
loop_
_space_group_symop_operation_xyz
x,y,z
-x,-y,z
1/2-x,y,z
1/2+x,-y,z
1/2+x,1/2+y,1/2+z
1/2-x,1/2-y,1/2+z
-x,1/2+y,1/2+z
x,1/2-y,1/2+z
loop_
_atom_site_type_symbol
_atom_site_label
_atom_site_fract_x
_atom_site_fract_y
_atom_site_fract_z
Si Si1 0.429797 0.651531 0.291310
Si Si2 0.929696 0.353766 0.617505
Si Si3 0.072363 0.856106 0.216977
Si Si4 0.930412 0.846504 0.548421
Si Si5 0.926933 0.150664 0.367434
Si Si6 0.072399 0.650614 0.963257
O O1 0.500000 0.500000 0.292167
O O2 0.250000 0.636367 0.293133
O O3 0.483849 0.729746 0.247362
O O4 0.491706 0.739604 0.332521
O O5 0.750000 0.355928 0.609897
O O6 0.973864 0.322064 0.667448
O O7 0.000000 0.500000 0.602480
O O8 0.007243 0.233919 0.589831
O O9 0.250000 0.877288 0.221608
O O10 0.000000 0.000000 0.233274
O O11 0.750000 0.851753 0.549807
O O12 0.987514 0.771206 0.503396
O O13 0.000000 0.000000 0.550126
O O14 0.750000 0.126454 0.359727
O O15 0.956297 0.217940 0.415602
O O16 0.000000 0.000000 0.360864
O O17 0.250000 0.640823 0.974389
O O18 0.000000 0.500000 0.959912
#
# Coordination Sequence:
#
# PCOD8192543 Si02
#       6
#     8   8   8   8   8   8
#     4  10  21  36  51  75 107 137 168 207 253 303
#     4  10  20  36  55  78 106 137 172 214 259 309
#     4   9  19  35  56  78 102 132 171 212 252 300
#     4  11  21  34  53  78 106 139 175 216 261 308
#     4   9  18  32  53  77 102 132 171 213 254 300
#     4   9  16  29  49  74 102 133 169 214 257 300
#
# _framework density 18.508139
#
# number of rings (size 3 to 8) (size 9 to 14) (size 15 to 20)
#    0.000    2.333    0.000    4.000    0.000    3.333 
#    0.000    2.500    0.000    2.000    0.000    0.000 
#    0.000    0.000    0.000    0.000    0.000    0.000 
#
# Total GULP energy -297499.332491 kJ/mol
# GULP energy per Si atom -12395.805520 kJ/mol
# Density = 1.846601 g / cm^3
# Si number density = 18.508139 Si / 1000 Ang^3
#
#
#
# Elastic Constant Matrix: (Units=GPa)
#
#
# Indices 1 2 3 4 5 6 
#
# 1 85.6180 41.8813 51.2598 0.0000 0.0000 0.0000
# 2 41.8813 111.2740 77.8871 0.0000 -0.0002 0.0000
# 3 51.2598 77.8871 140.3074 0.0000 -0.0001 0.0000
# 4 0.0000 0.0000 0.0000 28.6259 -0.0002 0.0000
# 5 0.0000 -0.0002 -0.0001 -0.0002 -86.7373 0.0000
# 6 0.0000 0.0000 0.0000 0.0000 0.0000 32.2192
#
#
#
# Elastic Compliance Matrix: (Units=1/GPa)
#
#
# Indices 1 2 3 4 5 6 
#
# 1 0.015566 -0.003072 -0.003982 0.000000 0.000000 0.000000
# 2 -0.003072 0.015304 -0.007373 0.000000 0.000000 0.000000
# 3 -0.003982 -0.007373 0.012675 0.000000 0.000000 0.000000
# 4 0.000000 0.000000 0.000000 0.034933 0.000000 0.000000
# 5 0.000000 0.000000 0.000000 0.000000 -0.011529 0.000000
# 6 0.000000 0.000000 0.000000 0.000000 0.000000 0.031037
#
#
# Mechanical properties :
#
#
# Convention : Reuss Voigt Hill
#
# Bulk Modulus (GPa) = 68.06622 75.47286 71.76954
# Shear Modulus (GPa) = 37.95421 5.89965 21.92693
#
# Velocity S-wave (km/s) = 4.53335 1.78732 3.44571
# Velocity P-wave (km/s) = 8.01610 6.71759 7.39540
#
# Compressibility (1/GPa) = 0.01469157
#
# Stress axis : x y z
#
# Youngs Moduli (GPa) = 64.24131 65.34261 78.89574
#
# Poissons Ratio (x) = 0.20072 0.31415
# Poissons Ratio (y) = 0.19733 0.58172
# Poissons Ratio (z) = 0.25580 0.48179
#
# Static dielectric constant tensor:
#      x y z
#    x 3.459530 0.000000 0.000000 
#    y 0.000000 3.212260 0.000000 
#    z 0.000000 0.000000 4.257390 
# 
# 
# High freq. dielectric constant tensor:
#      x y z
#    x 1.722360 0.000000 0.000000 
#    y 0.000000 1.687740 0.000000 
#    z 0.000000 0.000000 1.741060 
# 
# From -- ./inp_files/24973.got.cif
#   From: 2010.03.12/outbox.cif.g09.slc.cpg/sg46_13_cif.got.tgz:24973.got - 2010.04.14 02:56:35.
