data_PCOD8192999
_publ_section_title
;
Structure prediction by ZEFSAII (Michael W. Deem and Ramdas Pophale) SiO2 
 PCOD8192999
Probable space group: I M A 2
;
_chemical_formula_sum "Si O2"
_cell_formula_units_Z 60
_cell_length_a 9.313068
_cell_length_b 11.954976
_cell_length_c 26.235493
_cell_angle_alpha 90.000000
_cell_angle_beta 90.000000
_cell_angle_gamma 90.000000
_cell_volume 2920.994318
_symmetry_space_group_name_H-M "I M A 2"
_symmetry_group_IT_number 46
_symmetry_cell_setting 'orthorhombic'
loop_
_space_group_symop_operation_xyz
x,y,z
-x,-y,z
1/2-x,y,z
1/2+x,-y,z
1/2+x,1/2+y,1/2+z
1/2-x,1/2-y,1/2+z
-x,1/2+y,1/2+z
x,1/2-y,1/2+z
loop_
_atom_site_type_symbol
_atom_site_label
_atom_site_fract_x
_atom_site_fract_y
_atom_site_fract_z
Si Si1 0.412307 0.790637 0.301810
Si Si2 0.579590 0.620871 0.122345
Si Si3 0.093153 0.902741 0.402654
Si Si4 0.000000 0.500000 0.621355
Si Si5 0.410325 0.795152 0.186151
Si Si6 0.079919 0.101253 0.852079
Si Si7 0.581701 0.166544 0.948176
Si Si8 0.908119 0.681926 0.546932
O O1 0.250000 0.738765 0.306895
O O2 0.422541 0.893571 0.341240
O O3 0.445816 0.827865 0.244500
O O4 0.537299 0.708144 0.319544
O O5 0.500000 0.500000 0.117562
O O6 0.750000 0.601305 0.130928
O O7 0.517313 0.695671 0.168886
O O8 0.551338 0.698388 0.072576
O O9 0.250000 0.939446 0.418085
O O10 0.050161 0.792454 0.432322
O O11 0.000000 0.000000 0.425891
O O12 0.087299 0.587753 0.655877
O O13 0.100918 0.420162 0.587180
O O14 0.250000 0.745865 0.180880
O O15 0.250000 0.087392 0.854214
O O16 0.013737 0.096032 0.909142
O O17 0.000000 0.000000 0.822763
O O18 0.750000 0.134260 0.944111
O O19 0.527553 0.149013 0.005576
O O20 0.750000 0.692067 0.521998
#
# Coordination Sequence:
#
# PCOD8192999 Si02
#       8
#     8   8   8   4   8   8   8   8
#     4   9  20  38  57  84 118 152 195 240 290 354
#     4  10  22  40  61  86 118 154 200 253 304 363
#     4   9  19  35  55  81 114 148 188 236 285 344
#     4  10  22  38  62  92 126 158 204 256 306 362
#     4  10  21  39  63  88 120 162 202 249 307 364
#     4  11  22  38  60  85 116 153 194 242 295 353
#     4  10  22  39  58  83 116 154 197 241 294 354
#     4  10  22  39  59  87 120 155 199 249 301 361
#
# _framework density 20.540952999999998
#
# number of rings (size 3 to 8) (size 9 to 14) (size 15 to 20)
#    0.000    2.133    0.000    3.200    1.867    8.000 
#    0.000    2.667    0.000    0.000    0.000    0.000 
#    0.000    0.000    0.000    0.000    0.000    0.000 
#
# Total GULP energy -371693.421549 kJ/mol
# GULP energy per Si atom -12389.780718 kJ/mol
# Density = 2.049420 g / cm^3
# Si number density = 20.540953 Si / 1000 Ang^3
#
#
#
# Elastic Constant Matrix: (Units=GPa)
#
#
# Indices 1 2 3 4 5 6 
#
# 1 100.3747 48.5330 28.6913 0.0000 0.0000 0.0000
# 2 48.5330 111.2054 17.6609 0.0000 0.0000 0.0000
# 3 28.6913 17.6609 93.4623 0.0000 0.0000 0.0000
# 4 0.0000 0.0000 0.0000 1.9310 0.0000 0.0000
# 5 0.0000 0.0000 0.0000 0.0000 26.4304 0.0000
# 6 0.0000 0.0000 0.0000 0.0000 0.0000 32.1871
#
#
#
# Elastic Compliance Matrix: (Units=1/GPa)
#
#
# Indices 1 2 3 4 5 6 
#
# 1 0.013452 -0.005376 -0.003114 0.000000 0.000000 0.000000
# 2 -0.005376 0.011419 -0.000507 0.000000 0.000000 0.000000
# 3 -0.003114 -0.000507 0.011751 0.000000 0.000000 0.000000
# 4 0.000000 0.000000 0.000000 0.517868 0.000000 0.000000
# 5 0.000000 0.000000 0.000000 0.000000 0.037835 0.000000
# 6 0.000000 0.000000 0.000000 0.000000 0.000000 0.031068
#
#
# Mechanical properties :
#
#
# Convention : Reuss Voigt Hill
#
# Bulk Modulus (GPa) = 53.68286 54.97921 54.33103
# Shear Modulus (GPa) = 7.72083 26.12018 16.92050
#
# Velocity S-wave (km/s) = 1.94085 3.56984 2.87321
# Velocity P-wave (km/s) = 5.58693 6.61932 6.12492
#
# Compressibility (1/GPa) = 0.01862792
#
# Stress axis : x y z
#
# Youngs Moduli (GPa) = 74.33673 87.57042 85.09757
#
# Poissons Ratio (x) = 0.47082 0.26497
# Poissons Ratio (y) = 0.39967 0.04318
# Poissons Ratio (z) = 0.23146 0.04443
#
# Static dielectric constant tensor:
#      x y z
#    x 3.750940 0.000000 0.000000 
#    y 0.000000 3.695970 0.000000 
#    z 0.000000 0.000000 3.677720 
# 
# 
# High freq. dielectric constant tensor:
#      x y z
#    x 1.807670 0.000000 0.000000 
#    y 0.000000 1.804920 0.000000 
#    z 0.000000 0.000000 1.794030 
# 
# From -- ./inp_files/24275.got.cif
#   From: 2010.03.12/outbox.cif.g09.slc.cpg/sg46_13_cif.got.tgz:24275.got - 2010.04.14 02:56:35.
