data_PCOD8192722
_publ_section_title
;
Structure prediction by ZEFSAII (Michael W. Deem and Ramdas Pophale) SiO2 
 PCOD8192722
Probable space group: I M A 2
;
_chemical_formula_sum "Si O2"
_cell_formula_units_Z 60
_cell_length_a 14.792990
_cell_length_b 12.270365
_cell_length_c 16.446827
_cell_angle_alpha 90.000000
_cell_angle_beta 90.000000
_cell_angle_gamma 90.000000
_cell_volume 2985.352164
_symmetry_space_group_name_H-M "I M A 2"
_symmetry_group_IT_number 46
_symmetry_cell_setting 'orthorhombic'
loop_
_space_group_symop_operation_xyz
x,y,z
-x,-y,z
1/2-x,y,z
1/2+x,-y,z
1/2+x,1/2+y,1/2+z
1/2-x,1/2-y,1/2+z
-x,1/2+y,1/2+z
x,1/2-y,1/2+z
loop_
_atom_site_type_symbol
_atom_site_label
_atom_site_fract_x
_atom_site_fract_y
_atom_site_fract_z
Si Si1 0.926543 0.588892 0.100220
Si Si2 0.349486 0.150982 0.439171
Si Si3 0.351292 0.399906 0.458694
Si Si4 0.448338 0.737699 0.663922
Si Si5 0.445790 0.100377 0.277311
Si Si6 0.149121 0.561934 0.221536
Si Si7 0.000000 0.500000 0.345090
Si Si8 0.854378 0.019316 0.126988
O O1 0.850491 0.548582 0.165186
O O2 0.000000 0.500000 0.121251
O O3 0.965679 0.709658 0.116899
O O4 0.899371 0.577162 0.006132
O O5 0.250000 0.102099 0.433803
O O6 0.350097 0.271968 0.474449
O O7 0.386154 0.149657 0.348335
O O8 0.250000 0.434631 0.426065
O O9 0.434142 0.423976 0.398199
O O10 0.370975 0.456913 0.543725
O O11 0.485729 0.695925 0.750778
O O12 0.368475 0.826604 0.671213
O O13 0.409537 0.632009 0.617419
O O14 0.500000 0.000000 0.316440
O O15 0.389248 0.056681 0.200133
O O16 0.250000 0.568479 0.259659
O O17 0.070481 0.566669 0.289649
O O18 0.750000 0.045843 0.143303
#
# Coordination Sequence:
#
# PCOD8192722 Si02
#       8
#     8   8   8   8   8   8   4   8
#     4  10  21  38  59  87 115 156 201 244 305 365
#     4  11  22  37  56  85 119 153 197 251 301 352
#     4  10  24  39  59  91 122 156 199 248 304 365
#     4  10  20  38  61  88 115 161 201 244 306 362
#     4  10  21  36  61  88 116 159 204 248 302 357
#     4  11  22  40  63  90 121 158 204 252 302 366
#     4  12  22  40  60  86 120 160 190 250 304 356
#     4  10  21  39  61  90 122 158 204 251 303 364
#
# _framework density 20.098133000000001
#
# number of rings (size 3 to 8) (size 9 to 14) (size 15 to 20)
#    0.000    1.600    2.000    3.600    4.667    0.000 
#    0.000    1.333    0.000    0.000    0.000    0.000 
#    0.000    0.000    0.000    0.000    0.000    0.000 
#
# Total GULP energy -371748.836432 kJ/mol
# GULP energy per Si atom -12391.627881 kJ/mol
# Density = 2.005239 g / cm^3
# Si number density = 20.098133 Si / 1000 Ang^3
#
#
#
# Elastic Constant Matrix: (Units=GPa)
#
#
# Indices 1 2 3 4 5 6 
#
# 1 122.2658 35.0763 47.2715 0.0000 0.0000 0.0000
# 2 35.0763 89.8782 37.7275 0.0000 0.0000 0.0000
# 3 47.2715 37.7275 101.9298 0.0000 0.0000 0.0000
# 4 0.0000 0.0000 0.0000 20.0265 0.0000 0.0000
# 5 0.0000 0.0000 0.0000 0.0000 28.2220 0.0000
# 6 0.0000 0.0000 0.0000 0.0000 0.0000 24.0359
#
#
#
# Elastic Compliance Matrix: (Units=1/GPa)
#
#
# Indices 1 2 3 4 5 6 
#
# 1 0.010387 -0.002405 -0.003927 0.000000 0.000000 0.000000
# 2 -0.002405 0.013730 -0.003966 0.000000 0.000000 0.000000
# 3 -0.003927 -0.003966 0.013100 0.000000 0.000000 0.000000
# 4 0.000000 0.000000 0.000000 0.049934 0.000000 0.000000
# 5 0.000000 0.000000 0.000000 0.000000 0.035433 0.000000
# 6 0.000000 0.000000 0.000000 0.000000 0.000000 0.041605
#
#
# Mechanical properties :
#
#
# Convention : Reuss Voigt Hill
#
# Bulk Modulus (GPa) = 60.16955 61.58048 60.87502
# Shear Modulus (GPa) = 26.27073 27.39010 26.83042
#
# Velocity S-wave (km/s) = 3.61934 3.69564 3.65769
# Velocity P-wave (km/s) = 6.88978 6.99405 6.94211
#
# Compressibility (1/GPa) = 0.01661970
#
# Stress axis : x y z
#
# Youngs Moduli (GPa) = 96.27195 72.83419 76.33642
#
# Poissons Ratio (x) = 0.17520 0.29977
# Poissons Ratio (y) = 0.23157 0.30277
# Poissons Ratio (z) = 0.37805 0.28888
#
# Static dielectric constant tensor:
#      x y z
#    x 3.939380 0.000000 0.000000 
#    y 0.000000 3.668280 0.000000 
#    z 0.000000 0.000000 3.453470 
# 
# 
# High freq. dielectric constant tensor:
#      x y z
#    x 1.795440 0.000000 0.000000 
#    y 0.000000 1.783680 0.000000 
#    z 0.000000 0.000000 1.776430 
# 
# From -- ./inp_files/19576.got.cif
#   From: 2010.03.12/outbox.cif.g09.slc.cpg/sg46_10_cif.got.tgz:19576.got - 2010.04.14 02:56:35.
