data_PCOD8192088
_publ_section_title
;
Structure prediction by ZEFSAII (Michael W. Deem and Ramdas Pophale) SiO2 
 PCOD8192088
Probable space group: I M A 2
;
_chemical_formula_sum "Si O2"
_cell_formula_units_Z 64
_cell_length_a 8.846261
_cell_length_b 18.326613
_cell_length_c 20.563793
_cell_angle_alpha 90.000000
_cell_angle_beta 90.000000
_cell_angle_gamma 90.000000
_cell_volume 3333.843287
_symmetry_space_group_name_H-M "I M A 2"
_symmetry_group_IT_number 46
_symmetry_cell_setting 'orthorhombic'
loop_
_space_group_symop_operation_xyz
x,y,z
-x,-y,z
1/2-x,y,z
1/2+x,-y,z
1/2+x,1/2+y,1/2+z
1/2-x,1/2-y,1/2+z
-x,1/2+y,1/2+z
x,1/2-y,1/2+z
loop_
_atom_site_type_symbol
_atom_site_label
_atom_site_fract_x
_atom_site_fract_y
_atom_site_fract_z
Si Si1 0.425003 0.198387 0.530750
Si Si2 0.071460 0.144066 0.891492
Si Si3 0.075386 0.309625 0.888457
Si Si4 0.928158 0.075020 0.768437
Si Si5 0.424713 0.853433 0.164518
Si Si6 0.073461 0.684793 0.156223
Si Si7 0.571186 0.923124 0.284952
Si Si8 0.076051 0.850929 0.020632
O O1 0.250000 0.222279 0.538026
O O2 0.447564 0.157316 0.461486
O O3 0.480256 0.152817 0.593777
O O4 0.535193 0.266899 0.529403
O O5 0.250000 0.138731 0.883995
O O6 0.009439 0.227262 0.883729
O O7 0.993236 0.093195 0.838967
O O8 0.025331 0.114097 0.963276
O O9 0.250000 0.303088 0.871241
O O10 0.001508 0.363782 0.835708
O O11 0.750000 0.066160 0.773467
O O12 0.975813 0.138302 0.718544
O O13 0.000000 0.000000 0.743119
O O14 0.250000 0.862371 0.184484
O O15 0.472205 0.768505 0.169965
O O16 0.528002 0.900377 0.212182
O O17 0.452684 0.886074 0.091918
O O18 0.250000 0.676655 0.141102
O O19 0.750000 0.929685 0.290953
O O20 0.500000 0.000000 0.303755
O O21 0.250000 0.858250 0.000187
#
# Coordination Sequence:
#
# PCOD8192088 Si02
#       8
#     8   8   8   8   8   8   8   8
#     4   9  16  29  52  80 107 134 171 218 264 309
#     4  10  19  34  57  83 107 133 173 219 263 314
#     4   8  17  33  53  78 105 134 169 211 257 308
#     4  11  23  38  54  75 107 144 179 217 263 315
#     4   9  18  34  55  79 105 133 169 212 257 308
#     4   9  19  35  55  80 108 137 173 216 263 315
#     4  11  22  36  52  72 103 139 175 214 257 305
#     4   9  17  31  52  79 110 138 168 211 262 314
#
# _framework density 19.197061999999999
#
# number of rings (size 3 to 8) (size 9 to 14) (size 15 to 20)
#    0.000    2.500    0.000    4.125    0.000    3.500 
#    0.000    8.125    0.000    6.000    0.000    0.000 
#    0.000    0.000    0.000    0.000    0.000    0.000 
#
# Total GULP energy -396648.940271 kJ/mol
# GULP energy per Si atom -12395.279383 kJ/mol
# Density = 1.915337 g / cm^3
# Si number density = 19.197062 Si / 1000 Ang^3
#
#
#
# Elastic Constant Matrix: (Units=GPa)
#
#
# Indices 1 2 3 4 5 6 
#
# 1 55.6753 14.6963 26.7513 0.0000 0.0000 0.0000
# 2 14.6963 41.8234 10.9476 0.0000 0.0000 0.0000
# 3 26.7513 10.9476 94.7953 0.0000 0.0000 0.0000
# 4 0.0000 0.0000 0.0000 6.6805 0.0000 0.0000
# 5 0.0000 0.0000 0.0000 0.0000 33.2807 0.0000
# 6 0.0000 0.0000 0.0000 0.0000 0.0000 24.3563
#
#
#
# Elastic Compliance Matrix: (Units=1/GPa)
#
#
# Indices 1 2 3 4 5 6 
#
# 1 0.022319 -0.006387 -0.005561 0.000000 0.000000 0.000000
# 2 -0.006387 0.026483 -0.001256 0.000000 0.000000 0.000000
# 3 -0.005561 -0.001256 0.012263 0.000000 0.000000 0.000000
# 4 0.000000 0.000000 0.000000 0.149689 0.000000 0.000000
# 5 0.000000 0.000000 0.000000 0.000000 0.030047 0.000000
# 6 0.000000 0.000000 0.000000 0.000000 0.000000 0.041057
#
#
# Mechanical properties :
#
#
# Convention : Reuss Voigt Hill
#
# Bulk Modulus (GPa) = 28.85355 33.00938 30.93146
# Shear Modulus (GPa) = 15.63379 22.19009 18.91194
#
# Velocity S-wave (km/s) = 2.85684 3.40356 3.14211
# Velocity P-wave (km/s) = 5.09361 5.71646 5.41400
#
# Compressibility (1/GPa) = 0.03465779
#
# Stress axis : x y z
#
# Youngs Moduli (GPa) = 44.80453 37.75976 81.54360
#
# Poissons Ratio (x) = 0.24118 0.45345
# Poissons Ratio (y) = 0.28617 0.10242
# Poissons Ratio (z) = 0.24915 0.04743
#
# Static dielectric constant tensor:
#      x y z
#    x 3.396860 0.000000 0.000000 
#    y 0.000000 3.287890 0.000000 
#    z 0.000000 0.000000 3.964170 
# 
# 
# High freq. dielectric constant tensor:
#      x y z
#    x 1.742040 0.000000 0.000000 
#    y 0.000000 1.705820 0.000000 
#    z 0.000000 0.000000 1.766250 
# 
# From -- ./inp_files/21315.got.cif
#   From: 2010.03.12/outbox.cif.g09.slc.cpg/sg46_11_cif.got.tgz:21315.got - 2010.04.14 02:56:35.
