data_PCOD8192712
_publ_section_title
;
Structure prediction by ZEFSAII (Michael W. Deem and Ramdas Pophale) SiO2 
 PCOD8192712
Probable space group: I M A 2
;
_chemical_formula_sum "Si O2"
_cell_formula_units_Z 48
_cell_length_a 26.315835
_cell_length_b 9.009277
_cell_length_c 9.488113
_cell_angle_alpha 90.000000
_cell_angle_beta 90.000000
_cell_angle_gamma 90.000000
_cell_volume 2249.504898
_symmetry_space_group_name_H-M "I M A 2"
_symmetry_group_IT_number 46
_symmetry_cell_setting 'orthorhombic'
loop_
_space_group_symop_operation_xyz
x,y,z
-x,-y,z
1/2-x,y,z
1/2+x,-y,z
1/2+x,1/2+y,1/2+z
1/2-x,1/2-y,1/2+z
-x,1/2+y,1/2+z
x,1/2-y,1/2+z
loop_
_atom_site_type_symbol
_atom_site_label
_atom_site_fract_x
_atom_site_fract_y
_atom_site_fract_z
Si Si1 0.667340 0.673732 0.376820
Si Si2 0.750000 0.438480 0.316419
Si Si3 0.337929 0.060521 0.187890
Si Si4 0.056246 0.133104 0.885270
Si Si5 0.553318 0.065250 0.127507
Si Si6 0.750000 0.159619 0.128124
Si Si7 0.503703 0.662309 0.099546
O O1 0.701612 0.546297 0.308458
O O2 0.680844 0.839153 0.320225
O O3 0.668653 0.661245 0.546909
O O4 0.611140 0.652740 0.316887
O O5 0.750000 0.328549 0.183141
O O6 0.750000 0.339708 0.458369
O O7 0.396028 0.997052 0.205042
O O8 0.300712 0.920469 0.183834
O O9 0.017186 0.143339 0.761384
O O10 0.045734 0.252170 0.009299
O O11 0.054328 0.974426 0.961736
O O12 0.549229 0.244779 0.115522
O O13 0.500000 0.000000 0.196022
O O14 0.500000 0.500000 0.028835
#
# Coordination Sequence:
#
# PCOD8192712 Si02
#       7
#     8   4   8   8   8   4   8
#     4  10  20  38  60  86 111 153 194 239 294 351
#     4  10  23  40  62  84 120 152 195 246 294 356
#     4  10  21  38  63  87 120 153 195 247 298 353
#     4  10  21  38  56  81 118 150 191 242 287 344
#     4   9  19  37  57  81 118 155 190 239 288 340
#     4  10  23  42  58  88 120 156 195 246 302 346
#     4  11  22  36  57  84 116 155 196 237 289 349
#
# _framework density 21.338028000000001
#
# number of rings (size 3 to 8) (size 9 to 14) (size 15 to 20)
#    0.000    2.000    0.000    5.000    0.000    6.000 
#    0.000    8.333    0.000    0.000    0.000    0.000 
#    0.000    0.000    0.000    0.000    0.000    0.000 
#
# Total GULP energy -297330.495355 kJ/mol
# GULP energy per Si atom -12388.770640 kJ/mol
# Density = 2.128946 g / cm^3
# Si number density = 21.338028 Si / 1000 Ang^3
#
#
#
# Elastic Constant Matrix: (Units=GPa)
#
#
# Indices 1 2 3 4 5 6 
#
# 1 111.7377 48.2845 29.9299 0.0000 0.0000 0.0000
# 2 48.2845 136.9466 33.0604 0.0000 0.0000 0.0000
# 3 29.9299 33.0604 60.5286 0.0000 0.0000 0.0000
# 4 0.0000 0.0000 0.0000 35.6916 0.0000 0.0000
# 5 0.0000 0.0000 0.0000 0.0000 -2.4651 0.0000
# 6 0.0000 0.0000 0.0000 0.0000 0.0000 28.8805
#
#
#
# Elastic Compliance Matrix: (Units=1/GPa)
#
#
# Indices 1 2 3 4 5 6 
#
# 1 0.011317 -0.003040 -0.003936 0.000000 0.000000 0.000000
# 2 -0.003040 0.009228 -0.003537 0.000000 0.000000 0.000000
# 3 -0.003936 -0.003537 0.020399 0.000000 0.000000 0.000000
# 4 0.000000 0.000000 0.000000 0.028018 0.000000 0.000000
# 5 0.000000 0.000000 0.000000 0.000000 -0.405664 0.000000
# 6 0.000000 0.000000 0.000000 0.000000 0.000000 0.034625
#
#
# Mechanical properties :
#
#
# Convention : Reuss Voigt Hill
#
# Bulk Modulus (GPa) = 50.20376 59.08474 54.64425
# Shear Modulus (GPa) = -18.22085 25.61728 3.69821
#
# Velocity S-wave (km/s) = -2.92535 3.46865 1.31792
# Velocity P-wave (km/s) = 3.48836 6.61755 5.28964
#
# Compressibility (1/GPa) = 0.01991883
#
# Stress axis : x y z
#
# Youngs Moduli (GPa) = 88.35896 108.36740 49.02190
#
# Poissons Ratio (x) = 0.32946 0.19293
# Poissons Ratio (y) = 0.26863 0.17339
# Poissons Ratio (z) = 0.34775 0.38329
#
# Static dielectric constant tensor:
#      x y z
#    x 7.472830 0.000000 0.000000 
#    y 0.000000 4.317490 0.000000 
#    z 0.000000 0.000000 3.628800 
# 
# 
# High freq. dielectric constant tensor:
#      x y z
#    x 1.836060 0.000000 0.000000 
#    y 0.000000 1.835720 0.000000 
#    z 0.000000 0.000000 1.823960 
# 
# From -- ./inp_files/8423.got.cif
#   From: 2010.03.12/outbox.cif.g09.slc.cpg/sg46_5_cif.got.tgz:8423.got - 2010.04.14 02:56:35.
