data_PCOD8192290
_publ_section_title
;
Structure prediction by ZEFSAII (Michael W. Deem and Ramdas Pophale) SiO2 
 PCOD8192290
Probable space group: I M A 2
;
_chemical_formula_sum "Si O2"
_cell_formula_units_Z 64
_cell_length_a 8.947779
_cell_length_b 27.787125
_cell_length_c 14.471518
_cell_angle_alpha 90.000000
_cell_angle_beta 90.000000
_cell_angle_gamma 90.000000
_cell_volume 3598.097710
_symmetry_space_group_name_H-M "I M A 2"
_symmetry_group_IT_number 46
_symmetry_cell_setting 'orthorhombic'
loop_
_space_group_symop_operation_xyz
x,y,z
-x,-y,z
1/2-x,y,z
1/2+x,-y,z
1/2+x,1/2+y,1/2+z
1/2-x,1/2-y,1/2+z
-x,1/2+y,1/2+z
x,1/2-y,1/2+z
loop_
_atom_site_type_symbol
_atom_site_label
_atom_site_fract_x
_atom_site_fract_y
_atom_site_fract_z
Si Si1 0.427518 0.139529 0.632770
Si Si2 0.921381 0.859608 0.194989
Si Si3 0.076053 0.721513 0.015468
Si Si4 0.073552 0.049045 0.302068
Si Si5 0.423889 0.177247 0.999885
Si Si6 0.079885 0.778916 0.305369
Si Si7 0.927102 0.168302 0.813788
Si Si8 0.925297 0.951198 0.513294
O O1 0.250000 0.142283 0.642339
O O2 0.485234 0.186839 0.581899
O O3 0.502991 0.135659 0.733331
O O4 0.480586 0.092922 0.575904
O O5 0.750000 0.859209 0.223717
O O6 0.993108 0.907552 0.239766
O O7 0.985653 0.810864 0.236607
O O8 0.943276 0.860060 0.084560
O O9 0.250000 0.722151 0.044369
O O10 0.055866 0.703676 0.910445
O O11 0.010927 0.774561 0.027164
O O12 0.250000 0.043733 0.291280
O O13 0.026326 0.059331 0.407880
O O14 0.000000 0.000000 0.265885
O O15 0.250000 0.188978 0.981361
O O16 0.497932 0.152435 0.910409
O O17 0.250000 0.784350 0.275082
O O18 0.029369 0.723695 0.294615
O O19 0.750000 0.160846 0.820469
O O20 0.750000 0.958132 0.521219
O O21 0.000000 0.000000 0.550358
#
# Coordination Sequence:
#
# PCOD8192290 Si02
#       8
#     8   8   8   8   8   8   8   8
#     4  11  21  33  52  77 101 132 172 211 252 304
#     4  10  20  32  50  74 100 129 164 205 248 292
#     4  10  20  33  48  72 106 140 171 208 250 296
#     4   9  18  34  52  74 102 129 157 195 243 296
#     4  10  20  34  51  72  99 135 174 213 253 296
#     4   9  19  32  47  70 101 134 168 202 242 291
#     4  10  21  36  51  71 101 136 171 212 254 296
#     4   9  19  34  53  76 103 131 161 200 250 305
#
# _framework density 17.787175999999999
#
# number of rings (size 3 to 8) (size 9 to 14) (size 15 to 20)
#    0.000    2.250    0.000    3.750    0.000    8.500 
#    0.000    2.500    0.000    0.750    0.000    1.750 
#    0.000    0.000    0.000    0.000    0.000    0.000 
#
# Total GULP energy -396854.424210 kJ/mol
# GULP energy per Si atom -12401.700757 kJ/mol
# Density = 1.774669 g / cm^3
# Si number density = 17.787176 Si / 1000 Ang^3
#
#
#
# Elastic Constant Matrix: (Units=GPa)
#
#
# Indices 1 2 3 4 5 6 
#
# 1 56.8975 27.0801 38.2604 -0.0002 0.0000 0.0000
# 2 27.0801 71.9363 54.4405 -0.0002 -0.0001 0.0000
# 3 38.2604 54.4405 108.2114 -0.0011 -0.0002 0.0000
# 4 -0.0002 -0.0002 -0.0011 28.5842 -0.0002 0.0000
# 5 0.0000 -0.0001 -0.0002 -0.0002 26.6068 -0.0002
# 6 0.0000 0.0000 0.0000 0.0000 -0.0002 26.9265
#
#
#
# Elastic Compliance Matrix: (Units=1/GPa)
#
#
# Indices 1 2 3 4 5 6 
#
# 1 0.023814 -0.004186 -0.006314 0.000000 0.000000 0.000000
# 2 -0.004186 0.023184 -0.010183 0.000000 0.000000 0.000000
# 3 -0.006314 -0.010183 0.016597 0.000001 0.000000 0.000000
# 4 0.000000 0.000000 0.000001 0.034984 0.000000 0.000000
# 5 0.000000 0.000000 0.000000 0.000000 0.037584 0.000000
# 6 0.000000 0.000000 0.000000 0.000000 0.000000 0.037138
#
#
# Mechanical properties :
#
#
# Convention : Reuss Voigt Hill
#
# Bulk Modulus (GPa) = 44.99010 52.95633 48.97322
# Shear Modulus (GPa) = 22.51472 24.24112 23.37792
#
# Velocity S-wave (km/s) = 3.56165 3.69567 3.62928
# Velocity P-wave (km/s) = 6.50094 6.93163 6.71974
#
# Compressibility (1/GPa) = 0.02222711
#
# Stress axis : x y z
#
# Youngs Moduli (GPa) = 41.99295 43.13347 60.25298
#
# Poissons Ratio (x) = 0.18058 0.38041
# Poissons Ratio (y) = 0.17580 0.61358
# Poissons Ratio (z) = 0.26513 0.43925
#
# Static dielectric constant tensor:
#      x y z
#    x 3.307090 0.000000 0.000000 
#    y 0.000000 3.188260 0.000000 
#    z 0.000000 0.000000 3.499420 
# 
# 
# High freq. dielectric constant tensor:
#      x y z
#    x 1.693390 0.000000 0.000000 
#    y 0.000000 1.663270 0.000000 
#    z 0.000000 0.000000 1.692510 
# 
# From -- ./inp_files/14558.got.cif
#   From: 2010.03.12/outbox.cif.g09.slc.cpg/sg46_8_cif.got.tgz:14558.got - 2010.04.14 02:56:35.
