data_PCOD8192025
_publ_section_title
;
Structure prediction by ZEFSAII (Michael W. Deem and Ramdas Pophale) SiO2 
 PCOD8192025
Probable space group: I M A 2
;
_chemical_formula_sum "Si O2"
_cell_formula_units_Z 48
_cell_length_a 15.111649
_cell_length_b 16.134809
_cell_length_c 9.504429
_cell_angle_alpha 90.000000
_cell_angle_beta 90.000000
_cell_angle_gamma 90.000000
_cell_volume 2317.403812
_symmetry_space_group_name_H-M "I M A 2"
_symmetry_group_IT_number 46
_symmetry_cell_setting 'orthorhombic'
loop_
_space_group_symop_operation_xyz
x,y,z
-x,-y,z
1/2-x,y,z
1/2+x,-y,z
1/2+x,1/2+y,1/2+z
1/2-x,1/2-y,1/2+z
-x,1/2+y,1/2+z
x,1/2-y,1/2+z
loop_
_atom_site_type_symbol
_atom_site_label
_atom_site_fract_x
_atom_site_fract_y
_atom_site_fract_z
Si Si1 0.347272 0.652675 0.653970
Si Si2 0.353357 0.395406 0.521941
Si Si3 0.976012 0.587694 0.786078
Si Si4 0.561562 0.304982 0.229537
Si Si5 0.849362 0.055685 0.864326
Si Si6 0.547876 0.766175 0.468818
O O1 0.250000 0.628648 0.714723
O O2 0.428120 0.623231 0.749157
O O3 0.356720 0.752939 0.662036
O O4 0.355943 0.615006 0.499690
O O5 0.250000 0.404280 0.561100
O O6 0.413084 0.423730 0.652257
O O7 0.379223 0.461418 0.399498
O O8 0.372989 0.301392 0.473638
O O9 0.923593 0.648537 0.892184
O O10 0.000000 0.500000 0.857229
O O11 0.589893 0.401710 0.243771
O O12 0.533906 0.274422 0.385512
O O13 0.477585 0.291141 0.127541
O O14 0.750000 0.053333 0.806397
#
# Coordination Sequence:
#
# PCOD8192025 Si02
#       6
#     8   8   8   8   8   8
#     4  10  19  33  59  93 126 161 205 264 326 392
#     4  11  23  42  68  96 130 177 229 271 323 401
#     4  11  22  41  66  91 129 168 222 274 324 396
#     4  11  20  39  60  94 131 169 213 270 334 397
#     4  10  20  35  62  95 127 171 221 270 327 396
#     4  11  23  41  63  94 129 171 220 264 338 385
#
# _framework density 20.712833
#
# number of rings (size 3 to 8) (size 9 to 14) (size 15 to 20)
#    0.000    1.333    6.667    0.500    0.000    0.667 
#    3.000    0.833    0.000    0.000    0.000    0.000 
#    0.000    0.000    0.000    0.000    0.000    0.000 
#
# Total GULP energy -297328.262993 kJ/mol
# GULP energy per Si atom -12388.677625 kJ/mol
# Density = 2.066569 g / cm^3
# Si number density = 20.712833 Si / 1000 Ang^3
#
#
#
# Elastic Constant Matrix: (Units=GPa)
#
#
# Indices 1 2 3 4 5 6 
#
# 1 90.0609 43.9055 22.4714 0.0000 0.0000 0.0000
# 2 43.9055 166.4334 37.6615 0.0000 0.0000 0.0000
# 3 22.4714 37.6615 51.2687 0.0000 0.0000 0.0000
# 4 0.0000 0.0000 0.0000 40.7378 0.0000 0.0000
# 5 0.0000 0.0000 0.0000 0.0000 16.9748 0.0000
# 6 0.0000 0.0000 0.0000 0.0000 0.0000 24.6177
#
#
#
# Elastic Compliance Matrix: (Units=1/GPa)
#
#
# Indices 1 2 3 4 5 6 
#
# 1 0.013369 -0.002639 -0.003921 0.000000 0.000000 0.000000
# 2 -0.002639 0.007727 -0.004520 0.000000 0.000000 0.000000
# 3 -0.003921 -0.004520 0.024544 0.000000 0.000000 0.000000
# 4 0.000000 0.000000 0.000000 0.024547 0.000000 0.000000
# 5 0.000000 0.000000 0.000000 0.000000 0.058911 0.000000
# 6 0.000000 0.000000 0.000000 0.000000 0.000000 0.040621
#
#
# Mechanical properties :
#
#
# Convention : Reuss Voigt Hill
#
# Bulk Modulus (GPa) = 42.58904 57.31552 49.95228
# Shear Modulus (GPa) = 25.03693 30.04769 27.54231
#
# Velocity S-wave (km/s) = 3.48050 3.81291 3.65049
# Velocity P-wave (km/s) = 6.06285 6.86411 6.47588
#
# Compressibility (1/GPa) = 0.02348022
#
# Stress axis : x y z
#
# Youngs Moduli (GPa) = 74.80202 129.40912 40.74396
#
# Poissons Ratio (x) = 0.34158 0.15974
# Poissons Ratio (y) = 0.19744 0.18415
# Poissons Ratio (z) = 0.29327 0.58487
#
# Static dielectric constant tensor:
#      x y z
#    x 3.638690 0.000000 0.000000 
#    y 0.000000 4.291560 0.000000 
#    z 0.000000 0.000000 3.498330 
# 
# 
# High freq. dielectric constant tensor:
#      x y z
#    x 1.796480 0.000000 0.000000 
#    y 0.000000 1.824850 0.000000 
#    z 0.000000 0.000000 1.775670 
# 
# From -- ./inp_files/5685.got.cif
#   From: 2010.03.12/outbox.cif.g09.slc.cpg/sg46_3_cif.got.tgz:5685.got - 2010.04.14 02:56:35.
