data_PCOD8192643
_publ_section_title
;
Structure prediction by ZEFSAII (Michael W. Deem and Ramdas Pophale) SiO2 
 PCOD8192643
Probable space group: I M A 2
;
_chemical_formula_sum "Si O2"
_cell_formula_units_Z 48
_cell_length_a 8.698237
_cell_length_b 30.607802
_cell_length_c 9.146861
_cell_angle_alpha 90.000000
_cell_angle_beta 90.000000
_cell_angle_gamma 90.000000
_cell_volume 2435.204622
_symmetry_space_group_name_H-M "I M A 2"
_symmetry_group_IT_number 46
_symmetry_cell_setting 'orthorhombic'
loop_
_space_group_symop_operation_xyz
x,y,z
-x,-y,z
1/2-x,y,z
1/2+x,-y,z
1/2+x,1/2+y,1/2+z
1/2-x,1/2-y,1/2+z
-x,1/2+y,1/2+z
x,1/2-y,1/2+z
loop_
_atom_site_type_symbol
_atom_site_label
_atom_site_fract_x
_atom_site_fract_y
_atom_site_fract_z
Si Si1 0.431824 0.546524 0.582340
Si Si2 0.569034 0.624023 0.755289
Si Si3 0.569124 0.291012 0.259326
Si Si4 0.569703 0.545847 0.272678
Si Si5 0.071653 0.370397 0.089979
Si Si6 0.433262 0.794158 0.091480
O O1 0.500000 0.500000 0.628739
O O2 0.250000 0.543330 0.574357
O O3 0.481516 0.580991 0.703605
O O4 0.494764 0.561309 0.424565
O O5 0.750000 0.616533 0.738938
O O6 0.516585 0.664593 0.659739
O O7 0.520568 0.632331 0.922218
O O8 0.750000 0.288475 0.257966
O O9 0.521083 0.335097 0.180719
O O10 0.504989 0.248760 0.174580
O O11 0.509034 0.290334 0.425040
O O12 0.500000 0.500000 0.218563
O O13 0.750000 0.539934 0.298685
O O14 0.531909 0.581536 0.149853
O O15 0.250000 0.359774 0.109726
O O16 0.250000 0.800050 0.103404
#
# Coordination Sequence:
#
# PCOD8192643 Si02
#       6
#     8   8   8   8   8   8
#     4  11  22  38  60  86 114 148 188 232 280 335
#     4  11  23  39  57  82 115 152 190 232 279 333
#     4  10  21  37  60  85 113 146 187 233 281 336
#     4  10  20  37  59  84 113 147 187 234 282 336
#     4  10  23  39  56  81 115 150 189 232 281 335
#     4  10  21  38  59  86 114 147 188 233 282 335
#
# _framework density 19.710871000000001
#
# number of rings (size 3 to 8) (size 9 to 14) (size 15 to 20)
#    0.000    1.667    0.000    5.500    0.000    8.667 
#    0.000    1.667    0.000    0.000    0.000    0.000 
#    0.000    0.000    0.000    0.000    0.000    0.000 
#
# Total GULP energy -297717.276156 kJ/mol
# GULP energy per Si atom -12404.886507 kJ/mol
# Density = 1.966601 g / cm^3
# Si number density = 19.710871 Si / 1000 Ang^3
#
#
#
# Elastic Constant Matrix: (Units=GPa)
#
#
# Indices 1 2 3 4 5 6 
#
# 1 76.5100 39.5452 41.1085 0.0036 -0.0020 -0.0009
# 2 39.5452 124.9156 81.2286 -0.0013 0.0024 0.0000
# 3 41.1085 81.2286 155.9557 0.0123 -0.0037 -0.0011
# 4 0.0036 -0.0013 0.0123 40.0310 -0.0012 -0.0008
# 5 -0.0020 0.0024 -0.0037 -0.0012 36.3234 0.0023
# 6 -0.0009 0.0000 -0.0011 -0.0008 0.0023 36.7971
#
#
#
# Elastic Compliance Matrix: (Units=1/GPa)
#
#
# Indices 1 2 3 4 5 6 
#
# 1 0.016209 -0.003558 -0.002419 -0.000001 0.000001 0.000000
# 2 -0.003558 0.012886 -0.005774 0.000003 -0.000002 0.000000
# 3 -0.002419 -0.005774 0.010057 -0.000003 0.000001 0.000000
# 4 -0.000001 0.000003 -0.000003 0.024981 0.000001 0.000001
# 5 0.000001 -0.000002 0.000001 0.000001 0.027530 -0.000002
# 6 0.000000 0.000000 0.000000 0.000001 -0.000002 0.027176
#
#
# Mechanical properties :
#
#
# Convention : Reuss Voigt Hill
#
# Bulk Modulus (GPa) = 63.89849 75.68287 69.79068
# Shear Modulus (GPa) = 33.88466 35.66356 34.77411
#
# Velocity S-wave (km/s) = 4.15068 4.25824 4.20481
# Velocity P-wave (km/s) = 7.44709 7.91560 7.68492
#
# Compressibility (1/GPa) = 0.01564982
#
# Stress axis : x y z
#
# Youngs Moduli (GPa) = 61.69343 77.60096 99.43229
#
# Poissons Ratio (x) = 0.27612 0.24056
# Poissons Ratio (y) = 0.21952 0.57411
# Poissons Ratio (z) = 0.14926 0.44806
#
# Static dielectric constant tensor:
#      x y z
#    x 3.542470 0.000000 -0.000010 
#    y 0.000000 3.733390 -0.000010 
#    z -0.000010 -0.000010 3.819980 
# 
# 
# High freq. dielectric constant tensor:
#      x y z
#    x 1.768240 0.000000 0.000000 
#    y 0.000000 1.783250 0.000000 
#    z 0.000000 0.000000 1.776780 
# 
# From -- ./inp_files/3937.got.cif
#   From: 2010.03.12/outbox.cif.g09.slc.cpg/sg46_2_cif.got.tgz:3937.got - 2010.04.14 02:56:35.
