data_PCOD8192880
_publ_section_title
;
Structure prediction by ZEFSAII (Michael W. Deem and Ramdas Pophale) SiO2 
 PCOD8192880
Probable space group: I M A 2
;
_chemical_formula_sum "Si O2"
_cell_formula_units_Z 64
_cell_length_a 8.889205
_cell_length_b 24.329285
_cell_length_c 14.829297
_cell_angle_alpha 90.000000
_cell_angle_beta 90.000000
_cell_angle_gamma 90.000000
_cell_volume 3207.102431
_symmetry_space_group_name_H-M "I M A 2"
_symmetry_group_IT_number 46
_symmetry_cell_setting 'orthorhombic'
loop_
_space_group_symop_operation_xyz
x,y,z
-x,-y,z
1/2-x,y,z
1/2+x,-y,z
1/2+x,1/2+y,1/2+z
1/2-x,1/2-y,1/2+z
-x,1/2+y,1/2+z
x,1/2-y,1/2+z
loop_
_atom_site_type_symbol
_atom_site_label
_atom_site_fract_x
_atom_site_fract_y
_atom_site_fract_z
Si Si1 0.922404 0.886150 0.267810
Si Si2 0.570590 0.557426 0.415818
Si Si3 0.923320 0.237733 0.076794
Si Si4 0.427805 0.346814 0.075701
Si Si5 0.576366 0.851979 0.780411
Si Si6 0.420218 0.234355 0.259892
Si Si7 0.071768 0.057351 0.447292
Si Si8 0.072901 0.615545 0.576815
O O1 0.750000 0.897954 0.240831
O O2 0.935639 0.824053 0.310473
O O3 0.978240 0.927186 0.345641
O O4 0.023586 0.893963 0.179945
O O5 0.500000 0.500000 0.384834
O O6 0.750000 0.553823 0.415658
O O7 0.502838 0.603256 0.346835
O O8 0.514888 0.571974 0.515918
O O9 0.750000 0.249800 0.059231
O O10 0.968183 0.176985 0.040388
O O11 0.015336 0.288561 0.033947
O O12 0.955710 0.235157 0.182708
O O13 0.250000 0.345197 0.071935
O O14 0.488294 0.355062 0.178212
O O15 0.490896 0.396784 0.015994
O O16 0.750000 0.867449 0.776387
O O17 0.551171 0.789506 0.819802
O O18 0.250000 0.239546 0.218486
O O19 0.250000 0.053108 0.454077
O O20 0.000000 0.000000 0.475731
O O21 0.250000 0.604637 0.571048
#
# Coordination Sequence:
#
# PCOD8192880 Si02
#       8
#     8   8   8   8   8   8   8   8
#     4   9  18  34  56  81 107 138 176 217 264 315
#     4  11  23  38  55  76 104 140 184 227 265 310
#     4   9  17  30  51  81 111 136 169 214 265 318
#     4   9  18  35  57  80 108 142 178 215 259 315
#     4   8  16  32  55  80 104 133 170 214 263 313
#     4   8  14  29  53  78 105 135 171 214 260 318
#     4  10  22  37  54  78 107 141 183 225 262 309
#     4  10  21  37  56  80 110 141 174 216 267 320
#
# _framework density 19.955708000000001
#
# number of rings (size 3 to 8) (size 9 to 14) (size 15 to 20)
#    0.000    2.750    0.000    1.875    0.000    4.500 
#    0.000    8.750    0.000    6.000    0.000    0.000 
#    0.000    0.000    0.000    0.000    0.000    0.000 
#
# Total GULP energy -396519.878020 kJ/mol
# GULP energy per Si atom -12391.246188 kJ/mol
# Density = 1.991029 g / cm^3
# Si number density = 19.955708 Si / 1000 Ang^3
#
#
#
# Elastic Constant Matrix: (Units=GPa)
#
#
# Indices 1 2 3 4 5 6 
#
# 1 41.7247 21.3805 14.5527 0.0001 0.0001 0.0000
# 2 21.3805 90.5850 13.8930 0.0002 0.0000 0.0000
# 3 14.5527 13.8930 41.0146 0.0009 0.0000 0.0000
# 4 0.0001 0.0002 0.0009 36.0114 0.0000 0.0000
# 5 0.0001 0.0000 0.0000 0.0000 14.7541 0.0001
# 6 0.0000 0.0000 0.0000 0.0000 0.0001 33.0299
#
#
#
# Elastic Compliance Matrix: (Units=1/GPa)
#
#
# Indices 1 2 3 4 5 6 
#
# 1 0.029931 -0.005734 -0.008678 0.000000 0.000000 0.000000
# 2 -0.005734 0.012743 -0.002282 0.000000 0.000000 0.000000
# 3 -0.008678 -0.002282 0.028234 -0.000001 0.000000 0.000000
# 4 0.000000 0.000000 -0.000001 0.027769 0.000000 0.000000
# 5 0.000000 0.000000 0.000000 0.000000 0.067778 0.000000
# 6 0.000000 0.000000 0.000000 0.000000 0.000000 0.030276
#
#
# Mechanical properties :
#
#
# Convention : Reuss Voigt Hill
#
# Bulk Modulus (GPa) = 26.65216 30.33074 28.49145
# Shear Modulus (GPa) = 20.60803 24.99230 22.80017
#
# Velocity S-wave (km/s) = 3.21703 3.54275 3.38381
# Velocity P-wave (km/s) = 5.21380 5.65392 5.43831
#
# Compressibility (1/GPa) = 0.03752042
#
# Stress axis : x y z
#
# Youngs Moduli (GPa) = 33.40984 78.47677 35.41879
#
# Poissons Ratio (x) = 0.44996 0.30736
# Poissons Ratio (y) = 0.19156 0.08082
# Poissons Ratio (z) = 0.28993 0.17908
#
# Static dielectric constant tensor:
#      x y z
#    x 3.335500 0.000000 0.000000 
#    y 0.000000 3.984500 0.000000 
#    z 0.000000 0.000000 3.441720 
# 
# 
# High freq. dielectric constant tensor:
#      x y z
#    x 1.756090 0.000000 0.000000 
#    y 0.000000 1.792770 0.000000 
#    z 0.000000 0.000000 1.752620 
# 
# From -- ./inp_files/14540.got.cif
#   From: 2010.03.12/outbox.cif.g09.slc.cpg/sg46_8_cif.got.tgz:14540.got - 2010.04.14 02:56:35.
