data_PCOD8192942
_publ_section_title
;
Structure prediction by ZEFSAII (Michael W. Deem and Ramdas Pophale) SiO2 
 PCOD8192942
Probable space group: I M A 2
;
_chemical_formula_sum "Si O2"
_cell_formula_units_Z 64
_cell_length_a 16.934411
_cell_length_b 9.190135
_cell_length_c 20.124007
_cell_angle_alpha 90.000000
_cell_angle_beta 90.000000
_cell_angle_gamma 90.000000
_cell_volume 3131.889615
_symmetry_space_group_name_H-M "I M A 2"
_symmetry_group_IT_number 46
_symmetry_cell_setting 'orthorhombic'
loop_
_space_group_symop_operation_xyz
x,y,z
-x,-y,z
1/2-x,y,z
1/2+x,-y,z
1/2+x,1/2+y,1/2+z
1/2-x,1/2-y,1/2+z
-x,1/2+y,1/2+z
x,1/2-y,1/2+z
loop_
_atom_site_type_symbol
_atom_site_label
_atom_site_fract_x
_atom_site_fract_y
_atom_site_fract_z
Si Si1 0.076463 0.583822 0.979240
Si Si2 0.659763 0.566117 0.088658
Si Si3 0.340605 0.397013 0.577901
Si Si4 0.840100 0.643457 0.726012
Si Si5 0.087923 0.448319 0.226058
Si Si6 0.913839 0.054927 0.328947
Si Si7 0.078744 0.578823 0.464716
Si Si8 0.659696 0.141784 0.833177
O O1 0.099013 0.522152 0.906713
O O2 0.059758 0.754409 0.981227
O O3 0.000000 0.500000 0.006744
O O4 0.148439 0.544909 0.027888
O O5 0.750000 0.565177 0.111897
O O6 0.635700 0.728737 0.066023
O O7 0.607989 0.509799 0.150410
O O8 0.250000 0.425000 0.559177
O O9 0.357314 0.435357 0.655345
O O10 0.392104 0.500412 0.531386
O O11 0.750000 0.702249 0.725548
O O12 0.900998 0.775774 0.736154
O O13 0.849588 0.530107 0.785647
O O14 0.148921 0.524223 0.275874
O O15 0.000000 0.500000 0.243579
O O16 0.900668 0.226351 0.317831
O O17 0.000000 0.000000 0.305855
O O18 0.141614 0.569625 0.404905
O O19 0.000000 0.500000 0.439104
O O20 0.750000 0.197154 0.834034
#
# Coordination Sequence:
#
# PCOD8192942 Si02
#       8
#     8   8   8   8   8   8   8   8
#     4  10  22  39  58  84 117 152 196 245 292 349
#     4  10  21  38  60  86 117 153 195 242 295 352
#     4   9  20  38  58  84 118 153 191 238 292 352
#     4  10  21  39  61  85 117 154 194 238 290 351
#     4  11  22  38  61  87 117 154 197 243 290 347
#     4  10  22  39  59  85 117 155 197 243 294 349
#     4  11  23  38  60  86 116 155 199 244 295 354
#     4  11  23  39  59  87 122 154 193 245 297 350
#
# _framework density 20.434947000000001
#
# number of rings (size 3 to 8) (size 9 to 14) (size 15 to 20)
#    0.000    1.750    0.000    4.875    0.000    8.500 
#    0.000    2.500    0.000    0.000    0.000    0.000 
#    0.000    0.000    0.000    0.000    0.000    0.000 
#
# Total GULP energy -396880.331303 kJ/mol
# GULP energy per Si atom -12402.510353 kJ/mol
# Density = 2.038844 g / cm^3
# Si number density = 20.434947 Si / 1000 Ang^3
#
#
#
# Elastic Constant Matrix: (Units=GPa)
#
#
# Indices 1 2 3 4 5 6 
#
# 1 92.1709 40.2415 39.0255 0.0000 0.0000 0.0000
# 2 40.2415 96.7478 62.6603 0.0000 0.0000 0.0000
# 3 39.0255 62.6603 110.1189 0.0000 0.0000 0.0000
# 4 0.0000 0.0000 0.0000 40.2479 0.0000 0.0000
# 5 0.0000 0.0000 0.0000 0.0000 33.3226 0.0000
# 6 0.0000 0.0000 0.0000 0.0000 0.0000 32.2937
#
#
#
# Elastic Compliance Matrix: (Units=1/GPa)
#
#
# Indices 1 2 3 4 5 6 
#
# 1 0.013696 -0.004043 -0.002553 0.000000 0.000000 0.000000
# 2 -0.004043 0.017562 -0.008560 0.000000 0.000000 0.000000
# 3 -0.002553 -0.008560 0.014857 0.000000 0.000000 0.000000
# 4 0.000000 0.000000 0.000000 0.024846 0.000000 0.000000
# 5 0.000000 0.000000 0.000000 0.000000 0.030010 0.000000
# 6 0.000000 0.000000 0.000000 0.000000 0.000000 0.030966
#
#
# Mechanical properties :
#
#
# Convention : Reuss Voigt Hill
#
# Bulk Modulus (GPa) = 63.28467 64.76579 64.02523
# Shear Modulus (GPa) = 29.84782 31.64685 30.74733
#
# Velocity S-wave (km/s) = 3.82596 3.93958 3.88318
# Velocity P-wave (km/s) = 7.11009 7.24266 7.17668
#
# Compressibility (1/GPa) = 0.01580161
#
# Stress axis : x y z
#
# Youngs Moduli (GPa) = 73.01639 56.94071 67.30849
#
# Poissons Ratio (x) = 0.23021 0.17184
# Poissons Ratio (y) = 0.29521 0.57619
# Poissons Ratio (z) = 0.18641 0.48744
#
# Static dielectric constant tensor:
#      x y z
#    x 3.598410 0.000000 0.000000 
#    y 0.000000 3.577600 0.000000 
#    z 0.000000 0.000000 3.717300 
# 
# 
# High freq. dielectric constant tensor:
#      x y z
#    x 1.797220 0.000000 0.000000 
#    y 0.000000 1.792860 0.000000 
#    z 0.000000 0.000000 1.808730 
# 
# From -- ./inp_files/22231.got.cif
#   From: 2010.03.12/outbox.cif.g09.slc.cpg/sg46_12_cif.got.tgz:22231.got - 2010.04.14 02:56:35.
