data_PCOD8192099
_publ_section_title
;
Structure prediction by ZEFSAII (Michael W. Deem and Ramdas Pophale) SiO2 
 PCOD8192099
Probable space group: I M A 2
;
_chemical_formula_sum "Si O2"
_cell_formula_units_Z 64
_cell_length_a 8.781145
_cell_length_b 24.528245
_cell_length_c 15.004336
_cell_angle_alpha 90.000000
_cell_angle_beta 90.000000
_cell_angle_gamma 90.000000
_cell_volume 3231.725053
_symmetry_space_group_name_H-M "I M A 2"
_symmetry_group_IT_number 46
_symmetry_cell_setting 'orthorhombic'
loop_
_space_group_symop_operation_xyz
x,y,z
-x,-y,z
1/2-x,y,z
1/2+x,-y,z
1/2+x,1/2+y,1/2+z
1/2-x,1/2-y,1/2+z
-x,1/2+y,1/2+z
x,1/2-y,1/2+z
loop_
_atom_site_type_symbol
_atom_site_label
_atom_site_fract_x
_atom_site_fract_y
_atom_site_fract_z
Si Si1 0.074497 0.642485 0.023140
Si Si2 0.428838 0.443796 0.895978
Si Si3 0.927183 0.641854 0.400039
Si Si4 0.924413 0.837557 0.703552
Si Si5 0.426993 0.214495 0.186079
Si Si6 0.070523 0.940648 0.036270
Si Si7 0.926929 0.232698 0.002186
Si Si8 0.427621 0.607401 0.728076
O O1 0.250000 0.626078 0.012165
O O2 0.030246 0.637060 0.127063
O O3 0.043413 0.703449 0.987673
O O4 0.971728 0.603384 0.964596
O O5 0.500000 0.500000 0.930982
O O6 0.250000 0.450176 0.892585
O O7 0.488038 0.431684 0.797029
O O8 0.750000 0.648126 0.423767
O O9 0.949097 0.629212 0.294890
O O10 0.999823 0.592789 0.454880
O O11 0.013388 0.699015 0.417686
O O12 0.750000 0.840726 0.670472
O O13 0.968011 0.774466 0.721958
O O14 0.250000 0.200882 0.194963
O O15 0.518599 0.169665 0.243157
O O16 0.476964 0.209379 0.083993
O O17 0.250000 0.944432 0.022316
O O18 0.028868 0.911698 0.129001
O O19 0.000000 0.000000 0.035439
O O20 0.750000 0.220458 0.020515
O O21 0.250000 0.603414 0.747944
#
# Coordination Sequence:
#
# PCOD8192099 Si02
#       8
#     8   8   8   8   8   8   8   8
#     4  10  22  41  64  91 122 160 204 254 310 364
#     4  12  26  44  66  90 121 159 206 259 309 368
#     4  11  22  37  60  89 124 162 206 253 302 362
#     4   9  21  39  59  89 125 163 205 253 305 362
#     4  10  19  34  57  87 123 163 203 244 299 360
#     4  11  24  41  62  87 121 161 205 252 304 362
#     4  10  20  35  56  87 123 160 201 247 299 359
#     4  11  23  39  60  90 126 162 203 250 301 367
#
# _framework density 19.803664999999999
#
# number of rings (size 3 to 8) (size 9 to 14) (size 15 to 20)
#    0.000    1.500    1.250    3.750    1.750    5.500 
#    0.000    0.625    0.000    3.000    0.000    0.000 
#    0.000    0.000    0.000    0.000    0.000    0.000 
#
# Total GULP energy -396944.545863 kJ/mol
# GULP energy per Si atom -12404.517058 kJ/mol
# Density = 1.975859 g / cm^3
# Si number density = 19.803665 Si / 1000 Ang^3
#
#
#
# Elastic Constant Matrix: (Units=GPa)
#
#
# Indices 1 2 3 4 5 6 
#
# 1 110.3160 55.9906 45.9121 0.0000 0.0000 0.0000
# 2 55.9906 97.0953 35.9357 -0.0002 0.0000 0.0000
# 3 45.9121 35.9357 72.1158 0.0002 0.0000 -0.0001
# 4 0.0000 -0.0002 0.0002 25.9794 0.0000 -0.0001
# 5 0.0000 0.0000 0.0000 0.0000 31.6555 0.0001
# 6 0.0000 0.0000 -0.0001 -0.0001 0.0001 34.3746
#
#
#
# Elastic Compliance Matrix: (Units=1/GPa)
#
#
# Indices 1 2 3 4 5 6 
#
# 1 0.014872 -0.006219 -0.006369 0.000000 0.000000 0.000000
# 2 -0.006219 0.015228 -0.003629 0.000000 0.000000 0.000000
# 3 -0.006369 -0.003629 0.019730 0.000000 0.000000 0.000000
# 4 0.000000 0.000000 0.000000 0.038492 0.000000 0.000000
# 5 0.000000 0.000000 0.000000 0.000000 0.031590 0.000000
# 6 0.000000 0.000000 0.000000 0.000000 0.000000 0.029091
#
#
# Mechanical properties :
#
#
# Convention : Reuss Voigt Hill
#
# Bulk Modulus (GPa) = 57.48510 61.68932 59.58721
# Shear Modulus (GPa) = 26.70408 27.84781 27.27594
#
# Velocity S-wave (km/s) = 3.67610 3.75399 3.71525
# Velocity P-wave (km/s) = 6.86358 7.07164 6.96839
#
# Compressibility (1/GPa) = 0.01739581
#
# Stress axis : x y z
#
# Youngs Moduli (GPa) = 67.24046 65.66664 50.68390
#
# Poissons Ratio (x) = 0.40836 0.32283
# Poissons Ratio (y) = 0.41815 0.18395
# Poissons Ratio (z) = 0.42828 0.23833
#
# Static dielectric constant tensor:
#      x y z
#    x 3.698000 0.000000 0.000000 
#    y 0.000000 3.644820 0.000000 
#    z 0.000000 0.000000 3.530880 
# 
# 
# High freq. dielectric constant tensor:
#      x y z
#    x 1.785530 0.000000 0.000000 
#    y 0.000000 1.767240 0.000000 
#    z 0.000000 0.000000 1.767960 
# 
# From -- ./inp_files/14423.got.cif
#   From: 2010.03.12/outbox.cif.g09.slc.cpg/sg46_8_cif.got.tgz:14423.got - 2010.04.14 02:56:35.
