data_PCOD8192246
_publ_section_title
;
Structure prediction by ZEFSAII (Michael W. Deem and Ramdas Pophale) SiO2 
 PCOD8192246
Probable space group: I M A 2
;
_chemical_formula_sum "Si O2"
_cell_formula_units_Z 60
_cell_length_a 25.778017
_cell_length_b 6.383363
_cell_length_c 17.227377
_cell_angle_alpha 90.000000
_cell_angle_beta 90.000000
_cell_angle_gamma 90.000000
_cell_volume 2834.772464
_symmetry_space_group_name_H-M "I M A 2"
_symmetry_group_IT_number 46
_symmetry_cell_setting 'orthorhombic'
loop_
_space_group_symop_operation_xyz
x,y,z
-x,-y,z
1/2-x,y,z
1/2+x,-y,z
1/2+x,1/2+y,1/2+z
1/2-x,1/2-y,1/2+z
-x,1/2+y,1/2+z
x,1/2-y,1/2+z
loop_
_atom_site_type_symbol
_atom_site_label
_atom_site_fract_x
_atom_site_fract_y
_atom_site_fract_z
Si Si1 0.808335 0.243023 0.200090
Si Si2 0.400430 0.439243 0.195358
Si Si3 0.400989 0.027072 0.517542
Si Si4 0.062738 0.717405 0.883940
Si Si5 0.866252 0.901127 0.924306
Si Si6 0.808347 0.279769 0.523327
Si Si7 0.000000 0.000000 0.797196
Si Si8 0.863956 0.585327 0.792082
O O1 0.750000 0.331773 0.211714
O O2 0.849833 0.424278 0.215864
O O3 0.815202 0.152841 0.113056
O O4 0.816718 0.057936 0.262497
O O5 0.417475 0.465574 0.106526
O O6 0.449168 0.508605 0.245282
O O7 0.386926 0.200267 0.215995
O O8 0.442873 0.888265 0.469124
O O9 0.345210 0.915981 0.503631
O O10 0.397649 0.262656 0.486551
O O11 0.090203 0.554189 0.827091
O O12 0.094657 0.934324 0.886388
O O13 0.006042 0.789050 0.851075
O O14 0.843712 0.753183 0.855716
O O15 0.820247 0.020907 0.968941
O O16 0.750000 0.204958 0.506144
#
# Coordination Sequence:
#
# PCOD8192246 Si02
#       8
#     8   8   8   8   8   8   4   8
#     4  10  21  39  61  90 132 171 214 276 335 390
#     4  11  23  42  64  97 129 168 221 272 325 392
#     4   9  21  40  63  87 130 165 213 269 319 382
#     4  10  22  42  64  90 126 171 206 262 327 386
#     4  10  19  38  60  86 126 165 209 265 312 390
#     4   9  19  35  59  87 122 170 216 268 326 382
#     4  12  22  44  68  92 128 170 216 260 328 392
#     4  11  20  38  63  91 125 167 217 261 335 389
#
# _framework density 21.165717999999998
#
# number of rings (size 3 to 8) (size 9 to 14) (size 15 to 20)
#    0.000    1.867    2.667    0.800    0.000    2.133 
#    2.400   12.000    0.000    0.000    0.000    0.000 
#    0.000    0.000    0.000    0.000    0.000    0.000 
#
# Total GULP energy -371900.132937 kJ/mol
# GULP energy per Si atom -12396.671098 kJ/mol
# Density = 2.111754 g / cm^3
# Si number density = 21.165718 Si / 1000 Ang^3
#
#
#
# Elastic Constant Matrix: (Units=GPa)
#
#
# Indices 1 2 3 4 5 6 
#
# 1 96.5454 40.8898 55.7402 0.0000 0.0000 0.0000
# 2 40.8898 114.3981 64.7922 0.0000 0.0000 0.0000
# 3 55.7402 64.7922 137.1406 0.0000 0.0000 0.0000
# 4 0.0000 0.0000 0.0000 43.2967 0.0000 0.0000
# 5 0.0000 0.0000 0.0000 0.0000 28.0083 0.0000
# 6 0.0000 0.0000 0.0000 0.0000 0.0000 28.5183
#
#
#
# Elastic Compliance Matrix: (Units=1/GPa)
#
#
# Indices 1 2 3 4 5 6 
#
# 1 0.014013 -0.002434 -0.004545 0.000000 0.000000 0.000000
# 2 -0.002434 0.012358 -0.004849 0.000000 0.000000 0.000000
# 3 -0.004545 -0.004849 0.011430 0.000000 0.000000 0.000000
# 4 0.000000 0.000000 0.000000 0.023096 0.000000 0.000000
# 5 0.000000 0.000000 0.000000 0.000000 0.035704 0.000000
# 6 0.000000 0.000000 0.000000 0.000000 0.000000 0.035065
#
#
# Mechanical properties :
#
#
# Convention : Reuss Voigt Hill
#
# Bulk Modulus (GPa) = 70.70385 74.54762 72.62574
# Shear Modulus (GPa) = 31.24240 32.40879 31.82559
#
# Velocity S-wave (km/s) = 3.84615 3.91729 3.88188
# Velocity P-wave (km/s) = 7.29392 7.46710 7.38102
#
# Compressibility (1/GPa) = 0.01414350
#
# Stress axis : x y z
#
# Youngs Moduli (GPa) = 71.36156 80.91977 87.48721
#
# Poissons Ratio (x) = 0.19698 0.39767
# Poissons Ratio (y) = 0.17372 0.42423
# Poissons Ratio (z) = 0.32437 0.39239
#
# Static dielectric constant tensor:
#      x y z
#    x 3.664140 0.000000 0.000000 
#    y 0.000000 3.971080 0.000000 
#    z 0.000000 0.000000 4.142010 
# 
# 
# High freq. dielectric constant tensor:
#      x y z
#    x 1.803860 0.000000 0.000000 
#    y 0.000000 1.833300 0.000000 
#    z 0.000000 0.000000 1.848510 
# 
# From -- ./inp_files/20483.got.cif
#   From: 2010.03.12/outbox.cif.g09.slc.cpg/sg46_11_cif.got.tgz:20483.got - 2010.04.14 02:56:35.
