data_PCOD8192771
_publ_section_title
;
Structure prediction by ZEFSAII (Michael W. Deem and Ramdas Pophale) SiO2 
 PCOD8192771
Probable space group: I M A 2
;
_chemical_formula_sum "Si O2"
_cell_formula_units_Z 56
_cell_length_a 16.957150
_cell_length_b 4.982866
_cell_length_c 30.598558
_cell_angle_alpha 90.000000
_cell_angle_beta 90.000000
_cell_angle_gamma 90.000000
_cell_volume 2585.431467
_symmetry_space_group_name_H-M "I M A 2"
_symmetry_group_IT_number 46
_symmetry_cell_setting 'orthorhombic'
loop_
_space_group_symop_operation_xyz
x,y,z
-x,-y,z
1/2-x,y,z
1/2+x,-y,z
1/2+x,1/2+y,1/2+z
1/2-x,1/2-y,1/2+z
-x,1/2+y,1/2+z
x,1/2-y,1/2+z
loop_
_atom_site_type_symbol
_atom_site_label
_atom_site_fract_x
_atom_site_fract_y
_atom_site_fract_z
Si Si1 0.661125 0.084110 0.376120
Si Si2 0.052801 0.762120 0.296732
Si Si3 0.408586 0.521142 0.521717
Si Si4 0.161253 0.684194 0.717162
Si Si5 0.657698 0.536287 0.068245
Si Si6 0.837689 0.589914 0.433485
Si Si7 0.838428 0.796111 0.660763
O O1 0.750000 0.997524 0.360572
O O2 0.598831 0.104491 0.337192
O O3 0.665694 0.380731 0.394536
O O4 0.630464 0.868815 0.412407
O O5 0.114070 0.699290 0.258350
O O6 0.000000 0.500000 0.308732
O O7 0.000000 0.000000 0.277869
O O8 0.500000 0.500000 0.531491
O O9 0.361916 0.248541 0.531183
O O10 0.393598 0.547072 0.469924
O O11 0.377953 0.756221 0.552660
O O12 0.250000 0.611298 0.733039
O O13 0.121023 0.426963 0.692384
O O14 0.162395 0.916994 0.682351
O O15 0.750000 0.489175 0.074375
O O16 0.620266 0.652934 0.113586
O O17 0.750000 0.636478 0.453182
O O18 0.750000 0.686488 0.652414
#
# Coordination Sequence:
#
# PCOD8192771 Si02
#       7
#     8   8   8   8   8   8   8
#     4  10  22  41  64  88 115 153 202 251 299 356
#     4  12  25  40  59  89 125 159 197 243 306 371
#     4  12  25  40  60  93 131 164 201 253 318 380
#     4  10  20  39  63  87 117 155 202 251 299 354
#     4  11  22  41  66  90 121 164 213 258 306 371
#     4  10  21  39  64  90 116 154 204 250 298 360
#     4   9  19  36  63  91 113 151 207 256 295 348
#
# _framework density 21.659829999999999
#
# number of rings (size 3 to 8) (size 9 to 14) (size 15 to 20)
#    0.000    1.429    0.000    5.571    0.000    5.143 
#    0.000   12.857    0.000    0.000    0.000    0.000 
#    0.000    0.000    0.000    0.000    0.000    0.000 
#
# Total GULP energy -347072.394938 kJ/mol
# GULP energy per Si atom -12395.442676 kJ/mol
# Density = 2.161053 g / cm^3
# Si number density = 21.659830 Si / 1000 Ang^3
#
#
#
# Elastic Constant Matrix: (Units=GPa)
#
#
# Indices 1 2 3 4 5 6 
#
# 1 129.3511 -4.3429 21.0102 0.0000 0.0000 0.0000
# 2 -4.3429 140.7396 35.1320 0.0000 0.0000 0.0000
# 3 21.0102 35.1320 108.6236 0.0000 0.0000 0.0000
# 4 0.0000 0.0000 0.0000 41.0581 0.0000 0.0000
# 5 0.0000 0.0000 0.0000 0.0000 13.2950 0.0000
# 6 0.0000 0.0000 0.0000 0.0000 0.0000 29.2044
#
#
#
# Elastic Compliance Matrix: (Units=1/GPa)
#
#
# Indices 1 2 3 4 5 6 
#
# 1 0.008043 0.000692 -0.001780 0.000000 0.000000 0.000000
# 2 0.000692 0.007789 -0.002653 0.000000 0.000000 0.000000
# 3 -0.001780 -0.002653 0.010408 0.000000 0.000000 0.000000
# 4 0.000000 0.000000 0.000000 0.024356 0.000000 0.000000
# 5 0.000000 0.000000 0.000000 0.000000 0.075216 0.000000
# 6 0.000000 0.000000 0.000000 0.000000 0.000000 0.034241
#
#
# Mechanical properties :
#
#
# Convention : Reuss Voigt Hill
#
# Bulk Modulus (GPa) = 53.30520 53.59034 53.44777
# Shear Modulus (GPa) = 28.77068 38.50583 33.63826
#
# Velocity S-wave (km/s) = 3.64853 4.22092 3.94512
# Velocity P-wave (km/s) = 6.51250 6.96781 6.74400
#
# Compressibility (1/GPa) = 0.01875989
#
# Stress axis : x y z
#
# Youngs Moduli (GPa) = 124.32842 128.38672 96.07596
#
# Poissons Ratio (x) = -0.08890 0.17099
# Poissons Ratio (y) = -0.08609 0.25490
# Poissons Ratio (z) = 0.22127 0.34062
#
# Static dielectric constant tensor:
#      x y z
#    x 3.883090 0.000000 0.000000 
#    y 0.000000 3.910230 0.000000 
#    z 0.000000 0.000000 3.780310 
# 
# 
# High freq. dielectric constant tensor:
#      x y z
#    x 1.829090 0.000000 0.000000 
#    y 0.000000 1.866120 0.000000 
#    z 0.000000 0.000000 1.855160 
# 
# From -- ./inp_files/25382.got.cif
#   From: 2010.03.12/outbox.cif.g09.slc.cpg/sg46_13_cif.got.tgz:25382.got - 2010.04.14 02:56:35.
