data_PCOD8192278
_publ_section_title
;
Structure prediction by ZEFSAII (Michael W. Deem and Ramdas Pophale) SiO2 
 PCOD8192278
Probable space group: I M A 2
;
_chemical_formula_sum "Si O2"
_cell_formula_units_Z 64
_cell_length_a 8.847585
_cell_length_b 22.995471
_cell_length_c 19.239847
_cell_angle_alpha 90.000000
_cell_angle_beta 90.000000
_cell_angle_gamma 90.000000
_cell_volume 3914.431225
_symmetry_space_group_name_H-M "I M A 2"
_symmetry_group_IT_number 46
_symmetry_cell_setting 'orthorhombic'
loop_
_space_group_symop_operation_xyz
x,y,z
-x,-y,z
1/2-x,y,z
1/2+x,-y,z
1/2+x,1/2+y,1/2+z
1/2-x,1/2-y,1/2+z
-x,1/2+y,1/2+z
x,1/2-y,1/2+z
loop_
_atom_site_type_symbol
_atom_site_label
_atom_site_fract_x
_atom_site_fract_y
_atom_site_fract_z
Si Si1 0.923602 0.722237 0.531900
Si Si2 0.073804 0.940346 0.817772
Si Si3 0.427382 0.271796 0.828315
Si Si4 0.923487 0.169023 0.908028
Si Si5 0.428815 0.244729 0.678919
Si Si6 0.571175 0.438868 0.043365
Si Si7 0.423271 0.343671 0.955175
Si Si8 0.930262 0.612838 0.181634
O O1 0.750000 0.703209 0.531169
O O2 0.991618 0.722594 0.610357
O O3 0.944108 0.786832 0.502163
O O4 0.011761 0.675110 0.485907
O O5 0.250000 0.948130 0.800177
O O6 0.048942 0.895978 0.881231
O O7 0.988030 0.919923 0.749194
O O8 0.000000 0.000000 0.843641
O O9 0.250000 0.261223 0.834731
O O10 0.498991 0.212446 0.854528
O O11 0.476456 0.280989 0.747886
O O12 0.472170 0.327145 0.875895
O O13 0.750000 0.186102 0.910311
O O14 0.250000 0.240547 0.671372
O O15 0.491121 0.179002 0.683552
O O16 0.500000 0.500000 0.021134
O O17 0.750000 0.444272 0.052072
O O18 0.497378 0.418649 0.114867
O O19 0.533374 0.393768 0.981780
O O20 0.250000 0.365418 0.958595
O O21 0.750000 0.609387 0.178191
#
# Coordination Sequence:
#
# PCOD8192278 Si02
#       8
#     8   8   8   8   8   8   8   8
#     4   9  17  31  51  72  97 128 162 195 236 290
#     4  11  23  36  49  69  97 131 171 207 243 287
#     4   9  17  31  52  73  96 128 161 194 239 291
#     4  10  20  32  46  70  99 125 160 205 245 283
#     4   9  16  29  51  76  98 128 164 195 230 285
#     4  12  24  36  50  68  96 132 171 206 245 287
#     4   9  17  31  49  72  98 126 162 202 240 283
#     4  11  20  34  52  70  99 132 168 204 236 282
#
# _framework density 16.349757
#
# number of rings (size 3 to 8) (size 9 to 14) (size 15 to 20)
#    0.000    2.000    2.500    3.375    0.000    3.500 
#    0.000    0.625    0.000    0.000    0.000    0.875 
#    0.000    2.000    0.000    0.000    0.000    0.000 
#
# Total GULP energy -396749.760276 kJ/mol
# GULP energy per Si atom -12398.430009 kJ/mol
# Density = 1.631254 g / cm^3
# Si number density = 16.349757 Si / 1000 Ang^3
#
#
#
# Elastic Constant Matrix: (Units=GPa)
#
#
# Indices 1 2 3 4 5 6 
#
# 1 67.0014 35.7907 37.3675 0.0000 0.0000 0.0000
# 2 35.7907 72.3847 53.6555 0.0000 0.0000 0.0000
# 3 37.3675 53.6555 137.2183 0.0000 0.0000 0.0000
# 4 0.0000 0.0000 0.0000 27.7309 0.0000 0.0000
# 5 0.0000 0.0000 0.0000 0.0000 20.0901 0.0000
# 6 0.0000 0.0000 0.0000 0.0000 0.0000 23.2167
#
#
#
# Elastic Compliance Matrix: (Units=1/GPa)
#
#
# Indices 1 2 3 4 5 6 
#
# 1 0.020790 -0.008566 -0.002312 0.000000 0.000000 0.000000
# 2 -0.008566 0.022983 -0.006654 0.000000 0.000000 0.000000
# 3 -0.002312 -0.006654 0.010519 0.000000 0.000000 0.000000
# 4 0.000000 0.000000 0.000000 0.036061 0.000000 0.000000
# 5 0.000000 0.000000 0.000000 0.000000 0.049776 0.000000
# 6 0.000000 0.000000 0.000000 0.000000 0.000000 0.043072
#
#
# Mechanical properties :
#
#
# Convention : Reuss Voigt Hill
#
# Bulk Modulus (GPa) = 52.00750 58.91465 55.46108
# Shear Modulus (GPa) = 22.25433 24.19359 23.22396
#
# Velocity S-wave (km/s) = 3.69337 3.85093 3.77297
# Velocity P-wave (km/s) = 7.07576 7.47563 7.27844
#
# Compressibility (1/GPa) = 0.01922799
#
# Stress axis : x y z
#
# Youngs Moduli (GPa) = 48.09929 43.51052 95.06377
#
# Poissons Ratio (x) = 0.37271 0.21981
# Poissons Ratio (y) = 0.41201 0.63257
# Poissons Ratio (z) = 0.11122 0.28953
#
# Static dielectric constant tensor:
#      x y z
#    x 3.064010 0.000000 0.000000 
#    y 0.000000 2.975860 0.000000 
#    z 0.000000 0.000000 3.493440 
# 
# 
# High freq. dielectric constant tensor:
#      x y z
#    x 1.626320 0.000000 0.000000 
#    y 0.000000 1.600830 0.000000 
#    z 0.000000 0.000000 1.631810 
# 
# From -- ./inp_files/21430.got.cif
#   From: 2010.03.12/outbox.cif.g09.slc.cpg/sg46_11_cif.got.tgz:21430.got - 2010.04.14 02:56:35.
