data_PCOD8192311
_publ_section_title
;
Structure prediction by ZEFSAII (Michael W. Deem and Ramdas Pophale) SiO2 
 PCOD8192311
Probable space group: I M A 2
;
_chemical_formula_sum "Si O2"
_cell_formula_units_Z 48
_cell_length_a 8.805957
_cell_length_b 23.849121
_cell_length_c 13.412304
_cell_angle_alpha 90.000000
_cell_angle_beta 90.000000
_cell_angle_gamma 90.000000
_cell_volume 2816.776092
_symmetry_space_group_name_H-M "I M A 2"
_symmetry_group_IT_number 46
_symmetry_cell_setting 'orthorhombic'
loop_
_space_group_symop_operation_xyz
x,y,z
-x,-y,z
1/2-x,y,z
1/2+x,-y,z
1/2+x,1/2+y,1/2+z
1/2-x,1/2-y,1/2+z
-x,1/2+y,1/2+z
x,1/2-y,1/2+z
loop_
_atom_site_type_symbol
_atom_site_label
_atom_site_fract_x
_atom_site_fract_y
_atom_site_fract_z
Si Si1 0.426618 0.666639 0.855230
Si Si2 0.428229 0.836818 0.773437
Si Si3 0.571783 0.727035 0.448933
Si Si4 0.576330 0.272786 0.653046
Si Si5 0.928278 0.941493 0.669555
Si Si6 0.071328 0.058692 0.440220
O O1 0.250000 0.666433 0.883814
O O2 0.507453 0.711335 0.926615
O O3 0.451386 0.682084 0.739931
O O4 0.498495 0.606071 0.871440
O O5 0.250000 0.845090 0.786458
O O6 0.496217 0.819995 0.879969
O O7 0.465743 0.788798 0.693289
O O8 0.503250 0.894053 0.739179
O O9 0.750000 0.727005 0.430910
O O10 0.534442 0.711654 0.562879
O O11 0.750000 0.274388 0.616107
O O12 0.750000 0.944611 0.685932
O O13 0.970140 0.928527 0.554989
O O14 0.000000 0.000000 0.703688
O O15 0.250000 0.056555 0.422716
O O16 0.000000 0.000000 0.406219
#
# Coordination Sequence:
#
# PCOD8192311 Si02
#       6
#     8   8   8   8   8   8
#     4  10  20  34  52  73 100 133 167 204 246 293
#     4  10  20  34  52  73 100 133 166 203 246 293
#     4  11  21  32  50  75 102 131 164 204 248 295
#     4   9  19  34  51  72  99 132 166 201 246 295
#     4  10  20  33  50  74 102 132 166 203 245 292
#     4  10  20  33  51  75 103 133 165 203 245 292
#
# _framework density 17.040758
#
# number of rings (size 3 to 8) (size 9 to 14) (size 15 to 20)
#    0.000    2.000    0.000    5.500    0.000    8.667 
#    0.000    0.000    0.000    1.000    0.000    2.333 
#    0.000    0.000    0.000    0.000    0.000    0.000 
#
# Total GULP energy -297717.546534 kJ/mol
# GULP energy per Si atom -12404.897772 kJ/mol
# Density = 1.700197 g / cm^3
# Si number density = 17.040758 Si / 1000 Ang^3
#
#
#
# Elastic Constant Matrix: (Units=GPa)
#
#
# Indices 1 2 3 4 5 6 
#
# 1 88.3447 53.1597 40.4122 -0.0001 0.0002 0.0000
# 2 53.1597 139.2417 55.5044 0.0000 0.0000 0.0000
# 3 40.4122 55.5044 84.7518 -0.0001 0.0000 0.0000
# 4 -0.0001 0.0000 -0.0001 20.0857 0.0000 0.0000
# 5 0.0002 0.0000 0.0000 0.0000 28.8953 0.0000
# 6 0.0000 0.0000 0.0000 0.0000 0.0000 35.2086
#
#
#
# Elastic Compliance Matrix: (Units=1/GPa)
#
#
# Indices 1 2 3 4 5 6 
#
# 1 0.016090 -0.004174 -0.004938 0.000000 0.000000 0.000000
# 2 -0.004174 0.010802 -0.005084 0.000000 0.000000 0.000000
# 3 -0.004938 -0.005084 0.017483 0.000000 0.000000 0.000000
# 4 0.000000 0.000000 0.000000 0.049787 0.000000 0.000000
# 5 0.000000 0.000000 0.000000 0.000000 0.034608 0.000000
# 6 0.000000 0.000000 0.000000 0.000000 0.000000 0.028402
#
#
# Mechanical properties :
#
#
# Convention : Reuss Voigt Hill
#
# Bulk Modulus (GPa) = 62.56936 67.83230 65.20083
# Shear Modulus (GPa) = 26.19272 27.72204 26.95738
#
# Velocity S-wave (km/s) = 3.92479 4.03775 3.98167
# Velocity P-wave (km/s) = 7.57204 7.85049 7.71252
#
# Compressibility (1/GPa) = 0.01598226
#
# Stress axis : x y z
#
# Youngs Moduli (GPa) = 62.14974 92.57606 57.19714
#
# Poissons Ratio (x) = 0.38644 0.28247
# Poissons Ratio (y) = 0.25943 0.29078
# Poissons Ratio (z) = 0.30693 0.47064
#
# Static dielectric constant tensor:
#      x y z
#    x 3.283320 0.000000 0.000000 
#    y 0.000000 3.138880 0.000000 
#    z 0.000000 0.000000 3.081740 
# 
# 
# High freq. dielectric constant tensor:
#      x y z
#    x 1.674630 0.000000 0.000000 
#    y 0.000000 1.650980 0.000000 
#    z 0.000000 0.000000 1.645020 
# 
# From -- ./inp_files/9284.got.cif
#   From: 2010.03.12/outbox.cif.g09.slc.cpg/sg46_5_cif.got.tgz:9284.got - 2010.04.14 02:56:35.
