data_PCOD8192307
_publ_section_title
;
Structure prediction by ZEFSAII (Michael W. Deem and Ramdas Pophale) SiO2 
 PCOD8192307
Probable space group: I M A 2
;
_chemical_formula_sum "Si O2"
_cell_formula_units_Z 56
_cell_length_a 8.776232
_cell_length_b 15.741354
_cell_length_c 19.993014
_cell_angle_alpha 90.000000
_cell_angle_beta 90.000000
_cell_angle_gamma 90.000000
_cell_volume 2762.030380
_symmetry_space_group_name_H-M "I M A 2"
_symmetry_group_IT_number 46
_symmetry_cell_setting 'orthorhombic'
loop_
_space_group_symop_operation_xyz
x,y,z
-x,-y,z
1/2-x,y,z
1/2+x,-y,z
1/2+x,1/2+y,1/2+z
1/2-x,1/2-y,1/2+z
-x,1/2+y,1/2+z
x,1/2-y,1/2+z
loop_
_atom_site_type_symbol
_atom_site_label
_atom_site_fract_x
_atom_site_fract_y
_atom_site_fract_z
Si Si1 0.924590 0.418007 0.582730
Si Si2 0.927961 0.252398 0.788707
Si Si3 0.927871 0.688823 0.917764
Si Si4 0.583664 0.619476 0.457674
Si Si5 0.580353 0.919130 0.812284
Si Si6 0.068581 0.743246 0.137732
Si Si7 0.568252 0.092635 0.540027
O O1 0.750000 0.420887 0.601714
O O2 0.997370 0.327974 0.603258
O O3 0.000000 0.500000 0.618724
O O4 0.954381 0.423416 0.503333
O O5 0.750000 0.272735 0.792087
O O6 0.992347 0.255186 0.713109
O O7 0.010749 0.316936 0.840698
O O8 0.961261 0.156278 0.807643
O O9 0.750000 0.666550 0.916775
O O10 0.961944 0.783154 0.943281
O O11 0.012532 0.622899 0.966757
O O12 0.750000 0.617045 0.493895
O O13 0.598514 0.564319 0.390873
O O14 0.750000 0.901904 0.781235
O O15 0.500000 0.000000 0.777193
O O16 0.250000 0.740663 0.136540
O O17 0.010511 0.659093 0.097841
O O18 0.750000 0.086871 0.539065
O O19 0.500000 0.000000 0.556744
#
# Coordination Sequence:
#
# PCOD8192307 Si02
#       7
#     8   8   8   8   8   8   8
#     4  11  21  35  55  82 113 146 185 232 285 348
#     4  10  20  37  60  82 112 158 201 248 309 366
#     4  10  20  37  59  88 119 152 200 250 297 359
#     4   9  18  32  52  79 111 143 180 227 277 333
#     4  10  20  33  49  77 113 147 189 236 284 350
#     4   9  21  40  60  85 120 158 202 249 304 372
#     4  11  22  40  64  93 124 164 210 260 316 372
#
# _framework density 20.274940999999998
#
# number of rings (size 3 to 8) (size 9 to 14) (size 15 to 20)
#    0.000    2.000    1.429    3.429    0.000    4.571 
#    0.000    7.857    0.000    1.714    0.000    0.000 
#    0.000    0.000    0.000    0.000    0.000    0.000 
#
# Total GULP energy -346914.217436 kJ/mol
# GULP energy per Si atom -12389.793480 kJ/mol
# Density = 2.022879 g / cm^3
# Si number density = 20.274941 Si / 1000 Ang^3
#
#
#
# Elastic Constant Matrix: (Units=GPa)
#
#
# Indices 1 2 3 4 5 6 
#
# 1 75.6500 34.3205 29.2915 0.0000 0.0000 0.0000
# 2 34.3205 119.6483 41.0793 0.0000 0.0000 0.0000
# 3 29.2915 41.0793 114.6356 0.0000 0.0000 0.0000
# 4 0.0000 0.0000 0.0000 11.8389 0.0000 0.0000
# 5 0.0000 0.0000 0.0000 0.0000 17.2923 0.0000
# 6 0.0000 0.0000 0.0000 0.0000 0.0000 31.8697
#
#
#
# Elastic Compliance Matrix: (Units=1/GPa)
#
#
# Indices 1 2 3 4 5 6 
#
# 1 0.015935 -0.003618 -0.002775 0.000000 0.000000 0.000000
# 2 -0.003618 0.010352 -0.002785 0.000000 0.000000 0.000000
# 3 -0.002775 -0.002785 0.010430 0.000000 0.000000 0.000000
# 4 0.000000 0.000000 0.000000 0.084467 0.000000 0.000000
# 5 0.000000 0.000000 0.000000 0.000000 0.057829 0.000000
# 6 0.000000 0.000000 0.000000 0.000000 0.000000 0.031378
#
#
# Mechanical properties :
#
#
# Convention : Reuss Voigt Hill
#
# Bulk Modulus (GPa) = 54.46456 57.70183 56.08320
# Shear Modulus (GPa) = 21.28859 25.88303 23.58581
#
# Velocity S-wave (km/s) = 3.24388 3.57683 3.41442
# Velocity P-wave (km/s) = 6.39935 6.75128 6.57767
#
# Compressibility (1/GPa) = 0.01836056
#
# Stress axis : x y z
#
# Youngs Moduli (GPa) = 62.75620 96.60112 95.87348
#
# Poissons Ratio (x) = 0.34950 0.26606
# Poissons Ratio (y) = 0.22705 0.26702
# Poissons Ratio (z) = 0.17415 0.26904
#
# Static dielectric constant tensor:
#      x y z
#    x 3.617280 0.000000 0.000000 
#    y 0.000000 3.716190 0.000000 
#    z 0.000000 0.000000 3.815370 
# 
# 
# High freq. dielectric constant tensor:
#      x y z
#    x 1.786320 0.000000 0.000000 
#    y 0.000000 1.786180 0.000000 
#    z 0.000000 0.000000 1.776440 
# 
# From -- ./inp_files/21043.got.cif
#   From: 2010.03.12/outbox.cif.g09.slc.cpg/sg46_11_cif.got.tgz:21043.got - 2010.04.14 02:56:35.
