data_PCOD8192779
_publ_section_title
;
Structure prediction by ZEFSAII (Michael W. Deem and Ramdas Pophale) SiO2 
 PCOD8192779
Probable space group: I M A 2
;
_chemical_formula_sum "Si O2"
_cell_formula_units_Z 60
_cell_length_a 24.600640
_cell_length_b 12.159342
_cell_length_c 9.911159
_cell_angle_alpha 90.000000
_cell_angle_beta 90.000000
_cell_angle_gamma 90.000000
_cell_volume 2964.701157
_symmetry_space_group_name_H-M "I M A 2"
_symmetry_group_IT_number 46
_symmetry_cell_setting 'orthorhombic'
loop_
_space_group_symop_operation_xyz
x,y,z
-x,-y,z
1/2-x,y,z
1/2+x,-y,z
1/2+x,1/2+y,1/2+z
1/2-x,1/2-y,1/2+z
-x,1/2+y,1/2+z
x,1/2-y,1/2+z
loop_
_atom_site_type_symbol
_atom_site_label
_atom_site_fract_x
_atom_site_fract_y
_atom_site_fract_z
Si Si1 0.389557 0.449286 0.884420
Si Si2 0.918334 0.313351 0.970722
Si Si3 0.689892 0.644640 0.093731
Si Si4 0.812541 0.967812 0.863538
Si Si5 0.394911 0.869093 0.771359
Si Si6 0.371179 0.361477 0.598787
Si Si7 0.963585 0.697518 0.031137
Si Si8 0.000000 0.000000 0.720450
O O1 0.417454 0.568157 0.897424
O O2 0.364344 0.429604 0.737000
O O3 0.346482 0.438345 0.006155
O O4 0.432916 0.351637 0.901753
O O5 0.886723 0.228075 0.878693
O O6 0.895516 0.319132 0.121508
O O7 0.978771 0.262708 0.978031
O O8 0.750000 0.624759 0.038907
O O9 0.685669 0.629635 0.254570
O O10 0.674918 0.771014 0.075109
O O11 0.750000 0.989599 0.911575
O O12 0.837418 0.070290 0.783053
O O13 0.856289 0.947896 0.982252
O O14 0.449478 0.943941 0.801301
O O15 0.430489 0.302883 0.589007
O O16 0.970750 0.596760 0.136042
#
# Coordination Sequence:
#
# PCOD8192779 Si02
#       8
#     8   8   8   8   8   8   8   4
#     4  11  21  40  61  94 131 168 210 262 321 385
#     4  11  24  42  66  89 132 163 222 260 321 383
#     4  10  20  39  65  89 123 169 211 261 326 384
#     4  11  24  45  65  90 132 172 216 274 330 388
#     4  11  24  43  66  94 123 174 214 270 322 388
#     4  11  24  34  65  98 133 160 215 263 323 387
#     4  10  20  40  59  94 130 175 199 257 319 397
#     4  10  20  40  64  92 140 170 208 262 330 388
#
# _framework density 20.238126999999999
#
# number of rings (size 3 to 8) (size 9 to 14) (size 15 to 20)
#    0.000    1.333    4.000    2.800    7.467    2.133 
#    0.000    1.333    0.000    0.000    0.000    0.000 
#    0.000    0.000    0.000    0.000    0.000    0.000 
#
# Total GULP energy -371771.295499 kJ/mol
# GULP energy per Si atom -12392.376517 kJ/mol
# Density = 2.019206 g / cm^3
# Si number density = 20.238127 Si / 1000 Ang^3
#
#
#
# Elastic Constant Matrix: (Units=GPa)
#
#
# Indices 1 2 3 4 5 6 
#
# 1 95.5429 27.7631 44.3961 0.0000 0.0000 0.0000
# 2 27.7631 53.4522 33.2286 0.0000 0.0000 0.0000
# 3 44.3961 33.2286 108.0644 0.0000 0.0000 0.0000
# 4 0.0000 0.0000 0.0000 25.0831 0.0000 0.0000
# 5 0.0000 0.0000 0.0000 0.0000 18.5748 0.0000
# 6 0.0000 0.0000 0.0000 0.0000 0.0000 24.1910
#
#
#
# Elastic Compliance Matrix: (Units=1/GPa)
#
#
# Indices 1 2 3 4 5 6 
#
# 1 0.013756 -0.004490 -0.004271 0.000000 0.000000 0.000000
# 2 -0.004490 0.024595 -0.005718 0.000000 0.000000 0.000000
# 3 -0.004271 -0.005718 0.012767 0.000000 0.000000 0.000000
# 4 0.000000 0.000000 0.000000 0.039868 0.000000 0.000000
# 5 0.000000 0.000000 0.000000 0.000000 0.053836 0.000000
# 6 0.000000 0.000000 0.000000 0.000000 0.000000 0.041338
#
#
# Mechanical properties :
#
#
# Convention : Reuss Voigt Hill
#
# Bulk Modulus (GPa) = 45.12653 51.98168 48.55410
# Shear Modulus (GPa) = 22.47165 23.68122 23.07644
#
# Velocity S-wave (km/s) = 3.33582 3.42443 3.38042
# Velocity P-wave (km/s) = 6.09780 6.43245 6.26736
#
# Compressibility (1/GPa) = 0.02215991
#
# Stress axis : x y z
#
# Youngs Moduli (GPa) = 72.69760 40.65868 78.32997
#
# Poissons Ratio (x) = 0.18255 0.33452
# Poissons Ratio (y) = 0.32640 0.44790
# Poissons Ratio (z) = 0.31047 0.23249
#
# Static dielectric constant tensor:
#      x y z
#    x 3.735660 0.000000 0.000000 
#    y 0.000000 3.500120 0.000000 
#    z 0.000000 0.000000 3.629350 
# 
# 
# High freq. dielectric constant tensor:
#      x y z
#    x 1.786010 0.000000 0.000000 
#    y 0.000000 1.778040 0.000000 
#    z 0.000000 0.000000 1.787990 
# 
# From -- ./inp_files/8212.got.cif
#   From: 2010.03.12/outbox.cif.g09.slc.cpg/sg46_5_cif.got.tgz:8212.got - 2010.04.14 02:56:35.
