data_PCOD8192983
_publ_section_title
;
Structure prediction by ZEFSAII (Michael W. Deem and Ramdas Pophale) SiO2 
 PCOD8192983
Probable space group: I M A 2
;
_chemical_formula_sum "Si O2"
_cell_formula_units_Z 24
_cell_length_a 30.202115
_cell_length_b 7.384386
_cell_length_c 5.021648
_cell_angle_alpha 90.000000
_cell_angle_beta 90.000000
_cell_angle_gamma 90.000000
_cell_volume 1119.948401
_symmetry_space_group_name_H-M "I M A 2"
_symmetry_group_IT_number 46
_symmetry_cell_setting 'orthorhombic'
loop_
_space_group_symop_operation_xyz
x,y,z
-x,-y,z
1/2-x,y,z
1/2+x,-y,z
1/2+x,1/2+y,1/2+z
1/2-x,1/2-y,1/2+z
-x,1/2+y,1/2+z
x,1/2-y,1/2+z
loop_
_atom_site_type_symbol
_atom_site_label
_atom_site_fract_x
_atom_site_fract_y
_atom_site_fract_z
Si Si1 0.300884 0.868422 0.430260
Si Si2 0.621742 0.869984 0.349138
Si Si3 0.540857 0.130057 0.350810
O O1 0.250000 0.929497 0.405062
O O2 0.312132 0.788089 0.718640
O O3 0.329494 0.047315 0.382829
O O4 0.615234 0.705318 0.553030
O O5 0.586264 0.025544 0.403714
O O6 0.538593 0.299793 0.549347
O O7 0.500000 0.000000 0.409432
#
# Coordination Sequence:
#
# PCOD8192983 Si02
#       3
#     8   8   8
#     4  10  21  39  61  85 116 156 198 240 291 346
#     4  12  24  39  60  89 121 154 195 240 291 346
#     4  12  24  42  64  88 119 154 195 240 291 346
#
# _framework density 21.429559999999999
#
# number of rings (size 3 to 8) (size 9 to 14) (size 15 to 20)
#    0.000    0.667    0.000    9.000    0.000    1.333 
#    0.000    0.000    0.000    0.000    0.000    0.000 
#    0.000    0.000    0.000    0.000    0.000    0.000 
#
# Total GULP energy -148936.094244 kJ/mol
# GULP energy per Si atom -12411.341187 kJ/mol
# Density = 2.138079 g / cm^3
# Si number density = 21.429560 Si / 1000 Ang^3
#
#
#
# Elastic Constant Matrix: (Units=GPa)
#
#
# Indices 1 2 3 4 5 6 
#
# 1 115.6504 50.2952 23.4872 0.0000 0.0000 0.0000
# 2 50.2952 83.9256 14.4176 0.0001 0.0000 0.0001
# 3 23.4872 14.4176 79.1411 0.0000 0.0000 0.0000
# 4 0.0000 0.0001 0.0000 50.9284 0.0000 0.0001
# 5 0.0000 0.0000 0.0000 0.0000 27.2758 0.0000
# 6 0.0000 0.0001 0.0000 0.0001 0.0000 51.0218
#
#
#
# Elastic Compliance Matrix: (Units=1/GPa)
#
#
# Indices 1 2 3 4 5 6 
#
# 1 0.012102 -0.006850 -0.002344 0.000000 0.000000 0.000000
# 2 -0.006850 0.016177 -0.000914 0.000000 0.000000 0.000000
# 3 -0.002344 -0.000914 0.013498 0.000000 0.000000 0.000000
# 4 0.000000 0.000000 0.000000 0.019635 0.000000 0.000000
# 5 0.000000 0.000000 0.000000 0.000000 0.036663 0.000000
# 6 0.000000 0.000000 0.000000 0.000000 0.000000 0.019599
#
#
# Mechanical properties :
#
#
# Convention : Reuss Voigt Hill
#
# Bulk Modulus (GPa) = 46.37907 50.56858 48.47383
# Shear Modulus (GPa) = 34.46463 38.54633 36.50548
#
# Velocity S-wave (km/s) = 4.01468 4.24576 4.13184
# Velocity P-wave (km/s) = 6.57113 6.90537 6.74032
#
# Compressibility (1/GPa) = 0.02156145
#
# Stress axis : x y z
#
# Youngs Moduli (GPa) = 82.63394 61.81511 74.08644
#
# Poissons Ratio (x) = 0.42341 0.17363
# Poissons Ratio (y) = 0.56601 0.06774
# Poissons Ratio (z) = 0.19366 0.05652
#
# Static dielectric constant tensor:
#      x y z
#    x 4.020770 0.000000 0.000000 
#    y 0.000000 3.628820 0.000000 
#    z 0.000000 0.000000 3.978840 
# 
# 
# High freq. dielectric constant tensor:
#      x y z
#    x 1.855820 0.000000 0.000000 
#    y 0.000000 1.838050 0.000000 
#    z 0.000000 0.000000 1.857850 
# 
# From -- ./inp_files/2240.got.cif
#   From: 2010.03.12/outbox.cif.g09.slc.cpg/sg46_2_cif.got.tgz:2240.got - 2010.04.14 02:56:35.
