data_PCOD8192085
_publ_section_title
;
Structure prediction by ZEFSAII (Michael W. Deem and Ramdas Pophale) SiO2 
 PCOD8192085
Probable space group: I M A 2
;
_chemical_formula_sum "Si O2"
_cell_formula_units_Z 64
_cell_length_a 8.861707
_cell_length_b 33.280970
_cell_length_c 11.405559
_cell_angle_alpha 90.000000
_cell_angle_beta 90.000000
_cell_angle_gamma 90.000000
_cell_volume 3363.798230
_symmetry_space_group_name_H-M "I M A 2"
_symmetry_group_IT_number 46
_symmetry_cell_setting 'orthorhombic'
loop_
_space_group_symop_operation_xyz
x,y,z
-x,-y,z
1/2-x,y,z
1/2+x,-y,z
1/2+x,1/2+y,1/2+z
1/2-x,1/2-y,1/2+z
-x,1/2+y,1/2+z
x,1/2-y,1/2+z
loop_
_atom_site_type_symbol
_atom_site_label
_atom_site_fract_x
_atom_site_fract_y
_atom_site_fract_z
Si Si1 0.577036 0.892945 0.043140
Si Si2 0.071153 0.543111 0.137523
Si Si3 0.573519 0.693902 0.190212
Si Si4 0.074607 0.541027 0.402756
Si Si5 0.927355 0.879879 0.523378
Si Si6 0.417964 0.675218 0.422501
Si Si7 0.580624 0.273235 0.650170
Si Si8 0.073243 0.345657 0.772961
O O1 0.750000 0.905804 0.031207
O O2 0.536022 0.878907 0.174133
O O3 0.471627 0.929317 0.006254
O O4 0.542737 0.857943 0.951029
O O5 0.250000 0.539798 0.122376
O O6 0.023940 0.554335 0.271415
O O7 0.000000 0.500000 0.101735
O O8 0.010631 0.578595 0.054322
O O9 0.750000 0.693649 0.219107
O O10 0.528230 0.655181 0.113852
O O11 0.471683 0.696058 0.304985
O O12 0.528209 0.735310 0.127699
O O13 0.250000 0.534516 0.404452
O O14 0.000000 0.500000 0.439193
O O15 0.750000 0.888510 0.524720
O O16 0.980377 0.864672 0.395538
O O17 0.250000 0.656163 0.406613
O O18 0.413053 0.707937 0.522688
O O19 0.750000 0.261138 0.690684
O O20 0.514683 0.304411 0.746197
O O21 0.250000 0.335115 0.774497
#
# Coordination Sequence:
#
# PCOD8192085 Si02
#       8
#     8   8   8   8   8   8   8   8
#     4  10  19  34  57  81 108 143 183 227 276 333
#     4  10  21  37  59  86 116 151 186 232 286 340
#     4  11  23  36  56  83 112 146 186 234 284 339
#     4  10  20  34  55  84 116 146 181 229 283 338
#     4  10  22  39  58  84 114 149 192 238 283 339
#     4  10  21  37  55  78 108 142 181 226 277 330
#     4  10  22  38  56  80 110 145 186 235 286 336
#     4   9  20  39  59  80 110 150 192 233 282 339
#
# _framework density 19.026111
#
# number of rings (size 3 to 8) (size 9 to 14) (size 15 to 20)
#    0.000    2.000    0.000    3.000    1.750    7.000 
#    0.000    0.625    0.000    0.000    0.000    0.000 
#    0.000    0.000    0.000    0.000    0.000    0.000 
#
# Total GULP energy -396789.626562 kJ/mol
# GULP energy per Si atom -12399.675830 kJ/mol
# Density = 1.898281 g / cm^3
# Si number density = 19.026111 Si / 1000 Ang^3
#
#
#
# Elastic Constant Matrix: (Units=GPa)
#
#
# Indices 1 2 3 4 5 6 
#
# 1 69.2604 46.7553 49.9128 -0.0005 -0.0003 -0.0001
# 2 46.7553 121.2914 53.8899 -0.0011 -0.0008 -0.0001
# 3 49.9128 53.8899 75.5047 -0.0017 -0.0010 0.0000
# 4 -0.0005 -0.0011 -0.0017 21.8210 -0.0011 -0.0001
# 5 -0.0003 -0.0008 -0.0010 -0.0011 23.7780 -0.0001
# 6 -0.0001 -0.0001 0.0000 -0.0001 -0.0001 38.9614
#
#
#
# Elastic Compliance Matrix: (Units=1/GPa)
#
#
# Indices 1 2 3 4 5 6 
#
# 1 0.028761 -0.003865 -0.016254 -0.000001 0.000000 0.000000
# 2 -0.003865 0.012593 -0.006433 0.000000 0.000000 0.000000
# 3 -0.016254 -0.006433 0.028580 0.000002 0.000001 0.000000
# 4 -0.000001 0.000000 0.000002 0.045827 0.000002 0.000000
# 5 0.000000 0.000000 0.000001 0.000002 0.042056 0.000000
# 6 0.000000 0.000000 0.000000 0.000000 0.000000 0.025666
#
#
# Mechanical properties :
#
#
# Convention : Reuss Voigt Hill
#
# Bulk Modulus (GPa) = 59.41674 63.01917 61.21796
# Shear Modulus (GPa) = 20.64438 24.61197 22.62818
#
# Velocity S-wave (km/s) = 3.29759 3.60055 3.45240
# Velocity P-wave (km/s) = 6.76725 7.10490 6.93813
#
# Compressibility (1/GPa) = 0.01683027
#
# Stress axis : x y z
#
# Youngs Moduli (GPa) = 34.76933 79.41208 34.98933
#
# Poissons Ratio (x) = 0.30694 0.56872
# Poissons Ratio (y) = 0.13439 0.22507
# Poissons Ratio (z) = 0.56514 0.51083
#
# Static dielectric constant tensor:
#      x y z
#    x 4.114940 0.000010 0.000000 
#    y 0.000010 3.340670 0.000000 
#    z 0.000000 0.000000 3.480040 
# 
# 
# High freq. dielectric constant tensor:
#      x y z
#    x 1.749220 0.000000 0.000000 
#    y 0.000000 1.740360 0.000000 
#    z 0.000000 0.000000 1.733590 
# 
# From -- ./inp_files/9705.got.cif
#   From: 2010.03.12/outbox.cif.g09.slc.cpg/sg46_5_cif.got.tgz:9705.got - 2010.04.14 02:56:35.
