data_PCOD8192827
_publ_section_title
;
Structure prediction by ZEFSAII (Michael W. Deem and Ramdas Pophale) SiO2 
 PCOD8192827
Probable space group: I M A 2
;
_chemical_formula_sum "Si O2"
_cell_formula_units_Z 48
_cell_length_a 19.861290
_cell_length_b 14.944051
_cell_length_c 8.427985
_cell_angle_alpha 90.000000
_cell_angle_beta 90.000000
_cell_angle_gamma 90.000000
_cell_volume 2501.494473
_symmetry_space_group_name_H-M "I M A 2"
_symmetry_group_IT_number 46
_symmetry_cell_setting 'orthorhombic'
loop_
_space_group_symop_operation_xyz
x,y,z
-x,-y,z
1/2-x,y,z
1/2+x,-y,z
1/2+x,1/2+y,1/2+z
1/2-x,1/2-y,1/2+z
-x,1/2+y,1/2+z
x,1/2-y,1/2+z
loop_
_atom_site_type_symbol
_atom_site_label
_atom_site_fract_x
_atom_site_fract_y
_atom_site_fract_z
Si Si1 0.422875 0.514470 0.771940
Si Si2 0.388401 0.341452 0.625434
Si Si3 0.673083 0.820546 0.791383
Si Si4 0.543403 0.132604 0.750017
Si Si5 0.591301 0.539280 0.133178
Si Si6 0.958962 0.184474 0.114685
O O1 0.500000 0.500000 0.722613
O O2 0.376037 0.444547 0.675896
O O3 0.410245 0.616286 0.712670
O O4 0.409902 0.498779 0.956041
O O5 0.336806 0.277288 0.717108
O O6 0.376919 0.333232 0.438469
O O7 0.463988 0.314576 0.677590
O O8 0.750000 0.830770 0.845411
O O9 0.655841 0.897591 0.662109
O O10 0.473864 0.098932 0.672038
O O11 0.569970 0.216166 0.645605
O O12 0.595219 0.049265 0.743265
O O13 0.537790 0.161605 0.930642
#
# Coordination Sequence:
#
# PCOD8192827 Si02
#       6
#     8   8   8   8   8   8
#     4  10  21  33  57  79 114 144 185 231 296 341
#     4  11  21  35  52  78 111 151 192 234 269 338
#     4  12  24  38  55  78 115 162 201 233 273 324
#     4  11  21  32  56  82 116 145 183 226 298 343
#     4  11  21  36  53  83 111 152 187 238 277 345
#     4  11  20  34  54  85 113 151 175 232 289 350
#
# _framework density 19.188528999999999
#
# number of rings (size 3 to 8) (size 9 to 14) (size 15 to 20)
#    0.000    1.000    5.000    3.500    7.000    0.000 
#    0.000    0.833    0.000    0.000    0.000   11.667 
#    0.000    0.000    0.000    0.000    0.000    0.000 
#
# Total GULP energy -297550.863313 kJ/mol
# GULP energy per Si atom -12397.952638 kJ/mol
# Density = 1.914486 g / cm^3
# Si number density = 19.188529 Si / 1000 Ang^3
#
#
#
# Elastic Constant Matrix: (Units=GPa)
#
#
# Indices 1 2 3 4 5 6 
#
# 1 44.6921 31.6126 10.2626 0.0000 0.0000 0.0000
# 2 31.6126 174.2970 50.0838 0.0000 0.0000 0.0000
# 3 10.2626 50.0838 114.6001 0.0000 0.0000 0.0000
# 4 0.0000 0.0000 0.0000 41.1163 0.0000 0.0000
# 5 0.0000 0.0000 0.0000 0.0000 12.4568 0.0000
# 6 0.0000 0.0000 0.0000 0.0000 0.0000 15.6167
#
#
#
# Elastic Compliance Matrix: (Units=1/GPa)
#
#
# Indices 1 2 3 4 5 6 
#
# 1 0.025678 -0.004570 -0.000302 0.000000 0.000000 0.000000
# 2 -0.004570 0.007375 -0.002814 0.000000 0.000000 0.000000
# 3 -0.000302 -0.002814 0.009983 0.000000 0.000000 0.000000
# 4 0.000000 0.000000 0.000000 0.024321 0.000000 0.000000
# 5 0.000000 0.000000 0.000000 0.000000 0.080277 0.000000
# 6 0.000000 0.000000 0.000000 0.000000 0.000000 0.064034
#
#
# Mechanical properties :
#
#
# Convention : Reuss Voigt Hill
#
# Bulk Modulus (GPa) = 36.14975 57.50080 46.82527
# Shear Modulus (GPa) = 21.16305 29.94664 25.55484
#
# Velocity S-wave (km/s) = 3.32460 3.95480 3.65331
# Velocity P-wave (km/s) = 5.79805 7.13338 6.50010
#
# Compressibility (1/GPa) = 0.02766271
#
# Stress axis : x y z
#
# Youngs Moduli (GPa) = 38.94456 135.59711 100.17296
#
# Poissons Ratio (x) = 0.61973 0.03026
# Poissons Ratio (y) = 0.17799 0.28186
# Poissons Ratio (z) = 0.01176 0.38153
#
# Static dielectric constant tensor:
#      x y z
#    x 2.991140 0.000000 0.000000 
#    y 0.000000 4.140450 0.000000 
#    z 0.000000 0.000000 3.509680 
# 
# 
# High freq. dielectric constant tensor:
#      x y z
#    x 1.668580 0.000000 0.000000 
#    y 0.000000 1.770330 0.000000 
#    z 0.000000 0.000000 1.761200 
# 
# From -- ./inp_files/7300.got.cif
#   From: 2010.03.12/outbox.cif.g09.slc.cpg/sg46_4_cif.got.tgz:7300.got - 2010.04.14 02:56:35.
