data_PCOD8192872
_publ_section_title
;
Structure prediction by ZEFSAII (Michael W. Deem and Ramdas Pophale) SiO2 
 PCOD8192872
Probable space group: I M A 2
;
_chemical_formula_sum "Si O2"
_cell_formula_units_Z 64
_cell_length_a 17.411906
_cell_length_b 22.180117
_cell_length_c 7.823688
_cell_angle_alpha 90.000000
_cell_angle_beta 90.000000
_cell_angle_gamma 90.000000
_cell_volume 3021.493537
_symmetry_space_group_name_H-M "I M A 2"
_symmetry_group_IT_number 46
_symmetry_cell_setting 'orthorhombic'
loop_
_space_group_symop_operation_xyz
x,y,z
-x,-y,z
1/2-x,y,z
1/2+x,-y,z
1/2+x,1/2+y,1/2+z
1/2-x,1/2-y,1/2+z
-x,1/2+y,1/2+z
x,1/2-y,1/2+z
loop_
_atom_site_type_symbol
_atom_site_label
_atom_site_fract_x
_atom_site_fract_y
_atom_site_fract_z
Si Si1 0.400866 0.109330 0.800110
Si Si2 0.161125 0.188629 0.099360
Si Si3 0.333401 0.886815 0.525443
Si Si4 0.439057 0.619700 0.455309
Si Si5 0.662584 0.284020 0.281430
Si Si6 0.442793 0.830687 0.300962
Si Si7 0.339594 0.523252 0.331668
Si Si8 0.401381 0.187267 0.471313
O O1 0.493052 0.113308 0.816705
O O2 0.372286 0.041508 0.787718
O O3 0.377938 0.140937 0.621295
O O4 0.358377 0.136148 0.965754
O O5 0.250000 0.204588 0.084832
O O6 0.143658 0.171076 0.296655
O O7 0.113714 0.246740 0.043664
O O8 0.250000 0.901158 0.447854
O O9 0.335363 0.818554 0.600272
O O10 0.395566 0.887470 0.376264
O O11 0.353881 0.935968 0.665951
O O12 0.377603 0.671566 0.415149
O O13 0.480050 0.640550 0.630803
O O14 0.391908 0.556456 0.475532
O O15 0.750000 0.270075 0.342869
O O16 0.613783 0.223925 0.256377
O O17 0.508172 0.811517 0.433252
O O18 0.250000 0.521066 0.385598
#
# Coordination Sequence:
#
# PCOD8192872 Si02
#       8
#     8   8   8   8   8   8   8   8
#     4  12  25  47  71  97 131 178 225 277 334 403
#     4  12  26  44  69 103 136 172 220 276 342 406
#     4   9  20  38  59  91 132 172 219 270 330 395
#     4  11  23  41  64  95 135 174 222 277 331 393
#     4  10  21  36  60  92 131 179 221 263 326 400
#     4  12  23  36  62 100 135 175 224 270 329 403
#     4  10  23  45  69  90 123 178 227 275 340 398
#     4  12  26  43  70 102 136 174 221 275 343 401
#
# _framework density 21.181577999999998
#
# number of rings (size 3 to 8) (size 9 to 14) (size 15 to 20)
#    0.000    1.000    2.500    5.625    1.750    4.500 
#    2.250    0.000    0.000    0.000    0.000    0.000 
#    0.000    0.000    0.000    0.000    0.000    0.000 
#
# Total GULP energy -396753.195300 kJ/mol
# GULP energy per Si atom -12398.537353 kJ/mol
# Density = 2.113337 g / cm^3
# Si number density = 21.181578 Si / 1000 Ang^3
#
#
#
# Elastic Constant Matrix: (Units=GPa)
#
#
# Indices 1 2 3 4 5 6 
#
# 1 101.1016 39.4522 33.7420 0.0000 0.0000 0.0000
# 2 39.4522 118.1725 41.3244 0.0000 0.0000 0.0000
# 3 33.7420 41.3244 111.7626 0.0000 0.0000 0.0000
# 4 0.0000 0.0000 0.0000 12.7646 0.0000 0.0000
# 5 0.0000 0.0000 0.0000 0.0000 28.1106 0.0000
# 6 0.0000 0.0000 0.0000 0.0000 0.0000 30.6318
#
#
#
# Elastic Compliance Matrix: (Units=1/GPa)
#
#
# Indices 1 2 3 4 5 6 
#
# 1 0.011927 -0.003127 -0.002445 0.000000 0.000000 0.000000
# 2 -0.003127 0.010539 -0.002953 0.000000 0.000000 0.000000
# 3 -0.002445 -0.002953 0.010777 0.000000 0.000000 0.000000
# 4 0.000000 0.000000 0.000000 0.078342 0.000000 0.000000
# 5 0.000000 0.000000 0.000000 0.000000 0.035574 0.000000
# 6 0.000000 0.000000 0.000000 0.000000 0.000000 0.032646
#
#
# Mechanical properties :
#
#
# Convention : Reuss Voigt Hill
#
# Bulk Modulus (GPa) = 61.74918 62.23042 61.98980
# Shear Modulus (GPa) = 24.72173 28.73594 26.72883
#
# Velocity S-wave (km/s) = 3.42004 3.68727 3.55616
# Velocity P-wave (km/s) = 6.69411 6.89719 6.79641
#
# Compressibility (1/GPa) = 0.01619455
#
# Stress axis : x y z
#
# Youngs Moduli (GPa) = 83.84211 94.88846 92.78720
#
# Poissons Ratio (x) = 0.29672 0.22684
# Poissons Ratio (y) = 0.26218 0.27397
# Poissons Ratio (z) = 0.20497 0.28017
#
# Static dielectric constant tensor:
#      x y z
#    x 3.969940 0.000000 0.000000 
#    y 0.000000 3.734510 0.000000 
#    z 0.000000 0.000000 3.946630 
# 
# 
# High freq. dielectric constant tensor:
#      x y z
#    x 1.847830 0.000000 0.000000 
#    y 0.000000 1.815970 0.000000 
#    z 0.000000 0.000000 1.827440 
# 
# From -- ./inp_files/6969.got.cif
#   From: 2010.03.12/outbox.cif.g09.slc.cpg/sg46_4_cif.got.tgz:6969.got - 2010.04.14 02:56:35.
