data_PCOD8192921
_publ_section_title
;
Structure prediction by ZEFSAII (Michael W. Deem and Ramdas Pophale) SiO2 
 PCOD8192921
Probable space group: I M A 2
;
_chemical_formula_sum "Si O2"
_cell_formula_units_Z 56
_cell_length_a 14.661866
_cell_length_b 12.412927
_cell_length_c 13.227595
_cell_angle_alpha 90.000000
_cell_angle_beta 90.000000
_cell_angle_gamma 90.000000
_cell_volume 2407.378273
_symmetry_space_group_name_H-M "I M A 2"
_symmetry_group_IT_number 46
_symmetry_cell_setting 'orthorhombic'
loop_
_space_group_symop_operation_xyz
x,y,z
-x,-y,z
1/2-x,y,z
1/2+x,-y,z
1/2+x,1/2+y,1/2+z
1/2-x,1/2-y,1/2+z
-x,1/2+y,1/2+z
x,1/2-y,1/2+z
loop_
_atom_site_type_symbol
_atom_site_label
_atom_site_fract_x
_atom_site_fract_y
_atom_site_fract_z
Si Si1 0.647118 0.686661 0.265210
Si Si2 0.643534 0.462104 0.348730
Si Si3 0.587184 0.952000 0.056107
Si Si4 0.858946 0.272495 0.196073
Si Si5 0.532094 0.777931 0.576668
Si Si6 0.649596 0.463114 0.749228
Si Si7 0.854544 0.622872 0.915387
O O1 0.750000 0.681756 0.221023
O O2 0.610246 0.566926 0.288586
O O3 0.578241 0.734499 0.185041
O O4 0.645474 0.760019 0.364180
O O5 0.750000 0.469133 0.366210
O O6 0.601962 0.467634 0.461040
O O7 0.616629 0.355367 0.286379
O O8 0.563928 0.831530 0.019806
O O9 0.500000 0.000000 0.115470
O O10 0.661402 0.967482 0.144706
O O11 0.750000 0.277498 0.167191
O O12 0.893179 0.155377 0.233772
O O13 0.922737 0.295950 0.096474
O O14 0.576381 0.874897 0.511304
O O15 0.750000 0.441253 0.790068
O O16 0.603548 0.533972 0.838053
O O17 0.750000 0.597055 0.949997
#
# Coordination Sequence:
#
# PCOD8192921 Si02
#       7
#     8   8   8   8   8   8   8
#     4  10  21  37  65 102 141 173 214 285 356 412
#     4  10  23  43  68  98 138 181 227 278 339 419
#     4  12  23  37  65 104 131 171 234 284 338 402
#     4  10  24  46  69  96 140 196 236 277 336 408
#     4  12  23  39  70 104 139 178 227 293 348 417
#     4  10  21  42  68  97 140 183 227 282 342 411
#     4  10  21  38  68 109 141 174 222 290 363 411
#
# _framework density 23.261818999999999
#
# number of rings (size 3 to 8) (size 9 to 14) (size 15 to 20)
#    0.000    1.429    4.286    0.857    2.000    1.143 
#    0.000    1.429    9.429    6.857    0.000    1.000 
#    0.000    0.000    0.000    0.000    0.000    0.000 
#
# Total GULP energy -346884.165912 kJ/mol
# GULP energy per Si atom -12388.720211 kJ/mol
# Density = 2.320887 g / cm^3
# Si number density = 23.261819 Si / 1000 Ang^3
#
#
#
# Elastic Constant Matrix: (Units=GPa)
#
#
# Indices 1 2 3 4 5 6 
#
# 1 85.1274 40.8877 58.3476 0.0000 0.0000 0.0000
# 2 40.8877 101.7790 42.4502 0.0000 0.0000 0.0000
# 3 58.3476 42.4502 109.5328 0.0000 0.0000 0.0000
# 4 0.0000 0.0000 0.0000 31.1569 0.0000 0.0000
# 5 0.0000 0.0000 0.0000 0.0000 25.2382 0.0000
# 6 0.0000 0.0000 0.0000 0.0000 0.0000 26.4915
#
#
#
# Elastic Compliance Matrix: (Units=1/GPa)
#
#
# Indices 1 2 3 4 5 6 
#
# 1 0.019947 -0.004272 -0.008970 0.000000 0.000000 0.000000
# 2 -0.004272 0.012635 -0.002621 0.000000 0.000000 0.000000
# 3 -0.008970 -0.002621 0.014924 0.000000 0.000000 0.000000
# 4 0.000000 0.000000 0.000000 0.032096 0.000000 0.000000
# 5 0.000000 0.000000 0.000000 0.000000 0.039623 0.000000
# 6 0.000000 0.000000 0.000000 0.000000 0.000000 0.037748
#
#
# Mechanical properties :
#
#
# Convention : Reuss Voigt Hill
#
# Bulk Modulus (GPa) = 63.37395 64.42336 63.89865
# Shear Modulus (GPa) = 25.77879 26.89424 26.33651
#
# Velocity S-wave (km/s) = 3.33258 3.40391 3.36844
# Velocity P-wave (km/s) = 6.48930 6.57296 6.53127
#
# Compressibility (1/GPa) = 0.01577936
#
# Stress axis : x y z
#
# Youngs Moduli (GPa) = 50.13188 79.14787 67.00716
#
# Poissons Ratio (x) = 0.33813 0.60107
# Poissons Ratio (y) = 0.21417 0.17562
# Poissons Ratio (z) = 0.44969 0.20743
#
# Static dielectric constant tensor:
#      x y z
#    x 4.262730 0.000000 0.000000 
#    y 0.000000 4.331470 0.000000 
#    z 0.000000 0.000000 3.834240 
# 
# 
# High freq. dielectric constant tensor:
#      x y z
#    x 1.923050 0.000000 0.000000 
#    y 0.000000 1.917890 0.000000 
#    z 0.000000 0.000000 1.900700 
# 
# From -- ./inp_files/15953.got.cif
#   From: 2010.03.12/outbox.cif.g09.slc.cpg/sg46_8_cif.got.tgz:15953.got - 2010.04.14 02:56:35.
