data_PCOD8192038
_publ_section_title
;
Structure prediction by ZEFSAII (Michael W. Deem and Ramdas Pophale) SiO2 
 PCOD8192038
Probable space group: I M A 2
;
_chemical_formula_sum "Si O2"
_cell_formula_units_Z 64
_cell_length_a 8.725613
_cell_length_b 20.158490
_cell_length_c 19.821460
_cell_angle_alpha 90.000000
_cell_angle_beta 90.000000
_cell_angle_gamma 90.000000
_cell_volume 3486.499322
_symmetry_space_group_name_H-M "I M A 2"
_symmetry_group_IT_number 46
_symmetry_cell_setting 'orthorhombic'
loop_
_space_group_symop_operation_xyz
x,y,z
-x,-y,z
1/2-x,y,z
1/2+x,-y,z
1/2+x,1/2+y,1/2+z
1/2-x,1/2-y,1/2+z
-x,1/2+y,1/2+z
x,1/2-y,1/2+z
loop_
_atom_site_type_symbol
_atom_site_label
_atom_site_fract_x
_atom_site_fract_y
_atom_site_fract_z
Si Si1 0.929451 0.679566 0.630580
Si Si2 0.067203 0.929108 0.878169
Si Si3 0.429108 0.069091 0.370468
Si Si4 0.568513 0.320036 0.120395
Si Si5 0.068500 0.825009 0.272601
Si Si6 0.929915 0.569528 0.520588
Si Si7 0.928640 0.568952 0.027337
Si Si8 0.569198 0.175900 0.771311
O O1 0.750000 0.691975 0.638421
O O2 0.967964 0.623516 0.576505
O O3 0.007598 0.746734 0.604488
O O4 0.996930 0.653944 0.701243
O O5 0.250000 0.932230 0.878229
O O6 0.000244 0.876359 0.824284
O O7 0.008321 0.906971 0.951327
O O8 0.000000 0.000000 0.857303
O O9 0.250000 0.068352 0.354921
O O10 0.508180 0.128745 0.331581
O O11 0.465405 0.079928 0.448923
O O12 0.500000 0.000000 0.344999
O O13 0.750000 0.318828 0.114443
O O14 0.501925 0.370450 0.066662
O O15 0.514467 0.341584 0.195457
O O16 0.250000 0.830741 0.266571
O O17 0.015698 0.750145 0.290357
O O18 0.750000 0.560578 0.508123
O O19 0.000000 0.500000 0.545199
O O20 0.750000 0.566525 0.042261
O O21 0.000000 0.500000 0.053068
O O22 0.750000 0.171992 0.774694
#
# Coordination Sequence:
#
# PCOD8192038 Si02
#       8
#     8   8   8   8   8   8   8   8
#     4  10  21  37  55  78 109 142 179 222 267 318
#     4  10  19  34  54  76 105 137 173 215 260 310
#     4  10  21  37  56  79 108 141 177 219 267 320
#     4  10  20  36  57  80 108 142 181 223 269 320
#     4  10  20  36  57  80 107 139 178 221 266 318
#     4  10  21  36  54  77 105 136 174 217 261 312
#     4  10  21  37  56  80 110 143 181 224 270 322
#     4   8  18  35  53  76 105 138 175 215 259 312
#
# _framework density 18.356521999999998
#
# number of rings (size 3 to 8) (size 9 to 14) (size 15 to 20)
#    0.000    2.250    0.000    4.125    0.000    5.500 
#    0.000   12.500    0.000    0.000    0.000    0.000 
#    0.000    0.000    0.000    0.000    0.000    0.000 
#
# Total GULP energy -396856.460383 kJ/mol
# GULP energy per Si atom -12401.764387 kJ/mol
# Density = 1.831474 g / cm^3
# Si number density = 18.356522 Si / 1000 Ang^3
#
#
#
# Elastic Constant Matrix: (Units=GPa)
#
#
# Indices 1 2 3 4 5 6 
#
# 1 84.5307 54.3185 55.0285 0.0000 0.0000 0.0000
# 2 54.3185 125.7870 88.5900 0.0000 0.0000 0.0000
# 3 55.0285 88.5900 104.0404 0.0000 0.0000 0.0000
# 4 0.0000 0.0000 0.0000 41.4025 0.0000 0.0000
# 5 0.0000 0.0000 0.0000 0.0000 30.9404 0.0000
# 6 0.0000 0.0000 0.0000 0.0000 0.0000 34.1417
#
#
#
# Elastic Compliance Matrix: (Units=1/GPa)
#
#
# Indices 1 2 3 4 5 6 
#
# 1 0.018410 -0.002728 -0.007414 0.000000 0.000000 0.000000
# 2 -0.002728 0.020264 -0.015812 0.000000 0.000000 0.000000
# 3 -0.007414 -0.015812 0.026997 0.000000 0.000000 0.000000
# 4 0.000000 0.000000 0.000000 0.024153 0.000000 0.000000
# 5 0.000000 0.000000 0.000000 0.000000 0.032320 0.000000
# 6 0.000000 0.000000 0.000000 0.000000 0.000000 0.029290
#
#
# Mechanical properties :
#
#
# Convention : Reuss Voigt Hill
#
# Bulk Modulus (GPa) = 72.66223 78.91468 75.78845
# Shear Modulus (GPa) = 24.04667 29.05833 26.55250
#
# Velocity S-wave (km/s) = 3.62329 3.98301 3.80740
# Velocity P-wave (km/s) = 7.56136 8.01472 7.79134
#
# Compressibility (1/GPa) = 0.01376231
#
# Stress axis : x y z
#
# Youngs Moduli (GPa) = 54.31949 49.34839 37.04148
#
# Poissons Ratio (x) = 0.13463 0.27463
# Poissons Ratio (y) = 0.14819 0.58569
# Poissons Ratio (z) = 0.40273 0.78029
#
# Static dielectric constant tensor:
#      x y z
#    x 3.430520 0.000000 0.000000 
#    y 0.000000 3.423590 0.000000 
#    z 0.000000 0.000000 3.483520 
# 
# 
# High freq. dielectric constant tensor:
#      x y z
#    x 1.719840 0.000000 0.000000 
#    y 0.000000 1.718170 0.000000 
#    z 0.000000 0.000000 1.713310 
# 
# From -- ./inp_files/21322.got.cif
#   From: 2010.03.12/outbox.cif.g09.slc.cpg/sg46_11_cif.got.tgz:21322.got - 2010.04.14 02:56:35.
