data_PCOD8192918
_publ_section_title
;
Structure prediction by ZEFSAII (Michael W. Deem and Ramdas Pophale) SiO2 
 PCOD8192918
Probable space group: I M A 2
;
_chemical_formula_sum "Si O2"
_cell_formula_units_Z 48
_cell_length_a 15.337580
_cell_length_b 11.494883
_cell_length_c 13.282805
_cell_angle_alpha 90.000000
_cell_angle_beta 90.000000
_cell_angle_gamma 90.000000
_cell_volume 2341.807503
_symmetry_space_group_name_H-M "I M A 2"
_symmetry_group_IT_number 46
_symmetry_cell_setting 'orthorhombic'
loop_
_space_group_symop_operation_xyz
x,y,z
-x,-y,z
1/2-x,y,z
1/2+x,-y,z
1/2+x,1/2+y,1/2+z
1/2-x,1/2-y,1/2+z
-x,1/2+y,1/2+z
x,1/2-y,1/2+z
loop_
_atom_site_type_symbol
_atom_site_label
_atom_site_fract_x
_atom_site_fract_y
_atom_site_fract_z
Si Si1 0.887900 0.873672 0.109460
Si Si2 0.011101 0.634129 0.874330
Si Si3 0.349870 0.232589 0.787036
Si Si4 0.932096 0.321227 0.520454
Si Si5 0.845553 0.518775 0.408883
Si Si6 0.151871 0.888525 0.208348
O O1 0.858678 0.754871 0.166454
O O2 0.989991 0.873473 0.086817
O O3 0.866885 0.975815 0.188660
O O4 0.837865 0.893743 0.004958
O O5 0.082759 0.659377 0.788729
O O6 0.000000 0.500000 0.901051
O O7 0.916883 0.683912 0.845249
O O8 0.045574 0.696269 0.975518
O O9 0.250000 0.256347 0.822028
O O10 0.375056 0.098377 0.813925
O O11 0.911674 0.412702 0.429858
O O12 0.854101 0.317180 0.602157
O O13 0.750000 0.465419 0.388386
O O14 0.250000 0.872235 0.250237
#
# Coordination Sequence:
#
# PCOD8192918 Si02
#       6
#     8   8   8   8   8   8
#     4  11  19  36  61  90 120 159 203 259 305 358
#     4  12  24  40  63  92 127 169 209 250 316 373
#     4  11  22  37  61  93 124 156 208 266 311 362
#     4  11  22  39  63  90 127 160 208 260 308 370
#     4  10  21  37  62  94 121 160 212 258 314 369
#     4  11  22  39  65  92 120 162 216 260 302 368
#
# _framework density 20.496988999999999
#
# number of rings (size 3 to 8) (size 9 to 14) (size 15 to 20)
#    0.000    1.000    5.000    5.000    0.000    1.333 
#    0.000    1.667    0.000    0.000    0.000    0.000 
#    0.000    0.000    0.000    0.000    0.000    0.000 
#
# Total GULP energy -297465.280355 kJ/mol
# GULP energy per Si atom -12394.386681 kJ/mol
# Density = 2.045034 g / cm^3
# Si number density = 20.496989 Si / 1000 Ang^3
#
#
#
# Elastic Constant Matrix: (Units=GPa)
#
#
# Indices 1 2 3 4 5 6 
#
# 1 125.0158 45.5709 19.3639 0.0000 0.0000 0.0000
# 2 45.5709 95.4191 42.0483 0.0000 0.0000 0.0000
# 3 19.3639 42.0483 63.7832 0.0000 0.0000 0.0000
# 4 0.0000 0.0000 0.0000 43.9569 0.0000 0.0000
# 5 0.0000 0.0000 0.0000 0.0000 17.4724 0.0000
# 6 0.0000 0.0000 0.0000 0.0000 0.0000 17.4713
#
#
#
# Elastic Compliance Matrix: (Units=1/GPa)
#
#
# Indices 1 2 3 4 5 6 
#
# 1 0.009686 -0.004694 0.000154 0.000000 0.000000 0.000000
# 2 -0.004694 0.017046 -0.009812 0.000000 0.000000 0.000000
# 3 0.000154 -0.009812 0.022100 0.000000 0.000000 0.000000
# 4 0.000000 0.000000 0.000000 0.022750 0.000000 0.000000
# 5 0.000000 0.000000 0.000000 0.000000 0.057233 0.000000
# 6 0.000000 0.000000 0.000000 0.000000 0.000000 0.057237
#
#
# Mechanical properties :
#
#
# Convention : Reuss Voigt Hill
#
# Bulk Modulus (GPa) = 49.68357 55.35379 52.51868
# Shear Modulus (GPa) = 22.57695 27.59578 25.08636
#
# Velocity S-wave (km/s) = 3.32245 3.67322 3.50223
# Velocity P-wave (km/s) = 6.24582 6.71227 6.48324
#
# Compressibility (1/GPa) = 0.02012738
#
# Stress axis : x y z
#
# Youngs Moduli (GPa) = 103.24035 58.66596 45.24881
#
# Poissons Ratio (x) = 0.27536 -0.00695
# Poissons Ratio (y) = 0.48458 0.44399
# Poissons Ratio (z) = -0.01586 0.57564
#
# Static dielectric constant tensor:
#      x y z
#    x 3.857110 0.000000 0.000000 
#    y 0.000000 3.515440 0.000000 
#    z 0.000000 0.000000 3.781160 
# 
# 
# High freq. dielectric constant tensor:
#      x y z
#    x 1.819290 0.000000 0.000000 
#    y 0.000000 1.770240 0.000000 
#    z 0.000000 0.000000 1.782920 
# 
# From -- ./inp_files/15864.got.cif
#   From: 2010.03.12/outbox.cif.g09.slc.cpg/sg46_8_cif.got.tgz:15864.got - 2010.04.14 02:56:35.
