data_PCOD8192269
_publ_section_title
;
Structure prediction by ZEFSAII (Michael W. Deem and Ramdas Pophale) SiO2 
 PCOD8192269
Probable space group: I M A 2
;
_chemical_formula_sum "Si O2"
_cell_formula_units_Z 64
_cell_length_a 8.978513
_cell_length_b 28.017608
_cell_length_c 14.571805
_cell_angle_alpha 90.000000
_cell_angle_beta 90.000000
_cell_angle_gamma 90.000000
_cell_volume 3665.631647
_symmetry_space_group_name_H-M "I M A 2"
_symmetry_group_IT_number 46
_symmetry_cell_setting 'orthorhombic'
loop_
_space_group_symop_operation_xyz
x,y,z
-x,-y,z
1/2-x,y,z
1/2+x,-y,z
1/2+x,1/2+y,1/2+z
1/2-x,1/2-y,1/2+z
-x,1/2+y,1/2+z
x,1/2-y,1/2+z
loop_
_atom_site_type_symbol
_atom_site_label
_atom_site_fract_x
_atom_site_fract_y
_atom_site_fract_z
Si Si1 0.925556 0.950256 0.441120
Si Si2 0.577032 0.671051 0.223194
Si Si3 0.924513 0.677688 0.428961
Si Si4 0.074833 0.364492 0.613119
Si Si5 0.424596 0.865654 0.551187
Si Si6 0.075431 0.776770 0.426059
Si Si7 0.924200 0.720016 0.738321
Si Si8 0.425125 0.451165 0.730531
O O1 0.750000 0.954364 0.456451
O O2 0.965235 0.938235 0.335462
O O3 0.989736 0.908885 0.504258
O O4 0.000000 0.000000 0.470577
O O5 0.750000 0.660385 0.204225
O O6 0.532502 0.658125 0.328325
O O7 0.538493 0.726503 0.206240
O O8 0.478112 0.638588 0.156477
O O9 0.750000 0.689774 0.432026
O O10 0.968217 0.637858 0.505175
O O11 0.005886 0.726516 0.455440
O O12 0.250000 0.367905 0.626179
O O13 0.018557 0.315678 0.659895
O O14 0.005686 0.410424 0.664009
O O15 0.250000 0.876483 0.548108
O O16 0.466223 0.816351 0.501233
O O17 0.250000 0.770012 0.415982
O O18 0.010398 0.794480 0.329864
O O19 0.750000 0.714752 0.759755
O O20 0.500000 0.500000 0.699192
O O21 0.250000 0.457038 0.717987
#
# Coordination Sequence:
#
# PCOD8192269 Si02
#       8
#     8   8   8   8   8   8   8   8
#     4  10  20  35  55  77 102 128 156 194 240 291
#     4   9  18  31  48  70  94 125 164 204 245 285
#     4   9  18  33  51  69  93 128 168 205 240 283
#     4   9  16  29  51  74  94 122 163 203 236 279
#     4  11  22  33  48  71  99 132 167 201 241 290
#     4  10  20  31  44  68 102 133 161 198 243 288
#     4   9  17  30  49  72  97 127 164 201 240 290
#     4   9  18  32  51  75 101 127 153 188 237 288
#
# _framework density 17.459474
#
# number of rings (size 3 to 8) (size 9 to 14) (size 15 to 20)
#    0.000    2.500    0.000    3.375    0.000    6.500 
#    0.000    1.875    0.000    0.750    0.000    1.750 
#    0.000    0.000    0.000    0.000    0.000    0.000 
#
# Total GULP energy -396769.999878 kJ/mol
# GULP energy per Si atom -12399.062496 kJ/mol
# Density = 1.741974 g / cm^3
# Si number density = 17.459474 Si / 1000 Ang^3
#
#
#
# Elastic Constant Matrix: (Units=GPa)
#
#
# Indices 1 2 3 4 5 6 
#
# 1 55.8383 39.8807 41.5972 -0.0002 0.0000 0.0000
# 2 39.8807 100.6716 77.7819 0.0001 0.0000 0.0000
# 3 41.5972 77.7819 129.3821 0.0003 -0.0001 0.0000
# 4 -0.0002 0.0001 0.0003 28.7717 0.0000 0.0000
# 5 0.0000 0.0000 -0.0001 0.0000 20.7263 0.0000
# 6 0.0000 0.0000 0.0000 0.0000 0.0000 26.7910
#
#
#
# Elastic Compliance Matrix: (Units=1/GPa)
#
#
# Indices 1 2 3 4 5 6 
#
# 1 0.026068 -0.007192 -0.004057 0.000000 0.000000 0.000000
# 2 -0.007192 0.020533 -0.010032 0.000000 0.000000 0.000000
# 3 -0.004057 -0.010032 0.015065 0.000000 0.000000 0.000000
# 4 0.000000 0.000000 0.000000 0.034756 0.000000 0.000000
# 5 0.000000 0.000000 0.000000 0.000000 0.048248 0.000000
# 6 0.000000 0.000000 0.000000 0.000000 0.000000 0.037326
#
#
# Mechanical properties :
#
#
# Convention : Reuss Voigt Hill
#
# Bulk Modulus (GPa) = 52.34686 67.15684 59.75185
# Shear Modulus (GPa) = 21.65192 23.69996 22.67594
#
# Velocity S-wave (km/s) = 3.52536 3.68832 3.60776
# Velocity P-wave (km/s) = 6.82773 7.52903 7.18694
#
# Compressibility (1/GPa) = 0.01910334
#
# Stress axis : x y z
#
# Youngs Moduli (GPa) = 38.36121 48.70131 66.38088
#
# Poissons Ratio (x) = 0.35025 0.26934
# Poissons Ratio (y) = 0.27589 0.66593
# Poissons Ratio (z) = 0.15565 0.48857
#
# Static dielectric constant tensor:
#      x y z
#    x 3.109850 0.000000 0.000000 
#    y 0.000000 3.224300 0.000000 
#    z 0.000000 0.000000 3.395700 
# 
# 
# High freq. dielectric constant tensor:
#      x y z
#    x 1.663660 0.000000 0.000000 
#    y 0.000000 1.656280 0.000000 
#    z 0.000000 0.000000 1.676940 
# 
# From -- ./inp_files/14495.got.cif
#   From: 2010.03.12/outbox.cif.g09.slc.cpg/sg46_8_cif.got.tgz:14495.got - 2010.04.14 02:56:35.
