data_PCOD8192390
_publ_section_title
;
Structure prediction by ZEFSAII (Michael W. Deem and Ramdas Pophale) SiO2 
 PCOD8192390
Probable space group: I M A 2
;
_chemical_formula_sum "Si O2"
_cell_formula_units_Z 48
_cell_length_a 9.407765
_cell_length_b 22.748285
_cell_length_c 11.696419
_cell_angle_alpha 90.000000
_cell_angle_beta 90.000000
_cell_angle_gamma 90.000000
_cell_volume 2503.156706
_symmetry_space_group_name_H-M "I M A 2"
_symmetry_group_IT_number 46
_symmetry_cell_setting 'orthorhombic'
loop_
_space_group_symop_operation_xyz
x,y,z
-x,-y,z
1/2-x,y,z
1/2+x,-y,z
1/2+x,1/2+y,1/2+z
1/2-x,1/2-y,1/2+z
-x,1/2+y,1/2+z
x,1/2-y,1/2+z
loop_
_atom_site_type_symbol
_atom_site_label
_atom_site_fract_x
_atom_site_fract_y
_atom_site_fract_z
Si Si1 0.584504 0.149310 0.031320
Si Si2 0.086458 0.613623 0.093961
Si Si3 0.092556 0.050624 0.414529
Si Si4 0.586196 0.277406 0.941358
Si Si5 0.414775 0.939337 0.833653
Si Si6 0.408917 0.161822 0.256002
O O1 0.750000 0.145604 0.064605
O O2 0.489650 0.143261 0.142500
O O3 0.548736 0.211611 0.975221
O O4 0.540821 0.096611 0.946531
O O5 0.250000 0.599289 0.065362
O O6 0.055385 0.605432 0.228340
O O7 0.049685 0.679510 0.048632
O O8 0.986802 0.566961 0.031424
O O9 0.250000 0.027756 0.445250
O O10 0.101615 0.103781 0.329288
O O11 0.000000 0.000000 0.353688
O O12 0.750000 0.284343 0.905587
O O13 0.494222 0.289917 0.828406
O O14 0.250000 0.956646 0.837484
O O15 0.500000 0.000000 0.824331
O O16 0.250000 0.185456 0.228419
#
# Coordination Sequence:
#
# PCOD8192390 Si02
#       6
#     8   8   8   8   8   8
#     4  10  22  38  60  84 111 150 194 238 280 337
#     4   9  18  34  57  85 113 142 182 234 286 338
#     4  10  20  34  54  80 110 145 185 230 279 329
#     4   9  19  36  62  87 110 143 187 240 290 339
#     4  10  22  38  56  83 117 153 194 235 282 339
#     4  10  22  38  55  81 116 147 182 231 285 344
#
# _framework density 19.175785000000001
#
# number of rings (size 3 to 8) (size 9 to 14) (size 15 to 20)
#    0.000    2.333    0.000    1.500    2.333    6.000 
#    0.000    3.333    0.000    0.000    0.000    0.000 
#    0.000    0.000    0.000    0.000    0.000    0.000 
#
# Total GULP energy -297567.956140 kJ/mol
# GULP energy per Si atom -12398.664839 kJ/mol
# Density = 1.913214 g / cm^3
# Si number density = 19.175785 Si / 1000 Ang^3
#
#
#
# Elastic Constant Matrix: (Units=GPa)
#
#
# Indices 1 2 3 4 5 6 
#
# 1 97.7230 32.1225 53.0129 0.0001 0.0001 0.0000
# 2 32.1225 77.5194 24.1638 0.0003 0.0004 0.0001
# 3 53.0129 24.1638 119.6734 0.0001 0.0002 -0.0002
# 4 0.0001 0.0003 0.0001 1.1828 0.0001 -0.0001
# 5 0.0001 0.0004 0.0002 0.0001 -19.3257 0.0000
# 6 0.0000 0.0001 -0.0002 -0.0001 0.0000 21.1438
#
#
#
# Elastic Compliance Matrix: (Units=1/GPa)
#
#
# Indices 1 2 3 4 5 6 
#
# 1 0.014722 -0.004341 -0.005645 0.000000 0.000000 0.000000
# 2 -0.004341 0.015046 -0.001115 -0.000004 0.000000 0.000000
# 3 -0.005645 -0.001115 0.011082 0.000000 0.000000 0.000000
# 4 0.000000 -0.000004 0.000000 0.845420 0.000005 0.000003
# 5 0.000000 0.000000 0.000000 0.000005 -0.051745 0.000000
# 6 0.000000 0.000000 0.000000 0.000003 0.000000 0.047295
#
#
# Mechanical properties :
#
#
# Convention : Reuss Voigt Hill
#
# Bulk Modulus (GPa) = 53.62472 57.05713 55.34093
# Shear Modulus (GPa) = 5.49306 12.97463 9.23384
#
# Velocity S-wave (km/s) = 1.69434 2.60400 2.19677
# Velocity P-wave (km/s) = 5.64387 6.23382 5.94616
#
# Compressibility (1/GPa) = 0.01864811
#
# Stress axis : x y z
#
# Youngs Moduli (GPa) = 67.92403 66.46108 90.23687
#
# Poissons Ratio (x) = 0.28850 0.50940
# Poissons Ratio (y) = 0.29485 0.10063
# Poissons Ratio (z) = 0.38344 0.07411
#
# Static dielectric constant tensor:
#      x y z
#    x 3.830660 0.000000 0.000000 
#    y 0.000000 3.536100 0.000000 
#    z 0.000000 0.000000 3.516600 
# 
# 
# High freq. dielectric constant tensor:
#      x y z
#    x 1.748350 0.000000 0.000000 
#    y 0.000000 1.747340 0.000000 
#    z 0.000000 0.000000 1.741100 
# 
# From -- ./inp_files/9293.got.cif
#   From: 2010.03.12/outbox.cif.g09.slc.cpg/sg46_5_cif.got.tgz:9293.got - 2010.04.14 02:56:35.
