data_PCOD8192911
_publ_section_title
;
Structure prediction by ZEFSAII (Michael W. Deem and Ramdas Pophale) SiO2 
 PCOD8192911
Probable space group: I M A 2
;
_chemical_formula_sum "Si O2"
_cell_formula_units_Z 56
_cell_length_a 20.404086
_cell_length_b 14.008446
_cell_length_c 9.854752
_cell_angle_alpha 90.000000
_cell_angle_beta 90.000000
_cell_angle_gamma 90.000000
_cell_volume 2816.779201
_symmetry_space_group_name_H-M "I M A 2"
_symmetry_group_IT_number 46
_symmetry_cell_setting 'orthorhombic'
loop_
_space_group_symop_operation_xyz
x,y,z
-x,-y,z
1/2-x,y,z
1/2+x,-y,z
1/2+x,1/2+y,1/2+z
1/2-x,1/2-y,1/2+z
-x,1/2+y,1/2+z
x,1/2-y,1/2+z
loop_
_atom_site_type_symbol
_atom_site_label
_atom_site_fract_x
_atom_site_fract_y
_atom_site_fract_z
Si Si1 0.826098 0.035317 0.599790
Si Si2 0.114566 0.784223 0.493691
Si Si3 0.071542 0.988034 0.103711
Si Si4 0.172312 0.172969 0.511834
Si Si5 0.392151 0.312076 0.720584
Si Si6 0.324422 0.597713 0.404261
Si Si7 0.460186 0.797255 0.237117
O O1 0.750000 0.035690 0.571241
O O2 0.856894 0.109089 0.492057
O O3 0.842125 0.072354 0.750104
O O4 0.852781 0.928583 0.571954
O O5 0.169737 0.709820 0.441284
O O6 0.053212 0.773638 0.393363
O O7 0.088182 0.763383 0.643286
O O8 0.057595 0.907946 0.216388
O O9 0.102412 0.078048 0.178958
O O10 0.124172 0.960519 0.992168
O O11 0.000000 0.000000 0.031623
O O12 0.250000 0.173560 0.488070
O O13 0.154590 0.255139 0.618701
O O14 0.136795 0.195867 0.370905
O O15 0.464850 0.267720 0.711997
O O16 0.250000 0.565746 0.436998
#
# Coordination Sequence:
#
# PCOD8192911 Si02
#       7
#     8   8   8   8   8   8   8
#     4  10  22  40  60  91 127 158 203 258 306 368
#     4  11  19  39  61  93 123 160 193 246 314 376
#     4   9  21  40  62  89 122 159 207 260 311 366
#     4  11  25  42  63  89 123 164 214 260 306 363
#     4  11  23  43  62  89 119 165 207 258 310 361
#     4  10  21  37  61  93 124 163 201 249 314 379
#     4  10  21  37  64  90 125 155 202 253 308 379
#
# _framework density 19.880863000000002
#
# number of rings (size 3 to 8) (size 9 to 14) (size 15 to 20)
#    0.000    1.714    1.429    2.571    2.000    1.143 
#    0.000    4.286    0.000    0.000    0.000    0.000 
#    0.000    0.000    0.000    0.000    0.000    0.000 
#
# Total GULP energy -347136.397077 kJ/mol
# GULP energy per Si atom -12397.728467 kJ/mol
# Density = 1.983561 g / cm^3
# Si number density = 19.880863 Si / 1000 Ang^3
#
#
#
# Elastic Constant Matrix: (Units=GPa)
#
#
# Indices 1 2 3 4 5 6 
#
# 1 78.0506 28.3909 51.7582 0.0000 0.0000 0.0000
# 2 28.3909 96.7914 38.8616 0.0000 0.0000 0.0000
# 3 51.7582 38.8616 104.8588 0.0000 0.0000 0.0000
# 4 0.0000 0.0000 0.0000 21.2120 0.0000 0.0000
# 5 0.0000 0.0000 0.0000 0.0000 38.4920 0.0000
# 6 0.0000 0.0000 0.0000 0.0000 0.0000 28.5739
#
#
#
# Elastic Compliance Matrix: (Units=1/GPa)
#
#
# Indices 1 2 3 4 5 6 
#
# 1 0.019427 -0.002171 -0.008785 0.000000 0.000000 0.000000
# 2 -0.002171 0.012380 -0.003516 0.000000 0.000000 0.000000
# 3 -0.008785 -0.003516 0.015176 0.000000 0.000000 0.000000
# 4 0.000000 0.000000 0.000000 0.047143 0.000000 0.000000
# 5 0.000000 0.000000 0.000000 0.000000 0.025979 0.000000
# 6 0.000000 0.000000 0.000000 0.000000 0.000000 0.034997
#
#
# Mechanical properties :
#
#
# Convention : Reuss Voigt Hill
#
# Bulk Modulus (GPa) = 55.43641 57.52469 56.48055
# Shear Modulus (GPa) = 26.30733 28.36824 27.33778
#
# Velocity S-wave (km/s) = 3.64160 3.78155 3.71223
# Velocity P-wave (km/s) = 6.75474 6.93284 6.84437
#
# Compressibility (1/GPa) = 0.01803869
#
# Stress axis : x y z
#
# Youngs Moduli (GPa) = 51.47349 80.77370 65.89389
#
# Poissons Ratio (x) = 0.17540 0.57885
# Poissons Ratio (y) = 0.11177 0.23171
# Poissons Ratio (z) = 0.45217 0.28403
#
# Static dielectric constant tensor:
#      x y z
#    x 3.665830 0.000000 0.000000 
#    y 0.000000 3.793600 0.000000 
#    z 0.000000 0.000000 3.518630 
# 
# 
# High freq. dielectric constant tensor:
#      x y z
#    x 1.780290 0.000000 0.000000 
#    y 0.000000 1.781280 0.000000 
#    z 0.000000 0.000000 1.776120 
# 
# From -- ./inp_files/7405.got.cif
#   From: 2010.03.12/outbox.cif.g09.slc.cpg/sg46_4_cif.got.tgz:7405.got - 2010.04.14 02:56:35.
