data_PCOD8192517
_publ_section_title
;
Structure prediction by ZEFSAII (Michael W. Deem and Ramdas Pophale) SiO2 
 PCOD8192517
Probable space group: I M A 2
;
_chemical_formula_sum "Si O2"
_cell_formula_units_Z 48
_cell_length_a 11.503619
_cell_length_b 25.467054
_cell_length_c 7.809750
_cell_angle_alpha 90.000000
_cell_angle_beta 90.000000
_cell_angle_gamma 90.000000
_cell_volume 2287.970025
_symmetry_space_group_name_H-M "I M A 2"
_symmetry_group_IT_number 46
_symmetry_cell_setting 'orthorhombic'
loop_
_space_group_symop_operation_xyz
x,y,z
-x,-y,z
1/2-x,y,z
1/2+x,-y,z
1/2+x,1/2+y,1/2+z
1/2-x,1/2-y,1/2+z
-x,1/2+y,1/2+z
x,1/2-y,1/2+z
loop_
_atom_site_type_symbol
_atom_site_label
_atom_site_fract_x
_atom_site_fract_y
_atom_site_fract_z
Si Si1 0.388140 0.538953 0.770220
Si Si2 0.558567 0.384736 0.460681
Si Si3 0.058560 0.884754 0.579793
Si Si4 0.382215 0.193691 0.469684
Si Si5 0.882215 0.806300 0.070823
Si Si6 0.750000 0.190502 0.471790
Si Si7 0.250000 0.690519 0.568640
O O1 0.500000 0.500000 0.770141
O O2 0.250000 0.517700 0.770222
O O3 0.404739 0.571809 0.597611
O O4 0.404784 0.571771 0.942907
O O5 0.570013 0.409518 0.270250
O O6 0.432068 0.358864 0.482460
O O7 0.638359 0.334265 0.482008
O O8 0.138359 0.834290 0.558389
O O9 0.932066 0.858876 0.558037
O O10 0.250000 0.195452 0.530663
O O11 0.398934 0.185142 0.270251
O O12 0.440267 0.249994 0.520265
O O13 0.750000 0.804537 0.009839
O O14 0.750000 0.249988 0.520262
O O15 0.750000 0.179752 0.270211
#
# Coordination Sequence:
#
# PCOD8192517 Si02
#       7
#     8   8   8   8   8   4   4
#     4  12  28  52  76 102 136 182 244 312 372 424
#     4  12  23  42  68  97 136 177 226 292 351 430
#     4  12  23  42  68  97 136 177 226 292 351 430
#     4  10  20  35  57  92 140 188 231 280 341 423
#     4  10  20  35  57  92 140 188 231 280 341 423
#     4  12  22  38  64 103 145 184 221 271 346 432
#     4  12  22  38  64 103 145 184 221 271 346 432
#
# _framework density 20.979296000000001
#
# number of rings (size 3 to 8) (size 9 to 14) (size 15 to 20)
#    0.000    0.667    5.000    3.500    0.000    4.000 
#    0.000    0.000    0.000    0.000    0.000    0.000 
#    0.000    0.000    0.000    0.000    0.000    0.000 
#
# Total GULP energy -297366.848525 kJ/mol
# GULP energy per Si atom -12390.285355 kJ/mol
# Density = 2.093155 g / cm^3
# Si number density = 20.979296 Si / 1000 Ang^3
#
#
#
# Elastic Constant Matrix: (Units=GPa)
#
#
# Indices 1 2 3 4 5 6 
#
# 1 109.1090 50.5853 38.4841 -0.0022 0.0000 0.0000
# 2 50.5853 84.9331 35.8449 -0.0140 0.0041 0.0039
# 3 38.4841 35.8449 155.2318 -0.0328 0.0112 0.0096
# 4 -0.0022 -0.0140 -0.0328 27.0841 0.0083 0.0086
# 5 0.0000 0.0041 0.0112 0.0083 30.8265 -0.0017
# 6 0.0000 0.0039 0.0096 0.0086 -0.0017 33.0868
#
#
#
# Elastic Compliance Matrix: (Units=1/GPa)
#
#
# Indices 1 2 3 4 5 6 
#
# 1 0.013006 -0.007075 -0.001591 -0.000005 0.000002 0.000001
# 2 -0.007075 0.016894 -0.002147 0.000006 -0.000001 -0.000001
# 3 -0.001591 -0.002147 0.007332 0.000008 -0.000002 -0.000002
# 4 -0.000005 0.000006 0.000008 0.036922 -0.000010 -0.000010
# 5 0.000002 -0.000001 -0.000002 -0.000010 0.032440 0.000002
# 6 0.000001 -0.000001 -0.000002 -0.000010 0.000002 0.030224
#
#
# Mechanical properties :
#
#
# Convention : Reuss Voigt Hill
#
# Bulk Modulus (GPa) = 64.07482 66.56693 65.32087
# Shear Modulus (GPa) = 30.55380 33.15677 31.85528
#
# Velocity S-wave (km/s) = 3.82039 3.97980 3.90091
# Velocity P-wave (km/s) = 7.07593 7.27442 7.17586
#
# Compressibility (1/GPa) = 0.01560676
#
# Stress axis : x y z
#
# Youngs Moduli (GPa) = 76.88514 59.19270 136.38631
#
# Poissons Ratio (x) = 0.41880 0.21695
# Poissons Ratio (y) = 0.54397 0.29282
# Poissons Ratio (z) = 0.12230 0.12709
#
# Static dielectric constant tensor:
#      x y z
#    x 5.555810 0.000000 -0.000130 
#    y 0.000000 3.557700 0.000000 
#    z -0.000130 0.000000 4.041840 
# 
# 
# High freq. dielectric constant tensor:
#      x y z
#    x 1.836500 0.000000 0.000000 
#    y 0.000000 1.791330 0.000000 
#    z 0.000000 0.000000 1.837020 
# 
# From -- ./inp_files/4748.got.cif
#   From: 2010.03.12/outbox.cif.g09.slc.cpg/sg46_3_cif.got.tgz:4748.got - 2010.04.14 02:56:35.
