data_PCOD8192885
_publ_section_title
;
Structure prediction by ZEFSAII (Michael W. Deem and Ramdas Pophale) SiO2 
 PCOD8192885
Probable space group: I M A 2
;
_chemical_formula_sum "Si O2"
_cell_formula_units_Z 60
_cell_length_a 12.321290
_cell_length_b 28.368124
_cell_length_c 8.621803
_cell_angle_alpha 90.000000
_cell_angle_beta 90.000000
_cell_angle_gamma 90.000000
_cell_volume 3013.595034
_symmetry_space_group_name_H-M "I M A 2"
_symmetry_group_IT_number 46
_symmetry_cell_setting 'orthorhombic'
loop_
_space_group_symop_operation_xyz
x,y,z
-x,-y,z
1/2-x,y,z
1/2+x,-y,z
1/2+x,1/2+y,1/2+z
1/2-x,1/2-y,1/2+z
-x,1/2+y,1/2+z
x,1/2-y,1/2+z
loop_
_atom_site_type_symbol
_atom_site_label
_atom_site_fract_x
_atom_site_fract_y
_atom_site_fract_z
Si Si1 0.126991 0.319445 0.564140
Si Si2 0.130096 0.807435 0.800438
Si Si3 0.619572 0.075213 0.179062
Si Si4 0.880794 0.924492 0.584048
Si Si5 0.461904 0.756978 0.525162
Si Si6 0.516076 0.649749 0.861800
Si Si7 0.500000 0.500000 0.878676
Si Si8 0.498962 0.894587 0.879082
O O1 0.250000 0.311621 0.529420
O O2 0.106847 0.334186 0.740717
O O3 0.077038 0.269011 0.519165
O O4 0.088750 0.361674 0.455280
O O5 0.250000 0.809637 0.732995
O O6 0.059356 0.771090 0.701275
O O7 0.088350 0.860890 0.795266
O O8 0.125165 0.783107 0.970678
O O9 0.750000 0.076621 0.163769
O O10 0.578096 0.119950 0.277160
O O11 0.581618 0.028806 0.269259
O O12 0.564753 0.074439 0.007779
O O13 0.750000 0.925584 0.600961
O O14 0.920450 0.877218 0.498142
O O15 0.939326 0.927065 0.752726
O O16 0.921244 0.968817 0.484923
O O17 0.455774 0.804543 0.426373
#
# Coordination Sequence:
#
# PCOD8192885 Si02
#       8
#     8   8   8   8   8   8   4   8
#     4  10  21  37  57  81 120 166 204 247 295 342
#     4  11  22  37  56  81 122 164 200 250 298 337
#     4  10  22  43  68  89 120 161 196 248 308 364
#     4  11  22  41  67  92 124 156 190 253 315 361
#     4  11  21  38  51  85 120 155 211 251 285 352
#     4  10  21  39  58  86 119 156 210 252 289 368
#     4  10  24  44  66  98 124 146 202 242 298 394
#     4  10  22  40  60  93 123 151 209 244 293 366
#
# _framework density 19.909775
#
# number of rings (size 3 to 8) (size 9 to 14) (size 15 to 20)
#    0.000    1.600    2.667    2.000    0.000    2.667 
#    0.000    5.333    0.000    0.000    0.000    0.000 
#    0.000    0.000    0.000    0.000    0.000    0.000 
#
# Total GULP energy -371909.734300 kJ/mol
# GULP energy per Si atom -12396.991143 kJ/mol
# Density = 1.986446 g / cm^3
# Si number density = 19.909775 Si / 1000 Ang^3
#
#
#
# Elastic Constant Matrix: (Units=GPa)
#
#
# Indices 1 2 3 4 5 6 
#
# 1 143.0067 38.8008 54.2977 -0.0055 -0.0008 0.0011
# 2 38.8008 88.7936 43.9613 -0.0071 -0.0018 0.0018
# 3 54.2977 43.9613 112.2915 -0.0157 -0.0045 0.0014
# 4 -0.0055 -0.0071 -0.0157 36.1992 -0.0014 0.0013
# 5 -0.0008 -0.0018 -0.0045 -0.0014 20.1239 -0.0002
# 6 0.0011 0.0018 0.0014 0.0013 -0.0002 14.7923
#
#
#
# Elastic Compliance Matrix: (Units=1/GPa)
#
#
# Indices 1 2 3 4 5 6 
#
# 1 0.008893 -0.002179 -0.003447 -0.000001 -0.000001 0.000000
# 2 -0.002179 0.014504 -0.004624 0.000001 0.000000 -0.000001
# 3 -0.003447 -0.004624 0.012382 0.000004 0.000002 0.000000
# 4 -0.000001 0.000001 0.000004 0.027625 0.000002 -0.000002
# 5 -0.000001 0.000000 0.000002 0.000002 0.049692 0.000001
# 6 0.000000 -0.000001 0.000000 -0.000002 0.000001 0.067603
#
#
# Mechanical properties :
#
#
# Convention : Reuss Voigt Hill
#
# Bulk Modulus (GPa) = 65.45356 68.69015 67.07185
# Shear Modulus (GPa) = 24.23739 28.02520 26.13129
#
# Velocity S-wave (km/s) = 3.49286 3.75588 3.62675
# Velocity P-wave (km/s) = 7.01521 7.30647 7.16232
#
# Compressibility (1/GPa) = 0.01527801
#
# Stress axis : x y z
#
# Youngs Moduli (GPa) = 112.45182 68.94684 80.75946
#
# Poissons Ratio (x) = 0.15026 0.27836
# Poissons Ratio (y) = 0.24508 0.37346
# Poissons Ratio (z) = 0.38760 0.31883
#
# Static dielectric constant tensor:
#      x y z
#    x 3.451110 0.000000 0.000010 
#    y 0.000000 3.578660 -0.000010 
#    z 0.000010 -0.000010 4.081560 
# 
# 
# High freq. dielectric constant tensor:
#      x y z
#    x 1.770030 0.000000 0.000000 
#    y 0.000000 1.774970 0.000000 
#    z 0.000000 0.000000 1.789620 
# 
# From -- ./inp_files/4927.got.cif
#   From: 2010.03.12/outbox.cif.g09.slc.cpg/sg46_3_cif.got.tgz:4927.got - 2010.04.14 02:56:35.
