data_PCOD8192107
_publ_section_title
;
Structure prediction by ZEFSAII (Michael W. Deem and Ramdas Pophale) SiO2 
 PCOD8192107
Probable space group: I M A 2
;
_chemical_formula_sum "Si O2"
_cell_formula_units_Z 64
_cell_length_a 8.726918
_cell_length_b 24.011401
_cell_length_c 15.591599
_cell_angle_alpha 90.000000
_cell_angle_beta 90.000000
_cell_angle_gamma 90.000000
_cell_volume 3267.149838
_symmetry_space_group_name_H-M "I M A 2"
_symmetry_group_IT_number 46
_symmetry_cell_setting 'orthorhombic'
loop_
_space_group_symop_operation_xyz
x,y,z
-x,-y,z
1/2-x,y,z
1/2+x,-y,z
1/2+x,1/2+y,1/2+z
1/2-x,1/2-y,1/2+z
-x,1/2+y,1/2+z
x,1/2-y,1/2+z
loop_
_atom_site_type_symbol
_atom_site_label
_atom_site_fract_x
_atom_site_fract_y
_atom_site_fract_z
Si Si1 0.069813 0.439875 0.071560
Si Si2 0.069066 0.753024 0.979191
Si Si3 0.067690 0.560650 0.578847
Si Si4 0.429666 0.867316 0.423086
Si Si5 0.568671 0.125963 0.726942
Si Si6 0.567593 0.246217 0.670864
Si Si7 0.568348 0.130069 0.917565
Si Si8 0.931162 0.363072 0.732897
O O1 0.250000 0.445484 0.076239
O O2 0.000000 0.500000 0.055318
O O3 0.011385 0.415372 0.161105
O O4 0.025597 0.401273 0.991832
O O5 0.250000 0.759403 0.984979
O O6 0.025071 0.697721 0.927242
O O7 0.000534 0.807814 0.932984
O O8 0.001568 0.748447 0.074715
O O9 0.250000 0.557701 0.579962
O O10 0.006541 0.588346 0.490659
O O11 0.003928 0.596321 0.659315
O O12 0.000000 0.500000 0.587090
O O13 0.250000 0.875977 0.442936
O O14 0.474585 0.886811 0.326923
O O15 0.750000 0.121770 0.712043
O O16 0.509690 0.189205 0.714066
O O17 0.520040 0.108206 0.823399
O O18 0.750000 0.246360 0.671223
O O19 0.503501 0.300350 0.720957
O O20 0.750000 0.133464 0.923248
O O21 0.750000 0.359709 0.723442
#
# Coordination Sequence:
#
# PCOD8192107 Si02
#       8
#     8   8   8   8   8   8   8   8
#     4  12  26  43  60  78 106 145 187 234 281 332
#     4   9  14  25  51  86 117 143 176 220 267 319
#     4  10  20  35  52  74 106 145 185 226 267 316
#     4  10  19  34  58  88 114 141 178 226 277 329
#     4  10  19  34  58  88 114 141 178 226 277 329
#     4   9  14  25  51  86 117 143 176 220 267 319
#     4   9  17  30  53  84 116 145 179 223 273 322
#     4   9  17  30  53  84 116 145 179 223 273 322
#
# _framework density 19.588939
#
# number of rings (size 3 to 8) (size 9 to 14) (size 15 to 20)
#    0.000    2.250    2.500    1.875    0.000    4.000 
#    0.000    3.750    0.000    6.000    0.000    0.000 
#    0.000    0.000    0.000    0.000    0.000    0.000 
#
# Total GULP energy -396688.565409 kJ/mol
# GULP energy per Si atom -12396.517669 kJ/mol
# Density = 1.954435 g / cm^3
# Si number density = 19.588939 Si / 1000 Ang^3
#
#
#
# Elastic Constant Matrix: (Units=GPa)
#
#
# Indices 1 2 3 4 5 6 
#
# 1 37.4523 14.2849 19.8042 0.0000 0.0000 0.0000
# 2 14.2849 72.9186 25.2762 -0.0002 0.0001 0.0000
# 3 19.8042 25.2762 138.6024 -0.0001 0.0001 0.0000
# 4 0.0000 -0.0002 -0.0001 12.8637 0.0001 0.0000
# 5 0.0000 0.0001 0.0001 0.0001 12.3388 0.0000
# 6 0.0000 0.0000 0.0000 0.0000 0.0000 21.5000
#
#
#
# Elastic Compliance Matrix: (Units=1/GPa)
#
#
# Indices 1 2 3 4 5 6 
#
# 1 0.030345 -0.004741 -0.003471 0.000000 0.000000 0.000000
# 2 -0.004741 0.015380 -0.002127 0.000000 0.000000 0.000000
# 3 -0.003471 -0.002127 0.008099 0.000000 0.000000 0.000000
# 4 0.000000 0.000000 0.000000 0.077738 0.000000 0.000000
# 5 0.000000 0.000000 0.000000 0.000000 0.081045 0.000000
# 6 0.000000 0.000000 0.000000 0.000000 0.000000 0.046512
#
#
# Mechanical properties :
#
#
# Convention : Reuss Voigt Hill
#
# Bulk Modulus (GPa) = 30.17145 40.85599 35.51372
# Shear Modulus (GPa) = 17.19122 21.98103 19.58612
#
# Velocity S-wave (km/s) = 2.96564 3.35343 3.16548
# Velocity P-wave (km/s) = 5.21176 5.99132 5.61509
#
# Compressibility (1/GPa) = 0.03314392
#
# Stress axis : x y z
#
# Youngs Moduli (GPa) = 32.95481 65.01874 123.47497
#
# Poissons Ratio (x) = 0.30828 0.42860
# Poissons Ratio (y) = 0.15625 0.26267
# Poissons Ratio (z) = 0.11439 0.13832
#
# Static dielectric constant tensor:
#      x y z
#    x 2.952430 0.000000 0.000000 
#    y 0.000000 3.714860 0.000000 
#    z 0.000000 0.000000 3.880270 
# 
# 
# High freq. dielectric constant tensor:
#      x y z
#    x 1.695330 0.000000 0.000000 
#    y 0.000000 1.766760 0.000000 
#    z 0.000000 0.000000 1.782720 
# 
# From -- ./inp_files/14534.got.cif
#   From: 2010.03.12/outbox.cif.g09.slc.cpg/sg46_8_cif.got.tgz:14534.got - 2010.04.14 02:56:35.
