data_PCOD8192316
_publ_section_title
;
Structure prediction by ZEFSAII (Michael W. Deem and Ramdas Pophale) SiO2 
 PCOD8192316
Probable space group: I M A 2
;
_chemical_formula_sum "Si O2"
_cell_formula_units_Z 64
_cell_length_a 8.671641
_cell_length_b 14.579048
_cell_length_c 27.304782
_cell_angle_alpha 90.000000
_cell_angle_beta 90.000000
_cell_angle_gamma 90.000000
_cell_volume 3451.987142
_symmetry_space_group_name_H-M "I M A 2"
_symmetry_group_IT_number 46
_symmetry_cell_setting 'orthorhombic'
loop_
_space_group_symop_operation_xyz
x,y,z
-x,-y,z
1/2-x,y,z
1/2+x,-y,z
1/2+x,1/2+y,1/2+z
1/2-x,1/2-y,1/2+z
-x,1/2+y,1/2+z
x,1/2-y,1/2+z
loop_
_atom_site_type_symbol
_atom_site_label
_atom_site_fract_x
_atom_site_fract_y
_atom_site_fract_z
Si Si1 0.071341 0.596127 0.389650
Si Si2 0.428659 0.903873 0.774979
Si Si3 0.931897 0.596789 0.111975
Si Si4 0.568103 0.596789 0.552654
Si Si5 0.430989 0.270218 0.464914
Si Si6 0.067929 0.902324 0.507739
Si Si7 0.069011 0.229782 0.699715
Si Si8 0.067929 0.902324 0.156890
O O1 0.250000 0.596046 0.403918
O O2 0.044225 0.610399 0.332315
O O3 0.000000 0.500000 0.407403
O O4 0.985622 0.679380 0.415988
O O5 0.250000 0.903954 0.760711
O O6 0.514378 0.820620 0.748642
O O7 0.500000 0.000000 0.757227
O O8 0.750000 0.587662 0.105261
O O9 0.978033 0.670546 0.152492
O O10 0.000000 0.500000 0.129323
O O11 0.003523 0.628095 0.060568
O O12 0.500000 0.500000 0.535307
O O13 0.750000 0.587662 0.559369
O O14 0.521966 0.670546 0.512137
O O15 0.496477 0.628096 0.604062
O O16 0.250000 0.253085 0.462274
O O17 0.516818 0.172789 0.467951
O O18 0.250000 0.910147 0.510290
O O19 0.000000 0.000000 0.491518
O O20 0.250000 0.246915 0.702356
O O21 0.983182 0.327211 0.696678
O O22 0.250000 0.910147 0.154339
O O23 0.000000 0.000000 0.173111
#
# Coordination Sequence:
#
# PCOD8192316 Si02
#       8
#     8   8   8   8   8   8   8   8
#     4  10  21  37  57  82 111 141 174 214 262 315
#     4  10  21  37  57  82 111 141 174 214 262 315
#     4  10  20  33  50  75 108 142 177 217 260 310
#     4  10  20  33  50  75 108 142 177 217 260 310
#     4  11  22  35  54  79 107 140 179 220 263 314
#     4  11  22  36  54  75 104 141 180 221 264 311
#     4  11  22  35  54  79 107 140 179 220 263 314
#     4  11  22  36  54  75 104 141 180 221 264 311
#
# _framework density 18.540047000000001
#
# number of rings (size 3 to 8) (size 9 to 14) (size 15 to 20)
#    0.000    1.500    0.000    7.500    0.000   10.500 
#    0.000    0.000    0.000    0.750    0.000    0.000 
#    0.000    0.000    0.000    0.000    0.000    0.000 
#
# Total GULP energy -396992.481264 kJ/mol
# GULP energy per Si atom -12406.015039 kJ/mol
# Density = 1.849785 g / cm^3
# Si number density = 18.540047 Si / 1000 Ang^3
#
#
#
# Elastic Constant Matrix: (Units=GPa)
#
#
# Indices 1 2 3 4 5 6 
#
# 1 101.8932 44.3844 31.5934 0.0000 0.0000 0.0000
# 2 44.3844 113.3319 48.6459 0.0000 0.0000 0.0000
# 3 31.5934 48.6459 52.7877 0.0000 0.0000 0.0000
# 4 0.0000 0.0000 0.0000 12.4431 0.0000 0.0000
# 5 0.0000 0.0000 0.0000 0.0000 26.7003 0.0000
# 6 0.0000 0.0000 0.0000 0.0000 0.0000 35.2393
#
#
#
# Elastic Compliance Matrix: (Units=1/GPa)
#
#
# Indices 1 2 3 4 5 6 
#
# 1 0.012566 -0.002801 -0.004939 0.000000 0.000000 0.000000
# 2 -0.002801 0.015222 -0.012351 0.000000 0.000000 0.000000
# 3 -0.004939 -0.012351 0.033282 0.000000 0.000000 0.000000
# 4 0.000000 0.000000 0.000000 0.080366 0.000000 0.000000
# 5 0.000000 0.000000 0.000000 0.000000 0.037453 0.000000
# 6 0.000000 0.000000 0.000000 0.000000 0.000000 0.028377
#
#
# Mechanical properties :
#
#
# Convention : Reuss Voigt Hill
#
# Bulk Modulus (GPa) = 47.87740 57.47334 52.67537
# Shear Modulus (GPa) = 19.65314 24.43583 22.04449
#
# Velocity S-wave (km/s) = 3.25935 3.63437 3.45196
# Velocity P-wave (km/s) = 6.32806 6.97699 6.66043
#
# Compressibility (1/GPa) = 0.02088668
#
# Stress axis : x y z
#
# Youngs Moduli (GPa) = 79.58076 65.69317 30.04596
#
# Poissons Ratio (x) = 0.18401 0.14841
# Poissons Ratio (y) = 0.22291 0.37111
# Poissons Ratio (z) = 0.39308 0.81141
#
# Static dielectric constant tensor:
#      x y z
#    x 3.555330 0.000000 0.000000 
#    y 0.000000 3.479910 0.000000 
#    z 0.000000 0.000000 3.234070 
# 
# 
# High freq. dielectric constant tensor:
#      x y z
#    x 1.739860 0.000000 0.000000 
#    y 0.000000 1.723880 0.000000 
#    z 0.000000 0.000000 1.696070 
# 
# From -- ./inp_files/23201.got.cif
#   From: 2010.03.12/outbox.cif.g09.slc.cpg/sg46_12_cif.got.tgz:23201.got - 2010.04.14 02:56:35.
