data_PCOD8192569
_publ_section_title
;
Structure prediction by ZEFSAII (Michael W. Deem and Ramdas Pophale) SiO2 
 PCOD8192569
Probable space group: I M A 2
;
_chemical_formula_sum "Si O2"
_cell_formula_units_Z 56
_cell_length_a 22.527162
_cell_length_b 9.932188
_cell_length_c 13.446252
_cell_angle_alpha 90.000000
_cell_angle_beta 90.000000
_cell_angle_gamma 90.000000
_cell_volume 3008.518316
_symmetry_space_group_name_H-M "I M A 2"
_symmetry_group_IT_number 46
_symmetry_cell_setting 'orthorhombic'
loop_
_space_group_symop_operation_xyz
x,y,z
-x,-y,z
1/2-x,y,z
1/2+x,-y,z
1/2+x,1/2+y,1/2+z
1/2-x,1/2-y,1/2+z
-x,1/2+y,1/2+z
x,1/2-y,1/2+z
loop_
_atom_site_type_symbol
_atom_site_label
_atom_site_fract_x
_atom_site_fract_y
_atom_site_fract_z
Si Si1 0.681701 0.511747 0.484740
Si Si2 0.895228 0.126508 0.711389
Si Si3 0.879516 0.846820 0.804460
Si Si4 0.607476 0.239180 0.492624
Si Si5 0.817520 0.602661 0.700608
Si Si6 0.680144 0.338648 0.816189
Si Si7 0.493125 0.845477 0.866400
O O1 0.750000 0.464696 0.472659
O O2 0.663205 0.603498 0.392244
O O3 0.640619 0.381860 0.496425
O O4 0.673809 0.602456 0.582437
O O5 0.897572 0.163865 0.596481
O O6 0.839467 0.199389 0.763936
O O7 0.956059 0.171733 0.764392
O O8 0.888663 0.966696 0.725201
O O9 0.853668 0.723757 0.745147
O O10 0.940983 0.789842 0.849699
O O11 0.645468 0.142678 0.420131
O O12 0.540578 0.263324 0.452946
O O13 0.750000 0.626090 0.731301
O O14 0.839171 0.460619 0.745115
O O15 0.750000 0.332919 0.836062
O O16 0.500000 0.000000 0.899880
#
# Coordination Sequence:
#
# PCOD8192569 Si02
#       7
#     8   8   8   8   8   8   8
#     4  11  21  36  62  87 115 159 200 239 304 367
#     4  10  21  36  59  88 113 152 205 246 292 355
#     4  11  22  41  61  84 124 159 198 247 306 357
#     4  11  20  36  62  89 119 152 205 249 300 348
#     4  10  23  39  57  88 123 154 195 244 300 367
#     4  10  20  36  57  85 119 152 195 251 291 347
#     4   9  19  39  58  84 117 157 197 249 294 351
#
# _framework density 18.613813
#
# number of rings (size 3 to 8) (size 9 to 14) (size 15 to 20)
#    0.000    1.714    5.714    0.857    0.000    3.429 
#    0.000    7.143    0.000    0.000    0.000    0.000 
#    0.000    0.000    0.000    0.000    0.000    0.000 
#
# Total GULP energy -347205.549437 kJ/mol
# GULP energy per Si atom -12400.198194 kJ/mol
# Density = 1.857145 g / cm^3
# Si number density = 18.613813 Si / 1000 Ang^3
#
#
#
# Elastic Constant Matrix: (Units=GPa)
#
#
# Indices 1 2 3 4 5 6 
#
# 1 91.7323 46.4548 51.3778 0.0000 0.0000 0.0000
# 2 46.4548 66.4657 25.7780 0.0000 0.0000 0.0000
# 3 51.3778 25.7780 114.3026 0.0000 0.0000 0.0000
# 4 0.0000 0.0000 0.0000 27.5903 0.0000 0.0000
# 5 0.0000 0.0000 0.0000 0.0000 21.4864 0.0000
# 6 0.0000 0.0000 0.0000 0.0000 0.0000 28.9279
#
#
#
# Elastic Compliance Matrix: (Units=1/GPa)
#
#
# Indices 1 2 3 4 5 6 
#
# 1 0.020579 -0.011830 -0.006582 0.000000 0.000000 0.000000
# 2 -0.011830 0.023289 0.000066 0.000000 0.000000 0.000000
# 3 -0.006582 0.000066 0.011692 0.000000 0.000000 0.000000
# 4 0.000000 0.000000 0.000000 0.036245 0.000000 0.000000
# 5 0.000000 0.000000 0.000000 0.000000 0.046541 0.000000
# 6 0.000000 0.000000 0.000000 0.000000 0.000000 0.034569
#
#
# Mechanical properties :
#
#
# Convention : Reuss Voigt Hill
#
# Bulk Modulus (GPa) = 53.00488 57.74686 55.37587
# Shear Modulus (GPa) = 23.15922 25.52691 24.34306
#
# Velocity S-wave (km/s) = 3.53114 3.70725 3.62027
# Velocity P-wave (km/s) = 6.72036 7.02965 6.87674
#
# Compressibility (1/GPa) = 0.01886619
#
# Stress axis : x y z
#
# Youngs Moduli (GPa) = 48.59355 42.93955 85.52527
#
# Poissons Ratio (x) = 0.50799 0.56292
# Poissons Ratio (y) = 0.57488 -0.00560
# Poissons Ratio (z) = 0.31984 -0.00281
#
# Static dielectric constant tensor:
#      x y z
#    x 3.724600 0.000000 0.000000 
#    y 0.000000 3.307720 0.000000 
#    z 0.000000 0.000000 3.568950 
# 
# 
# High freq. dielectric constant tensor:
#      x y z
#    x 1.730850 0.000000 0.000000 
#    y 0.000000 1.707990 0.000000 
#    z 0.000000 0.000000 1.726540 
# 
# From -- ./inp_files/17099.got.cif
#   From: 2010.03.12/outbox.cif.g09.slc.cpg/sg46_9_cif.got.tgz:17099.got - 2010.04.14 02:56:35.
