data_PCOD8192844
_publ_section_title
;
Structure prediction by ZEFSAII (Michael W. Deem and Ramdas Pophale) SiO2 
 PCOD8192844
Probable space group: I M A 2
;
_chemical_formula_sum "Si O2"
_cell_formula_units_Z 60
_cell_length_a 9.645267
_cell_length_b 16.691387
_cell_length_c 18.419372
_cell_angle_alpha 90.000000
_cell_angle_beta 90.000000
_cell_angle_gamma 90.000000
_cell_volume 2965.387824
_symmetry_space_group_name_H-M "I M A 2"
_symmetry_group_IT_number 46
_symmetry_cell_setting 'orthorhombic'
loop_
_space_group_symop_operation_xyz
x,y,z
-x,-y,z
1/2-x,y,z
1/2+x,-y,z
1/2+x,1/2+y,1/2+z
1/2-x,1/2-y,1/2+z
-x,1/2+y,1/2+z
x,1/2-y,1/2+z
loop_
_atom_site_type_symbol
_atom_site_label
_atom_site_fract_x
_atom_site_fract_y
_atom_site_fract_z
Si Si1 0.094075 0.714636 0.775490
Si Si2 0.000000 0.000000 0.908240
Si Si3 0.902958 0.888930 0.656564
Si Si4 0.908250 0.651106 0.488640
Si Si5 0.590003 0.794018 0.146594
Si Si6 0.597246 0.101131 0.779352
Si Si7 0.412622 0.790839 0.436232
Si Si8 0.908727 0.928449 0.497588
O O1 0.250000 0.705635 0.746301
O O2 0.055229 0.806834 0.791464
O O3 0.076672 0.674351 0.854406
O O4 0.995818 0.672715 0.715833
O O5 0.904891 0.053064 0.854946
O O6 0.085976 0.059477 0.960535
O O7 0.750000 0.884692 0.690648
O O8 0.952733 0.798873 0.636069
O O9 0.902321 0.941580 0.583928
O O10 0.995416 0.932685 0.717388
O O11 0.750000 0.682923 0.477819
O O12 0.947815 0.656412 0.574061
O O13 0.019645 0.702814 0.443529
O O14 0.750000 0.804600 0.166019
O O15 0.750000 0.094177 0.746481
O O16 0.250000 0.788601 0.460611
O O17 0.508560 0.846783 0.485136
O O18 0.750000 0.926644 0.466422
O O19 0.000000 0.000000 0.462578
#
# Coordination Sequence:
#
# PCOD8192844 Si02
#       8
#     8   4   8   8   8   8   8   8
#     4   9  19  37  59  86 115 148 196 251 304 364
#     4  12  24  38  58  90 126 170 212 258 314 368
#     4   9  19  36  57  83 118 156 197 243 293 357
#     4  11  23  40  62  88 124 166 210 258 309 370
#     4   9  18  36  60  87 112 149 202 249 298 362
#     4  10  21  36  52  80 120 159 200 243 292 356
#     4  11  22  39  63  90 121 156 201 253 312 375
#     4  11  23  40  60  89 122 155 199 248 308 371
#
# _framework density 20.233440999999999
#
# number of rings (size 3 to 8) (size 9 to 14) (size 15 to 20)
#    0.000    1.867    2.667    1.200    0.933    4.267 
#    0.000    0.000    1.467    0.000    0.000    0.000 
#    0.000    0.000    0.000    0.000    0.000    0.000 
#
# Total GULP energy -371823.118816 kJ/mol
# GULP energy per Si atom -12394.103961 kJ/mol
# Density = 2.018739 g / cm^3
# Si number density = 20.233441 Si / 1000 Ang^3
#
#
#
# Elastic Constant Matrix: (Units=GPa)
#
#
# Indices 1 2 3 4 5 6 
#
# 1 134.6862 34.8990 60.3248 0.0000 0.0000 0.0000
# 2 34.8990 63.3455 30.4049 0.0000 0.0000 0.0000
# 3 60.3248 30.4049 117.6244 0.0000 0.0000 0.0000
# 4 0.0000 0.0000 0.0000 30.9532 0.0000 0.0000
# 5 0.0000 0.0000 0.0000 0.0000 29.2756 0.0000
# 6 0.0000 0.0000 0.0000 0.0000 0.0000 18.2095
#
#
#
# Elastic Compliance Matrix: (Units=1/GPa)
#
#
# Indices 1 2 3 4 5 6 
#
# 1 0.010306 -0.003586 -0.004359 0.000000 0.000000 0.000000
# 2 -0.003586 0.019270 -0.003142 0.000000 0.000000 0.000000
# 3 -0.004359 -0.003142 0.011549 0.000000 0.000000 0.000000
# 4 0.000000 0.000000 0.000000 0.032307 0.000000 0.000000
# 5 0.000000 0.000000 0.000000 0.000000 0.034158 0.000000
# 6 0.000000 0.000000 0.000000 0.000000 0.000000 0.054916
#
#
# Mechanical properties :
#
#
# Convention : Reuss Voigt Hill
#
# Bulk Modulus (GPa) = 52.76433 62.99038 57.87736
# Shear Modulus (GPa) = 26.17839 28.35617 27.26728
#
# Velocity S-wave (km/s) = 3.60087 3.74766 3.67500
# Velocity P-wave (km/s) = 6.58959 7.06583 6.83186
#
# Compressibility (1/GPa) = 0.01895220
#
# Stress axis : x y z
#
# Youngs Moduli (GPa) = 97.03107 51.89364 86.58595
#
# Poissons Ratio (x) = 0.18608 0.37739
# Poissons Ratio (y) = 0.34793 0.27207
# Poissons Ratio (z) = 0.42292 0.16306
#
# Static dielectric constant tensor:
#      x y z
#    x 3.681710 0.000000 0.000000 
#    y 0.000000 3.389550 0.000000 
#    z 0.000000 0.000000 3.690410 
# 
# 
# High freq. dielectric constant tensor:
#      x y z
#    x 1.795110 0.000000 0.000000 
#    y 0.000000 1.761220 0.000000 
#    z 0.000000 0.000000 1.784670 
# 
# From -- ./inp_files/18362.got.cif
#   From: 2010.03.12/outbox.cif.g09.slc.cpg/sg46_10_cif.got.tgz:18362.got - 2010.04.14 02:56:35.
