data_PCOD8192817
_publ_section_title
;
Structure prediction by ZEFSAII (Michael W. Deem and Ramdas Pophale) SiO2 
 PCOD8192817
Probable space group: I M A 2
;
_chemical_formula_sum "Si O2"
_cell_formula_units_Z 48
_cell_length_a 24.773515
_cell_length_b 7.559274
_cell_length_c 12.282568
_cell_angle_alpha 90.000000
_cell_angle_beta 90.000000
_cell_angle_gamma 90.000000
_cell_volume 2300.153903
_symmetry_space_group_name_H-M "I M A 2"
_symmetry_group_IT_number 46
_symmetry_cell_setting 'orthorhombic'
loop_
_space_group_symop_operation_xyz
x,y,z
-x,-y,z
1/2-x,y,z
1/2+x,-y,z
1/2+x,1/2+y,1/2+z
1/2-x,1/2-y,1/2+z
-x,1/2+y,1/2+z
x,1/2-y,1/2+z
loop_
_atom_site_type_symbol
_atom_site_label
_atom_site_fract_x
_atom_site_fract_y
_atom_site_fract_z
Si Si1 0.750000 0.585313 0.972190
Si Si2 0.084987 0.946616 0.337348
Si Si3 0.538961 0.352310 0.612911
Si Si4 0.750000 0.560985 0.221735
Si Si5 0.250000 0.701940 0.412395
Si Si6 0.340787 0.234497 0.848203
Si Si7 0.133632 0.618018 0.449324
Si Si8 0.000000 0.000000 0.517702
O O1 0.750000 0.412194 0.896194
O O2 0.696509 0.698560 0.948087
O O3 0.750000 0.515532 0.095239
O O4 0.045306 0.888997 0.240741
O O5 0.120181 0.774617 0.365188
O O6 0.122157 0.109902 0.300699
O O7 0.052365 0.016934 0.441723
O O8 0.500000 0.500000 0.560501
O O9 0.597510 0.360731 0.556670
O O10 0.508142 0.167400 0.596219
O O11 0.750000 0.380677 0.291250
O O12 0.803326 0.674092 0.248319
O O13 0.197195 0.635187 0.478786
O O14 0.377017 0.071372 0.892077
#
# Coordination Sequence:
#
# PCOD8192817 Si02
#       8
#     4   8   8   4   4   8   8   4
#     4  11  21  41  65  90 138 179 211 278 330 396
#     4  11  22  43  66  94 133 173 218 283 333 395
#     4  11  24  43  70 100 128 183 224 267 353 397
#     4   9  23  39  63  96 128 181 215 256 338 386
#     4  10  20  44  60  96 138 168 226 278 318 412
#     4  10  22  41  62  95 135 165 222 274 322 397
#     4  10  23  41  65  99 134 175 224 274 336 399
#     4  10  24  46  62  96 136 162 226 280 326 408
#
# _framework density 20.868167
#
# number of rings (size 3 to 8) (size 9 to 14) (size 15 to 20)
#    0.000    1.667    2.500    1.500    2.333    4.000 
#    6.000    0.000    0.000    0.000    0.000    0.000 
#    0.000    0.000    0.000    0.000    0.000    0.000 
#
# Total GULP energy -297641.026487 kJ/mol
# GULP energy per Si atom -12401.709437 kJ/mol
# Density = 2.082067 g / cm^3
# Si number density = 20.868167 Si / 1000 Ang^3
#
#
#
# Elastic Constant Matrix: (Units=GPa)
#
#
# Indices 1 2 3 4 5 6 
#
# 1 105.2232 59.4142 37.4729 0.0000 0.0000 0.0000
# 2 59.4142 177.2263 49.7436 0.0000 0.0000 0.0000
# 3 37.4729 49.7436 85.7980 0.0000 0.0000 0.0000
# 4 0.0000 0.0000 0.0000 27.1661 0.0000 0.0000
# 5 0.0000 0.0000 0.0000 0.0000 17.6282 0.0000
# 6 0.0000 0.0000 0.0000 0.0000 0.0000 41.5109
#
#
#
# Elastic Compliance Matrix: (Units=1/GPa)
#
#
# Indices 1 2 3 4 5 6 
#
# 1 0.012613 -0.003204 -0.003651 0.000000 0.000000 0.000000
# 2 -0.003204 0.007553 -0.002980 0.000000 0.000000 0.000000
# 3 -0.003651 -0.002980 0.014978 0.000000 0.000000 0.000000
# 4 0.000000 0.000000 0.000000 0.036811 0.000000 0.000000
# 5 0.000000 0.000000 0.000000 0.000000 0.056727 0.000000
# 6 0.000000 0.000000 0.000000 0.000000 0.000000 0.024090
#
#
# Mechanical properties :
#
#
# Convention : Reuss Voigt Hill
#
# Bulk Modulus (GPa) = 64.62502 73.50098 69.06300
# Shear Modulus (GPa) = 28.15337 32.03550 30.09443
#
# Velocity S-wave (km/s) = 3.67700 3.92233 3.80165
# Velocity P-wave (km/s) = 7.00447 7.47067 7.24132
#
# Compressibility (1/GPa) = 0.01547388
#
# Stress axis : x y z
#
# Youngs Moduli (GPa) = 79.28430 132.40083 66.76605
#
# Poissons Ratio (x) = 0.42415 0.24379
# Poissons Ratio (y) = 0.25399 0.19895
# Poissons Ratio (z) = 0.28950 0.39453
#
# Static dielectric constant tensor:
#      x y z
#    x 3.879480 0.000000 0.000000 
#    y 0.000000 3.983680 0.000000 
#    z 0.000000 0.000000 3.321160 
# 
# 
# High freq. dielectric constant tensor:
#      x y z
#    x 1.826100 0.000000 0.000000 
#    y 0.000000 1.836260 0.000000 
#    z 0.000000 0.000000 1.786260 
# 
# From -- ./inp_files/12762.got.cif
#   From: 2010.03.12/outbox.cif.g09.slc.cpg/sg46_7_cif.got.tgz:12762.got - 2010.04.14 02:56:35.
