data_PCOD8192109
_publ_section_title
;
Structure prediction by ZEFSAII (Michael W. Deem and Ramdas Pophale) SiO2 
 PCOD8192109
Probable space group: I M A 2
;
_chemical_formula_sum "Si O2"
_cell_formula_units_Z 56
_cell_length_a 20.555470
_cell_length_b 14.980082
_cell_length_c 9.368191
_cell_angle_alpha 90.000000
_cell_angle_beta 90.000000
_cell_angle_gamma 90.000000
_cell_volume 2884.677975
_symmetry_space_group_name_H-M "I M A 2"
_symmetry_group_IT_number 46
_symmetry_cell_setting 'orthorhombic'
loop_
_space_group_symop_operation_xyz
x,y,z
-x,-y,z
1/2-x,y,z
1/2+x,-y,z
1/2+x,1/2+y,1/2+z
1/2-x,1/2-y,1/2+z
-x,1/2+y,1/2+z
x,1/2-y,1/2+z
loop_
_atom_site_type_symbol
_atom_site_label
_atom_site_fract_x
_atom_site_fract_y
_atom_site_fract_z
Si Si1 0.673016 0.849852 0.253880
Si Si2 0.823179 0.043368 0.296671
Si Si3 0.827433 0.154420 0.550523
Si Si4 0.049158 0.131800 0.756909
Si Si5 0.176316 0.854888 0.014628
Si Si6 0.397068 0.246697 0.504911
Si Si7 0.404760 0.560753 0.288321
O O1 0.750000 0.843413 0.242188
O O2 0.651270 0.808654 0.404409
O O3 0.645380 0.804124 0.113210
O O4 0.644093 0.950498 0.249850
O O5 0.750000 0.018221 0.341146
O O6 0.857648 0.086774 0.433816
O O7 0.823439 0.119235 0.178985
O O8 0.750000 0.153068 0.558928
O O9 0.849769 0.253757 0.508000
O O10 0.855283 0.120590 0.698281
O O11 0.058397 0.183285 0.605982
O O12 0.976096 0.098725 0.766749
O O13 0.097140 0.045533 0.757803
O O14 0.060630 0.192151 0.897738
O O15 0.250000 0.864651 0.951661
O O16 0.124029 0.922036 0.945148
#
# Coordination Sequence:
#
# PCOD8192109 Si02
#       7
#     8   8   8   8   8   8   8
#     4  10  19  34  59  85 109 142 182 231 284 336
#     4   9  18  32  51  80 114 141 172 219 282 340
#     4  10  20  35  57  86 118 149 187 239 296 349
#     4  10  24  40  58  81 114 155 199 236 283 338
#     4  10  20  35  57  86 118 149 187 239 296 349
#     4  10  21  40  58  78 115 146 186 238 282 336
#     4  11  22  38  58  84 113 151 199 240 281 353
#
# _framework density 19.412911999999999
#
# number of rings (size 3 to 8) (size 9 to 14) (size 15 to 20)
#    0.000    2.000    0.000    3.429    2.000    2.286 
#    0.000    7.143    0.000    6.857    0.000    0.000 
#    0.000    0.000    0.000    0.000    0.000    0.000 
#
# Total GULP energy -347037.496227 kJ/mol
# GULP energy per Si atom -12394.196294 kJ/mol
# Density = 1.936873 g / cm^3
# Si number density = 19.412912 Si / 1000 Ang^3
#
#
#
# Elastic Constant Matrix: (Units=GPa)
#
#
# Indices 1 2 3 4 5 6 
#
# 1 36.1930 30.7285 17.8097 0.0000 0.0000 0.0000
# 2 30.7285 132.9712 42.4593 0.0000 0.0000 0.0000
# 3 17.8097 42.4593 96.4433 0.0000 0.0000 0.0000
# 4 0.0000 0.0000 0.0000 32.3338 0.0000 0.0000
# 5 0.0000 0.0000 0.0000 0.0000 74.4570 0.0000
# 6 0.0000 0.0000 0.0000 0.0000 0.0000 23.4772
#
#
#
# Elastic Compliance Matrix: (Units=1/GPa)
#
#
# Indices 1 2 3 4 5 6 
#
# 1 0.035311 -0.007072 -0.003407 0.000000 0.000000 0.000000
# 2 -0.007072 0.010167 -0.003170 0.000000 0.000000 0.000000
# 3 -0.003407 -0.003170 0.012394 0.000000 0.000000 0.000000
# 4 0.000000 0.000000 0.000000 0.030927 0.000000 0.000000
# 5 0.000000 0.000000 0.000000 0.000000 0.013431 0.000000
# 6 0.000000 0.000000 0.000000 0.000000 0.000000 0.042594
#
#
# Mechanical properties :
#
#
# Convention : Reuss Voigt Hill
#
# Bulk Modulus (GPa) = 32.70900 49.73359 41.22130
# Shear Modulus (GPa) = 27.42541 37.69429 32.55985
#
# Velocity S-wave (km/s) = 3.76272 4.41127 4.09984
# Velocity P-wave (km/s) = 5.98023 7.18472 6.60996
#
# Compressibility (1/GPa) = 0.03057262
#
# Stress axis : x y z
#
# Youngs Moduli (GPa) = 28.32018 98.35801 80.68690
#
# Poissons Ratio (x) = 0.69559 0.27491
# Poissons Ratio (y) = 0.20028 0.25578
# Poissons Ratio (z) = 0.09649 0.31180
#
# Static dielectric constant tensor:
#      x y z
#    x 3.232410 0.000000 0.000000 
#    y 0.000000 3.927170 0.000000 
#    z 0.000000 0.000000 3.610310 
# 
# 
# High freq. dielectric constant tensor:
#      x y z
#    x 1.730150 0.000000 0.000000 
#    y 0.000000 1.774660 0.000000 
#    z 0.000000 0.000000 1.768040 
# 
# From -- ./inp_files/7404.got.cif
#   From: 2010.03.12/outbox.cif.g09.slc.cpg/sg46_4_cif.got.tgz:7404.got - 2010.04.14 02:56:35.
