data_PCOD8192214
_publ_section_title
;
Structure prediction by ZEFSAII (Michael W. Deem and Ramdas Pophale) SiO2 
 PCOD8192214
Probable space group: I M A 2
;
_chemical_formula_sum "Si O2"
_cell_formula_units_Z 64
_cell_length_a 10.335565
_cell_length_b 34.084175
_cell_length_c 8.882711
_cell_angle_alpha 90.000000
_cell_angle_beta 90.000000
_cell_angle_gamma 90.000000
_cell_volume 3129.194380
_symmetry_space_group_name_H-M "I M A 2"
_symmetry_group_IT_number 46
_symmetry_cell_setting 'orthorhombic'
loop_
_space_group_symop_operation_xyz
x,y,z
-x,-y,z
1/2-x,y,z
1/2+x,-y,z
1/2+x,1/2+y,1/2+z
1/2-x,1/2-y,1/2+z
-x,1/2+y,1/2+z
x,1/2-y,1/2+z
loop_
_atom_site_type_symbol
_atom_site_label
_atom_site_fract_x
_atom_site_fract_y
_atom_site_fract_z
Si Si1 0.996538 0.414607 0.906160
Si Si2 0.108436 0.032298 0.650970
Si Si3 0.392148 0.361281 0.663702
Si Si4 0.103947 0.534715 0.640924
Si Si5 0.024234 0.413187 0.406936
Si Si6 0.096415 0.795524 0.181211
Si Si7 0.902395 0.216417 0.524187
Si Si8 0.897231 0.137931 0.662767
O O1 0.084674 0.382582 0.822764
O O2 0.908221 0.437862 0.787556
O O3 0.088297 0.444490 0.995693
O O4 0.904510 0.392631 0.024811
O O5 0.250000 0.012226 0.642265
O O6 0.109212 0.060742 0.794638
O O7 0.000000 0.000000 0.673167
O O8 0.250000 0.340865 0.670516
O O9 0.385508 0.394127 0.533722
O O10 0.509262 0.331664 0.625483
O O11 0.250000 0.517539 0.636562
O O12 0.083416 0.559972 0.489252
O O13 0.000000 0.500000 0.648909
O O14 0.961697 0.377966 0.313082
O O15 0.250000 0.805065 0.161783
O O16 0.057211 0.786784 0.351715
O O17 0.050015 0.757972 0.086701
O O18 0.750000 0.214035 0.540883
O O19 0.962606 0.179692 0.616616
O O20 0.750000 0.145277 0.703925
#
# Coordination Sequence:
#
# PCOD8192214 Si02
#       8
#     8   8   8   8   8   8   8   8
#     4  10  22  39  62  87 119 156 203 252 303 361
#     4  11  24  42  63  88 119 156 200 250 307 365
#     4  11  23  41  63  88 123 165 207 249 300 357
#     4  11  24  40  60  89 121 158 200 251 306 365
#     4  10  24  39  60  86 121 161 204 249 300 359
#     4  10  21  38  62  92 125 159 200 248 298 356
#     4   9  19  35  60  91 124 156 193 243 300 352
#     4  10  19  36  62  91 120 155 201 254 299 349
#
# _framework density 20.452548
#
# number of rings (size 3 to 8) (size 9 to 14) (size 15 to 20)
#    0.000    1.750    1.250    2.250    1.750   10.500 
#    0.000    0.625    0.000    0.000    0.000    0.000 
#    0.000    0.000    0.000    0.000    0.000    0.000 
#
# Total GULP energy -396763.163796 kJ/mol
# GULP energy per Si atom -12398.848869 kJ/mol
# Density = 2.040600 g / cm^3
# Si number density = 20.452548 Si / 1000 Ang^3
#
#
#
# Elastic Constant Matrix: (Units=GPa)
#
#
# Indices 1 2 3 4 5 6 
#
# 1 116.0863 38.8562 15.8529 -0.0283 0.0066 0.0025
# 2 38.8562 97.3005 19.1097 -0.0346 0.0020 -0.0002
# 3 15.8529 19.1097 82.9198 -0.0861 0.0107 0.0129
# 4 -0.0283 -0.0346 -0.0861 28.0990 0.0109 0.0043
# 5 0.0066 0.0020 0.0107 0.0109 6.6309 -0.0184
# 6 0.0025 -0.0002 0.0129 0.0043 -0.0184 27.1468
#
#
#
# Elastic Compliance Matrix: (Units=1/GPa)
#
#
# Indices 1 2 3 4 5 6 
#
# 1 0.010029 -0.003800 -0.001041 0.000002 -0.000007 0.000000
# 2 -0.003800 0.012205 -0.002086 0.000005 0.000004 0.000001
# 3 -0.001041 -0.002086 0.012740 0.000035 -0.000019 -0.000006
# 4 0.000002 0.000005 0.000035 0.035589 -0.000059 -0.000006
# 5 -0.000007 0.000004 -0.000019 -0.000059 0.150810 0.000102
# 6 0.000000 0.000001 -0.000006 -0.000006 0.000102 0.036837
#
#
# Mechanical properties :
#
#
# Convention : Reuss Voigt Hill
#
# Bulk Modulus (GPa) = 47.35461 49.32712 48.34086
# Shear Modulus (GPa) = 17.91450 27.20787 22.56119
#
# Velocity S-wave (km/s) = 2.96278 3.65127 3.32490
# Velocity P-wave (km/s) = 5.90828 6.47657 6.19894
#
# Compressibility (1/GPa) = 0.02111727
#
# Stress axis : x y z
#
# Youngs Moduli (GPa) = 99.71561 81.93521 78.49433
#
# Poissons Ratio (x) = 0.31138 0.08175
# Poissons Ratio (y) = 0.37895 0.16375
# Poissons Ratio (z) = 0.10385 0.17093
#
# Static dielectric constant tensor:
#      x y z
#    x 3.352850 0.000010 0.000000 
#    y 0.000010 3.928180 -0.000010 
#    z 0.000000 -0.000010 3.925600 
# 
# 
# High freq. dielectric constant tensor:
#      x y z
#    x 1.771870 0.000000 0.000000 
#    y 0.000000 1.801040 0.000000 
#    z 0.000000 0.000000 1.816890 
# 
# From -- ./inp_files/5023.got.cif
#   From: 2010.03.12/outbox.cif.g09.slc.cpg/sg46_3_cif.got.tgz:5023.got - 2010.04.14 02:56:35.
