data_PCOD8192282
_publ_section_title
;
Structure prediction by ZEFSAII (Michael W. Deem and Ramdas Pophale) SiO2 
 PCOD8192282
Probable space group: I M A 2
;
_chemical_formula_sum "Si O2"
_cell_formula_units_Z 64
_cell_length_a 8.794330
_cell_length_b 14.748494
_cell_length_c 27.308999
_cell_angle_alpha 90.000000
_cell_angle_beta 90.000000
_cell_angle_gamma 90.000000
_cell_volume 3542.062463
_symmetry_space_group_name_H-M "I M A 2"
_symmetry_group_IT_number 46
_symmetry_cell_setting 'orthorhombic'
loop_
_space_group_symop_operation_xyz
x,y,z
-x,-y,z
1/2-x,y,z
1/2+x,-y,z
1/2+x,1/2+y,1/2+z
1/2-x,1/2-y,1/2+z
-x,1/2+y,1/2+z
x,1/2-y,1/2+z
loop_
_atom_site_type_symbol
_atom_site_label
_atom_site_fract_x
_atom_site_fract_y
_atom_site_fract_z
Si Si1 0.574143 0.282857 0.455220
Si Si2 0.572433 0.907256 0.032409
Si Si3 0.572651 0.410056 0.989519
Si Si4 0.070060 0.775236 0.672334
Si Si5 0.430924 0.093705 0.594970
Si Si6 0.570622 0.093970 0.867913
Si Si7 0.429710 0.094270 0.145146
Si Si8 0.428471 0.593533 0.258122
O O1 0.750000 0.305767 0.463963
O O2 0.483513 0.322639 0.501004
O O3 0.547078 0.174650 0.453143
O O4 0.516510 0.325747 0.404102
O O5 0.750000 0.917448 0.026495
O O6 0.525563 0.890208 0.088509
O O7 0.500000 0.000000 0.012259
O O8 0.500000 0.500000 0.964760
O O9 0.750000 0.426446 0.000534
O O10 0.486968 0.390120 0.040025
O O11 0.250000 0.775559 0.663933
O O12 0.022752 0.825281 0.722484
O O13 0.988755 0.822945 0.626892
O O14 0.007354 0.673456 0.676706
O O15 0.250000 0.089441 0.596589
O O16 0.500000 0.000000 0.616069
O O17 0.750000 0.083180 0.868764
O O18 0.512940 0.116810 0.813001
O O19 0.500000 0.000000 0.886797
O O20 0.250000 0.094001 0.153465
O O21 0.500000 0.000000 0.164006
O O22 0.500000 0.500000 0.238959
O O23 0.250000 0.579317 0.257656
#
# Coordination Sequence:
#
# PCOD8192282 Si02
#       8
#     8   8   8   8   8   8   8   8
#     4  10  20  32  50  73  98 129 165 202 243 289
#     4  10  20  32  48  71 101 132 163 198 239 286
#     4  10  20  34  50  70  97 131 167 206 246 288
#     4  11  21  33  51  75 100 131 168 206 247 295
#     4  11  21  33  49  72 102 135 167 204 247 295
#     4   9  18  34  52  74 101 128 158 195 241 293
#     4  10  21  36  52  72  99 134 170 208 248 289
#     4   9  19  34  53  75 101 130 160 197 244 293
#
# _framework density 18.068569
#
# number of rings (size 3 to 8) (size 9 to 14) (size 15 to 20)
#    0.000    2.000    0.000    4.875    0.000    8.000 
#    0.000    0.000    0.000    0.750    0.000    1.750 
#    0.000    0.000    0.000    0.000    0.000    0.000 
#
# Total GULP energy -396871.962120 kJ/mol
# GULP energy per Si atom -12402.248816 kJ/mol
# Density = 1.802744 g / cm^3
# Si number density = 18.068569 Si / 1000 Ang^3
#
#
#
# Elastic Constant Matrix: (Units=GPa)
#
#
# Indices 1 2 3 4 5 6 
#
# 1 78.8857 51.3749 34.3128 0.0000 0.0000 0.0000
# 2 51.3749 156.6221 67.0158 0.0000 0.0000 0.0000
# 3 34.3128 67.0158 74.5477 0.0000 0.0000 0.0000
# 4 0.0000 0.0000 0.0000 26.4845 0.0000 0.0000
# 5 0.0000 0.0000 0.0000 0.0000 16.7562 0.0000
# 6 0.0000 0.0000 0.0000 0.0000 0.0000 34.3828
#
#
#
# Elastic Compliance Matrix: (Units=1/GPa)
#
#
# Indices 1 2 3 4 5 6 
#
# 1 0.017030 -0.003628 -0.004578 0.000000 0.000000 0.000000
# 2 -0.003628 0.011149 -0.008353 0.000000 0.000000 0.000000
# 3 -0.004578 -0.008353 0.023030 0.000000 0.000000 0.000000
# 4 0.000000 0.000000 0.000000 0.037758 0.000000 0.000000
# 5 0.000000 0.000000 0.000000 0.000000 0.059680 0.000000
# 6 0.000000 0.000000 0.000000 0.000000 0.000000 0.029084
#
#
# Mechanical properties :
#
#
# Convention : Reuss Voigt Hill
#
# Bulk Modulus (GPa) = 55.26921 68.38474 61.82697
# Shear Modulus (GPa) = 23.05456 26.01482 24.53469
#
# Velocity S-wave (km/s) = 3.57592 3.79856 3.68892
# Velocity P-wave (km/s) = 6.90685 7.56097 7.24130
#
# Compressibility (1/GPa) = 0.01809326
#
# Stress axis : x y z
#
# Youngs Moduli (GPa) = 58.71937 89.69745 43.42187
#
# Poissons Ratio (x) = 0.32538 0.19877
# Poissons Ratio (y) = 0.21301 0.36268
# Poissons Ratio (z) = 0.26880 0.74920
#
# Static dielectric constant tensor:
#      x y z
#    x 3.363880 0.000000 0.000000 
#    y 0.000000 3.538610 0.000000 
#    z 0.000000 0.000000 3.333120 
# 
# 
# High freq. dielectric constant tensor:
#      x y z
#    x 1.708030 0.000000 0.000000 
#    y 0.000000 1.704160 0.000000 
#    z 0.000000 0.000000 1.672940 
# 
# From -- ./inp_files/23145.got.cif
#   From: 2010.03.12/outbox.cif.g09.slc.cpg/sg46_12_cif.got.tgz:23145.got - 2010.04.14 02:56:35.
