data_PCOD8192082
_publ_section_title
;
Structure prediction by ZEFSAII (Michael W. Deem and Ramdas Pophale) SiO2 
 PCOD8192082
Probable space group: I M A 2
;
_chemical_formula_sum "Si O2"
_cell_formula_units_Z 64
_cell_length_a 20.138194
_cell_length_b 8.864928
_cell_length_c 17.152638
_cell_angle_alpha 90.000000
_cell_angle_beta 90.000000
_cell_angle_gamma 90.000000
_cell_volume 3062.151369
_symmetry_space_group_name_H-M "I M A 2"
_symmetry_group_IT_number 46
_symmetry_cell_setting 'orthorhombic'
loop_
_space_group_symop_operation_xyz
x,y,z
-x,-y,z
1/2-x,y,z
1/2+x,-y,z
1/2+x,1/2+y,1/2+z
1/2-x,1/2-y,1/2+z
-x,1/2+y,1/2+z
x,1/2-y,1/2+z
loop_
_atom_site_type_symbol
_atom_site_label
_atom_site_fract_x
_atom_site_fract_y
_atom_site_fract_z
Si Si1 0.671027 0.617262 0.361360
Si Si2 0.571717 0.991464 0.223142
Si Si3 0.325330 0.514702 0.206264
Si Si4 0.121500 0.249998 0.611360
Si Si5 0.896403 0.250001 0.611359
Si Si6 0.928283 0.991468 0.499576
Si Si7 0.174670 0.985302 0.016456
Si Si8 0.169326 0.465747 0.861359
O O1 0.750000 0.606716 0.361359
O O2 0.638911 0.536221 0.286303
O O3 0.638911 0.536223 0.436418
O O4 0.651533 0.790972 0.361360
O O5 0.579186 0.827619 0.180915
O O6 0.632663 0.028028 0.283025
O O7 0.500000 0.000000 0.266706
O O8 0.563640 0.118652 0.155395
O O9 0.250000 0.544743 0.225593
O O10 0.331541 0.382151 0.143183
O O11 0.352886 0.673069 0.178172
O O12 0.079187 0.172376 0.541805
O O13 0.168459 0.382148 0.579537
O O14 0.852883 0.326932 0.544549
O O15 0.936360 0.118658 0.567322
O O16 0.867337 0.028031 0.439693
O O17 0.000000 0.000000 0.456012
O O18 0.250000 0.955268 0.997124
O O19 0.250000 0.499711 0.861359
#
# Coordination Sequence:
#
# PCOD8192082 Si02
#       8
#     8   8   8   8   8   8   8   8
#     4   9  18  34  57  85 120 157 199 247 300 363
#     4  11  23  42  64  90 128 169 210 256 311 368
#     4  10  19  34  56  86 124 160 200 256 313 363
#     4  10  20  34  60  86 117 166 215 252 293 374
#     4  10  24  38  58  92 125 162 209 254 313 370
#     4  11  23  42  64  90 128 169 210 256 311 368
#     4  10  19  34  56  86 124 160 200 256 313 363
#     4  11  23  40  65  95 122 161 215 261 306 371
#
# _framework density 20.900338000000001
#
# number of rings (size 3 to 8) (size 9 to 14) (size 15 to 20)
#    0.000    1.750    2.500    1.875    0.000    6.000 
#    0.000    1.250    0.000    1.500    0.000    0.000 
#    0.000    0.000    0.000    0.000    0.000    0.000 
#
# Total GULP energy -396442.787221 kJ/mol
# GULP energy per Si atom -12388.837101 kJ/mol
# Density = 2.085277 g / cm^3
# Si number density = 20.900338 Si / 1000 Ang^3
#
#
#
# Elastic Constant Matrix: (Units=GPa)
#
#
# Indices 1 2 3 4 5 6 
#
# 1 97.6163 8.8635 29.2721 0.0000 0.0000 0.0000
# 2 8.8635 84.1724 16.4157 0.0000 0.0000 0.0000
# 3 29.2721 16.4157 98.4376 0.0000 0.0000 0.0000
# 4 0.0000 0.0000 0.0000 37.8835 0.0000 0.0000
# 5 0.0000 0.0000 0.0000 0.0000 23.8260 0.0000
# 6 0.0000 0.0000 0.0000 0.0000 0.0000 13.1634
#
#
#
# Elastic Compliance Matrix: (Units=1/GPa)
#
#
# Indices 1 2 3 4 5 6 
#
# 1 0.011272 -0.000551 -0.003260 0.000000 0.000000 0.000000
# 2 -0.000551 0.012307 -0.001888 0.000000 0.000000 0.000000
# 3 -0.003260 -0.001888 0.011443 0.000000 0.000000 0.000000
# 4 0.000000 0.000000 0.000000 0.026397 0.000000 0.000000
# 5 0.000000 0.000000 0.000000 0.000000 0.041971 0.000000
# 6 0.000000 0.000000 0.000000 0.000000 0.000000 0.075968
#
#
# Mechanical properties :
#
#
# Convention : Reuss Voigt Hill
#
# Bulk Modulus (GPa) = 42.33250 43.25876 42.79563
# Shear Modulus (GPa) = 25.17238 30.01958 27.59598
#
# Velocity S-wave (km/s) = 3.47421 3.79399 3.63762
# Velocity P-wave (km/s) = 6.03258 6.31942 6.17766
#
# Compressibility (1/GPa) = 0.02362251
#
# Stress axis : x y z
#
# Youngs Moduli (GPa) = 88.71699 81.25649 87.38938
#
# Poissons Ratio (x) = 0.04479 0.28488
# Poissons Ratio (y) = 0.04890 0.16503
# Poissons Ratio (z) = 0.28921 0.15344
#
# Static dielectric constant tensor:
#      x y z
#    x 3.474830 0.000000 0.000000 
#    y 0.000000 3.870610 0.000000 
#    z 0.000000 0.000000 5.128380 
# 
# 
# High freq. dielectric constant tensor:
#      x y z
#    x 1.790920 0.000000 0.000000 
#    y 0.000000 1.819440 0.000000 
#    z 0.000000 0.000000 1.825740 
# 
# From -- ./inp_files/20237.got.cif
#   From: 2010.03.12/outbox.cif.g09.slc.cpg/sg46_11_cif.got.tgz:20237.got - 2010.04.14 02:56:35.
