data_PCOD8192877
_publ_section_title
;
Structure prediction by ZEFSAII (Michael W. Deem and Ramdas Pophale) SiO2 
 PCOD8192877
Probable space group: I M A 2
;
_chemical_formula_sum "Si O2"
_cell_formula_units_Z 56
_cell_length_a 14.242836
_cell_length_b 11.797658
_cell_length_c 15.288669
_cell_angle_alpha 90.000000
_cell_angle_beta 90.000000
_cell_angle_gamma 90.000000
_cell_volume 2568.987282
_symmetry_space_group_name_H-M "I M A 2"
_symmetry_group_IT_number 46
_symmetry_cell_setting 'orthorhombic'
loop_
_space_group_symop_operation_xyz
x,y,z
-x,-y,z
1/2-x,y,z
1/2+x,-y,z
1/2+x,1/2+y,1/2+z
1/2-x,1/2-y,1/2+z
-x,1/2+y,1/2+z
x,1/2-y,1/2+z
loop_
_atom_site_type_symbol
_atom_site_label
_atom_site_fract_x
_atom_site_fract_y
_atom_site_fract_z
Si Si1 0.392143 0.026770 0.839860
Si Si2 0.353418 0.753398 0.127014
Si Si3 0.548697 0.735012 0.878550
Si Si4 0.524623 0.631412 0.698800
Si Si5 0.855595 0.773381 0.559998
Si Si6 0.352859 0.817839 0.936482
Si Si7 0.611056 0.496273 0.148511
O O1 0.382767 0.159305 0.859253
O O2 0.348489 0.995480 0.746593
O O3 0.500000 0.000000 0.841824
O O4 0.341413 0.950313 0.912127
O O5 0.250000 0.786879 0.161765
O O6 0.430102 0.792203 0.197685
O O7 0.356015 0.619967 0.104077
O O8 0.378449 0.818401 0.038212
O O9 0.565199 0.646648 0.797963
O O10 0.436528 0.759653 0.881629
O O11 0.583930 0.695371 0.973474
O O12 0.500000 0.500000 0.680414
O O13 0.594498 0.680941 0.623989
O O14 0.750000 0.729196 0.539128
O O15 0.844695 0.895070 0.603978
O O16 0.250000 0.759087 0.920436
O O17 0.500000 0.500000 0.147018
#
# Coordination Sequence:
#
# PCOD8192877 Si02
#       7
#     8   8   8   8   8   8   8
#     4   9  19  35  64  94 130 173 224 279 337 410
#     4  11  23  41  68 105 138 177 229 287 358 429
#     4  11  23  45  66  98 138 184 234 292 357 424
#     4  12  27  48  72 101 144 195 238 299 368 435
#     4  12  27  46  71 104 141 189 245 300 364 437
#     4  10  21  36  64 102 138 173 225 289 351 421
#     4  11  19  42  71  98 135 177 227 289 351 420
#
# _framework density 21.798472
#
# number of rings (size 3 to 8) (size 9 to 14) (size 15 to 20)
#    0.000    1.143    4.286    2.143    2.000    6.286 
#    0.000    0.000    0.000    0.000    0.000    0.000 
#    0.000    0.000    0.000    0.000    0.000    0.000 
#
# Total GULP energy -346976.216618 kJ/mol
# GULP energy per Si atom -12392.007736 kJ/mol
# Density = 2.174886 g / cm^3
# Si number density = 21.798472 Si / 1000 Ang^3
#
#
#
# Elastic Constant Matrix: (Units=GPa)
#
#
# Indices 1 2 3 4 5 6 
#
# 1 115.7822 22.3052 36.2165 0.0000 0.0000 0.0000
# 2 22.3052 123.6388 44.6542 0.0000 0.0000 0.0000
# 3 36.2165 44.6542 135.0721 0.0000 0.0000 0.0000
# 4 0.0000 0.0000 0.0000 38.7638 0.0000 0.0000
# 5 0.0000 0.0000 0.0000 0.0000 -93.2942 0.0000
# 6 0.0000 0.0000 0.0000 0.0000 0.0000 118.6431
#
#
#
# Elastic Compliance Matrix: (Units=1/GPa)
#
#
# Indices 1 2 3 4 5 6 
#
# 1 0.009516 -0.000903 -0.002253 0.000000 0.000000 0.000000
# 2 -0.000903 0.009270 -0.002823 0.000000 0.000000 0.000000
# 3 -0.002253 -0.002823 0.008941 0.000000 0.000000 0.000000
# 4 0.000000 0.000000 0.000000 0.025797 0.000000 0.000000
# 5 0.000000 0.000000 0.000000 0.000000 -0.010719 0.000000
# 6 0.000000 0.000000 0.000000 0.000000 0.000000 0.008429
#
#
# Mechanical properties :
#
#
# Convention : Reuss Voigt Hill
#
# Bulk Modulus (GPa) = 63.41298 64.53833 63.97565
# Shear Modulus (GPa) = 73.04888 30.91036 51.97962
#
# Velocity S-wave (km/s) = 5.79515 3.76973 4.88849
# Velocity P-wave (km/s) = 8.59838 6.97272 7.82786
#
# Compressibility (1/GPa) = 0.01576964
#
# Stress axis : x y z
#
# Youngs Moduli (GPa) = 105.09108 107.86987 111.84863
#
# Poissons Ratio (x) = 0.09741 0.25198
# Poissons Ratio (y) = 0.09490 0.31571
# Poissons Ratio (z) = 0.23675 0.30448
#
# Static dielectric constant tensor:
#      x y z
#    x 4.628420 0.000000 0.000000 
#    y 0.000000 4.022640 0.000000 
#    z 0.000000 0.000000 4.044430 
# 
# 
# High freq. dielectric constant tensor:
#      x y z
#    x 1.865570 0.000000 0.000000 
#    y 0.000000 1.838340 0.000000 
#    z 0.000000 0.000000 1.858910 
# 
# From -- ./inp_files/15920.got.cif
#   From: 2010.03.12/outbox.cif.g09.slc.cpg/sg46_8_cif.got.tgz:15920.got - 2010.04.14 02:56:35.
