data_PCOD8192956
_publ_section_title
;
Structure prediction by ZEFSAII (Michael W. Deem and Ramdas Pophale) SiO2 
 PCOD8192956
Probable space group: I M A 2
;
_chemical_formula_sum "Si O2"
_cell_formula_units_Z 64
_cell_length_a 8.531024
_cell_length_b 28.584412
_cell_length_c 12.593514
_cell_angle_alpha 90.000000
_cell_angle_beta 90.000000
_cell_angle_gamma 90.000000
_cell_volume 3070.982601
_symmetry_space_group_name_H-M "I M A 2"
_symmetry_group_IT_number 46
_symmetry_cell_setting 'orthorhombic'
loop_
_space_group_symop_operation_xyz
x,y,z
-x,-y,z
1/2-x,y,z
1/2+x,-y,z
1/2+x,1/2+y,1/2+z
1/2-x,1/2-y,1/2+z
-x,1/2+y,1/2+z
x,1/2-y,1/2+z
loop_
_atom_site_type_symbol
_atom_site_label
_atom_site_fract_x
_atom_site_fract_y
_atom_site_fract_z
Si Si1 0.569512 0.610984 0.618460
Si Si2 0.433194 0.953132 0.287530
Si Si3 0.063693 0.899849 0.713700
Si Si4 0.928726 0.169420 0.439002
Si Si5 0.933586 0.448259 0.429394
Si Si6 0.431328 0.425348 0.997612
Si Si7 0.067900 0.303078 0.141225
Si Si8 0.071133 0.202289 0.230502
O O1 0.750000 0.599932 0.595542
O O2 0.518828 0.590410 0.732686
O O3 0.471580 0.587560 0.524412
O O4 0.538545 0.666951 0.630887
O O5 0.250000 0.948890 0.268058
O O6 0.474098 0.956242 0.412475
O O7 0.500000 0.000000 0.232346
O O8 0.250000 0.895735 0.710590
O O9 0.002635 0.925504 0.820146
O O10 0.004385 0.931411 0.614918
O O11 0.992090 0.847639 0.708831
O O12 0.750000 0.151155 0.446726
O O13 0.050170 0.127785 0.459724
O O14 0.967413 0.205187 0.533976
O O15 0.953094 0.192533 0.325857
O O16 0.750000 0.454060 0.422727
O O17 0.000000 0.500000 0.449358
O O18 0.250000 0.440118 0.998359
O O19 0.250000 0.310620 0.114635
O O20 0.039138 0.255815 0.204608
O O21 0.250000 0.194690 0.267990
#
# Coordination Sequence:
#
# PCOD8192956 Si02
#       8
#     8   8   8   8   8   8   8   8
#     4  11  23  41  64  89 122 163 209 260 313 374
#     4  12  24  39  60  89 122 157 198 247 305 368
#     4  10  22  41  63  90 125 164 208 261 316 376
#     4  11  21  35  58  85 118 158 196 250 310 369
#     4  11  25  44  66  91 125 167 215 267 322 386
#     4  11  21  37  61  88 119 156 198 248 305 369
#     4  10  21  38  61  90 123 164 210 260 312 377
#     4  10  22  39  61  88 121 163 211 258 311 377
#
# _framework density 20.840233000000001
#
# number of rings (size 3 to 8) (size 9 to 14) (size 15 to 20)
#    0.000    1.250    1.250    6.750    0.000    5.000 
#    0.000    5.000    0.000    0.000    0.000    0.000 
#    0.000    0.000    0.000    0.000    0.000    0.000 
#
# Total GULP energy -396773.055330 kJ/mol
# GULP energy per Si atom -12399.157979 kJ/mol
# Density = 2.079280 g / cm^3
# Si number density = 20.840233 Si / 1000 Ang^3
#
#
#
# Elastic Constant Matrix: (Units=GPa)
#
#
# Indices 1 2 3 4 5 6 
#
# 1 72.8136 22.2429 18.9496 -0.0004 0.0000 0.0000
# 2 22.2429 70.9363 27.5800 -0.0004 0.0006 0.0003
# 3 18.9496 27.5800 113.9830 -0.0007 0.0027 0.0016
# 4 -0.0004 -0.0004 -0.0007 26.2187 0.0002 0.0002
# 5 0.0000 0.0006 0.0027 0.0002 35.8485 0.0006
# 6 0.0000 0.0003 0.0016 0.0002 0.0006 26.5309
#
#
#
# Elastic Compliance Matrix: (Units=1/GPa)
#
#
# Indices 1 2 3 4 5 6 
#
# 1 0.015429 -0.004240 -0.001539 0.000000 0.000000 0.000000
# 2 -0.004240 0.016726 -0.003342 0.000000 0.000000 0.000000
# 3 -0.001539 -0.003342 0.009838 0.000000 -0.000001 -0.000001
# 4 0.000000 0.000000 0.000000 0.038141 0.000000 0.000000
# 5 0.000000 0.000000 -0.000001 0.000000 0.027895 -0.000001
# 6 0.000000 0.000000 -0.000001 0.000000 -0.000001 0.037692
#
#
# Mechanical properties :
#
#
# Convention : Reuss Voigt Hill
#
# Bulk Modulus (GPa) = 42.10362 43.91975 43.01169
# Shear Modulus (GPa) = 29.09000 30.31698 29.70349
#
# Velocity S-wave (km/s) = 3.74017 3.81823 3.77940
# Velocity P-wave (km/s) = 6.23689 6.36858 6.30308
#
# Compressibility (1/GPa) = 0.02375093
#
# Stress axis : x y z
#
# Youngs Moduli (GPa) = 64.81133 59.78711 101.64803
#
# Poissons Ratio (x) = 0.25347 0.15647
# Poissons Ratio (y) = 0.27477 0.33974
# Poissons Ratio (z) = 0.09976 0.19983
#
# Static dielectric constant tensor:
#      x y z
#    x 3.747780 0.000000 0.000000 
#    y 0.000000 3.753670 0.000000 
#    z 0.000000 0.000000 3.928370 
# 
# 
# High freq. dielectric constant tensor:
#      x y z
#    x 1.824350 0.000000 0.000000 
#    y 0.000000 1.815640 0.000000 
#    z 0.000000 0.000000 1.816110 
# 
# From -- ./inp_files/9758.got.cif
#   From: 2010.03.12/outbox.cif.g09.slc.cpg/sg46_5_cif.got.tgz:9758.got - 2010.04.14 02:56:35.
