data_PCOD8192659
_publ_section_title
;
Structure prediction by ZEFSAII (Michael W. Deem and Ramdas Pophale) SiO2 
 PCOD8192659
Probable space group: I M A 2
;
_chemical_formula_sum "Si O2"
_cell_formula_units_Z 48
_cell_length_a 16.195678
_cell_length_b 15.456853
_cell_length_c 9.082924
_cell_angle_alpha 90.000000
_cell_angle_beta 90.000000
_cell_angle_gamma 90.000000
_cell_volume 2273.766641
_symmetry_space_group_name_H-M "I M A 2"
_symmetry_group_IT_number 46
_symmetry_cell_setting 'orthorhombic'
loop_
_space_group_symop_operation_xyz
x,y,z
-x,-y,z
1/2-x,y,z
1/2+x,-y,z
1/2+x,1/2+y,1/2+z
1/2-x,1/2-y,1/2+z
-x,1/2+y,1/2+z
x,1/2-y,1/2+z
loop_
_atom_site_type_symbol
_atom_site_label
_atom_site_fract_x
_atom_site_fract_y
_atom_site_fract_z
Si Si1 0.346023 0.334162 0.683880
Si Si2 0.910097 0.680466 0.366118
Si Si3 0.845768 0.512880 0.882007
Si Si4 0.906311 0.322078 0.245046
Si Si5 0.843910 0.176015 0.434044
Si Si6 0.596743 0.511373 0.204915
O O1 0.250000 0.344760 0.638854
O O2 0.402235 0.315063 0.541864
O O3 0.353376 0.254069 0.795482
O O4 0.384622 0.419723 0.764488
O O5 0.877969 0.585725 0.318618
O O6 0.003718 0.692959 0.312677
O O7 0.750000 0.525020 0.858384
O O8 0.873333 0.413198 0.853886
O O9 0.866741 0.539020 0.048429
O O10 0.844936 0.254545 0.320415
O O11 0.870510 0.419436 0.268004
O O12 0.905300 0.304333 0.069732
O O13 0.750000 0.163591 0.491617
O O14 0.500000 0.500000 0.182680
#
# Coordination Sequence:
#
# PCOD8192659 Si02
#       6
#     8   8   8   8   8   8
#     4  11  23  38  57  85 115 150 192 235 282 336
#     4  11  22  38  58  82 114 151 190 236 283 335
#     4   9  20  37  57  81 112 147 187 231 283 338
#     4  10  21  38  58  84 115 149 190 234 281 336
#     4  10  20  37  60  87 116 150 188 232 282 336
#     4   9  20  38  58  81 112 149 189 230 281 337
#
# _framework density 21.110347000000001
#
# number of rings (size 3 to 8) (size 9 to 14) (size 15 to 20)
#    0.000    2.000    0.000    3.000    0.000    7.333 
#    0.000    5.833    0.000    0.000    0.000    0.000 
#    0.000    0.000    0.000    0.000    0.000    0.000 
#
# Total GULP energy -297544.659299 kJ/mol
# GULP energy per Si atom -12397.694137 kJ/mol
# Density = 2.106230 g / cm^3
# Si number density = 21.110347 Si / 1000 Ang^3
#
#
#
# Elastic Constant Matrix: (Units=GPa)
#
#
# Indices 1 2 3 4 5 6 
#
# 1 43.3261 23.0376 24.4077 0.0000 0.0000 0.0000
# 2 23.0376 155.7347 79.0766 0.0000 0.0000 0.0000
# 3 24.4077 79.0766 123.5557 0.0000 0.0000 0.0000
# 4 0.0000 0.0000 0.0000 47.5102 0.0000 0.0000
# 5 0.0000 0.0000 0.0000 0.0000 30.7032 0.0000
# 6 0.0000 0.0000 0.0000 0.0000 0.0000 24.0822
#
#
#
# Elastic Compliance Matrix: (Units=1/GPa)
#
#
# Indices 1 2 3 4 5 6 
#
# 1 0.026329 -0.001857 -0.004012 0.000000 0.000000 0.000000
# 2 -0.001857 0.009644 -0.005805 0.000000 0.000000 0.000000
# 3 -0.004012 -0.005805 0.012601 0.000000 0.000000 0.000000
# 4 0.000000 0.000000 0.000000 0.021048 0.000000 0.000000
# 5 0.000000 0.000000 0.000000 0.000000 0.032570 0.000000
# 6 0.000000 0.000000 0.000000 0.000000 0.000000 0.041524
#
#
# Mechanical properties :
#
#
# Convention : Reuss Voigt Hill
#
# Bulk Modulus (GPa) = 39.64457 63.96226 51.80342
# Shear Modulus (GPa) = 28.49431 33.53211 31.01321
#
# Velocity S-wave (km/s) = 3.67792 3.98982 3.83704
# Velocity P-wave (km/s) = 6.07096 7.18260 6.65005
#
# Compressibility (1/GPa) = 0.02522413
#
# Stress axis : x y z
#
# Youngs Moduli (GPa) = 37.98125 103.69650 79.35641
#
# Poissons Ratio (x) = 0.19261 0.31840
# Poissons Ratio (y) = 0.07055 0.46066
# Poissons Ratio (z) = 0.15239 0.60196
#
# Static dielectric constant tensor:
#      x y z
#    x 3.538630 0.000000 0.000000 
#    y 0.000000 4.319070 0.000000 
#    z 0.000000 0.000000 3.658720 
# 
# 
# High freq. dielectric constant tensor:
#      x y z
#    x 1.813080 0.000000 0.000000 
#    y 0.000000 1.848190 0.000000 
#    z 0.000000 0.000000 1.815770 
# 
# From -- ./inp_files/5715.got.cif
#   From: 2010.03.12/outbox.cif.g09.slc.cpg/sg46_3_cif.got.tgz:5715.got - 2010.04.14 02:56:35.
