data_PCOD8192424
_publ_section_title
;
Structure prediction by ZEFSAII (Michael W. Deem and Ramdas Pophale) SiO2 
 PCOD8192424
Probable space group: I M A 2
;
_chemical_formula_sum "Si O2"
_cell_formula_units_Z 64
_cell_length_a 18.431537
_cell_length_b 10.142236
_cell_length_c 16.929927
_cell_angle_alpha 90.000000
_cell_angle_beta 90.000000
_cell_angle_gamma 90.000000
_cell_volume 3164.829731
_symmetry_space_group_name_H-M "I M A 2"
_symmetry_group_IT_number 46
_symmetry_cell_setting 'orthorhombic'
loop_
_space_group_symop_operation_xyz
x,y,z
-x,-y,z
1/2-x,y,z
1/2+x,-y,z
1/2+x,1/2+y,1/2+z
1/2-x,1/2-y,1/2+z
-x,1/2+y,1/2+z
x,1/2-y,1/2+z
loop_
_atom_site_type_symbol
_atom_site_label
_atom_site_fract_x
_atom_site_fract_y
_atom_site_fract_z
Si Si1 0.832710 0.148168 0.478120
Si Si2 0.665666 0.904109 0.944972
Si Si3 0.560274 0.897768 0.813659
Si Si4 0.966998 0.642156 0.149550
Si Si5 0.448929 0.888235 0.199904
Si Si6 0.331906 0.599997 0.580185
Si Si7 0.473141 0.662353 0.877957
Si Si8 0.897720 0.869959 0.488140
O O1 0.750000 0.158018 0.443124
O O2 0.839522 0.248973 0.550924
O O3 0.895615 0.190563 0.417536
O O4 0.847466 0.997464 0.504131
O O5 0.750000 0.930139 0.932370
O O6 0.626821 0.953844 0.864319
O O7 0.650922 0.748234 0.953727
O O8 0.636116 0.995716 0.016096
O O9 0.586755 0.848126 0.726732
O O10 0.515938 0.797431 0.867610
O O11 0.500000 0.000000 0.786647
O O12 0.000000 0.500000 0.130085
O O13 0.031138 0.744252 0.167959
O O14 0.925466 0.686992 0.071321
O O15 0.369602 0.917053 0.165111
O O16 0.453129 0.903931 0.294527
O O17 0.500000 0.000000 0.162381
O O18 0.250000 0.560447 0.596781
O O19 0.535306 0.583838 0.930194
#
# Coordination Sequence:
#
# PCOD8192424 Si02
#       8
#     8   8   8   8   8   8   8   8
#     4  11  22  36  54  79 108 141 179 219 266 323
#     4  10  21  38  57  80 110 145 183 225 271 323
#     4   9  19  35  57  83 109 139 181 225 271 323
#     4  10  20  34  56  83 108 137 178 228 271 317
#     4  11  21  35  55  82 109 138 180 226 269 317
#     4  10  22  37  54  78 110 145 182 222 269 323
#     4  10  21  35  56  82 109 141 180 223 270 324
#     4  11  20  36  59  81 106 142 182 222 269 324
#
# _framework density 20.222256999999999
#
# number of rings (size 3 to 8) (size 9 to 14) (size 15 to 20)
#    0.000    1.750    0.000    5.250    0.000    3.000 
#    0.000    1.250    0.000   13.500    0.000    0.000 
#    0.000    0.000    0.000    0.000    0.000    0.000 
#
# Total GULP energy -396496.579098 kJ/mol
# GULP energy per Si atom -12390.518097 kJ/mol
# Density = 2.017623 g / cm^3
# Si number density = 20.222257 Si / 1000 Ang^3
#
#
#
# Elastic Constant Matrix: (Units=GPa)
#
#
# Indices 1 2 3 4 5 6 
#
# 1 108.0942 15.1966 64.6182 0.0000 0.0000 0.0000
# 2 15.1966 72.3119 10.4449 0.0000 0.0000 0.0000
# 3 64.6182 10.4449 123.2948 0.0000 0.0000 0.0000
# 4 0.0000 0.0000 0.0000 18.6510 0.0000 0.0000
# 5 0.0000 0.0000 0.0000 0.0000 21.0019 0.0000
# 6 0.0000 0.0000 0.0000 0.0000 0.0000 25.9398
#
#
#
# Elastic Compliance Matrix: (Units=1/GPa)
#
#
# Indices 1 2 3 4 5 6 
#
# 1 0.013717 -0.001867 -0.007031 0.000000 0.000000 0.000000
# 2 -0.001867 0.014254 -0.000229 0.000000 0.000000 0.000000
# 3 -0.007031 -0.000229 0.011815 0.000000 0.000000 0.000000
# 4 0.000000 0.000000 0.000000 0.053616 0.000000 0.000000
# 5 0.000000 0.000000 0.000000 0.000000 0.047615 0.000000
# 6 0.000000 0.000000 0.000000 0.000000 0.000000 0.038551
#
#
# Mechanical properties :
#
#
# Convention : Reuss Voigt Hill
#
# Bulk Modulus (GPa) = 46.44183 53.80225 50.12204
# Shear Modulus (GPa) = 24.39042 27.34795 25.86919
#
# Velocity S-wave (km/s) = 3.47669 3.68145 3.58053
# Velocity P-wave (km/s) = 6.25556 6.68834 6.47557
#
# Compressibility (1/GPa) = 0.02153231
#
# Stress axis : x y z
#
# Youngs Moduli (GPa) = 72.90461 70.15359 84.63987
#
# Poissons Ratio (x) = 0.13098 0.59507
# Poissons Ratio (y) = 0.13612 0.01939
# Poissons Ratio (z) = 0.51256 0.01607
#
# Static dielectric constant tensor:
#      x y z
#    x 3.750800 0.000000 0.000000 
#    y 0.000000 3.850890 0.000000 
#    z 0.000000 0.000000 3.764360 
# 
# 
# High freq. dielectric constant tensor:
#      x y z
#    x 1.772450 0.000000 0.000000 
#    y 0.000000 1.806990 0.000000 
#    z 0.000000 0.000000 1.788150 
# 
# From -- ./inp_files/20056.got.cif
#   From: 2010.03.12/outbox.cif.g09.slc.cpg/sg46_11_cif.got.tgz:20056.got - 2010.04.14 02:56:35.
