data_PCOD8192986
_publ_section_title
;
Structure prediction by ZEFSAII (Michael W. Deem and Ramdas Pophale) SiO2 
 PCOD8192986
Probable space group: I M A 2
;
_chemical_formula_sum "Si O2"
_cell_formula_units_Z 60
_cell_length_a 15.084381
_cell_length_b 10.388745
_cell_length_c 19.048192
_cell_angle_alpha 90.000000
_cell_angle_beta 90.000000
_cell_angle_gamma 90.000000
_cell_volume 2985.000028
_symmetry_space_group_name_H-M "I M A 2"
_symmetry_group_IT_number 46
_symmetry_cell_setting 'orthorhombic'
loop_
_space_group_symop_operation_xyz
x,y,z
-x,-y,z
1/2-x,y,z
1/2+x,-y,z
1/2+x,1/2+y,1/2+z
1/2-x,1/2-y,1/2+z
-x,1/2+y,1/2+z
x,1/2-y,1/2+z
loop_
_atom_site_type_symbol
_atom_site_label
_atom_site_fract_x
_atom_site_fract_y
_atom_site_fract_z
Si Si1 0.580161 0.899099 0.305240
Si Si2 0.500000 0.500000 0.043043
Si Si3 0.529965 0.208859 0.649271
Si Si4 0.150274 0.342780 0.658834
Si Si5 0.650669 0.993144 0.445832
Si Si6 0.852250 0.291248 0.431542
Si Si7 0.148476 0.593840 0.576754
Si Si8 0.528114 0.354605 0.303960
O O1 0.634407 0.914448 0.233100
O O2 0.548798 0.751490 0.315744
O O3 0.500000 0.000000 0.304199
O O4 0.645583 0.933372 0.368539
O O5 0.449188 0.602755 0.091075
O O6 0.423915 0.430066 0.996062
O O7 0.423713 0.233078 0.649394
O O8 0.585368 0.335874 0.632412
O O9 0.563620 0.159097 0.724548
O O10 0.250000 0.283402 0.658240
O O11 0.141232 0.443144 0.594455
O O12 0.750000 0.968986 0.474694
O O13 0.625692 0.143233 0.446387
O O14 0.750000 0.314812 0.419508
O O15 0.885355 0.377790 0.497510
O O16 0.894808 0.332082 0.358987
O O17 0.250000 0.642808 0.585374
O O18 0.500000 0.500000 0.317004
#
# Coordination Sequence:
#
# PCOD8192986 Si02
#       8
#     8   4   8   8   8   8   8   8
#     4  11  20  39  65  93 123 160 208 254 306 366
#     4  12  22  40  62  86 120 162 202 250 302 370
#     4  11  23  39  62  87 120 162 203 247 305 367
#     4  10  22  39  61  92 124 157 202 255 305 363
#     4  11  22  39  64  93 121 158 206 260 310 362
#     4  10  21  39  61  88 122 157 203 253 305 366
#     4  10  21  39  63  92 121 155 202 255 308 364
#     4  11  23  40  60  89 123 165 203 247 308 369
#
# _framework density 20.100501999999999
#
# number of rings (size 3 to 8) (size 9 to 14) (size 15 to 20)
#    0.000    1.333    4.000    2.400    0.000    2.133 
#    0.000    3.333    0.000    0.000    0.000    0.000 
#    0.000    0.000    0.000    0.000    0.000    0.000 
#
# Total GULP energy -371986.179166 kJ/mol
# GULP energy per Si atom -12399.539306 kJ/mol
# Density = 2.005475 g / cm^3
# Si number density = 20.100502 Si / 1000 Ang^3
#
#
#
# Elastic Constant Matrix: (Units=GPa)
#
#
# Indices 1 2 3 4 5 6 
#
# 1 80.7128 17.0891 35.6741 0.0000 0.0000 0.0000
# 2 17.0891 62.7437 20.1631 0.0000 0.0000 0.0000
# 3 35.6741 20.1631 128.4771 0.0000 0.0000 0.0000
# 4 0.0000 0.0000 0.0000 27.1440 0.0000 0.0000
# 5 0.0000 0.0000 0.0000 0.0000 29.7410 0.0000
# 6 0.0000 0.0000 0.0000 0.0000 0.0000 23.2892
#
#
#
# Elastic Compliance Matrix: (Units=1/GPa)
#
#
# Indices 1 2 3 4 5 6 
#
# 1 0.014579 -0.002812 -0.003607 0.000000 0.000000 0.000000
# 2 -0.002812 0.017327 -0.001939 0.000000 0.000000 0.000000
# 3 -0.003607 -0.001939 0.009089 0.000000 0.000000 0.000000
# 4 0.000000 0.000000 0.000000 0.036841 0.000000 0.000000
# 5 0.000000 0.000000 0.000000 0.000000 0.033624 0.000000
# 6 0.000000 0.000000 0.000000 0.000000 0.000000 0.042938
#
#
# Mechanical properties :
#
#
# Convention : Reuss Voigt Hill
#
# Bulk Modulus (GPa) = 41.18491 46.42070 43.80280
# Shear Modulus (GPa) = 27.90095 29.30199 28.60147
#
# Velocity S-wave (km/s) = 3.72973 3.82222 3.77626
# Velocity P-wave (km/s) = 6.25154 6.52868 6.39161
#
# Compressibility (1/GPa) = 0.02428074
#
# Stress axis : x y z
#
# Youngs Moduli (GPa) = 68.59120 57.71464 110.02026
#
# Poissons Ratio (x) = 0.16228 0.39683
# Poissons Ratio (y) = 0.19286 0.21327
# Poissons Ratio (z) = 0.24740 0.11188
#
# Static dielectric constant tensor:
#      x y z
#    x 3.604220 0.000000 0.000000 
#    y 0.000000 3.534840 0.000000 
#    z 0.000000 0.000000 3.876090 
# 
# 
# High freq. dielectric constant tensor:
#      x y z
#    x 1.779970 0.000000 0.000000 
#    y 0.000000 1.766790 0.000000 
#    z 0.000000 0.000000 1.800560 
# 
# From -- ./inp_files/19594.got.cif
#   From: 2010.03.12/outbox.cif.g09.slc.cpg/sg46_10_cif.got.tgz:19594.got - 2010.04.14 02:56:35.
