data_PCOD8192842
_publ_section_title
;
Structure prediction by ZEFSAII (Michael W. Deem and Ramdas Pophale) SiO2 
 PCOD8192842
Probable space group: I M A 2
;
_chemical_formula_sum "Si O2"
_cell_formula_units_Z 36
_cell_length_a 11.974543
_cell_length_b 27.399748
_cell_length_c 5.161640
_cell_angle_alpha 90.000000
_cell_angle_beta 90.000000
_cell_angle_gamma 90.000000
_cell_volume 1693.531300
_symmetry_space_group_name_H-M "I M A 2"
_symmetry_group_IT_number 46
_symmetry_cell_setting 'orthorhombic'
loop_
_space_group_symop_operation_xyz
x,y,z
-x,-y,z
1/2-x,y,z
1/2+x,-y,z
1/2+x,1/2+y,1/2+z
1/2-x,1/2-y,1/2+z
-x,1/2+y,1/2+z
x,1/2-y,1/2+z
loop_
_atom_site_type_symbol
_atom_site_label
_atom_site_fract_x
_atom_site_fract_y
_atom_site_fract_z
Si Si1 0.250000 0.216164 0.492321
Si Si2 0.039555 0.945159 0.288237
Si Si3 0.121671 0.719298 0.695479
Si Si4 0.535758 0.649244 0.956319
Si Si5 0.873403 0.097946 0.772944
O O1 0.250000 0.255796 0.720124
O O2 0.143551 0.181188 0.517001
O O3 0.128619 0.937159 0.519466
O O4 0.938327 0.905356 0.341814
O O5 0.095144 0.935739 0.012901
O O6 0.000000 0.000000 0.295349
O O7 0.250000 0.702558 0.714940
O O8 0.091935 0.742169 0.419846
O O9 0.043262 0.672677 0.735095
O O10 0.461407 0.642499 0.220418
O O11 0.750000 0.120793 0.813209
#
# Coordination Sequence:
#
# PCOD8192842 Si02
#       5
#     4   8   8   8   8
#     4  12  28  46  72  98 132 190 244 286 344 410
#     4  10  23  42  65  97 141 174 222 270 345 411
#     4  10  21  35  58  91 123 159 200 259 324 386
#     4  10  25  42  67  93 137 171 228 275 335 405
#     4  10  22  40  69  99 132 171 221 278 351 399
#
# _framework density 21.257359999999998
#
# number of rings (size 3 to 8) (size 9 to 14) (size 15 to 20)
#    1.333    0.444    0.000    3.333    6.222    0.000 
#    4.000    0.000    0.000    0.000    0.000    0.000 
#    0.000    0.000    0.000    0.000    0.000    0.000 
#
# Total GULP energy -222999.657581 kJ/mol
# GULP energy per Si atom -12388.869866 kJ/mol
# Density = 2.120898 g / cm^3
# Si number density = 21.257360 Si / 1000 Ang^3
#
#
#
# Elastic Constant Matrix: (Units=GPa)
#
#
# Indices 1 2 3 4 5 6 
#
# 1 112.2700 58.8297 10.0583 -0.1068 0.0485 -0.0015
# 2 58.8297 144.8975 23.4720 -0.1404 0.0505 0.0138
# 3 10.0583 23.4720 97.6774 -0.4005 0.1603 0.0183
# 4 -0.1068 -0.1404 -0.4005 25.6855 0.1008 -0.0093
# 5 0.0485 0.0505 0.1603 0.1008 8.2526 0.0396
# 6 -0.0015 0.0138 0.0183 -0.0093 0.0396 25.1620
#
#
#
# Elastic Compliance Matrix: (Units=1/GPa)
#
#
# Indices 1 2 3 4 5 6 
#
# 1 0.011315 -0.004583 -0.000064 0.000021 -0.000037 0.000003
# 2 -0.004583 0.009038 -0.001700 0.000004 0.000005 -0.000004
# 3 -0.000064 -0.001700 0.010654 0.000157 -0.000198 -0.000006
# 4 0.000021 0.000004 0.000157 0.038937 -0.000479 0.000015
# 5 -0.000037 0.000005 -0.000198 -0.000479 0.121185 -0.000191
# 6 0.000003 -0.000004 -0.000006 0.000015 -0.000191 0.039743
#
#
# Mechanical properties :
#
#
# Convention : Reuss Voigt Hill
#
# Bulk Modulus (GPa) = 54.60779 59.95167 57.27973
# Shear Modulus (GPa) = 20.02656 29.31900 24.67278
#
# Velocity S-wave (km/s) = 3.07269 3.71784 3.41056
# Velocity P-wave (km/s) = 6.19139 6.83329 6.52024
#
# Compressibility (1/GPa) = 0.01831240
#
# Stress axis : x y z
#
# Youngs Moduli (GPa) = 88.38152 110.64741 93.86362
#
# Poissons Ratio (x) = 0.50715 0.00597
# Poissons Ratio (y) = 0.40510 0.15955
# Poissons Ratio (z) = 0.00562 0.18808
#
# Static dielectric constant tensor:
#      x y z
#    x 3.756460 0.000370 -0.000640 
#    y 0.000370 3.763220 -0.000070 
#    z -0.000640 -0.000070 4.015910 
# 
# 
# High freq. dielectric constant tensor:
#      x y z
#    x 1.801710 0.000000 0.000010 
#    y 0.000000 1.834040 0.000000 
#    z 0.000010 0.000000 1.855530 
# 
# From -- ./inp_files/902.got.cif
#   From: 2010.03.12/outbox.cif.g09.slc.cpg/sg46_1_cif.got.tgz:902.got - 2010.04.14 02:56:35.
