data_PCOD8192964
_publ_section_title
;
Structure prediction by ZEFSAII (Michael W. Deem and Ramdas Pophale) SiO2 
 PCOD8192964
Probable space group: I M A 2
;
_chemical_formula_sum "Si O2"
_cell_formula_units_Z 64
_cell_length_a 19.159401
_cell_length_b 9.391295
_cell_length_c 17.356178
_cell_angle_alpha 90.000000
_cell_angle_beta 90.000000
_cell_angle_gamma 90.000000
_cell_volume 3122.924649
_symmetry_space_group_name_H-M "I M A 2"
_symmetry_group_IT_number 46
_symmetry_cell_setting 'orthorhombic'
loop_
_space_group_symop_operation_xyz
x,y,z
-x,-y,z
1/2-x,y,z
1/2+x,-y,z
1/2+x,1/2+y,1/2+z
1/2-x,1/2-y,1/2+z
-x,1/2+y,1/2+z
x,1/2-y,1/2+z
loop_
_atom_site_type_symbol
_atom_site_label
_atom_site_fract_x
_atom_site_fract_y
_atom_site_fract_z
Si Si1 0.327700 0.771503 0.094620
Si Si2 0.456895 0.632058 0.667008
Si Si3 0.460136 0.355081 0.435626
Si Si4 0.460138 0.144924 0.579094
Si Si5 0.671058 0.964840 0.847192
Si Si6 0.672300 0.271485 0.920101
Si Si7 0.956896 0.367941 0.847720
Si Si8 0.171058 0.035165 0.667519
O O1 0.250000 0.836637 0.095326
O O2 0.379326 0.885532 0.132486
O O3 0.331753 0.628935 0.144119
O O4 0.353216 0.750039 0.007358
O O5 0.500000 0.500000 0.633400
O O6 0.490941 0.781405 0.642792
O O7 0.451736 0.625143 0.757364
O O8 0.500000 0.500000 0.459944
O O9 0.451485 0.250001 0.507359
O O10 0.383640 0.378366 0.399188
O O11 0.509057 0.281407 0.371929
O O12 0.500000 0.000000 0.554778
O O13 0.383641 0.121646 0.615528
O O14 0.750000 0.906678 0.861602
O O15 0.668250 0.128950 0.870576
O O16 0.650804 0.950747 0.757355
O O17 0.750000 0.336622 0.919411
O O18 0.620672 0.385530 0.882249
O O19 0.000000 0.500000 0.881327
O O20 0.250000 0.093328 0.653112
#
# Coordination Sequence:
#
# PCOD8192964 Si02
#       8
#     8   8   8   8   8   8   8   8
#     4  10  21  38  63  93 128 170 216 266 318 382
#     4  11  24  40  62  94 129 167 216 267 319 384
#     4  12  25  40  65  94 130 169 214 267 330 386
#     4  12  25  40  65  94 130 169 214 267 330 386
#     4  10  22  41  66  95 126 168 221 267 317 389
#     4  10  21  38  63  93 128 170 216 266 318 382
#     4  11  24  40  62  94 129 167 216 267 319 384
#     4  10  22  41  66  95 126 168 221 267 317 389
#
# _framework density 20.49361
#
# number of rings (size 3 to 8) (size 9 to 14) (size 15 to 20)
#    0.000    1.250    2.500    3.000    3.500    3.000 
#    0.000    1.250    0.000    1.500    0.000    0.000 
#    0.000    0.000    0.000    0.000    0.000    0.000 
#
# Total GULP energy -396838.368224 kJ/mol
# GULP energy per Si atom -12401.199007 kJ/mol
# Density = 2.044697 g / cm^3
# Si number density = 20.493610 Si / 1000 Ang^3
#
#
#
# Elastic Constant Matrix: (Units=GPa)
#
#
# Indices 1 2 3 4 5 6 
#
# 1 145.3159 57.4077 75.0974 0.0000 0.0000 0.0000
# 2 57.4077 95.4096 51.9110 0.0000 0.0000 0.0000
# 3 75.0974 51.9110 120.2333 0.0000 0.0000 0.0000
# 4 0.0000 0.0000 0.0000 29.9483 0.0000 0.0000
# 5 0.0000 0.0000 0.0000 0.0000 33.4816 0.0000
# 6 0.0000 0.0000 0.0000 0.0000 0.0000 7.3659
#
#
#
# Elastic Compliance Matrix: (Units=1/GPa)
#
#
# Indices 1 2 3 4 5 6 
#
# 1 0.011129 -0.003809 -0.005306 0.000000 0.000000 0.000000
# 2 -0.003809 0.015003 -0.004098 0.000000 0.000000 0.000000
# 3 -0.005306 -0.004098 0.013401 0.000000 0.000000 0.000000
# 4 0.000000 0.000000 0.000000 0.033391 0.000000 0.000000
# 5 0.000000 0.000000 0.000000 0.000000 0.029867 0.000000
# 6 0.000000 0.000000 0.000000 0.000000 0.000000 0.135761
#
#
# Mechanical properties :
#
#
# Convention : Reuss Voigt Hill
#
# Bulk Modulus (GPa) = 76.30707 81.08787 78.69747
# Shear Modulus (GPa) = 18.56341 25.92868 22.24604
#
# Velocity S-wave (km/s) = 3.01294 3.56084 3.29828
# Velocity P-wave (km/s) = 7.02988 7.52060 7.27937
#
# Compressibility (1/GPa) = 0.01310494
#
# Stress axis : x y z
#
# Youngs Moduli (GPa) = 89.85914 66.65397 74.62122
#
# Poissons Ratio (x) = 0.25388 0.39597
# Poissons Ratio (y) = 0.34226 0.30583
# Poissons Ratio (z) = 0.47682 0.27318
#
# Static dielectric constant tensor:
#      x y z
#    x 4.210840 0.000000 0.000000 
#    y 0.000000 3.835330 0.000000 
#    z 0.000000 0.000000 3.762550 
# 
# 
# High freq. dielectric constant tensor:
#      x y z
#    x 1.822080 0.000000 0.000000 
#    y 0.000000 1.773580 0.000000 
#    z 0.000000 0.000000 1.818400 
# 
# From -- ./inp_files/20248.got.cif
#   From: 2010.03.12/outbox.cif.g09.slc.cpg/sg46_11_cif.got.tgz:20248.got - 2010.04.14 02:56:35.
