data_PCOD8192497
_publ_section_title
;
Structure prediction by ZEFSAII (Michael W. Deem and Ramdas Pophale) SiO2 
 PCOD8192497
Probable space group: I M A 2
;
_chemical_formula_sum "Si O2"
_cell_formula_units_Z 64
_cell_length_a 16.379479
_cell_length_b 9.440884
_cell_length_c 20.367658
_cell_angle_alpha 90.000000
_cell_angle_beta 90.000000
_cell_angle_gamma 90.000000
_cell_volume 3149.588667
_symmetry_space_group_name_H-M "I M A 2"
_symmetry_group_IT_number 46
_symmetry_cell_setting 'orthorhombic'
loop_
_space_group_symop_operation_xyz
x,y,z
-x,-y,z
1/2-x,y,z
1/2+x,-y,z
1/2+x,1/2+y,1/2+z
1/2-x,1/2-y,1/2+z
-x,1/2+y,1/2+z
x,1/2-y,1/2+z
loop_
_atom_site_type_symbol
_atom_site_label
_atom_site_fract_x
_atom_site_fract_y
_atom_site_fract_z
Si Si1 0.654973 0.407229 0.280650
Si Si2 0.410742 0.557634 0.636525
Si Si3 0.412910 0.435410 0.884527
Si Si4 0.157435 0.595624 0.772742
Si Si5 0.411450 0.443624 0.033981
Si Si6 0.842049 0.855812 0.032082
Si Si7 0.845804 0.867163 0.884415
Si Si8 0.842401 0.138872 0.636635
O O1 0.750000 0.408361 0.296871
O O2 0.619387 0.249053 0.291130
O O3 0.617355 0.518464 0.332763
O O4 0.636138 0.445465 0.204385
O O5 0.500000 0.500000 0.620314
O O6 0.389411 0.521696 0.712061
O O7 0.351726 0.477877 0.585766
O O8 0.401785 0.726612 0.625581
O O9 0.500000 0.500000 0.862811
O O10 0.345183 0.499798 0.836859
O O11 0.405229 0.267399 0.875828
O O12 0.392622 0.481320 0.958579
O O13 0.250000 0.616185 0.749329
O O14 0.500000 0.500000 0.055097
O O15 0.403127 0.275476 0.045988
O O16 0.347100 0.528072 0.077782
O O17 0.750000 0.795794 0.035907
O O18 0.856930 0.921809 0.959345
O O19 0.750000 0.830057 0.870830
O O20 0.750000 0.197141 0.641276
#
# Coordination Sequence:
#
# PCOD8192497 Si02
#       8
#     8   8   8   8   8   8   8   8
#     4   8  17  34  54  78 107 137 175 227 277 324
#     4  11  22  37  57  81 113 150 185 230 288 343
#     4  10  21  36  54  79 112 146 184 230 281 337
#     4  10  20  36  57  80 107 141 185 233 281 337
#     4  10  21  37  55  79 113 151 189 234 287 339
#     4  10  20  35  56  83 113 146 189 236 280 334
#     4   9  18  35  57  80 109 146 186 229 278 332
#     4  10  20  36  58  84 114 147 189 237 282 334
#
# _framework density 20.320115000000001
#
# number of rings (size 3 to 8) (size 9 to 14) (size 15 to 20)
#    0.000    2.250    0.000    3.750    0.000    3.500 
#    0.000    6.875    0.000    0.000    0.000    0.000 
#    0.000    0.000    0.000    0.000    0.000    0.000 
#
# Total GULP energy -396672.663649 kJ/mol
# GULP energy per Si atom -12396.020739 kJ/mol
# Density = 2.027387 g / cm^3
# Si number density = 20.320115 Si / 1000 Ang^3
#
#
#
# Elastic Constant Matrix: (Units=GPa)
#
#
# Indices 1 2 3 4 5 6 
#
# 1 54.7466 31.4244 30.3567 0.0000 0.0000 0.0000
# 2 31.4244 103.0496 82.7437 0.0000 0.0000 0.0000
# 3 30.3567 82.7437 134.9894 0.0000 0.0000 0.0000
# 4 0.0000 0.0000 0.0000 48.4213 0.0000 0.0000
# 5 0.0000 0.0000 0.0000 0.0000 24.3365 0.0000
# 6 0.0000 0.0000 0.0000 0.0000 0.0000 26.1267
#
#
#
# Elastic Compliance Matrix: (Units=1/GPa)
#
#
# Indices 1 2 3 4 5 6 
#
# 1 0.022331 -0.005469 -0.001669 0.000000 0.000000 0.000000
# 2 -0.005469 0.020449 -0.011304 0.000000 0.000000 0.000000
# 3 -0.001669 -0.011304 0.014713 0.000000 0.000000 0.000000
# 4 0.000000 0.000000 0.000000 0.020652 0.000000 0.000000
# 5 0.000000 0.000000 0.000000 0.000000 0.041091 0.000000
# 6 0.000000 0.000000 0.000000 0.000000 0.000000 0.038275
#
#
# Mechanical properties :
#
#
# Convention : Reuss Voigt Hill
#
# Bulk Modulus (GPa) = 48.52903 64.64837 56.58870
# Shear Modulus (GPa) = 24.84288 29.66097 27.25192
#
# Velocity S-wave (km/s) = 3.50033 3.82473 3.66612
# Velocity P-wave (km/s) = 6.34590 7.16859 6.76976
#
# Compressibility (1/GPa) = 0.02060622
#
# Stress axis : x y z
#
# Youngs Moduli (GPa) = 44.78078 48.90262 67.96891
#
# Poissons Ratio (x) = 0.26746 0.11346
# Poissons Ratio (y) = 0.24492 0.76835
# Poissons Ratio (z) = 0.07475 0.55282
#
# Static dielectric constant tensor:
#      x y z
#    x 3.431720 0.000000 0.000000 
#    y 0.000000 3.565700 0.000000 
#    z 0.000000 0.000000 3.785340 
# 
# 
# High freq. dielectric constant tensor:
#      x y z
#    x 1.776360 0.000000 0.000000 
#    y 0.000000 1.783660 0.000000 
#    z 0.000000 0.000000 1.806620 
# 
# From -- ./inp_files/23684.got.cif
#   From: 2010.03.12/outbox.cif.g09.slc.cpg/sg46_12_cif.got.tgz:23684.got - 2010.04.14 02:56:35.
