data_PCOD8192799
_publ_section_title
;
Structure prediction by ZEFSAII (Michael W. Deem and Ramdas Pophale) SiO2 
 PCOD8192799
Probable space group: I M A 2
;
_chemical_formula_sum "Si O2"
_cell_formula_units_Z 56
_cell_length_a 22.317414
_cell_length_b 8.736953
_cell_length_c 14.046159
_cell_angle_alpha 90.000000
_cell_angle_beta 90.000000
_cell_angle_gamma 90.000000
_cell_volume 2738.807129
_symmetry_space_group_name_H-M "I M A 2"
_symmetry_group_IT_number 46
_symmetry_cell_setting 'orthorhombic'
loop_
_space_group_symop_operation_xyz
x,y,z
-x,-y,z
1/2-x,y,z
1/2+x,-y,z
1/2+x,1/2+y,1/2+z
1/2-x,1/2-y,1/2+z
-x,1/2+y,1/2+z
x,1/2-y,1/2+z
loop_
_atom_site_type_symbol
_atom_site_label
_atom_site_fract_x
_atom_site_fract_y
_atom_site_fract_z
Si Si1 0.939030 0.689807 0.508890
Si Si2 0.000000 0.500000 0.967846
Si Si3 0.682025 0.633973 0.231049
Si Si4 0.063521 0.502336 0.322819
Si Si5 0.500000 0.500000 0.663719
Si Si6 0.184248 0.463717 0.816876
Si Si7 0.925025 0.346379 0.816563
Si Si8 0.815258 0.678878 0.015740
O O1 0.955707 0.608822 0.409872
O O2 0.951496 0.583215 0.598533
O O3 0.867337 0.698242 0.505078
O O4 0.974136 0.852208 0.525045
O O5 0.943758 0.453102 0.904024
O O6 0.750000 0.587947 0.268191
O O7 0.624952 0.543749 0.271562
O O8 0.669640 0.809088 0.259155
O O9 0.679540 0.599833 0.118708
O O10 0.076905 0.674753 0.354871
O O11 0.000000 0.500000 0.261781
O O12 0.530151 0.368437 0.727917
O O13 0.250000 0.521444 0.789016
O O14 0.140082 0.596944 0.783002
O O15 0.178945 0.443533 0.931001
O O16 0.750000 0.761361 0.007290
#
# Coordination Sequence:
#
# PCOD8192799 Si02
#       8
#     8   4   8   8   4   8   8   8
#     4  12  22  40  64  92 130 161 220 262 327 392
#     4  11  20  38  64  85 122 174 201 266 330 379
#     4  10  22  41  64  92 128 169 220 270 323 393
#     4  12  24  40  61  93 134 170 214 266 323 400
#     4  11  26  40  58  95 128 168 211 272 320 391
#     4  10  20  40  66  90 121 170 218 266 324 387
#     4  11  23  40  59  88 132 165 211 263 324 384
#     4  10  21  37  66  96 120 160 218 268 315 387
#
# _framework density 20.446857000000001
#
# number of rings (size 3 to 8) (size 9 to 14) (size 15 to 20)
#    0.000    1.143    5.000    0.857    4.000    1.714 
#    2.571    0.000    0.000    0.000    0.000    0.000 
#    0.000    0.000    0.000    0.000    0.000    0.000 
#
# Total GULP energy -346881.047303 kJ/mol
# GULP energy per Si atom -12388.608832 kJ/mol
# Density = 2.040032 g / cm^3
# Si number density = 20.446857 Si / 1000 Ang^3
#
#
#
# Elastic Constant Matrix: (Units=GPa)
#
#
# Indices 1 2 3 4 5 6 
#
# 1 165.1668 44.2035 12.0553 0.0000 0.0000 0.0000
# 2 44.2035 89.5734 6.6069 0.0000 0.0000 0.0000
# 3 12.0553 6.6069 66.8034 0.0000 0.0000 0.0000
# 4 0.0000 0.0000 0.0000 17.1556 0.0000 0.0000
# 5 0.0000 0.0000 0.0000 0.0000 25.5632 0.0000
# 6 0.0000 0.0000 0.0000 0.0000 0.0000 33.2366
#
#
#
# Elastic Compliance Matrix: (Units=1/GPa)
#
#
# Indices 1 2 3 4 5 6 
#
# 1 0.007033 -0.003402 -0.000933 0.000000 0.000000 0.000000
# 2 -0.003402 0.012892 -0.000661 0.000000 0.000000 0.000000
# 3 -0.000933 -0.000661 0.015203 0.000000 0.000000 0.000000
# 4 0.000000 0.000000 0.000000 0.058290 0.000000 0.000000
# 5 0.000000 0.000000 0.000000 0.000000 0.039119 0.000000
# 6 0.000000 0.000000 0.000000 0.000000 0.000000 0.030087
#
#
# Mechanical properties :
#
#
# Convention : Reuss Voigt Hill
#
# Bulk Modulus (GPa) = 39.78331 49.69724 44.74027
# Shear Modulus (GPa) = 27.62522 32.43625 30.03073
#
# Velocity S-wave (km/s) = 3.67968 3.98725 3.83655
# Velocity P-wave (km/s) = 6.12802 6.74951 6.44626
#
# Compressibility (1/GPa) = 0.02513617
#
# Stress axis : x y z
#
# Youngs Moduli (GPa) = 142.18645 77.56984 65.77646
#
# Poissons Ratio (x) = 0.26389 0.06135
# Poissons Ratio (y) = 0.48371 0.04348
# Poissons Ratio (z) = 0.13262 0.05128
#
# Static dielectric constant tensor:
#      x y z
#    x 4.181290 0.000000 0.000000 
#    y 0.000000 3.463750 0.000000 
#    z 0.000000 0.000000 3.688550 
# 
# 
# High freq. dielectric constant tensor:
#      x y z
#    x 1.830340 0.000000 0.000000 
#    y 0.000000 1.768640 0.000000 
#    z 0.000000 0.000000 1.788390 
# 
# From -- ./inp_files/17129.got.cif
#   From: 2010.03.12/outbox.cif.g09.slc.cpg/sg46_9_cif.got.tgz:17129.got - 2010.04.14 02:56:35.
