data_PCOD8192177
_publ_section_title
;
Structure prediction by ZEFSAII (Michael W. Deem and Ramdas Pophale) SiO2 
 PCOD8192177
Probable space group: I M A 2
;
_chemical_formula_sum "Si O2"
_cell_formula_units_Z 48
_cell_length_a 16.404586
_cell_length_b 9.817977
_cell_length_c 14.148064
_cell_angle_alpha 90.000000
_cell_angle_beta 90.000000
_cell_angle_gamma 90.000000
_cell_volume 2278.685038
_symmetry_space_group_name_H-M "I M A 2"
_symmetry_group_IT_number 46
_symmetry_cell_setting 'orthorhombic'
loop_
_space_group_symop_operation_xyz
x,y,z
-x,-y,z
1/2-x,y,z
1/2+x,-y,z
1/2+x,1/2+y,1/2+z
1/2-x,1/2-y,1/2+z
-x,1/2+y,1/2+z
x,1/2-y,1/2+z
loop_
_atom_site_type_symbol
_atom_site_label
_atom_site_fract_x
_atom_site_fract_y
_atom_site_fract_z
Si Si1 0.085583 0.426266 0.311510
Si Si2 0.907909 0.525432 0.098436
Si Si3 0.343065 0.664839 0.410883
Si Si4 0.154038 0.779910 0.109665
Si Si5 0.346989 0.590530 0.795680
Si Si6 0.153558 0.167995 0.411089
O O1 0.095982 0.394566 0.199615
O O2 0.153282 0.533383 0.344990
O O3 0.098852 0.295559 0.378464
O O4 0.000000 0.500000 0.333497
O O5 0.865778 0.380074 0.113480
O O6 0.000000 0.500000 0.066534
O O7 0.864909 0.617849 0.018140
O O8 0.250000 0.704120 0.427171
O O9 0.381860 0.649247 0.515180
O O10 0.385925 0.795258 0.363816
O O11 0.250000 0.793026 0.118512
O O12 0.115316 0.871030 0.193524
O O13 0.250000 0.600542 0.794164
O O14 0.373511 0.444636 0.834458
O O15 0.250000 0.201764 0.404890
#
# Coordination Sequence:
#
# PCOD8192177 Si02
#       6
#     8   8   8   8   8   8
#     4  11  26  43  62  92 136 175 217 267 336 402
#     4  11  24  41  64  92 132 178 222 264 338 401
#     4  10  19  35  62  91 118 164 215 263 318 385
#     4  10  19  35  65  96 124 162 218 272 317 394
#     4   9  18  34  61  94 122 156 213 269 318 375
#     4  11  24  42  68 102 132 173 225 281 334 391
#
# _framework density 21.064779999999999
#
# number of rings (size 3 to 8) (size 9 to 14) (size 15 to 20)
#    0.000    1.667    3.333    1.000    2.333    3.333 
#    0.000    1.667    0.000    0.000    0.000    0.000 
#    0.000    0.000    0.000    0.000    0.000    0.000 
#
# Total GULP energy -297377.340699 kJ/mol
# GULP energy per Si atom -12390.722529 kJ/mol
# Density = 2.101684 g / cm^3
# Si number density = 21.064780 Si / 1000 Ang^3
#
#
#
# Elastic Constant Matrix: (Units=GPa)
#
#
# Indices 1 2 3 4 5 6 
#
# 1 37.4633 30.8904 48.3698 0.0000 0.0000 0.0000
# 2 30.8904 131.2427 66.4944 0.0000 0.0000 0.0000
# 3 48.3698 66.4944 162.2019 0.0000 0.0000 0.0000
# 4 0.0000 0.0000 0.0000 40.2354 0.0000 0.0000
# 5 0.0000 0.0000 0.0000 0.0000 18.7233 0.0000
# 6 0.0000 0.0000 0.0000 0.0000 0.0000 26.3009
#
#
#
# Elastic Compliance Matrix: (Units=1/GPa)
#
#
# Indices 1 2 3 4 5 6 
#
# 1 0.045741 -0.004866 -0.011645 0.000000 0.000000 0.000000
# 2 -0.004866 0.010135 -0.002704 0.000000 0.000000 0.000000
# 3 -0.011645 -0.002704 0.010746 0.000000 0.000000 0.000000
# 4 0.000000 0.000000 0.000000 0.024854 0.000000 0.000000
# 5 0.000000 0.000000 0.000000 0.000000 0.053409 0.000000
# 6 0.000000 0.000000 0.000000 0.000000 0.000000 0.038021
#
#
# Mechanical properties :
#
#
# Convention : Reuss Voigt Hill
#
# Bulk Modulus (GPa) = 35.47138 69.15744 52.31441
# Shear Modulus (GPa) = 21.67008 29.39549 25.53279
#
# Velocity S-wave (km/s) = 3.21087 3.73967 3.48531
# Velocity P-wave (km/s) = 5.53371 7.17976 6.40979
#
# Compressibility (1/GPa) = 0.02819174
#
# Stress axis : x y z
#
# Youngs Moduli (GPa) = 21.86242 98.67281 93.05548
#
# Poissons Ratio (x) = 0.48011 1.08368
# Poissons Ratio (y) = 0.10638 0.25159
# Poissons Ratio (z) = 0.25460 0.26678
#
# Static dielectric constant tensor:
#      x y z
#    x 3.559100 0.000000 0.000000 
#    y 0.000000 3.742080 0.000000 
#    z 0.000000 0.000000 4.398570 
# 
# 
# High freq. dielectric constant tensor:
#      x y z
#    x 1.799470 0.000000 0.000000 
#    y 0.000000 1.814180 0.000000 
#    z 0.000000 0.000000 1.848240 
# 
# From -- ./inp_files/16511.got.cif
#   From: 2010.03.12/outbox.cif.g09.slc.cpg/sg46_9_cif.got.tgz:16511.got - 2010.04.14 02:56:35.
