data_PCOD8192825
_publ_section_title
;
Structure prediction by ZEFSAII (Michael W. Deem and Ramdas Pophale) SiO2 
 PCOD8192825
Probable space group: I M A 2
;
_chemical_formula_sum "Si O2"
_cell_formula_units_Z 64
_cell_length_a 16.893905
_cell_length_b 8.767250
_cell_length_c 23.263479
_cell_angle_alpha 90.000000
_cell_angle_beta 90.000000
_cell_angle_gamma 90.000000
_cell_volume 3445.625727
_symmetry_space_group_name_H-M "I M A 2"
_symmetry_group_IT_number 46
_symmetry_cell_setting 'orthorhombic'
loop_
_space_group_symop_operation_xyz
x,y,z
-x,-y,z
1/2-x,y,z
1/2+x,-y,z
1/2+x,1/2+y,1/2+z
1/2-x,1/2-y,1/2+z
-x,1/2+y,1/2+z
x,1/2-y,1/2+z
loop_
_atom_site_type_symbol
_atom_site_label
_atom_site_fract_x
_atom_site_fract_y
_atom_site_fract_z
Si Si1 0.658902 0.142495 0.682880
Si Si2 0.487765 0.823590 0.507928
Si Si3 0.073557 0.894997 0.793828
Si Si4 0.515021 0.674745 0.875436
Si Si5 0.839951 0.814961 0.816550
Si Si6 0.160287 0.207406 0.683833
Si Si7 0.574165 0.602088 0.591618
Si Si8 0.158610 0.689403 0.566268
O O1 0.750000 0.163404 0.700528
O O2 0.606028 0.192110 0.737462
O O3 0.636325 0.247895 0.629400
O O4 0.641208 0.966910 0.667390
O O5 0.504507 0.787388 0.441937
O O6 0.550560 0.725944 0.544065
O O7 0.397108 0.776082 0.520801
O O8 0.500000 0.000000 0.523002
O O9 0.049309 0.771821 0.840811
O O10 0.140750 0.004600 0.821067
O O11 0.000000 0.000000 0.774985
O O12 0.500000 0.500000 0.861249
O O13 0.604434 0.716362 0.857914
O O14 0.750000 0.788250 0.836348
O O15 0.853790 0.761940 0.751051
O O16 0.250000 0.247012 0.666575
O O17 0.102507 0.316211 0.649110
O O18 0.500000 0.500000 0.609560
O O19 0.642182 0.492043 0.565543
O O20 0.250000 0.722023 0.550436
#
# Coordination Sequence:
#
# PCOD8192825 Si02
#       8
#     8   8   8   8   8   8   8   8
#     4   9  18  33  53  79 110 141 174 212 258 318
#     4  10  22  41  58  74 103 144 187 225 263 316
#     4   9  18  32  55  80 107 142 179 216 259 314
#     4  10  22  39  56  78 107 140 181 227 271 314
#     4   9  19  36  57  81 110 143 179 217 261 317
#     4   9  17  32  53  78 109 143 177 212 257 318
#     4  10  21  33  52  80 109 139 175 220 270 316
#     4  10  21  36  55  82 113 140 173 221 273 319
#
# _framework density 18.574275
#
# number of rings (size 3 to 8) (size 9 to 14) (size 15 to 20)
#    0.000    2.500    0.000    2.250    0.000   12.500 
#    0.000    9.375    0.000    0.000    0.000    0.000 
#    0.000    0.000    0.000    0.000    0.000    0.000 
#
# Total GULP energy -396842.101983 kJ/mol
# GULP energy per Si atom -12401.315687 kJ/mol
# Density = 1.853200 g / cm^3
# Si number density = 18.574275 Si / 1000 Ang^3
#
#
#
# Elastic Constant Matrix: (Units=GPa)
#
#
# Indices 1 2 3 4 5 6 
#
# 1 112.3311 60.7052 75.8294 0.0000 0.0000 0.0000
# 2 60.7052 107.5769 76.4210 0.0000 0.0000 0.0000
# 3 75.8294 76.4210 114.1195 0.0000 0.0000 0.0000
# 4 0.0000 0.0000 0.0000 30.2997 0.0000 0.0000
# 5 0.0000 0.0000 0.0000 0.0000 24.5169 0.0000
# 6 0.0000 0.0000 0.0000 0.0000 0.0000 24.1765
#
#
#
# Elastic Compliance Matrix: (Units=1/GPa)
#
#
# Indices 1 2 3 4 5 6 
#
# 1 0.016612 -0.002923 -0.009081 0.000000 0.000000 0.000000
# 2 -0.002923 0.018245 -0.010275 0.000000 0.000000 0.000000
# 3 -0.009081 -0.010275 0.021677 0.000000 0.000000 0.000000
# 4 0.000000 0.000000 0.000000 0.033004 0.000000 0.000000
# 5 0.000000 0.000000 0.000000 0.000000 0.040788 0.000000
# 6 0.000000 0.000000 0.000000 0.000000 0.000000 0.041363
#
#
# Mechanical properties :
#
#
# Convention : Reuss Voigt Hill
#
# Bulk Modulus (GPa) = 83.50172 84.43764 83.96968
# Shear Modulus (GPa) = 22.70268 23.87008 23.28638
#
# Velocity S-wave (km/s) = 3.49988 3.58874 3.54459
# Velocity P-wave (km/s) = 7.83488 7.92024 7.87768
#
# Compressibility (1/GPa) = 0.01197580
#
# Stress axis : x y z
#
# Youngs Moduli (GPa) = 60.19782 54.81062 46.13108
#
# Poissons Ratio (x) = 0.16023 0.41889
# Poissons Ratio (y) = 0.17598 0.47400
# Poissons Ratio (z) = 0.54663 0.56319
#
# Static dielectric constant tensor:
#      x y z
#    x 3.548090 0.000000 0.000000 
#    y 0.000000 3.512180 0.000000 
#    z 0.000000 0.000000 3.254740 
# 
# 
# High freq. dielectric constant tensor:
#      x y z
#    x 1.728140 0.000000 0.000000 
#    y 0.000000 1.720860 0.000000 
#    z 0.000000 0.000000 1.708620 
# 
# From -- ./inp_files/22236.got.cif
#   From: 2010.03.12/outbox.cif.g09.slc.cpg/sg46_12_cif.got.tgz:22236.got - 2010.04.14 02:56:35.
