data_PCOD8192713
_publ_section_title
;
Structure prediction by ZEFSAII (Michael W. Deem and Ramdas Pophale) SiO2 
 PCOD8192713
Probable space group: I M A 2
;
_chemical_formula_sum "Si O2"
_cell_formula_units_Z 64
_cell_length_a 17.240718
_cell_length_b 8.907634
_cell_length_c 20.137604
_cell_angle_alpha 90.000000
_cell_angle_beta 90.000000
_cell_angle_gamma 90.000000
_cell_volume 3092.612514
_symmetry_space_group_name_H-M "I M A 2"
_symmetry_group_IT_number 46
_symmetry_cell_setting 'orthorhombic'
loop_
_space_group_symop_operation_xyz
x,y,z
-x,-y,z
1/2-x,y,z
1/2+x,-y,z
1/2+x,1/2+y,1/2+z
1/2-x,1/2-y,1/2+z
-x,1/2+y,1/2+z
x,1/2-y,1/2+z
loop_
_atom_site_type_symbol
_atom_site_label
_atom_site_fract_x
_atom_site_fract_y
_atom_site_fract_z
Si Si1 0.837580 0.797238 0.509790
Si Si2 0.340173 0.377654 0.639305
Si Si3 0.902885 0.863979 0.889501
Si Si4 0.922598 0.196163 0.875147
Si Si5 0.660858 0.686214 0.256888
Si Si6 0.839738 0.147885 0.748066
Si Si7 0.841176 0.205299 0.106508
Si Si8 0.580732 0.408030 0.999628
O O1 0.750000 0.754592 0.490499
O O2 0.856822 0.748634 0.584430
O O3 0.895437 0.711925 0.460787
O O4 0.849059 0.974578 0.503839
O O5 0.250000 0.409945 0.650490
O O6 0.377267 0.312392 0.708188
O O7 0.374343 0.536186 0.614710
O O8 0.849060 0.778693 0.835167
O O9 0.988402 0.839396 0.862196
O O10 0.881540 0.040187 0.898633
O O11 0.884153 0.244018 0.804968
O O12 0.914404 0.329255 0.928074
O O13 0.750000 0.680536 0.236156
O O14 0.624717 0.520642 0.244892
O O15 0.750000 0.144708 0.768624
O O16 0.852553 0.219920 0.677322
O O17 0.750000 0.212948 0.083680
O O18 0.900566 0.283646 0.055330
O O19 0.500000 0.500000 0.010765
#
# Coordination Sequence:
#
# PCOD8192713 Si02
#       8
#     8   8   8   8   8   8   8   8
#     4  11  22  38  61  87 115 158 206 252 300 361
#     4   9  19  36  60  89 118 150 198 255 309 361
#     4  10  20  38  60  86 120 160 201 249 298 366
#     4  10  22  40  59  86 124 164 200 249 310 365
#     4   9  17  33  58  89 120 154 196 245 298 361
#     4   9  19  37  62  89 121 156 199 250 305 368
#     4  10  21  40  63  91 122 158 205 263 313 370
#     4  12  24  41  59  87 128 167 207 258 312 375
#
# _framework density 20.694476999999999
#
# number of rings (size 3 to 8) (size 9 to 14) (size 15 to 20)
#    0.000    2.000    1.250    2.250    0.000    4.500 
#    6.750    1.250    0.000    0.000    0.000    0.000 
#    0.000    0.000    0.000    0.000    0.000    0.000 
#
# Total GULP energy -396658.794944 kJ/mol
# GULP energy per Si atom -12395.587342 kJ/mol
# Density = 2.064738 g / cm^3
# Si number density = 20.694477 Si / 1000 Ang^3
#
#
#
# Elastic Constant Matrix: (Units=GPa)
#
#
# Indices 1 2 3 4 5 6 
#
# 1 43.8969 13.3276 24.7224 0.0000 0.0000 0.0000
# 2 13.3276 101.9797 39.3730 0.0000 0.0000 0.0000
# 3 24.7224 39.3730 94.1000 0.0000 0.0000 0.0000
# 4 0.0000 0.0000 0.0000 45.3749 0.0000 0.0000
# 5 0.0000 0.0000 0.0000 0.0000 24.2770 0.0000
# 6 0.0000 0.0000 0.0000 0.0000 0.0000 27.2406
#
#
#
# Elastic Compliance Matrix: (Units=1/GPa)
#
#
# Indices 1 2 3 4 5 6 
#
# 1 0.026811 -0.000935 -0.006653 0.000000 0.000000 0.000000
# 2 -0.000935 0.011728 -0.004661 0.000000 0.000000 0.000000
# 3 -0.006653 -0.004661 0.014325 0.000000 0.000000 0.000000
# 4 0.000000 0.000000 0.000000 0.022039 0.000000 0.000000
# 5 0.000000 0.000000 0.000000 0.000000 0.041191 0.000000
# 6 0.000000 0.000000 0.000000 0.000000 0.000000 0.036710
#
#
# Mechanical properties :
#
#
# Convention : Reuss Voigt Hill
#
# Bulk Modulus (GPa) = 35.25402 43.86917 39.56159
# Shear Modulus (GPa) = 26.77260 30.21540 28.49400
#
# Velocity S-wave (km/s) = 3.60072 3.82523 3.71467
# Velocity P-wave (km/s) = 5.86168 6.38392 6.12836
#
# Compressibility (1/GPa) = 0.02836556
#
# Stress axis : x y z
#
# Youngs Moduli (GPa) = 37.29760 85.26741 69.80720
#
# Poissons Ratio (x) = 0.07977 0.46440
# Poissons Ratio (y) = 0.03489 0.32539
# Poissons Ratio (z) = 0.24813 0.39746
#
# Static dielectric constant tensor:
#      x y z
#    x 3.559150 0.000000 0.000000 
#    y 0.000000 3.917760 0.000000 
#    z 0.000000 0.000000 3.723700 
# 
# 
# High freq. dielectric constant tensor:
#      x y z
#    x 1.784790 0.000000 0.000000 
#    y 0.000000 1.812050 0.000000 
#    z 0.000000 0.000000 1.815990 
# 
# From -- ./inp_files/20251.got.cif
#   From: 2010.03.12/outbox.cif.g09.slc.cpg/sg46_11_cif.got.tgz:20251.got - 2010.04.14 02:56:35.
