data_PCOD8192151
_publ_section_title
;
Structure prediction by ZEFSAII (Michael W. Deem and Ramdas Pophale) SiO2 
 PCOD8192151
Probable space group: I M A 2
;
_chemical_formula_sum "Si O2"
_cell_formula_units_Z 56
_cell_length_a 12.607238
_cell_length_b 23.146794
_cell_length_c 9.662621
_cell_angle_alpha 90.000000
_cell_angle_beta 90.000000
_cell_angle_gamma 90.000000
_cell_volume 2819.718434
_symmetry_space_group_name_H-M "I M A 2"
_symmetry_group_IT_number 46
_symmetry_cell_setting 'orthorhombic'
loop_
_space_group_symop_operation_xyz
x,y,z
-x,-y,z
1/2-x,y,z
1/2+x,-y,z
1/2+x,1/2+y,1/2+z
1/2-x,1/2-y,1/2+z
-x,1/2+y,1/2+z
x,1/2-y,1/2+z
loop_
_atom_site_type_symbol
_atom_site_label
_atom_site_fract_x
_atom_site_fract_y
_atom_site_fract_z
Si Si1 0.997339 0.755123 0.851210
Si Si2 0.457330 0.939578 0.916820
Si Si3 0.129982 0.086436 0.106101
Si Si4 0.131194 0.285053 0.618791
Si Si5 0.123468 0.860337 0.393516
Si Si6 0.628058 0.354554 0.209642
Si Si7 0.871090 0.465655 0.704616
O O1 0.894062 0.752638 0.753502
O O2 0.064392 0.696197 0.836283
O O3 0.071181 0.805103 0.794901
O O4 0.957337 0.769714 0.004689
O O5 0.393663 0.913562 0.789813
O O6 0.500000 0.000000 0.862034
O O7 0.563316 0.905185 0.964472
O O8 0.378847 0.941863 0.048765
O O9 0.250000 0.068446 0.067817
O O10 0.125648 0.148936 0.176286
O O11 0.078959 0.032704 0.199359
O O12 0.250000 0.270933 0.564996
O O13 0.250000 0.852663 0.373672
O O14 0.088966 0.864830 0.553552
O O15 0.081587 0.917945 0.312236
O O16 0.750000 0.337879 0.208728
O O17 0.750000 0.473772 0.749625
#
# Coordination Sequence:
#
# PCOD8192151 Si02
#       7
#     8   8   8   8   8   8   8
#     4  12  22  41  59  88 126 162 206 253 316 365
#     4  10  19  35  58  87 116 152 199 250 305 359
#     4   9  18  34  57  86 114 150 201 254 297 351
#     4  11  23  39  63  88 121 162 212 259 305 367
#     4  10  22  38  59  90 127 165 201 250 312 379
#     4  11  23  39  59  88 126 162 202 250 309 375
#     4   9  18  34  59  87 117 153 199 251 307 364
#
# _framework density 19.860140000000001
#
# number of rings (size 3 to 8) (size 9 to 14) (size 15 to 20)
#    0.000    1.714    2.857    2.143    0.000    0.571 
#    0.000    3.571    0.000    0.000    0.000    0.000 
#    0.000    0.000    0.000    0.000    0.000    0.000 
#
# Total GULP energy -346935.247851 kJ/mol
# GULP energy per Si atom -12390.544566 kJ/mol
# Density = 1.981494 g / cm^3
# Si number density = 19.860140 Si / 1000 Ang^3
#
#
#
# Elastic Constant Matrix: (Units=GPa)
#
#
# Indices 1 2 3 4 5 6 
#
# 1 48.0371 25.0101 15.2139 0.0005 -0.0005 -0.0002
# 2 25.0101 81.2162 41.3881 0.0016 -0.0004 -0.0002
# 3 15.2139 41.3881 95.8420 0.0048 -0.0004 0.0000
# 4 0.0005 0.0016 0.0048 29.3002 -0.0004 -0.0001
# 5 -0.0005 -0.0004 -0.0004 -0.0004 31.0929 0.0000
# 6 -0.0002 -0.0002 0.0000 -0.0001 0.0000 34.3268
#
#
#
# Elastic Compliance Matrix: (Units=1/GPa)
#
#
# Indices 1 2 3 4 5 6 
#
# 1 0.024842 -0.007232 -0.000820 0.000000 0.000000 0.000000
# 2 -0.007232 0.017892 -0.006579 0.000000 0.000000 0.000000
# 3 -0.000820 -0.006579 0.013405 -0.000002 0.000000 0.000000
# 4 0.000000 0.000000 -0.000002 0.034129 0.000000 0.000000
# 5 0.000000 0.000000 0.000000 0.000000 0.032162 0.000000
# 6 0.000000 0.000000 0.000000 0.000000 0.000000 0.029132
#
#
# Mechanical properties :
#
#
# Convention : Reuss Voigt Hill
#
# Bulk Modulus (GPa) = 37.20558 43.14661 40.17609
# Shear Modulus (GPa) = 26.34578 28.50953 27.42766
#
# Velocity S-wave (km/s) = 3.64616 3.79293 3.72027
# Velocity P-wave (km/s) = 6.04156 6.39954 6.22312
#
# Compressibility (1/GPa) = 0.02687769
#
# Stress axis : x y z
#
# Youngs Moduli (GPa) = 40.25381 55.88978 74.59933
#
# Poissons Ratio (x) = 0.40420 0.06120
# Poissons Ratio (y) = 0.29112 0.49076
# Poissons Ratio (z) = 0.03302 0.36768
#
# Static dielectric constant tensor:
#      x y z
#    x 3.814430 0.000000 0.000000 
#    y 0.000000 3.827890 0.000000 
#    z 0.000000 0.000000 3.428400 
# 
# 
# High freq. dielectric constant tensor:
#      x y z
#    x 1.789340 0.000000 0.000000 
#    y 0.000000 1.785420 0.000000 
#    z 0.000000 0.000000 1.748310 
# 
# From -- ./inp_files/5941.got.cif
#   From: 2010.03.12/outbox.cif.g09.slc.cpg/sg46_3_cif.got.tgz:5941.got - 2010.04.14 02:56:35.
