data_PCOD8192283
_publ_section_title
;
Structure prediction by ZEFSAII (Michael W. Deem and Ramdas Pophale) SiO2 
 PCOD8192283
Probable space group: I M A 2
;
_chemical_formula_sum "Si O2"
_cell_formula_units_Z 64
_cell_length_a 8.917168
_cell_length_b 27.444544
_cell_length_c 14.468692
_cell_angle_alpha 90.000000
_cell_angle_beta 90.000000
_cell_angle_gamma 90.000000
_cell_volume 3540.888406
_symmetry_space_group_name_H-M "I M A 2"
_symmetry_group_IT_number 46
_symmetry_cell_setting 'orthorhombic'
loop_
_space_group_symop_operation_xyz
x,y,z
-x,-y,z
1/2-x,y,z
1/2+x,-y,z
1/2+x,1/2+y,1/2+z
1/2-x,1/2-y,1/2+z
-x,1/2+y,1/2+z
x,1/2-y,1/2+z
loop_
_atom_site_type_symbol
_atom_site_label
_atom_site_fract_x
_atom_site_fract_y
_atom_site_fract_z
Si Si1 0.926425 0.449569 0.146130
Si Si2 0.924316 0.637295 0.827058
Si Si3 0.075204 0.134129 0.764081
Si Si4 0.077686 0.218659 0.627190
Si Si5 0.424697 0.781856 0.440975
Si Si6 0.575460 0.168564 0.941962
Si Si7 0.421554 0.329696 0.627654
Si Si8 0.426172 0.550327 0.934381
O O1 0.750000 0.453911 0.159211
O O2 0.000000 0.500000 0.177899
O O3 0.988705 0.407534 0.210289
O O4 0.969969 0.437782 0.040122
O O5 0.750000 0.631824 0.851558
O O6 0.951253 0.636884 0.716868
O O7 0.982606 0.688589 0.865486
O O8 0.015228 0.593036 0.869793
O O9 0.250000 0.121493 0.765072
O O10 0.040963 0.185684 0.715542
O O11 0.014993 0.136706 0.868200
O O12 0.250000 0.212639 0.596144
O O13 0.039621 0.274005 0.654636
O O14 0.973892 0.200923 0.542911
O O15 0.250000 0.793134 0.428683
O O16 0.463762 0.725247 0.427731
O O17 0.750000 0.158093 0.929638
O O18 0.525773 0.151798 0.044248
O O19 0.250000 0.333519 0.594659
O O20 0.500000 0.500000 0.901764
O O21 0.250000 0.545344 0.921722
#
# Coordination Sequence:
#
# PCOD8192283 Si02
#       8
#     8   8   8   8   8   8   8   8
#     4  10  21  37  56  79 107 136 168 208 255 307
#     4  11  21  33  53  78 104 137 176 215 257 308
#     4  11  21  33  53  78 104 137 175 213 256 308
#     4   9  18  32  50  73 103 139 176 212 253 305
#     4  10  20  32  48  74 107 140 174 214 259 306
#     4  10  21  35  51  73 103 139 177 218 261 304
#     4   9  19  35  52  72 101 138 178 217 256 301
#     4  10  21  37  57  81 109 138 168 207 255 307
#
# _framework density 18.074560000000002
#
# number of rings (size 3 to 8) (size 9 to 14) (size 15 to 20)
#    0.000    2.000    0.000    3.750    0.000    8.000 
#    0.000    2.500    0.000    0.750    0.000    1.750 
#    0.000    0.000    0.000    0.000    0.000    0.000 
#
# Total GULP energy -396938.802356 kJ/mol
# GULP energy per Si atom -12404.337574 kJ/mol
# Density = 1.803342 g / cm^3
# Si number density = 18.074560 Si / 1000 Ang^3
#
#
#
# Elastic Constant Matrix: (Units=GPa)
#
#
# Indices 1 2 3 4 5 6 
#
# 1 71.8490 34.3943 38.7535 0.0000 0.0001 0.0000
# 2 34.3943 73.2782 44.3617 0.0000 0.0000 0.0000
# 3 38.7535 44.3617 93.9565 -0.0002 0.0000 -0.0001
# 4 0.0000 0.0000 -0.0002 20.8597 -0.0001 0.0000
# 5 0.0001 0.0000 0.0000 -0.0001 29.9018 -0.0001
# 6 0.0000 0.0000 -0.0001 0.0000 -0.0001 32.3848
#
#
#
# Elastic Compliance Matrix: (Units=1/GPa)
#
#
# Indices 1 2 3 4 5 6 
#
# 1 0.019641 -0.006041 -0.005249 0.000000 0.000000 0.000000
# 2 -0.006041 0.020967 -0.007408 0.000000 0.000000 0.000000
# 3 -0.005249 -0.007408 0.016306 0.000000 0.000000 0.000000
# 4 0.000000 0.000000 0.000000 0.047939 0.000000 0.000000
# 5 0.000000 0.000000 0.000000 0.000000 0.033443 0.000000
# 6 0.000000 0.000000 0.000000 0.000000 0.000000 0.030879
#
#
# Mechanical properties :
#
#
# Convention : Reuss Voigt Hill
#
# Bulk Modulus (GPa) = 51.23480 52.67809 51.95644
# Shear Modulus (GPa) = 23.46580 24.73419 24.10000
#
# Velocity S-wave (km/s) = 3.60707 3.70327 3.65549
# Velocity P-wave (km/s) = 6.76431 6.89158 6.82824
#
# Compressibility (1/GPa) = 0.01951798
#
# Stress axis : x y z
#
# Youngs Moduli (GPa) = 50.91350 47.69466 61.32828
#
# Poissons Ratio (x) = 0.28814 0.32190
# Poissons Ratio (y) = 0.30759 0.45430
# Poissons Ratio (z) = 0.26724 0.35330
#
# Static dielectric constant tensor:
#      x y z
#    x 3.405340 0.000000 0.000000 
#    y 0.000000 3.237330 0.000000 
#    z 0.000000 0.000000 3.297350 
# 
# 
# High freq. dielectric constant tensor:
#      x y z
#    x 1.712940 0.000000 0.000000 
#    y 0.000000 1.679140 0.000000 
#    z 0.000000 0.000000 1.696920 
# 
# From -- ./inp_files/9764.got.cif
#   From: 2010.03.12/outbox.cif.g09.slc.cpg/sg46_5_cif.got.tgz:9764.got - 2010.04.14 02:56:35.
