data_PCOD8192341
_publ_section_title
;
Structure prediction by ZEFSAII (Michael W. Deem and Ramdas Pophale) SiO2 
 PCOD8192341
Probable space group: I M A 2
;
_chemical_formula_sum "Si O2"
_cell_formula_units_Z 56
_cell_length_a 9.330037
_cell_length_b 13.894017
_cell_length_c 22.983721
_cell_angle_alpha 90.000000
_cell_angle_beta 90.000000
_cell_angle_gamma 90.000000
_cell_volume 2979.418658
_symmetry_space_group_name_H-M "I M A 2"
_symmetry_group_IT_number 46
_symmetry_cell_setting 'orthorhombic'
loop_
_space_group_symop_operation_xyz
x,y,z
-x,-y,z
1/2-x,y,z
1/2+x,-y,z
1/2+x,1/2+y,1/2+z
1/2-x,1/2-y,1/2+z
-x,1/2+y,1/2+z
x,1/2-y,1/2+z
loop_
_atom_site_type_symbol
_atom_site_label
_atom_site_fract_x
_atom_site_fract_y
_atom_site_fract_z
Si Si1 0.082008 0.196343 0.873320
Si Si2 0.414298 0.219693 0.104037
Si Si3 0.913343 0.343517 0.267034
Si Si4 0.089769 0.088404 0.344358
Si Si5 0.918897 0.599883 0.493378
Si Si6 0.908764 0.829124 0.227804
Si Si7 0.417069 0.592377 0.141842
O O1 0.250000 0.187023 0.862925
O O2 0.032206 0.307851 0.866671
O O3 0.035912 0.158787 0.936201
O O4 0.006662 0.129317 0.824074
O O5 0.250000 0.253377 0.094827
O O6 0.425756 0.145900 0.159391
O O7 0.511529 0.312963 0.114464
O O8 0.470880 0.162825 0.048096
O O9 0.750000 0.338259 0.287443
O O10 0.933464 0.414072 0.212113
O O11 0.962621 0.240225 0.244456
O O12 0.250000 0.073703 0.367515
O O13 0.083090 0.082412 0.273270
O O14 0.000000 0.000000 0.370760
O O15 0.750000 0.579836 0.495795
O O16 0.000000 0.500000 0.494187
O O17 0.750000 0.780025 0.236547
O O18 0.500000 0.500000 0.115963
O O19 0.250000 0.590257 0.123939
#
# Coordination Sequence:
#
# PCOD8192341 Si02
#       7
#     8   8   8   8   8   8   8
#     4   9  19  36  53  71 103 143 176 211 260 313
#     4   9  18  35  56  76 103 138 174 215 263 312
#     4   9  17  29  48  75 102 130 169 214 255 296
#     4   9  17  29  47  72 101 132 165 201 248 306
#     4  10  22  39  58  78 101 134 176 221 266 313
#     4   8  15  29  48  70  99 134 165 198 250 309
#     4  10  20  33  52  80 111 141 174 214 261 315
#
# _framework density 18.795612999999999
#
# number of rings (size 3 to 8) (size 9 to 14) (size 15 to 20)
#    0.000    2.857    0.000    1.714    0.000    6.286 
#    0.000    3.571    0.000    1.714    0.000    0.000 
#    0.000    0.000    0.000    0.000    0.000    0.000 
#
# Total GULP energy -346907.184343 kJ/mol
# GULP energy per Si atom -12389.542298 kJ/mol
# Density = 1.875283 g / cm^3
# Si number density = 18.795613 Si / 1000 Ang^3
#
#
#
# Elastic Constant Matrix: (Units=GPa)
#
#
# Indices 1 2 3 4 5 6 
#
# 1 78.7594 53.4403 39.3722 0.0000 0.0000 0.0000
# 2 53.4403 97.9621 49.7294 0.0000 0.0000 0.0000
# 3 39.3722 49.7294 132.2592 0.0000 0.0000 0.0000
# 4 0.0000 0.0000 0.0000 19.5323 0.0000 0.0000
# 5 0.0000 0.0000 0.0000 0.0000 22.5060 0.0000
# 6 0.0000 0.0000 0.0000 0.0000 0.0000 29.7457
#
#
#
# Elastic Compliance Matrix: (Units=1/GPa)
#
#
# Indices 1 2 3 4 5 6 
#
# 1 0.020744 -0.010112 -0.002373 0.000000 0.000000 0.000000
# 2 -0.010112 0.017545 -0.003587 0.000000 0.000000 0.000000
# 3 -0.002373 -0.003587 0.009616 0.000000 0.000000 0.000000
# 4 0.000000 0.000000 0.000000 0.051197 0.000000 0.000000
# 5 0.000000 0.000000 0.000000 0.000000 0.044433 0.000000
# 6 0.000000 0.000000 0.000000 0.000000 0.000000 0.033618
#
#
# Mechanical properties :
#
#
# Convention : Reuss Voigt Hill
#
# Bulk Modulus (GPa) = 63.44474 66.00717 64.72596
# Shear Modulus (GPa) = 23.30447 25.45272 24.37860
#
# Velocity S-wave (km/s) = 3.52503 3.68392 3.60535
# Velocity P-wave (km/s) = 7.09902 7.29997 7.20020
#
# Compressibility (1/GPa) = 0.01576175
#
# Stress axis : x y z
#
# Youngs Moduli (GPa) = 48.20581 56.99663 103.99262
#
# Poissons Ratio (x) = 0.57633 0.24682
# Poissons Ratio (y) = 0.48744 0.37299
# Poissons Ratio (z) = 0.11441 0.20443
#
# Static dielectric constant tensor:
#      x y z
#    x 3.432330 0.000000 0.000000 
#    y 0.000000 3.136890 0.000000 
#    z 0.000000 0.000000 3.623900 
# 
# 
# High freq. dielectric constant tensor:
#      x y z
#    x 1.730060 0.000000 0.000000 
#    y 0.000000 1.702650 0.000000 
#    z 0.000000 0.000000 1.722400 
# 
# From -- ./inp_files/21069.got.cif
#   From: 2010.03.12/outbox.cif.g09.slc.cpg/sg46_11_cif.got.tgz:21069.got - 2010.04.14 02:56:35.
