data_PCOD8192394
_publ_section_title
;
Structure prediction by ZEFSAII (Michael W. Deem and Ramdas Pophale) SiO2 
 PCOD8192394
Probable space group: I M A 2
;
_chemical_formula_sum "Si O2"
_cell_formula_units_Z 64
_cell_length_a 8.567595
_cell_length_b 33.148259
_cell_length_c 11.775439
_cell_angle_alpha 90.000000
_cell_angle_beta 90.000000
_cell_angle_gamma 90.000000
_cell_volume 3344.234780
_symmetry_space_group_name_H-M "I M A 2"
_symmetry_group_IT_number 46
_symmetry_cell_setting 'orthorhombic'
loop_
_space_group_symop_operation_xyz
x,y,z
-x,-y,z
1/2-x,y,z
1/2+x,-y,z
1/2+x,1/2+y,1/2+z
1/2-x,1/2-y,1/2+z
-x,1/2+y,1/2+z
x,1/2-y,1/2+z
loop_
_atom_site_type_symbol
_atom_site_label
_atom_site_fract_x
_atom_site_fract_y
_atom_site_fract_z
Si Si1 0.573522 0.722090 0.822750
Si Si2 0.434342 0.955215 0.824773
Si Si3 0.926955 0.828258 0.532831
Si Si4 0.934852 0.620076 0.449263
Si Si5 0.065374 0.190362 0.786282
Si Si6 0.565033 0.858115 0.204340
Si Si7 0.067965 0.043142 0.586877
Si Si8 0.429003 0.600714 0.910398
O O1 0.750000 0.727323 0.779176
O O2 0.489228 0.765566 0.810932
O O3 0.500359 0.685954 0.745331
O O4 0.568354 0.711952 0.956620
O O5 0.250000 0.958036 0.827785
O O6 0.491121 0.923151 0.918666
O O7 0.489227 0.939022 0.701180
O O8 0.500000 0.000000 0.850585
O O9 0.750000 0.846413 0.531243
O O10 0.982582 0.819433 0.658695
O O11 0.052014 0.858357 0.480540
O O12 0.750000 0.615882 0.437582
O O13 0.002272 0.655458 0.367987
O O14 0.984566 0.632674 0.576083
O O15 0.250000 0.192045 0.804923
O O16 0.750000 0.859469 0.222996
O O17 0.489654 0.893058 0.282181
O O18 0.250000 0.040901 0.611323
O O19 0.033694 0.068074 0.474131
O O20 0.000000 0.000000 0.560571
O O21 0.250000 0.586895 0.908827
#
# Coordination Sequence:
#
# PCOD8192394 Si02
#       8
#     8   8   8   8   8   8   8   8
#     4   8  15  27  46  75 106 139 183 233 282 326
#     4  11  22  38  60  86 117 151 188 232 283 339
#     4   9  17  30  49  74 104 138 178 225 276 325
#     4  10  20  34  54  82 114 151 194 239 286 338
#     4   9  17  27  48  80 110 140 178 231 281 326
#     4   9  19  35  54  77 109 148 191 239 286 334
#     4  11  21  36  59  87 117 143 176 222 277 333
#     4  11  21  35  55  77 105 142 184 225 275 335
#
# _framework density 19.137412000000001
#
# number of rings (size 3 to 8) (size 9 to 14) (size 15 to 20)
#    0.000    2.250    0.000    5.625    1.750    1.500 
#    0.000    0.625    0.000    9.000    0.000    0.000 
#    0.000    0.000    0.000    0.000    0.000    0.000 
#
# Total GULP energy -396675.368046 kJ/mol
# GULP energy per Si atom -12396.105251 kJ/mol
# Density = 1.909385 g / cm^3
# Si number density = 19.137412 Si / 1000 Ang^3
#
#
#
# Elastic Constant Matrix: (Units=GPa)
#
#
# Indices 1 2 3 4 5 6 
#
# 1 67.0709 31.1593 33.1670 0.0003 0.0000 0.0000
# 2 31.1593 110.0846 72.5895 0.0021 0.0002 0.0001
# 3 33.1670 72.5895 158.7116 0.0040 0.0004 0.0003
# 4 0.0003 0.0021 0.0040 25.6395 0.0003 0.0003
# 5 0.0000 0.0002 0.0004 0.0003 20.4839 0.0004
# 6 0.0000 0.0001 0.0003 0.0003 0.0004 18.5075
#
#
#
# Elastic Compliance Matrix: (Units=1/GPa)
#
#
# Indices 1 2 3 4 5 6 
#
# 1 0.017601 -0.003661 -0.002004 0.000000 0.000000 0.000000
# 2 -0.003661 0.013768 -0.005532 0.000000 0.000000 0.000000
# 3 -0.002004 -0.005532 0.009250 -0.000001 0.000000 0.000000
# 4 0.000000 0.000000 -0.000001 0.039002 -0.000001 -0.000001
# 5 0.000000 0.000000 0.000000 -0.000001 0.048819 -0.000001
# 6 0.000000 0.000000 0.000000 -0.000001 -0.000001 0.054032
#
#
# Mechanical properties :
#
#
# Convention : Reuss Voigt Hill
#
# Bulk Modulus (GPa) = 54.86792 67.74429 61.30610
# Shear Modulus (GPa) = 23.70342 26.18963 24.94652
#
# Velocity S-wave (km/s) = 3.52318 3.70334 3.61438
# Velocity P-wave (km/s) = 6.72927 7.33226 7.03723
#
# Compressibility (1/GPa) = 0.01822559
#
# Stress axis : x y z
#
# Youngs Moduli (GPa) = 56.81436 72.63330 108.11200
#
# Poissons Ratio (x) = 0.26588 0.21666
# Poissons Ratio (y) = 0.20797 0.59807
# Poissons Ratio (z) = 0.11386 0.40180
#
# Static dielectric constant tensor:
#      x y z
#    x 3.207010 0.000000 0.000000 
#    y 0.000000 3.661110 0.000000 
#    z 0.000000 0.000000 3.605770 
# 
# 
# High freq. dielectric constant tensor:
#      x y z
#    x 1.713070 0.000000 0.000000 
#    y 0.000000 1.745890 0.000000 
#    z 0.000000 0.000000 1.745560 
# 
# From -- ./inp_files/9767.got.cif
#   From: 2010.03.12/outbox.cif.g09.slc.cpg/sg46_5_cif.got.tgz:9767.got - 2010.04.14 02:56:35.
