data_PCOD8192200
_publ_section_title
;
Structure prediction by ZEFSAII (Michael W. Deem and Ramdas Pophale) SiO2 
 PCOD8192200
Probable space group: I M A 2
;
_chemical_formula_sum "Si O2"
_cell_formula_units_Z 64
_cell_length_a 13.957713
_cell_length_b 12.057418
_cell_length_c 19.173128
_cell_angle_alpha 90.000000
_cell_angle_beta 90.000000
_cell_angle_gamma 90.000000
_cell_volume 3226.722019
_symmetry_space_group_name_H-M "I M A 2"
_symmetry_group_IT_number 46
_symmetry_cell_setting 'orthorhombic'
loop_
_space_group_symop_operation_xyz
x,y,z
-x,-y,z
1/2-x,y,z
1/2+x,-y,z
1/2+x,1/2+y,1/2+z
1/2-x,1/2-y,1/2+z
-x,1/2+y,1/2+z
x,1/2-y,1/2+z
loop_
_atom_site_type_symbol
_atom_site_label
_atom_site_fract_x
_atom_site_fract_y
_atom_site_fract_z
Si Si1 0.354283 0.686286 0.806040
Si Si2 0.862960 0.063908 0.563670
Si Si3 0.357654 0.269929 0.651431
Si Si4 0.949626 0.667217 0.026325
Si Si5 0.637397 0.616726 0.279278
Si Si6 0.137774 0.892176 0.718403
Si Si7 0.603315 0.542845 0.754738
Si Si8 0.451093 0.289303 0.870368
O O1 0.250000 0.725350 0.835475
O O2 0.393220 0.772437 0.747586
O O3 0.335410 0.566479 0.771324
O O4 0.434577 0.685165 0.866011
O O5 0.750000 0.092522 0.550387
O O6 0.901619 0.089235 0.641254
O O7 0.936540 0.139780 0.519280
O O8 0.882631 0.936303 0.546641
O O9 0.250000 0.244422 0.626286
O O10 0.427166 0.262756 0.583762
O O11 0.391296 0.178876 0.707739
O O12 0.358277 0.391246 0.687505
O O13 0.917068 0.706019 0.949865
O O14 0.750000 0.630285 0.294955
O O15 0.603554 0.489471 0.270784
O O16 0.576632 0.667375 0.342864
O O17 0.250000 0.903000 0.711057
O O18 0.500000 0.500000 0.734397
O O19 0.604924 0.620097 0.823641
#
# Coordination Sequence:
#
# PCOD8192200 Si02
#       8
#     8   8   8   8   8   8   8   8
#     4  10  21  36  59  84 116 153 192 239 286 343
#     4  10  22  36  56  87 122 151 188 241 300 357
#     4  10  19  36  60  86 114 149 192 240 291 342
#     4  11  23  35  58  87 120 157 193 238 297 351
#     4   9  18  35  59  86 114 143 186 243 290 334
#     4   9  18  35  60  90 111 140 192 241 291 345
#     4   9  20  36  59  83 116 149 195 240 284 344
#     4  10  23  37  53  88 117 149 196 232 288 349
#
# _framework density 19.834371000000001
#
# number of rings (size 3 to 8) (size 9 to 14) (size 15 to 20)
#    0.000    2.250    1.250    0.750   10.500    2.500 
#    0.000    0.000    2.750    0.000    0.000    0.000 
#    0.000    0.000    0.000    0.000    0.000    0.000 
#
# Total GULP energy -396605.084643 kJ/mol
# GULP energy per Si atom -12393.908895 kJ/mol
# Density = 1.978923 g / cm^3
# Si number density = 19.834371 Si / 1000 Ang^3
#
#
#
# Elastic Constant Matrix: (Units=GPa)
#
#
# Indices 1 2 3 4 5 6 
#
# 1 76.1059 1.7768 26.8818 0.0000 0.0000 0.0000
# 2 1.7768 94.5436 48.9064 0.0000 0.0000 0.0000
# 3 26.8818 48.9064 127.7759 0.0000 0.0000 0.0000
# 4 0.0000 0.0000 0.0000 17.3992 0.0000 0.0000
# 5 0.0000 0.0000 0.0000 0.0000 16.7385 0.0000
# 6 0.0000 0.0000 0.0000 0.0000 0.0000 22.2954
#
#
#
# Elastic Compliance Matrix: (Units=1/GPa)
#
#
# Indices 1 2 3 4 5 6 
#
# 1 0.014390 0.001615 -0.003646 0.000000 0.000000 0.000000
# 2 0.001615 0.013370 -0.005457 0.000000 0.000000 0.000000
# 3 -0.003646 -0.005457 0.010682 0.000000 0.000000 0.000000
# 4 0.000000 0.000000 0.000000 0.057474 0.000000 0.000000
# 5 0.000000 0.000000 0.000000 0.000000 0.059743 0.000000
# 6 0.000000 0.000000 0.000000 0.000000 0.000000 0.044852
#
#
# Mechanical properties :
#
#
# Convention : Reuss Voigt Hill
#
# Bulk Modulus (GPa) = 42.61396 50.39504 46.50450
# Shear Modulus (GPa) = 22.39071 26.01063 24.20067
#
# Velocity S-wave (km/s) = 3.36353 3.62524 3.49684
# Velocity P-wave (km/s) = 6.05112 6.55639 6.30881
#
# Compressibility (1/GPa) = 0.02346649
#
# Stress axis : x y z
#
# Youngs Moduli (GPa) = 69.49487 74.79610 93.61639
#
# Poissons Ratio (x) = -0.12083 0.34129
# Poissons Ratio (y) = -0.11226 0.51088
# Poissons Ratio (z) = 0.25335 0.40817
#
# Static dielectric constant tensor:
#      x y z
#    x 3.763890 0.000000 0.000000 
#    y 0.000000 3.770470 0.000000 
#    z 0.000000 0.000000 3.385190 
# 
# 
# High freq. dielectric constant tensor:
#      x y z
#    x 1.788570 0.000000 0.000000 
#    y 0.000000 1.760920 0.000000 
#    z 0.000000 0.000000 1.741090 
# 
# From -- ./inp_files/19620.got.cif
#   From: 2010.03.12/outbox.cif.g09.slc.cpg/sg46_10_cif.got.tgz:19620.got - 2010.04.14 02:56:35.
