data_PCOD8192093
_publ_section_title
;
Structure prediction by ZEFSAII (Michael W. Deem and Ramdas Pophale) SiO2 
 PCOD8192093
Probable space group: I M A 2
;
_chemical_formula_sum "Si O2"
_cell_formula_units_Z 40
_cell_length_a 8.616824
_cell_length_b 9.217921
_cell_length_c 26.240022
_cell_angle_alpha 90.000000
_cell_angle_beta 90.000000
_cell_angle_gamma 90.000000
_cell_volume 2084.224032
_symmetry_space_group_name_H-M "I M A 2"
_symmetry_group_IT_number 46
_symmetry_cell_setting 'orthorhombic'
loop_
_space_group_symop_operation_xyz
x,y,z
-x,-y,z
1/2-x,y,z
1/2+x,-y,z
1/2+x,1/2+y,1/2+z
1/2-x,1/2-y,1/2+z
-x,1/2+y,1/2+z
x,1/2-y,1/2+z
loop_
_atom_site_type_symbol
_atom_site_label
_atom_site_fract_x
_atom_site_fract_y
_atom_site_fract_z
Si Si1 0.433619 0.339988 0.977350
Si Si2 0.934091 0.659504 0.572698
Si Si3 0.430487 0.343844 0.867580
Si Si4 0.933519 0.339956 0.165569
Si Si5 0.433949 0.162092 0.256862
O O1 0.500000 0.500000 0.985835
O O2 0.250000 0.351901 0.981990
O O3 0.485537 0.272900 0.921582
O O4 0.497757 0.233507 0.020885
O O5 0.750000 0.653714 0.574244
O O6 0.000000 0.500000 0.575968
O O7 0.993981 0.748684 0.620315
O O8 0.500000 0.500000 0.864212
O O9 0.250000 0.365847 0.871428
O O10 0.471240 0.268468 0.813406
O O11 0.750000 0.344234 0.159918
O O12 0.000000 0.500000 0.163087
O O13 0.979701 0.268237 0.218777
O O14 0.250000 0.158628 0.246003
O O15 0.500000 0.000000 0.250838
#
# Coordination Sequence:
#
# PCOD8192093 Si02
#       5
#     8   8   8   8   8
#     4   9  18  33  55  82 111 143 180 222 267 317
#     4  11  23  39  58  81 110 144 183 225 272 324
#     4   8  15  29  51  79 110 143 179 219 262 313
#     4  12  25  41  59  80 108 141 181 226 275 328
#     4  10  19  34  57  84 114 147 184 224 268 318
#
# _framework density 19.191796
#
# number of rings (size 3 to 8) (size 9 to 14) (size 15 to 20)
#    0.000    2.000    0.000    4.200    0.000    4.000 
#    0.000    1.000    0.000    2.400    0.000    0.000 
#    0.000    0.000    0.000    0.000    0.000    0.000 
#
# Total GULP energy -247789.480839 kJ/mol
# GULP energy per Si atom -12389.474042 kJ/mol
# Density = 1.914811 g / cm^3
# Si number density = 19.191796 Si / 1000 Ang^3
#
#
#
# Elastic Constant Matrix: (Units=GPa)
#
#
# Indices 1 2 3 4 5 6 
#
# 1 54.6220 28.1205 33.5513 0.0000 0.0000 0.0000
# 2 28.1205 118.8155 74.8968 0.0001 0.0000 0.0000
# 3 33.5513 74.8968 173.3678 0.0001 0.0000 0.0000
# 4 0.0000 0.0001 0.0001 -145.7191 0.0000 0.0000
# 5 0.0000 0.0000 0.0000 0.0000 11.7148 0.0000
# 6 0.0000 0.0000 0.0000 0.0000 0.0000 30.0172
#
#
#
# Elastic Compliance Matrix: (Units=1/GPa)
#
#
# Indices 1 2 3 4 5 6 
#
# 1 0.021748 -0.003427 -0.002728 0.000000 0.000000 0.000000
# 2 -0.003427 0.012106 -0.004567 0.000000 0.000000 0.000000
# 3 -0.002728 -0.004567 0.008269 0.000000 0.000000 0.000000
# 4 0.000000 0.000000 0.000000 -0.006863 0.000000 0.000000
# 5 0.000000 0.000000 0.000000 0.000000 0.085362 0.000000
# 6 0.000000 0.000000 0.000000 0.000000 0.000000 0.033314
#
#
# Mechanical properties :
#
#
# Convention : Reuss Voigt Hill
#
# Bulk Modulus (GPa) = 48.35941 68.88250 58.62096
# Shear Modulus (GPa) = 27.43120 -6.78164 10.32478
#
# Velocity S-wave (km/s) = 3.78474 -1.88183 2.32195
# Velocity P-wave (km/s) = 6.65970 5.58998 6.14815
#
# Compressibility (1/GPa) = 0.02067850
#
# Stress axis : x y z
#
# Youngs Moduli (GPa) = 45.98151 82.60153 120.93463
#
# Poissons Ratio (x) = 0.28311 0.32992
# Poissons Ratio (y) = 0.15760 0.55228
# Poissons Ratio (z) = 0.12544 0.37722
#
# Static dielectric constant tensor:
#      x y z
#    x 3.675220 0.000000 0.000000 
#    y 0.000000 5.202530 0.000000 
#    z 0.000000 0.000000 4.521890 
# 
# 
# High freq. dielectric constant tensor:
#      x y z
#    x 1.753640 0.000000 0.000000 
#    y 0.000000 1.715600 0.000000 
#    z 0.000000 0.000000 1.782580 
# 
# From -- ./inp_files/22729.got.cif
#   From: 2010.03.12/outbox.cif.g09.slc.cpg/sg46_12_cif.got.tgz:22729.got - 2010.04.14 02:56:35.
