data_PCOD8192036
_publ_section_title
;
Structure prediction by ZEFSAII (Michael W. Deem and Ramdas Pophale) SiO2 
 PCOD8192036
Probable space group: I M A 2
;
_chemical_formula_sum "Si O2"
_cell_formula_units_Z 64
_cell_length_a 16.206805
_cell_length_b 9.207678
_cell_length_c 21.897528
_cell_angle_alpha 90.000000
_cell_angle_beta 90.000000
_cell_angle_gamma 90.000000
_cell_volume 3267.703327
_symmetry_space_group_name_H-M "I M A 2"
_symmetry_group_IT_number 46
_symmetry_cell_setting 'orthorhombic'
loop_
_space_group_symop_operation_xyz
x,y,z
-x,-y,z
1/2-x,y,z
1/2+x,-y,z
1/2+x,1/2+y,1/2+z
1/2-x,1/2-y,1/2+z
-x,1/2+y,1/2+z
x,1/2-y,1/2+z
loop_
_atom_site_type_symbol
_atom_site_label
_atom_site_fract_x
_atom_site_fract_y
_atom_site_fract_z
Si Si1 0.344453 0.865888 0.457830
Si Si2 0.397792 0.162362 0.812608
Si Si3 0.653957 0.638986 0.175310
Si Si4 0.001339 0.331894 0.649392
Si Si5 0.654535 0.377876 0.366236
Si Si6 0.840504 0.541792 0.841840
Si Si7 0.582693 0.086411 0.587871
Si Si8 0.061322 0.811410 0.283431
O O1 0.250000 0.846555 0.476369
O O2 0.374992 0.715649 0.425539
O O3 0.358984 0.999589 0.411719
O O4 0.391958 0.911945 0.517958
O O5 0.376091 0.105116 0.744417
O O6 0.333794 0.285704 0.833365
O O7 0.486583 0.237640 0.820451
O O8 0.395022 0.028658 0.859858
O O9 0.750000 0.689567 0.174665
O O10 0.595226 0.768609 0.148970
O O11 0.647326 0.493286 0.133575
O O12 0.938216 0.252725 0.603838
O O13 0.957555 0.302707 0.713218
O O14 0.000000 0.500000 0.631297
O O15 0.750000 0.417113 0.370850
O O16 0.640983 0.280436 0.305305
O O17 0.750000 0.477815 0.824011
O O18 0.915118 0.479198 0.799368
O O19 0.500000 0.000000 0.597808
#
# Coordination Sequence:
#
# PCOD8192036 Si02
#       8
#     8   8   8   8   8   8   8   8
#     4   9  20  38  55  74 105 145 185 223 266 322
#     4  11  20  32  54  86 114 138 173 222 276 321
#     4  10  20  36  59  85 114 147 184 225 270 328
#     4  10  21  37  56  82 114 144 179 230 283 327
#     4  10  20  34  53  79 111 142 178 223 268 317
#     4  10  20  35  56  80 110 145 180 219 266 324
#     4  10  21  38  59  78 103 145 192 230 270 325
#     4  10  19  34  53  78 112 146 174 212 271 334
#
# _framework density 19.585622999999998
#
# number of rings (size 3 to 8) (size 9 to 14) (size 15 to 20)
#    0.000    2.000    0.000    5.625    0.000    4.000 
#    0.000    8.750    0.000    1.500    0.000    0.000 
#    0.000    0.000    0.000    0.000    0.000    0.000 
#
# Total GULP energy -396548.505139 kJ/mol
# GULP energy per Si atom -12392.140786 kJ/mol
# Density = 1.954104 g / cm^3
# Si number density = 19.585623 Si / 1000 Ang^3
#
#
#
# Elastic Constant Matrix: (Units=GPa)
#
#
# Indices 1 2 3 4 5 6 
#
# 1 55.6076 10.6247 26.4830 0.0000 0.0000 0.0000
# 2 10.6247 113.8476 31.4125 0.0000 0.0000 0.0000
# 3 26.4830 31.4125 85.8213 0.0000 0.0000 0.0000
# 4 0.0000 0.0000 0.0000 23.6090 0.0000 0.0000
# 5 0.0000 0.0000 0.0000 0.0000 25.5096 0.0000
# 6 0.0000 0.0000 0.0000 0.0000 0.0000 23.1909
#
#
#
# Elastic Compliance Matrix: (Units=1/GPa)
#
#
# Indices 1 2 3 4 5 6 
#
# 1 0.021085 -0.000192 -0.006436 0.000000 0.000000 0.000000
# 2 -0.000192 0.009772 -0.003518 0.000000 0.000000 0.000000
# 3 -0.006436 -0.003518 0.014926 0.000000 0.000000 0.000000
# 4 0.000000 0.000000 0.000000 0.042357 0.000000 0.000000
# 5 0.000000 0.000000 0.000000 0.000000 0.039201 0.000000
# 6 0.000000 0.000000 0.000000 0.000000 0.000000 0.043120
#
#
# Mechanical properties :
#
#
# Convention : Reuss Voigt Hill
#
# Bulk Modulus (GPa) = 39.22878 43.59076 41.40977
# Shear Modulus (GPa) = 25.09416 26.91233 26.00324
#
# Velocity S-wave (km/s) = 3.58334 3.71089 3.64767
# Velocity P-wave (km/s) = 6.09863 6.37697 6.23935
#
# Compressibility (1/GPa) = 0.02549149
#
# Stress axis : x y z
#
# Youngs Moduli (GPa) = 47.42696 102.33168 66.99830
#
# Poissons Ratio (x) = 0.01963 0.43122
# Poissons Ratio (y) = 0.00910 0.23567
# Poissons Ratio (z) = 0.30525 0.35996
#
# Static dielectric constant tensor:
#      x y z
#    x 3.712980 0.000000 0.000000 
#    y 0.000000 3.798830 0.000000 
#    z 0.000000 0.000000 3.322340 
# 
# 
# High freq. dielectric constant tensor:
#      x y z
#    x 1.771050 0.000000 0.000000 
#    y 0.000000 1.768100 0.000000 
#    z 0.000000 0.000000 1.735280 
# 
# From -- ./inp_files/23704.got.cif
#   From: 2010.03.12/outbox.cif.g09.slc.cpg/sg46_12_cif.got.tgz:23704.got - 2010.04.14 02:56:35.
