data_PCOD8192425
_publ_section_title
;
Structure prediction by ZEFSAII (Michael W. Deem and Ramdas Pophale) SiO2 
 PCOD8192425
Probable space group: I M A 2
;
_chemical_formula_sum "Si O2"
_cell_formula_units_Z 56
_cell_length_a 16.631383
_cell_length_b 5.040470
_cell_length_c 32.837808
_cell_angle_alpha 90.000000
_cell_angle_beta 90.000000
_cell_angle_gamma 90.000000
_cell_volume 2752.793020
_symmetry_space_group_name_H-M "I M A 2"
_symmetry_group_IT_number 46
_symmetry_cell_setting 'orthorhombic'
loop_
_space_group_symop_operation_xyz
x,y,z
-x,-y,z
1/2-x,y,z
1/2+x,-y,z
1/2+x,1/2+y,1/2+z
1/2-x,1/2-y,1/2+z
-x,1/2+y,1/2+z
x,1/2-y,1/2+z
loop_
_atom_site_type_symbol
_atom_site_label
_atom_site_fract_x
_atom_site_fract_y
_atom_site_fract_z
Si Si1 0.157377 0.761571 0.259610
Si Si2 0.656090 0.750116 0.708479
Si Si3 0.054856 0.248473 0.629081
Si Si4 0.554644 0.244925 0.837445
Si Si5 0.445967 0.747195 0.426518
Si Si6 0.593230 0.081366 0.509392
Si Si7 0.343557 0.408044 0.552107
O O1 0.250000 0.827443 0.264392
O O2 0.139926 0.473230 0.242055
O O3 0.123670 0.787041 0.304773
O O4 0.122211 0.978651 0.228114
O O5 0.750000 0.732786 0.696411
O O6 0.605953 0.823957 0.668758
O O7 0.117632 0.303208 0.593396
O O8 0.000000 0.500000 0.638129
O O9 0.000000 0.000000 0.616394
O O10 0.500000 0.500000 0.838419
O O11 0.594784 0.188918 0.882369
O O12 0.500000 0.000000 0.824051
O O13 0.500000 0.500000 0.440925
O O14 0.385070 0.814075 0.463636
O O15 0.500000 0.000000 0.418966
O O16 0.612115 0.319251 0.540368
O O17 0.500000 0.000000 0.512925
O O18 0.646583 0.821701 0.518175
O O19 0.250000 0.469376 0.558829
#
# Coordination Sequence:
#
# PCOD8192425 Si02
#       7
#     8   8   8   8   8   8   8
#     4  10  21  37  57  81 113 151 185 224 283 343
#     4  10  22  40  58  79 112 150 185 228 286 341
#     4  12  25  40  61  87 113 145 192 239 282 337
#     4  10  20  34  56  84 113 146 189 235 278 329
#     4   9  18  33  56  85 113 146 187 236 287 331
#     4  11  21  39  65  87 114 155 201 242 283 342
#     4  12  25  41  60  87 122 155 189 236 297 351
#
# _framework density 20.342974000000002
#
# number of rings (size 3 to 8) (size 9 to 14) (size 15 to 20)
#    0.000    1.429    0.000    6.857    0.000    3.429 
#    0.000    5.714    0.000    1.714    0.000    0.000 
#    0.000    0.000    0.000    0.000    0.000    0.000 
#
# Total GULP energy -347190.428264 kJ/mol
# GULP energy per Si atom -12399.658152 kJ/mol
# Density = 2.029667 g / cm^3
# Si number density = 20.342974 Si / 1000 Ang^3
#
#
#
# Elastic Constant Matrix: (Units=GPa)
#
#
# Indices 1 2 3 4 5 6 
#
# 1 76.7479 32.8380 58.7050 0.0000 0.0000 0.0000
# 2 32.8380 119.0148 17.1844 0.0000 0.0000 0.0000
# 3 58.7050 17.1844 124.8448 0.0000 0.0000 0.0000
# 4 0.0000 0.0000 0.0000 30.7077 0.0000 0.0000
# 5 0.0000 0.0000 0.0000 0.0000 7.5401 0.0000
# 6 0.0000 0.0000 0.0000 0.0000 0.0000 23.9312
#
#
#
# Elastic Compliance Matrix: (Units=1/GPa)
#
#
# Indices 1 2 3 4 5 6 
#
# 1 0.022785 -0.004836 -0.010048 0.000000 0.000000 0.000000
# 2 -0.004836 0.009599 0.000953 0.000000 0.000000 0.000000
# 3 -0.010048 0.000953 0.012604 0.000000 0.000000 0.000000
# 4 0.000000 0.000000 0.000000 0.032565 0.000000 0.000000
# 5 0.000000 0.000000 0.000000 0.000000 0.132624 0.000000
# 6 0.000000 0.000000 0.000000 0.000000 0.000000 0.041786
#
#
# Mechanical properties :
#
#
# Convention : Reuss Voigt Hill
#
# Bulk Modulus (GPa) = 58.39541 59.78469 59.09005
# Shear Modulus (GPa) = 17.51103 26.56115 22.03609
#
# Velocity S-wave (km/s) = 2.93711 3.61732 3.29481
# Velocity P-wave (km/s) = 6.34586 6.84827 6.60185
#
# Compressibility (1/GPa) = 0.01712463
#
# Stress axis : x y z
#
# Youngs Moduli (GPa) = 43.88897 104.17713 79.34131
#
# Poissons Ratio (x) = 0.50378 0.79725
# Poissons Ratio (y) = 0.21224 -0.07558
# Poissons Ratio (z) = 0.44101 -0.09924
#
# Static dielectric constant tensor:
#      x y z
#    x 3.408190 0.000000 0.000000 
#    y 0.000000 3.942160 0.000000 
#    z 0.000000 0.000000 4.089930 
# 
# 
# High freq. dielectric constant tensor:
#      x y z
#    x 1.761640 0.000000 0.000000 
#    y 0.000000 1.819520 0.000000 
#    z 0.000000 0.000000 1.811670 
# 
# From -- ./inp_files/25396.got.cif
#   From: 2010.03.12/outbox.cif.g09.slc.cpg/sg46_13_cif.got.tgz:25396.got - 2010.04.14 02:56:35.
