data_PCOD8192140
_publ_section_title
;
Structure prediction by ZEFSAII (Michael W. Deem and Ramdas Pophale) SiO2 
 PCOD8192140
Probable space group: I M A 2
;
_chemical_formula_sum "Si O2"
_cell_formula_units_Z 64
_cell_length_a 8.638930
_cell_length_b 33.206526
_cell_length_c 11.700894
_cell_angle_alpha 90.000000
_cell_angle_beta 90.000000
_cell_angle_gamma 90.000000
_cell_volume 3356.622049
_symmetry_space_group_name_H-M "I M A 2"
_symmetry_group_IT_number 46
_symmetry_cell_setting 'orthorhombic'
loop_
_space_group_symop_operation_xyz
x,y,z
-x,-y,z
1/2-x,y,z
1/2+x,-y,z
1/2+x,1/2+y,1/2+z
1/2-x,1/2-y,1/2+z
-x,1/2+y,1/2+z
x,1/2-y,1/2+z
loop_
_atom_site_type_symbol
_atom_site_label
_atom_site_fract_x
_atom_site_fract_y
_atom_site_fract_z
Si Si1 0.077331 0.678174 0.067330
Si Si2 0.433850 0.880200 0.981185
Si Si3 0.065186 0.719830 0.847078
Si Si4 0.931937 0.853073 0.220020
Si Si5 0.923244 0.101256 0.425847
Si Si6 0.431358 0.455296 0.351381
Si Si7 0.070155 0.043177 0.596331
Si Si8 0.065620 0.689179 0.313862
O O1 0.250000 0.695662 0.084428
O O2 0.991837 0.680385 0.189034
O O3 0.996724 0.704633 0.968477
O O4 0.080499 0.632339 0.029753
O O5 0.250000 0.881506 0.977865
O O6 0.495644 0.923362 0.939269
O O7 0.499958 0.843658 0.902515
O O8 0.489002 0.871334 0.108595
O O9 0.250000 0.714265 0.840666
O O10 0.010653 0.765716 0.841684
O O11 0.995317 0.692005 0.746278
O O12 0.750000 0.850800 0.201388
O O13 0.969898 0.883487 0.323233
O O14 0.750000 0.093582 0.378468
O O15 0.990192 0.062186 0.485881
O O16 0.500000 0.500000 0.371339
O O17 0.250000 0.458537 0.375678
O O18 0.462641 0.438113 0.222578
O O19 0.250000 0.042195 0.569772
O O20 0.000000 0.000000 0.605707
O O21 0.250000 0.686123 0.313751
#
# Coordination Sequence:
#
# PCOD8192140 Si02
#       8
#     8   8   8   8   8   8   8   8
#     4   8  15  28  48  77 106 134 173 224 276 322
#     4  11  22  37  59  87 114 151 200 247 293 349
#     4   9  18  33  55  80 107 143 188 236 284 338
#     4  11  23  39  56  77 112 154 192 237 294 353
#     4  10  19  35  58  80 107 144 188 235 280 335
#     4  10  21  38  60  88 123 159 194 237 289 345
#     4  10  20  34  56  87 120 152 186 228 283 340
#     4   9  18  30  53  84 111 141 184 236 283 336
#
# _framework density 19.066787999999999
#
# number of rings (size 3 to 8) (size 9 to 14) (size 15 to 20)
#    0.000    2.250    0.000    4.125    1.750    2.500 
#    0.000    1.875    0.000    1.500    0.000    0.000 
#    0.000    0.000    0.000    0.000    0.000    0.000 
#
# Total GULP energy -396600.805044 kJ/mol
# GULP energy per Si atom -12393.775158 kJ/mol
# Density = 1.902339 g / cm^3
# Si number density = 19.066788 Si / 1000 Ang^3
#
#
#
# Elastic Constant Matrix: (Units=GPa)
#
#
# Indices 1 2 3 4 5 6 
#
# 1 66.4965 34.7581 24.8548 0.0004 -0.0001 -0.0002
# 2 34.7581 86.6623 51.2652 -0.0004 -0.0001 0.0000
# 3 24.8548 51.2652 110.3128 0.0007 -0.0002 -0.0003
# 4 0.0004 -0.0004 0.0007 30.2376 -0.0001 -0.0002
# 5 -0.0001 -0.0001 -0.0002 -0.0001 23.8124 0.0002
# 6 -0.0002 0.0000 -0.0003 -0.0002 0.0002 23.3008
#
#
#
# Elastic Compliance Matrix: (Units=1/GPa)
#
#
# Indices 1 2 3 4 5 6 
#
# 1 0.019111 -0.007058 -0.001026 0.000000 0.000000 0.000000
# 2 -0.007058 0.018521 -0.007017 0.000000 0.000000 0.000000
# 3 -0.001026 -0.007017 0.012557 0.000000 0.000000 0.000000
# 4 0.000000 0.000000 0.000000 0.033071 0.000000 0.000000
# 5 0.000000 0.000000 0.000000 0.000000 0.041995 0.000000
# 6 0.000000 0.000000 0.000000 0.000000 0.000000 0.042917
#
#
# Mechanical properties :
#
#
# Convention : Reuss Voigt Hill
#
# Bulk Modulus (GPa) = 50.03147 53.91420 51.97283
# Shear Modulus (GPa) = 24.38595 25.64307 25.01451
#
# Velocity S-wave (km/s) = 3.58016 3.67128 3.62600
# Velocity P-wave (km/s) = 6.58689 6.80507 6.69687
#
# Compressibility (1/GPa) = 0.01998742
#
# Stress axis : x y z
#
# Youngs Moduli (GPa) = 52.32544 53.99382 79.63604
#
# Poissons Ratio (x) = 0.38110 0.08170
# Poissons Ratio (y) = 0.36932 0.55878
# Poissons Ratio (z) = 0.05368 0.37886
#
# Static dielectric constant tensor:
#      x y z
#    x 3.312990 0.000000 0.000000 
#    y 0.000000 3.481000 0.000000 
#    z 0.000000 0.000000 3.653510 
# 
# 
# High freq. dielectric constant tensor:
#      x y z
#    x 1.721770 0.000000 0.000000 
#    y 0.000000 1.740500 0.000000 
#    z 0.000000 0.000000 1.746690 
# 
# From -- ./inp_files/9667.got.cif
#   From: 2010.03.12/outbox.cif.g09.slc.cpg/sg46_5_cif.got.tgz:9667.got - 2010.04.14 02:56:35.
