data_PCOD8192552
_publ_section_title
;
Structure prediction by ZEFSAII (Michael W. Deem and Ramdas Pophale) SiO2 
 PCOD8192552
Probable space group: I M A 2
;
_chemical_formula_sum "Si O2"
_cell_formula_units_Z 48
_cell_length_a 8.728915
_cell_length_b 30.310642
_cell_length_c 9.965032
_cell_angle_alpha 90.000000
_cell_angle_beta 90.000000
_cell_angle_gamma 90.000000
_cell_volume 2636.538377
_symmetry_space_group_name_H-M "I M A 2"
_symmetry_group_IT_number 46
_symmetry_cell_setting 'orthorhombic'
loop_
_space_group_symop_operation_xyz
x,y,z
-x,-y,z
1/2-x,y,z
1/2+x,-y,z
1/2+x,1/2+y,1/2+z
1/2-x,1/2-y,1/2+z
-x,1/2+y,1/2+z
x,1/2-y,1/2+z
loop_
_atom_site_type_symbol
_atom_site_label
_atom_site_fract_x
_atom_site_fract_y
_atom_site_fract_z
Si Si1 0.929320 0.289164 0.482610
Si Si2 0.429981 0.954349 0.491489
Si Si3 0.431296 0.953610 0.798171
Si Si4 0.932652 0.117389 0.280451
Si Si5 0.572708 0.215466 0.286737
Si Si6 0.930914 0.616617 0.496842
O O1 0.750000 0.298731 0.455919
O O2 0.001333 0.252516 0.382712
O O3 0.955122 0.271063 0.632766
O O4 0.020514 0.334003 0.458731
O O5 0.250000 0.958582 0.478620
O O6 0.479601 0.944729 0.644005
O O7 0.490707 0.914806 0.397795
O O8 0.500000 0.000000 0.438747
O O9 0.250000 0.954470 0.816934
O O10 0.500000 0.000000 0.847519
O O11 0.503527 0.914839 0.883294
O O12 0.750000 0.117864 0.264942
O O13 0.995094 0.166600 0.314260
O O14 0.001881 0.101402 0.139713
O O15 0.750000 0.214083 0.323925
O O16 0.750000 0.612842 0.501234
#
# Coordination Sequence:
#
# PCOD8192552 Si02
#       6
#     8   8   8   8   8   8
#     4   9  17  32  52  74  99 130 168 215 261 306
#     4   9  19  34  55  79 104 132 166 208 257 307
#     4  10  20  36  56  79 105 135 170 213 259 307
#     4   9  18  35  55  77 103 134 172 216 259 305
#     4   8  15  28  50  74  96 125 166 209 252 299
#     4  11  22  35  51  75 106 142 177 211 252 304
#
# _framework density 18.205690000000001
#
# number of rings (size 3 to 8) (size 9 to 14) (size 15 to 20)
#    0.000    2.667    0.000    3.000    0.000    3.333 
#    0.000   10.000    0.000    0.000    0.000    0.000 
#    0.000    0.000    0.000    0.000    0.000    0.000 
#
# Total GULP energy -297582.522092 kJ/mol
# GULP energy per Si atom -12399.271754 kJ/mol
# Density = 1.816425 g / cm^3
# Si number density = 18.205690 Si / 1000 Ang^3
#
#
#
# Elastic Constant Matrix: (Units=GPa)
#
#
# Indices 1 2 3 4 5 6 
#
# 1 52.8588 34.3147 33.3143 -0.0007 0.0001 -0.0001
# 2 34.3147 118.3916 86.7270 -0.0021 0.0014 0.0001
# 3 33.3143 86.7270 111.8505 -0.0025 0.0030 -0.0003
# 4 -0.0007 -0.0021 -0.0025 45.3304 0.0008 0.0000
# 5 0.0001 0.0014 0.0030 0.0008 13.9827 -0.0005
# 6 -0.0001 0.0001 -0.0003 0.0000 -0.0005 26.5359
#
#
#
# Elastic Compliance Matrix: (Units=1/GPa)
#
#
# Indices 1 2 3 4 5 6 
#
# 1 0.024079 -0.003994 -0.004075 0.000000 0.000001 0.000000
# 2 -0.003994 0.020215 -0.014485 0.000000 0.000001 0.000000
# 3 -0.004075 -0.014485 0.021385 0.000000 -0.000003 0.000000
# 4 0.000000 0.000000 0.000000 0.022060 -0.000001 0.000000
# 5 0.000001 0.000001 -0.000003 -0.000001 0.071517 0.000001
# 6 0.000000 0.000000 0.000000 0.000000 0.000001 0.037685
#
#
# Mechanical properties :
#
#
# Convention : Reuss Voigt Hill
#
# Bulk Modulus (GPa) = 48.60929 65.75699 57.18314
# Shear Modulus (GPa) = 20.08787 25.75278 22.92033
#
# Velocity S-wave (km/s) = 3.32533 3.76513 3.55204
# Velocity P-wave (km/s) = 6.44218 7.42286 6.94984
#
# Compressibility (1/GPa) = 0.02057220
#
# Stress axis : x y z
#
# Youngs Moduli (GPa) = 41.52915 49.46886 46.76103
#
# Poissons Ratio (x) = 0.19758 0.19055
# Poissons Ratio (y) = 0.16587 0.67731
# Poissons Ratio (z) = 0.16923 0.71653
#
# Static dielectric constant tensor:
#      x y z
#    x 3.141260 0.000000 0.000000 
#    y 0.000000 3.596720 0.000000 
#    z 0.000000 0.000000 3.495650 
# 
# 
# High freq. dielectric constant tensor:
#      x y z
#    x 1.683610 0.000000 0.000000 
#    y 0.000000 1.712280 0.000000 
#    z 0.000000 0.000000 1.708130 
# 
# From -- ./inp_files/3914.got.cif
#   From: 2010.03.12/outbox.cif.g09.slc.cpg/sg46_2_cif.got.tgz:3914.got - 2010.04.14 02:56:35.
