data_PCOD8192998
_publ_section_title
;
Structure prediction by ZEFSAII (Michael W. Deem and Ramdas Pophale) SiO2 
 PCOD8192998
Probable space group: I M A 2
;
_chemical_formula_sum "Si O2"
_cell_formula_units_Z 48
_cell_length_a 16.703719
_cell_length_b 4.999290
_cell_length_c 27.148725
_cell_angle_alpha 90.000000
_cell_angle_beta 90.000000
_cell_angle_gamma 90.000000
_cell_volume 2267.101394
_symmetry_space_group_name_H-M "I M A 2"
_symmetry_group_IT_number 46
_symmetry_cell_setting 'orthorhombic'
loop_
_space_group_symop_operation_xyz
x,y,z
-x,-y,z
1/2-x,y,z
1/2+x,-y,z
1/2+x,1/2+y,1/2+z
1/2-x,1/2-y,1/2+z
-x,1/2+y,1/2+z
x,1/2-y,1/2+z
loop_
_atom_site_type_symbol
_atom_site_label
_atom_site_fract_x
_atom_site_fract_y
_atom_site_fract_z
Si Si1 0.555052 0.246475 0.402530
Si Si2 0.658194 0.126474 0.603057
Si Si3 0.086683 0.391586 0.764774
Si Si4 0.913201 0.891446 0.150867
Si Si5 0.841846 0.375602 0.312839
Si Si6 0.055025 0.744003 0.013647
O O1 0.500000 0.500000 0.398602
O O2 0.630489 0.273094 0.366427
O O3 0.588698 0.215741 0.458042
O O4 0.500000 0.000000 0.386500
O O5 0.750000 0.037487 0.599934
O O6 0.649333 0.368487 0.641966
O O7 0.630460 0.242386 0.550240
O O8 0.606600 0.870571 0.619319
O O9 0.088755 0.308294 0.707831
O O10 0.149549 0.629250 0.774859
O O11 0.000000 0.500000 0.781000
O O12 0.105521 0.127752 0.796051
O O13 0.000000 0.000000 0.134279
O O14 0.750000 0.465491 0.315348
O O15 0.000000 0.500000 0.028183
O O16 0.000000 0.000000 0.020847
#
# Coordination Sequence:
#
# PCOD8192998 Si02
#       6
#     8   8   8   8   8   8
#     4  10  21  39  63  87 115 157 203 243 288 350
#     4  12  24  38  61  92 125 156 191 247 306 352
#     4  11  24  42  63  86 117 161 207 245 287 350
#     4  11  24  42  63  86 117 161 207 245 287 350
#     4  12  24  38  61  92 125 156 191 247 306 352
#     4  10  21  39  63  87 115 157 203 243 288 350
#
# _framework density 21.172412000000001
#
# number of rings (size 3 to 8) (size 9 to 14) (size 15 to 20)
#    0.000    1.000    0.000    8.000    0.000    7.333 
#    0.000    0.000    0.000   10.000    0.000    0.000 
#    0.000    0.000    0.000    0.000    0.000    0.000 
#
# Total GULP energy -297721.707984 kJ/mol
# GULP energy per Si atom -12405.071166 kJ/mol
# Density = 2.112422 g / cm^3
# Si number density = 21.172412 Si / 1000 Ang^3
#
#
#
# Elastic Constant Matrix: (Units=GPa)
#
#
# Indices 1 2 3 4 5 6 
#
# 1 105.7461 28.7732 62.0874 0.0000 0.0000 0.0000
# 2 28.7732 133.0740 36.6462 0.0000 0.0000 0.0000
# 3 62.0874 36.6462 116.4883 0.0000 0.0000 0.0000
# 4 0.0000 0.0000 0.0000 37.0931 0.0000 0.0000
# 5 0.0000 0.0000 0.0000 0.0000 17.4453 0.0000
# 6 0.0000 0.0000 0.0000 0.0000 0.0000 23.7832
#
#
#
# Elastic Compliance Matrix: (Units=1/GPa)
#
#
# Indices 1 2 3 4 5 6 
#
# 1 0.013898 -0.001057 -0.007075 0.000000 0.000000 0.000000
# 2 -0.001057 0.008308 -0.002050 0.000000 0.000000 0.000000
# 3 -0.007075 -0.002050 0.013001 0.000000 0.000000 0.000000
# 4 0.000000 0.000000 0.000000 0.026959 0.000000 0.000000
# 5 0.000000 0.000000 0.000000 0.000000 0.057322 0.000000
# 6 0.000000 0.000000 0.000000 0.000000 0.000000 0.042047
#
#
# Mechanical properties :
#
#
# Convention : Reuss Voigt Hill
#
# Bulk Modulus (GPa) = 67.37599 67.81356 67.59478
# Shear Modulus (GPa) = 26.75997 30.85108 28.80553
#
# Velocity S-wave (km/s) = 3.55900 3.82139 3.69253
# Velocity P-wave (km/s) = 6.98429 7.18118 7.08342
#
# Compressibility (1/GPa) = 0.01484208
#
# Stress axis : x y z
#
# Youngs Moduli (GPa) = 71.95130 120.37006 76.91924
#
# Poissons Ratio (x) = 0.12719 0.54422
# Poissons Ratio (y) = 0.07603 0.15771
# Poissons Ratio (z) = 0.50908 0.24680
#
# Static dielectric constant tensor:
#      x y z
#    x 3.560860 0.000000 0.000000 
#    y 0.000000 3.929910 0.000000 
#    z 0.000000 0.000000 4.149980 
# 
# 
# High freq. dielectric constant tensor:
#      x y z
#    x 1.808250 0.000000 0.000000 
#    y 0.000000 1.851010 0.000000 
#    z 0.000000 0.000000 1.844550 
# 
# From -- ./inp_files/24584.got.cif
#   From: 2010.03.12/outbox.cif.g09.slc.cpg/sg46_13_cif.got.tgz:24584.got - 2010.04.14 02:56:35.
