data_PCOD8192981
_publ_section_title
;
Structure prediction by ZEFSAII (Michael W. Deem and Ramdas Pophale) SiO2 
 PCOD8192981
Probable space group: I M A 2
;
_chemical_formula_sum "Si O2"
_cell_formula_units_Z 28
_cell_length_a 35.074025
_cell_length_b 7.676911
_cell_length_c 5.039363
_cell_angle_alpha 90.000000
_cell_angle_beta 90.000000
_cell_angle_gamma 90.000000
_cell_volume 1356.899730
_symmetry_space_group_name_H-M "I M A 2"
_symmetry_group_IT_number 46
_symmetry_cell_setting 'orthorhombic'
loop_
_space_group_symop_operation_xyz
x,y,z
-x,-y,z
1/2-x,y,z
1/2+x,-y,z
1/2+x,1/2+y,1/2+z
1/2-x,1/2-y,1/2+z
-x,1/2+y,1/2+z
x,1/2-y,1/2+z
loop_
_atom_site_type_symbol
_atom_site_label
_atom_site_fract_x
_atom_site_fract_y
_atom_site_fract_z
Si Si1 0.250000 0.636698 0.625000
Si Si2 0.598331 0.864713 0.084547
Si Si3 0.033841 0.633515 0.661610
Si Si4 0.814267 0.862637 0.126055
O O1 0.250000 0.799462 0.427240
O O2 0.287852 0.526558 0.568781
O O3 0.588497 0.717681 0.300601
O O4 0.642144 0.924727 0.101086
O O5 0.500000 0.000000 0.106870
O O6 0.574060 0.037893 0.126009
O O7 0.030760 0.793013 0.457932
O O8 0.805347 0.790295 0.417662
#
# Coordination Sequence:
#
# PCOD8192981 Si02
#       4
#     4   8   8   8
#     4  12  24  36  56  86 118 146 186 240 280 322
#     4  10  21  39  61  85 112 146 189 234 279 333
#     4  12  24  39  60  85 116 151 187 231 279 333
#     4  10  21  39  61  81 111 153 190 225 278 344
#
# _framework density 20.635275
#
# number of rings (size 3 to 8) (size 9 to 14) (size 15 to 20)
#    0.000    1.143    0.000    6.857    0.000    2.286 
#    0.000    0.000    0.000    0.000    0.000    0.000 
#    0.000    0.000    0.000    0.000    0.000    0.000 
#
# Total GULP energy -173730.860016 kJ/mol
# GULP energy per Si atom -12409.347144 kJ/mol
# Density = 2.058831 g / cm^3
# Si number density = 20.635275 Si / 1000 Ang^3
#
#
#
# Elastic Constant Matrix: (Units=GPa)
#
#
# Indices 1 2 3 4 5 6 
#
# 1 115.4464 63.7150 27.0432 -0.0001 -0.0003 -0.0002
# 2 63.7150 85.0859 9.2583 -0.0003 -0.0003 -0.0003
# 3 27.0432 9.2583 77.5969 -0.0006 -0.0008 -0.0007
# 4 -0.0001 -0.0003 -0.0006 32.9159 -0.0004 -0.0003
# 5 -0.0003 -0.0003 -0.0008 -0.0004 25.4165 -0.0002
# 6 -0.0002 -0.0003 -0.0007 -0.0003 -0.0002 31.6021
#
#
#
# Elastic Compliance Matrix: (Units=1/GPa)
#
#
# Indices 1 2 3 4 5 6 
#
# 1 0.016012 -0.011533 -0.004204 0.000000 0.000000 0.000000
# 2 -0.011533 0.020214 0.001607 0.000000 0.000000 0.000000
# 3 -0.004204 0.001607 0.014161 0.000000 0.000000 0.000000
# 4 0.000000 0.000000 0.000000 0.030380 0.000000 0.000000
# 5 0.000000 0.000000 0.000000 0.000000 0.039345 0.000000
# 6 0.000000 0.000000 0.000000 0.000000 0.000000 0.031643
#
#
# Mechanical properties :
#
#
# Convention : Reuss Voigt Hill
#
# Bulk Modulus (GPa) = 45.19293 53.12914 49.16103
# Shear Modulus (GPa) = 26.68241 29.86107 28.27174
#
# Velocity S-wave (km/s) = 3.59980 3.80819 3.70546
# Velocity P-wave (km/s) = 6.26310 6.71856 6.49482
#
# Compressibility (1/GPa) = 0.02212735
#
# Stress axis : x y z
#
# Youngs Moduli (GPa) = 62.45412 49.47081 70.61876
#
# Poissons Ratio (x) = 0.57053 0.29690
# Poissons Ratio (y) = 0.72026 -0.11352
# Poissons Ratio (z) = 0.26257 -0.07952
#
# Static dielectric constant tensor:
#      x y z
#    x 3.916500 0.000000 0.000000 
#    y 0.000000 3.470860 0.000000 
#    z 0.000000 0.000000 3.898520 
# 
# 
# High freq. dielectric constant tensor:
#      x y z
#    x 1.821850 0.000000 0.000000 
#    y 0.000000 1.797470 0.000000 
#    z 0.000000 0.000000 1.826770 
# 
# From -- ./inp_files/2482.got.cif
#   From: 2010.03.12/outbox.cif.g09.slc.cpg/sg46_2_cif.got.tgz:2482.got - 2010.04.14 02:56:35.
