data_PCOD8192139
_publ_section_title
;
Structure prediction by ZEFSAII (Michael W. Deem and Ramdas Pophale) SiO2 
 PCOD8192139
Probable space group: I M A 2
;
_chemical_formula_sum "Si O2"
_cell_formula_units_Z 40
_cell_length_a 7.870553
_cell_length_b 29.000298
_cell_length_c 8.777772
_cell_angle_alpha 90.000000
_cell_angle_beta 90.000000
_cell_angle_gamma 90.000000
_cell_volume 2003.512260
_symmetry_space_group_name_H-M "I M A 2"
_symmetry_group_IT_number 46
_symmetry_cell_setting 'orthorhombic'
loop_
_space_group_symop_operation_xyz
x,y,z
-x,-y,z
1/2-x,y,z
1/2+x,-y,z
1/2+x,1/2+y,1/2+z
1/2-x,1/2-y,1/2+z
-x,1/2+y,1/2+z
x,1/2-y,1/2+z
loop_
_atom_site_type_symbol
_atom_site_label
_atom_site_fract_x
_atom_site_fract_y
_atom_site_fract_z
Si Si1 0.561362 0.858482 0.483460
Si Si2 0.438287 0.866487 0.158467
Si Si3 0.250000 0.696635 0.118443
Si Si4 0.750000 0.203379 0.977764
Si Si5 0.950128 0.049823 0.965641
Si Si6 0.549818 0.050011 0.621814
O O1 0.750000 0.841998 0.532896
O O2 0.548524 0.850818 0.301984
O O3 0.420276 0.830350 0.574847
O O4 0.541586 0.912636 0.516794
O O5 0.250000 0.881032 0.219339
O O6 0.526725 0.909627 0.071496
O O7 0.417680 0.823332 0.041177
O O8 0.250000 0.703658 0.297403
O O9 0.250000 0.744597 0.032205
O O10 0.750000 0.056284 0.960155
O O11 0.022406 0.054612 0.794345
O O12 0.000000 0.000000 0.034222
O O13 0.750000 0.057955 0.616439
O O14 0.500000 0.000000 0.556257
#
# Coordination Sequence:
#
# PCOD8192139 Si02
#       6
#     8   8   4   4   8   8
#     4  12  24  39  63  94 130 171 211 263 319 380
#     4   9  19  39  60  90 118 168 210 250 318 376
#     4  12  22  46  70  98 126 162 214 266 325 384
#     4  10  22  42  78  90 122 172 206 266 335 376
#     4   9  18  32  56  84 122 166 213 260 310 371
#     4  10  19  35  57  87 125 170 216 264 314 378
#
# _framework density 19.964939000000001
#
# number of rings (size 3 to 8) (size 9 to 14) (size 15 to 20)
#    0.600    1.200    2.000    3.000    0.000    2.400 
#    0.000    9.000    0.000    0.000    0.000    0.000 
#    0.000    0.000    0.000    0.000    0.000    0.000 
#
# Total GULP energy -247957.658732 kJ/mol
# GULP energy per Si atom -12397.882937 kJ/mol
# Density = 1.991950 g / cm^3
# Si number density = 19.964939 Si / 1000 Ang^3
#
#
#
# Elastic Constant Matrix: (Units=GPa)
#
#
# Indices 1 2 3 4 5 6 
#
# 1 95.9615 38.6750 37.7865 0.0004 -0.0002 -0.0001
# 2 38.6750 135.6425 56.2787 0.0016 -0.0003 0.0000
# 3 37.7865 56.2787 126.4245 0.0034 0.0001 -0.0001
# 4 0.0004 0.0016 0.0034 39.5903 0.0004 -0.0001
# 5 -0.0002 -0.0003 0.0001 0.0004 2.9819 -0.0001
# 6 -0.0001 0.0000 -0.0001 -0.0001 -0.0001 23.9355
#
#
#
# Elastic Compliance Matrix: (Units=1/GPa)
#
#
# Indices 1 2 3 4 5 6 
#
# 1 0.012446 -0.002459 -0.002625 0.000000 0.000001 0.000000
# 2 -0.002459 0.009528 -0.003507 0.000000 0.000001 0.000000
# 3 -0.002625 -0.003507 0.010255 -0.000001 -0.000001 0.000000
# 4 0.000000 0.000000 -0.000001 0.025259 -0.000003 0.000000
# 5 0.000001 0.000001 -0.000001 -0.000003 0.335358 0.000002
# 6 0.000000 0.000000 0.000000 0.000000 0.000002 0.041779
#
#
# Mechanical properties :
#
#
# Convention : Reuss Voigt Hill
#
# Bulk Modulus (GPa) = 66.45606 69.27876 67.86741
# Shear Modulus (GPa) = 10.94516 28.32076 19.63296
#
# Velocity S-wave (km/s) = 2.34395 3.77042 3.13928
# Velocity P-wave (km/s) = 6.37841 7.33009 6.87075
#
# Compressibility (1/GPa) = 0.01504754
#
# Stress axis : x y z
#
# Youngs Moduli (GPa) = 80.34896 104.94875 97.50955
#
# Poissons Ratio (x) = 0.25812 0.25596
# Poissons Ratio (y) = 0.19761 0.34192
# Poissons Ratio (z) = 0.21092 0.36801
#
# Static dielectric constant tensor:
#      x y z
#    x 4.062100 0.000000 0.000000 
#    y 0.000000 3.722950 0.000000 
#    z 0.000000 0.000000 3.622550 
# 
# 
# High freq. dielectric constant tensor:
#      x y z
#    x 1.755180 0.000000 0.000000 
#    y 0.000000 1.778790 0.000000 
#    z 0.000000 0.000000 1.777300 
# 
# From -- ./inp_files/3765.got.cif
#   From: 2010.03.12/outbox.cif.g09.slc.cpg/sg46_2_cif.got.tgz:3765.got - 2010.04.14 02:56:35.
