data_PCOD8192928
_publ_section_title
;
Structure prediction by ZEFSAII (Michael W. Deem and Ramdas Pophale) SiO2 
 PCOD8192928
Probable space group: I M A 2
;
_chemical_formula_sum "Si O2"
_cell_formula_units_Z 56
_cell_length_a 21.026734
_cell_length_b 24.104371
_cell_length_c 5.293134
_cell_angle_alpha 90.000000
_cell_angle_beta 90.000000
_cell_angle_gamma 90.000000
_cell_volume 2682.751908
_symmetry_space_group_name_H-M "I M A 2"
_symmetry_group_IT_number 46
_symmetry_cell_setting 'orthorhombic'
loop_
_space_group_symop_operation_xyz
x,y,z
-x,-y,z
1/2-x,y,z
1/2+x,-y,z
1/2+x,1/2+y,1/2+z
1/2-x,1/2-y,1/2+z
-x,1/2+y,1/2+z
x,1/2-y,1/2+z
loop_
_atom_site_type_symbol
_atom_site_label
_atom_site_fract_x
_atom_site_fract_y
_atom_site_fract_z
Si Si1 0.363587 0.276132 0.158690
Si Si2 0.412008 0.564702 0.266193
Si Si3 0.027925 0.895459 0.252264
Si Si4 0.178549 0.395602 0.264673
Si Si5 0.087072 0.035727 0.067679
Si Si6 0.504863 0.229732 0.198248
Si Si7 0.679708 0.006716 0.459126
O O1 0.331242 0.252316 0.413607
O O2 0.352404 0.341709 0.137080
O O3 0.438214 0.261855 0.156422
O O4 0.419652 0.600891 0.524035
O O5 0.435933 0.501300 0.327572
O O6 0.448012 0.594860 0.036415
O O7 0.339256 0.553067 0.171229
O O8 0.974653 0.941612 0.206132
O O9 0.995719 0.835417 0.238800
O O10 0.250000 0.383533 0.365121
O O11 0.133408 0.413508 0.496063
O O12 0.180369 0.444264 0.061369
O O13 0.125930 0.991706 0.241875
O O14 0.542412 0.256629 0.437169
O O15 0.750000 0.021810 0.355619
#
# Coordination Sequence:
#
# PCOD8192928 Si02
#       7
#     8   8   8   8   8   8   8
#     4  10  22  38  56  79 113 155 217 266 312 348
#     4  11  25  41  60  94 126 164 208 256 322 384
#     4  12  25  38  63  92 129 166 213 262 320 386
#     4  10  23  39  60  88 121 172 224 265 310 358
#     4  11  23  37  64  88 130 166 211 261 312 378
#     4  10  21  38  58  85 118 163 205 253 316 365
#     4  10  23  42  64  91 128 170 212 259 308 377
#
# _framework density 20.874089000000001
#
# number of rings (size 3 to 8) (size 9 to 14) (size 15 to 20)
#    0.000    1.429    1.429    3.429   12.000    1.143 
#    0.000    0.000    0.000    0.000    0.000    0.000 
#    0.000   11.429    0.000    0.000    0.000    0.000 
#
# Total GULP energy -346876.843020 kJ/mol
# GULP energy per Si atom -12388.458679 kJ/mol
# Density = 2.082658 g / cm^3
# Si number density = 20.874089 Si / 1000 Ang^3
#
#
#
# Elastic Constant Matrix: (Units=GPa)
#
#
# Indices 1 2 3 4 5 6 
#
# 1 36.3030 22.5716 16.9213 0.0000 0.0000 0.0000
# 2 22.5716 79.0533 18.8583 0.0000 0.0000 0.0000
# 3 16.9213 18.8583 138.4962 0.0000 0.0000 0.0000
# 4 0.0000 0.0000 0.0000 34.1310 0.0000 0.0000
# 5 0.0000 0.0000 0.0000 0.0000 20.4137 0.0000
# 6 0.0000 0.0000 0.0000 0.0000 0.0000 24.1175
#
#
#
# Elastic Compliance Matrix: (Units=1/GPa)
#
#
# Indices 1 2 3 4 5 6 
#
# 1 0.034644 -0.009180 -0.002983 0.000000 0.000000 0.000000
# 2 -0.009180 0.015507 -0.000990 0.000000 0.000000 0.000000
# 3 -0.002983 -0.000990 0.007720 0.000000 0.000000 0.000000
# 4 0.000000 0.000000 0.000000 0.029299 0.000000 0.000000
# 5 0.000000 0.000000 0.000000 0.000000 0.048987 0.000000
# 6 0.000000 0.000000 0.000000 0.000000 0.000000 0.041464
#
#
# Mechanical properties :
#
#
# Convention : Reuss Voigt Hill
#
# Bulk Modulus (GPa) = 31.68057 41.17276 36.42667
# Shear Modulus (GPa) = 23.31576 28.76586 26.04081
#
# Velocity S-wave (km/s) = 3.34574 3.71626 3.53585
# Velocity P-wave (km/s) = 5.48956 6.17910 5.84450
#
# Compressibility (1/GPa) = 0.03156509
#
# Stress axis : x y z
#
# Youngs Moduli (GPa) = 28.86495 64.48704 129.53985
#
# Poissons Ratio (x) = 0.59200 0.38639
# Poissons Ratio (y) = 0.26499 0.12823
# Poissons Ratio (z) = 0.08610 0.06383
#
# Static dielectric constant tensor:
#      x y z
#    x 3.692140 0.000000 0.000000 
#    y 0.000000 3.665840 0.000000 
#    z 0.000000 0.000000 4.779440 
# 
# 
# High freq. dielectric constant tensor:
#      x y z
#    x 1.774630 0.000000 0.000000 
#    y 0.000000 1.802930 0.000000 
#    z 0.000000 0.000000 1.840800 
# 
# From -- ./inp_files/2373.got.cif
#   From: 2010.03.12/outbox.cif.g09.slc.cpg/sg46_2_cif.got.tgz:2373.got - 2010.04.14 02:56:35.
