data_PCOD8192895
_publ_section_title
;
Structure prediction by ZEFSAII (Michael W. Deem and Ramdas Pophale) SiO2 
 PCOD8192895
Probable space group: I M A 2
;
_chemical_formula_sum "Si O2"
_cell_formula_units_Z 48
_cell_length_a 8.938764
_cell_length_b 18.139988
_cell_length_c 15.107252
_cell_angle_alpha 90.000000
_cell_angle_beta 90.000000
_cell_angle_gamma 90.000000
_cell_volume 2449.626888
_symmetry_space_group_name_H-M "I M A 2"
_symmetry_group_IT_number 46
_symmetry_cell_setting 'orthorhombic'
loop_
_space_group_symop_operation_xyz
x,y,z
-x,-y,z
1/2-x,y,z
1/2+x,-y,z
1/2+x,1/2+y,1/2+z
1/2-x,1/2-y,1/2+z
-x,1/2+y,1/2+z
x,1/2-y,1/2+z
loop_
_atom_site_type_symbol
_atom_site_label
_atom_site_fract_x
_atom_site_fract_y
_atom_site_fract_z
Si Si1 0.576739 0.685479 0.743430
Si Si2 0.426348 0.075626 0.089708
Si Si3 0.425953 0.076746 0.559566
Si Si4 0.576044 0.355839 0.423269
Si Si5 0.077246 0.145221 0.744165
Si Si6 0.575661 0.184250 0.423528
O O1 0.750000 0.672682 0.766640
O O2 0.525964 0.638263 0.659179
O O3 0.543212 0.770088 0.719432
O O4 0.480298 0.658992 0.827132
O O5 0.250000 0.065716 0.084564
O O6 0.500000 0.000000 0.122216
O O7 0.485821 0.096560 0.993433
O O8 0.250000 0.071133 0.545485
O O9 0.467285 0.095476 0.660656
O O10 0.487090 0.141146 0.498184
O O11 0.500000 0.000000 0.532066
O O12 0.750000 0.373292 0.433613
O O13 0.523783 0.380966 0.325932
O O14 0.539569 0.270086 0.437735
O O15 0.250000 0.135326 0.770455
O O16 0.750000 0.166638 0.431548
#
# Coordination Sequence:
#
# PCOD8192895 Si02
#       6
#     8   8   8   8   8   8
#     4   9  19  37  60  83 108 144 189 233 278 329
#     4  11  23  38  57  82 114 151 188 229 278 331
#     4  11  23  38  57  82 114 151 188 229 278 331
#     4  10  21  37  59  86 114 146 185 230 278 329
#     4   9  19  37  60  83 108 144 189 233 278 329
#     4  10  21  37  59  86 114 146 185 230 278 329
#
# _framework density 19.594821
#
# number of rings (size 3 to 8) (size 9 to 14) (size 15 to 20)
#    0.000    2.000    0.000    3.000    0.000    7.333 
#    0.000    6.667    0.000    0.000    0.000    0.000 
#    0.000    0.000    0.000    0.000    0.000    0.000 
#
# Total GULP energy -297741.074094 kJ/mol
# GULP energy per Si atom -12405.878087 kJ/mol
# Density = 1.955022 g / cm^3
# Si number density = 19.594821 Si / 1000 Ang^3
#
#
#
# Elastic Constant Matrix: (Units=GPa)
#
#
# Indices 1 2 3 4 5 6 
#
# 1 82.1800 24.2427 36.0183 0.0000 0.0000 0.0000
# 2 24.2427 39.9471 12.5428 -0.0001 0.0000 0.0000
# 3 36.0183 12.5428 69.4859 -0.0003 0.0001 0.0000
# 4 0.0000 -0.0001 -0.0003 11.7928 0.0000 0.0000
# 5 0.0000 0.0000 0.0001 0.0000 31.9336 0.0000
# 6 0.0000 0.0000 0.0000 0.0000 0.0000 32.7567
#
#
#
# Elastic Compliance Matrix: (Units=1/GPa)
#
#
# Indices 1 2 3 4 5 6 
#
# 1 0.018130 -0.008536 -0.007857 0.000000 0.000000 0.000000
# 2 -0.008536 0.030556 -0.001091 0.000000 0.000000 0.000000
# 3 -0.007857 -0.001091 0.018661 0.000000 0.000000 0.000000
# 4 0.000000 0.000000 0.000000 0.084798 0.000000 0.000000
# 5 0.000000 0.000000 0.000000 0.000000 0.031315 0.000000
# 6 0.000000 0.000000 0.000000 0.000000 0.000000 0.030528
#
#
# Mechanical properties :
#
#
# Convention : Reuss Voigt Hill
#
# Bulk Modulus (GPa) = 30.88387 37.46894 34.17641
# Shear Modulus (GPa) = 19.24943 23.21722 21.23332
#
# Velocity S-wave (km/s) = 3.13768 3.44592 3.29541
# Velocity P-wave (km/s) = 5.37794 5.91573 5.65323
#
# Compressibility (1/GPa) = 0.03237936
#
# Stress axis : x y z
#
# Youngs Moduli (GPa) = 55.15738 32.72719 53.58756
#
# Poissons Ratio (x) = 0.27934 0.42104
# Poissons Ratio (y) = 0.47080 0.05847
# Poissons Ratio (z) = 0.43337 0.03571
#
# Static dielectric constant tensor:
#      x y z
#    x 3.578170 0.000000 0.000000 
#    y 0.000000 3.574620 0.000000 
#    z 0.000000 0.000000 3.602560 
# 
# 
# High freq. dielectric constant tensor:
#      x y z
#    x 1.769650 0.000000 0.000000 
#    y 0.000000 1.760610 0.000000 
#    z 0.000000 0.000000 1.770340 
# 
# From -- ./inp_files/13883.got.cif
#   From: 2010.03.12/outbox.cif.g09.slc.cpg/sg46_7_cif.got.tgz:13883.got - 2010.04.14 02:56:35.
