data_PCOD8192297
_publ_section_title
;
Structure prediction by ZEFSAII (Michael W. Deem and Ramdas Pophale) SiO2 
 PCOD8192297
Probable space group: I M A 2
;
_chemical_formula_sum "Si O2"
_cell_formula_units_Z 64
_cell_length_a 9.150564
_cell_length_b 28.342168
_cell_length_c 12.616669
_cell_angle_alpha 90.000000
_cell_angle_beta 90.000000
_cell_angle_gamma 90.000000
_cell_volume 3272.093012
_symmetry_space_group_name_H-M "I M A 2"
_symmetry_group_IT_number 46
_symmetry_cell_setting 'orthorhombic'
loop_
_space_group_symop_operation_xyz
x,y,z
-x,-y,z
1/2-x,y,z
1/2+x,-y,z
1/2+x,1/2+y,1/2+z
1/2-x,1/2-y,1/2+z
-x,1/2+y,1/2+z
x,1/2-y,1/2+z
loop_
_atom_site_type_symbol
_atom_site_label
_atom_site_fract_x
_atom_site_fract_y
_atom_site_fract_z
Si Si1 0.082035 0.174917 0.995810
Si Si2 0.576380 0.201873 0.796273
Si Si3 0.417868 0.599268 0.220967
Si Si4 0.085482 0.915164 0.950025
Si Si5 0.079511 0.620795 0.822297
Si Si6 0.912602 0.456572 0.664283
Si Si7 0.423344 0.549976 0.011812
Si Si8 0.919931 0.793813 0.233498
O O1 0.250000 0.182341 0.963460
O O2 0.979957 0.205211 0.917375
O O3 0.039762 0.120590 0.983706
O O4 0.052542 0.188729 0.115563
O O5 0.750000 0.207056 0.793900
O O6 0.522752 0.152398 0.742884
O O7 0.501984 0.244144 0.733875
O O8 0.250000 0.604480 0.190571
O O9 0.441926 0.568157 0.328642
O O10 0.489497 0.571965 0.121595
O O11 0.250000 0.892137 0.954534
O O12 0.076583 0.956945 0.035961
O O13 0.250000 0.634287 0.825404
O O14 0.035024 0.592524 0.715283
O O15 0.988131 0.669379 0.818678
O O16 0.036144 0.588207 0.921897
O O17 0.750000 0.465515 0.704733
O O18 0.000000 0.500000 0.712154
O O19 0.500000 0.500000 0.988578
O O20 0.250000 0.541022 0.016474
O O21 0.750000 0.787532 0.261166
#
# Coordination Sequence:
#
# PCOD8192297 Si02
#       8
#     8   8   8   8   8   8   8   8
#     4  10  20  35  55  80 112 145 180 234 295 345
#     4  10  21  37  59  84 113 155 200 242 289 351
#     4   8  17  35  57  80 108 145 190 236 281 335
#     4   9  17  33  55  76 104 143 185 229 277 341
#     4  10  21  37  56  79 110 151 196 240 284 350
#     4  10  20  32  50  77 107 139 181 229 281 340
#     4  10  21  38  59  84 116 154 199 245 294 351
#     4  11  23  37  57  86 118 150 190 245 302 357
#
# _framework density 19.559346999999999
#
# number of rings (size 3 to 8) (size 9 to 14) (size 15 to 20)
#    0.000    2.250    1.250    2.250    0.000    4.500 
#    0.000    4.375    0.000    0.000    0.000    0.000 
#    0.000    0.000    0.000    0.000    0.000    0.000 
#
# Total GULP energy -396581.403963 kJ/mol
# GULP energy per Si atom -12393.168874 kJ/mol
# Density = 1.951483 g / cm^3
# Si number density = 19.559347 Si / 1000 Ang^3
#
#
#
# Elastic Constant Matrix: (Units=GPa)
#
#
# Indices 1 2 3 4 5 6 
#
# 1 62.7457 30.2302 32.5811 0.0005 0.0000 0.0000
# 2 30.2302 67.2823 22.1203 -0.0003 -0.0001 0.0001
# 3 32.5811 22.1203 98.6151 0.0004 0.0015 0.0000
# 4 0.0005 -0.0003 0.0004 21.1445 0.0006 -0.0001
# 5 0.0000 -0.0001 0.0015 0.0006 23.6365 -0.0002
# 6 0.0000 0.0001 0.0000 -0.0001 -0.0002 30.3538
#
#
#
# Elastic Compliance Matrix: (Units=1/GPa)
#
#
# Indices 1 2 3 4 5 6 
#
# 1 0.022962 -0.008446 -0.005692 -0.000001 0.000000 0.000000
# 2 -0.008446 0.019152 -0.001506 0.000000 0.000000 0.000000
# 3 -0.005692 -0.001506 0.012359 0.000000 -0.000001 0.000000
# 4 -0.000001 0.000000 0.000000 0.047294 -0.000001 0.000000
# 5 0.000000 0.000000 -0.000001 -0.000001 0.042307 0.000000
# 6 0.000000 0.000000 0.000000 0.000000 0.000000 0.032945
#
#
# Mechanical properties :
#
#
# Convention : Reuss Voigt Hill
#
# Bulk Modulus (GPa) = 43.12833 44.27845 43.70339
# Shear Modulus (GPa) = 23.14450 24.60774 23.87612
#
# Velocity S-wave (km/s) = 3.44364 3.55083 3.49764
# Velocity P-wave (km/s) = 6.15706 6.28477 6.22124
#
# Compressibility (1/GPa) = 0.02318662
#
# Stress axis : x y z
#
# Youngs Moduli (GPa) = 43.55049 52.21274 80.91457
#
# Poissons Ratio (x) = 0.44096 0.46056
# Poissons Ratio (y) = 0.36781 0.12184
# Poissons Ratio (z) = 0.24788 0.07862
#
# Static dielectric constant tensor:
#      x y z
#    x 3.452960 0.000000 0.000000 
#    y 0.000000 3.448770 0.000000 
#    z 0.000000 0.000000 3.765070 
# 
# 
# High freq. dielectric constant tensor:
#      x y z
#    x 1.747800 0.000000 0.000000 
#    y 0.000000 1.748610 0.000000 
#    z 0.000000 0.000000 1.770610 
# 
# From -- ./inp_files/9697.got.cif
#   From: 2010.03.12/outbox.cif.g09.slc.cpg/sg46_5_cif.got.tgz:9697.got - 2010.04.14 02:56:35.
