data_PCOD8192762
_publ_section_title
;
Structure prediction by ZEFSAII (Michael W. Deem and Ramdas Pophale) SiO2 
 PCOD8192762
Probable space group: I M A 2
;
_chemical_formula_sum "Si O2"
_cell_formula_units_Z 48
_cell_length_a 17.148679
_cell_length_b 14.619026
_cell_length_c 9.922225
_cell_angle_alpha 90.000000
_cell_angle_beta 90.000000
_cell_angle_gamma 90.000000
_cell_volume 2487.471884
_symmetry_space_group_name_H-M "I M A 2"
_symmetry_group_IT_number 46
_symmetry_cell_setting 'orthorhombic'
loop_
_space_group_symop_operation_xyz
x,y,z
-x,-y,z
1/2-x,y,z
1/2+x,-y,z
1/2+x,1/2+y,1/2+z
1/2-x,1/2-y,1/2+z
-x,1/2+y,1/2+z
x,1/2-y,1/2+z
loop_
_atom_site_type_symbol
_atom_site_label
_atom_site_fract_x
_atom_site_fract_y
_atom_site_fract_z
Si Si1 0.131963 0.326741 0.913190
Si Si2 0.631963 0.673259 0.221403
Si Si3 0.250000 0.633770 0.067302
Si Si4 0.750000 0.520816 0.851953
Si Si5 0.878597 0.286237 0.567288
Si Si6 0.250000 0.020817 0.782646
Si Si7 0.483204 0.749998 0.817288
Si Si8 0.250000 0.563054 0.567297
O O1 0.172315 0.250000 0.817296
O O2 0.171980 0.424316 0.890829
O O3 0.039365 0.330985 0.876237
O O4 0.143158 0.295910 0.067296
O O5 0.671980 0.575684 0.243764
O O6 0.539366 0.669013 0.258357
O O7 0.327431 0.694661 0.067304
O O8 0.250000 0.574122 0.202385
O O9 0.250000 0.574120 0.932221
O O10 0.750000 0.503005 0.694460
O O11 0.930728 0.291646 0.700183
O O12 0.930707 0.291637 0.434368
O O13 0.826661 0.375903 0.567294
O O14 0.250000 0.003011 0.940141
#
# Coordination Sequence:
#
# PCOD8192762 Si02
#       8
#     8   8   4   4   8   4   8   4
#     4  10  21  39  66  95 123 163 191 247 315 365
#     4  10  21  39  66  95 123 163 191 247 315 365
#     4  11  24  40  67  84 122 168 205 264 282 361
#     4  12  23  41  61 100 125 151 213 246 308 359
#     4  11  22  46  62  85 120 168 218 239 306 356
#     4  12  23  41  61 100 125 151 213 246 308 359
#     4  10  20  38  70  90 118 164 200 250 300 378
#     4  11  28  40  63  86 122 172 203 262 290 353
#
# _framework density 19.296700000000001
#
# number of rings (size 3 to 8) (size 9 to 14) (size 15 to 20)
#    1.000    0.333    3.333    2.500    2.333    2.667 
#    0.000   10.000    0.000    0.000    0.000    0.000 
#    0.000    0.000    0.000    0.000    0.000    0.000 
#
# Total GULP energy -297536.419028 kJ/mol
# GULP energy per Si atom -12397.350793 kJ/mol
# Density = 1.925278 g / cm^3
# Si number density = 19.296700 Si / 1000 Ang^3
#
#
#
# Elastic Constant Matrix: (Units=GPa)
#
#
# Indices 1 2 3 4 5 6 
#
# 1 127.7566 39.2589 54.2735 0.0000 0.0000 0.0000
# 2 39.2589 78.6411 47.1818 0.0000 0.0000 0.0000
# 3 54.2735 47.1818 193.7628 0.0000 0.0000 0.0000
# 4 0.0000 0.0000 0.0000 33.2589 0.0000 0.0000
# 5 0.0000 0.0000 0.0000 0.0000 30.9418 0.0000
# 6 0.0000 0.0000 0.0000 0.0000 0.0000 4.2247
#
#
#
# Elastic Compliance Matrix: (Units=1/GPa)
#
#
# Indices 1 2 3 4 5 6 
#
# 1 0.009760 -0.003785 -0.001812 0.000000 0.000000 0.000000
# 2 -0.003785 0.016360 -0.002923 0.000000 0.000000 0.000000
# 3 -0.001812 -0.002923 0.006380 0.000000 0.000000 0.000000
# 4 0.000000 0.000000 0.000000 0.030067 0.000000 0.000000
# 5 0.000000 0.000000 0.000000 0.000000 0.032319 0.000000
# 6 0.000000 0.000000 0.000000 0.000000 0.000000 0.236704
#
#
# Mechanical properties :
#
#
# Convention : Reuss Voigt Hill
#
# Bulk Modulus (GPa) = 64.68837 75.73212 70.21024
# Shear Modulus (GPa) = 14.13288 30.98148 22.55718
#
# Velocity S-wave (km/s) = 2.70922 4.01126 3.42272
# Velocity P-wave (km/s) = 6.58653 7.79647 7.21690
#
# Compressibility (1/GPa) = 0.01545873
#
# Stress axis : x y z
#
# Youngs Moduli (GPa) = 102.45431 61.12624 156.73023
#
# Poissons Ratio (x) = 0.23138 0.28403
# Poissons Ratio (y) = 0.38782 0.45817
# Poissons Ratio (z) = 0.18567 0.17869
#
# Static dielectric constant tensor:
#      x y z
#    x 3.634740 0.000000 0.000000 
#    y 0.000000 3.198460 0.000000 
#    z 0.000000 0.000000 4.182700 
# 
# 
# High freq. dielectric constant tensor:
#      x y z
#    x 1.761510 0.000000 0.000000 
#    y 0.000000 1.724090 0.000000 
#    z 0.000000 0.000000 1.776350 
# 
# From -- ./inp_files/6658.got.cif
#   From: 2010.03.12/outbox.cif.g09.slc.cpg/sg46_4_cif.got.tgz:6658.got - 2010.04.14 02:56:35.
