data_PCOD8192780
_publ_section_title
;
Structure prediction by ZEFSAII (Michael W. Deem and Ramdas Pophale) SiO2 
 PCOD8192780
Probable space group: I M A 2
;
_chemical_formula_sum "Si O2"
_cell_formula_units_Z 64
_cell_length_a 13.946648
_cell_length_b 18.563542
_cell_length_c 11.804247
_cell_angle_alpha 90.000000
_cell_angle_beta 90.000000
_cell_angle_gamma 90.000000
_cell_volume 3056.109939
_symmetry_space_group_name_H-M "I M A 2"
_symmetry_group_IT_number 46
_symmetry_cell_setting 'orthorhombic'
loop_
_space_group_symop_operation_xyz
x,y,z
-x,-y,z
1/2-x,y,z
1/2+x,-y,z
1/2+x,1/2+y,1/2+z
1/2-x,1/2-y,1/2+z
-x,1/2+y,1/2+z
x,1/2-y,1/2+z
loop_
_atom_site_type_symbol
_atom_site_label
_atom_site_fract_x
_atom_site_fract_y
_atom_site_fract_z
Si Si1 0.102719 0.466825 0.275910
Si Si2 0.544628 0.677539 0.897564
Si Si3 0.142053 0.530825 0.671033
Si Si4 0.550609 0.840956 0.934423
Si Si5 0.635189 0.873781 0.177190
Si Si6 0.643545 0.090640 0.940584
Si Si7 0.643637 0.954465 0.519417
Si Si8 0.359094 0.900099 0.405310
O O1 0.103379 0.390069 0.340292
O O2 0.157379 0.526401 0.350458
O O3 0.151480 0.454646 0.155037
O O4 0.000000 0.500000 0.251793
O O5 0.576158 0.757182 0.930407
O O6 0.578449 0.674077 0.767479
O O7 0.430584 0.667195 0.921058
O O8 0.593190 0.617351 0.976024
O O9 0.250000 0.515114 0.631742
O O10 0.101452 0.454418 0.712906
O O11 0.094527 0.560551 0.556456
O O12 0.136162 0.587447 0.771238
O O13 0.436163 0.849909 0.908910
O O14 0.592232 0.863307 0.054278
O O15 0.750000 0.859817 0.181834
O O16 0.750000 0.125873 0.956481
O O17 0.750000 0.951978 0.466696
O O18 0.599643 0.030174 0.473653
O O19 0.250000 0.880579 0.443727
#
# Coordination Sequence:
#
# PCOD8192780 Si02
#       8
#     8   8   8   8   8   8   8   8
#     4  10  21  39  62  88 118 157 203 249 293 352
#     4  12  25  40  60  90 124 163 199 242 299 364
#     4   9  17  34  64  94 112 141 197 250 298 344
#     4  11  26  40  59  91 125 161 200 240 300 363
#     4  11  23  41  64  90 120 156 201 250 300 354
#     4  10  20  39  66  92 119 154 199 252 300 351
#     4  11  23  40  62  89 118 159 206 251 298 350
#     4  10  21  39  65  92 119 153 200 253 302 351
#
# _framework density 20.941655999999998
#
# number of rings (size 3 to 8) (size 9 to 14) (size 15 to 20)
#    0.000    1.500    2.500    2.625    1.750    3.000 
#    0.000    0.000    0.000    0.000    0.000    0.000 
#    0.000    0.000    0.000    0.000    0.000    0.000 
#
# Total GULP energy -396536.497594 kJ/mol
# GULP energy per Si atom -12391.765550 kJ/mol
# Density = 2.089399 g / cm^3
# Si number density = 20.941656 Si / 1000 Ang^3
#
#
#
# Elastic Constant Matrix: (Units=GPa)
#
#
# Indices 1 2 3 4 5 6 
#
# 1 82.0792 17.0889 9.8787 0.0000 0.0000 0.0000
# 2 17.0889 77.0927 10.8992 0.0000 0.0000 0.0000
# 3 9.8787 10.8992 100.7068 0.0000 0.0000 0.0000
# 4 0.0000 0.0000 0.0000 10.1630 0.0000 0.0000
# 5 0.0000 0.0000 0.0000 0.0000 27.4441 0.0000
# 6 0.0000 0.0000 0.0000 0.0000 0.0000 17.5525
#
#
#
# Elastic Compliance Matrix: (Units=1/GPa)
#
#
# Indices 1 2 3 4 5 6 
#
# 1 0.012865 -0.002715 -0.000968 0.000000 0.000000 0.000000
# 2 -0.002715 0.013746 -0.001221 0.000000 0.000000 0.000000
# 3 -0.000968 -0.001221 0.010157 0.000000 0.000000 0.000000
# 4 0.000000 0.000000 0.000000 0.098396 0.000000 0.000000
# 5 0.000000 0.000000 0.000000 0.000000 0.036438 0.000000
# 6 0.000000 0.000000 0.000000 0.000000 0.000000 0.056972
#
#
# Mechanical properties :
#
#
# Convention : Reuss Voigt Hill
#
# Bulk Modulus (GPa) = 37.09317 37.29024 37.19171
# Shear Modulus (GPa) = 20.21272 25.83271 23.02271
#
# Velocity S-wave (km/s) = 3.11012 3.51601 3.31928
# Velocity P-wave (km/s) = 5.53609 5.85905 5.69986
#
# Compressibility (1/GPa) = 0.02695914
#
# Stress axis : x y z
#
# Youngs Moduli (GPa) = 77.72957 72.74907 98.45454
#
# Poissons Ratio (x) = 0.19751 0.09532
# Poissons Ratio (y) = 0.21103 0.12025
# Poissons Ratio (z) = 0.07525 0.08885
#
# Static dielectric constant tensor:
#      x y z
#    x 3.983900 0.000000 0.000000 
#    y 0.000000 3.630980 0.000000 
#    z 0.000000 0.000000 3.750860 
# 
# 
# High freq. dielectric constant tensor:
#      x y z
#    x 1.834220 0.000000 0.000000 
#    y 0.000000 1.789170 0.000000 
#    z 0.000000 0.000000 1.826310 
# 
# From -- ./inp_files/11307.got.cif
#   From: 2010.03.12/outbox.cif.g09.slc.cpg/sg46_6_cif.got.tgz:11307.got - 2010.04.14 02:56:35.
