data_PCOD8192300
_publ_section_title
;
Structure prediction by ZEFSAII (Michael W. Deem and Ramdas Pophale) SiO2 
 PCOD8192300
Probable space group: I M A 2
;
_chemical_formula_sum "Si O2"
_cell_formula_units_Z 32
_cell_length_a 10.557150
_cell_length_b 8.136310
_cell_length_c 18.067063
_cell_angle_alpha 90.000000
_cell_angle_beta 90.000000
_cell_angle_gamma 90.000000
_cell_volume 1551.892872
_symmetry_space_group_name_H-M "I M A 2"
_symmetry_group_IT_number 46
_symmetry_cell_setting 'orthorhombic'
loop_
_space_group_symop_operation_xyz
x,y,z
-x,-y,z
1/2-x,y,z
1/2+x,-y,z
1/2+x,1/2+y,1/2+z
1/2-x,1/2-y,1/2+z
-x,1/2+y,1/2+z
x,1/2-y,1/2+z
loop_
_atom_site_type_symbol
_atom_site_label
_atom_site_fract_x
_atom_site_fract_y
_atom_site_fract_z
Si Si1 0.990110 0.189132 0.121300
Si Si2 0.250000 0.147379 0.787685
Si Si3 0.750000 0.199966 0.865232
Si Si4 0.250000 0.708342 0.035088
Si Si5 0.484408 0.692227 0.278759
Si Si6 0.250000 0.134913 0.614549
O O1 0.125263 0.259128 0.093873
O O2 0.879857 0.208406 0.061523
O O3 0.944602 0.284137 0.194189
O O4 0.000000 0.000000 0.142068
O O5 0.374484 0.263204 0.797573
O O6 0.250000 0.081482 0.701513
O O7 0.250000 0.995497 0.845798
O O8 0.877805 0.275836 0.829595
O O9 0.750000 0.256117 0.948646
O O10 0.250000 0.518952 0.059099
O O11 0.500000 0.500000 0.294811
#
# Coordination Sequence:
#
# PCOD8192300 Si02
#       6
#     8   4   4   4   8   4
#     4  11  22  38  63  92 118 149 200 259 301 344
#     4   8  16  33  61  85 105 146 197 242 287 349
#     4  10  20  32  54  84 114 152 193 234 282 346
#     4  12  23  37  58  85 124 166 201 236 290 367
#     4   9  17  35  60  84 112 150 195 240 295 356
#     4  10  21  42  67  88 113 158 207 248 303 360
#
# _framework density 20.619980000000002
#
# number of rings (size 3 to 8) (size 9 to 14) (size 15 to 20)
#    0.000    2.000    0.000    6.750    0.000    3.000 
#    0.000    3.750    0.000    3.000    0.000    0.000 
#    0.000    0.000    0.000    0.000    0.000    0.000 
#
# Total GULP energy -198236.156794 kJ/mol
# GULP energy per Si atom -12389.759800 kJ/mol
# Density = 2.057305 g / cm^3
# Si number density = 20.619980 Si / 1000 Ang^3
#
#
#
# Elastic Constant Matrix: (Units=GPa)
#
#
# Indices 1 2 3 4 5 6 
#
# 1 216.1511 27.8519 89.0144 0.0000 0.0000 0.0000
# 2 27.8519 50.0107 15.3066 0.0000 0.0000 0.0000
# 3 89.0144 15.3066 131.1224 0.0000 0.0000 0.0000
# 4 0.0000 0.0000 0.0000 15.0561 0.0000 0.0000
# 5 0.0000 0.0000 0.0000 0.0000 5.6156 0.0000
# 6 0.0000 0.0000 0.0000 0.0000 0.0000 22.9308
#
#
#
# Elastic Compliance Matrix: (Units=1/GPa)
#
#
# Indices 1 2 3 4 5 6 
#
# 1 0.006693 -0.002424 -0.004261 0.000000 0.000000 0.000000
# 2 -0.002424 0.021614 -0.000878 0.000000 0.000000 0.000000
# 3 -0.004261 -0.000878 0.010622 0.000000 0.000000 0.000000
# 4 0.000000 0.000000 0.000000 0.066418 0.000000 0.000000
# 5 0.000000 0.000000 0.000000 0.000000 0.178075 0.000000
# 6 0.000000 0.000000 0.000000 0.000000 0.000000 0.043609
#
#
# Mechanical properties :
#
#
# Convention : Reuss Voigt Hill
#
# Bulk Modulus (GPa) = 42.00923 73.51444 57.76184
# Shear Modulus (GPa) = 14.28198 26.39459 20.33829
#
# Velocity S-wave (km/s) = 2.63464 3.58166 3.14401
# Velocity P-wave (km/s) = 5.44724 7.26869 6.42286
#
# Compressibility (1/GPa) = 0.02380429
#
# Stress axis : x y z
#
# Youngs Moduli (GPa) = 149.40018 46.26600 94.14772
#
# Poissons Ratio (x) = 0.11213 0.40117
# Poissons Ratio (y) = 0.36208 0.08265
# Poissons Ratio (z) = 0.63660 0.04062
#
# Static dielectric constant tensor:
#      x y z
#    x 5.219990 0.000000 0.000000 
#    y 0.000000 3.362660 0.000000 
#    z 0.000000 0.000000 3.360270 
# 
# 
# High freq. dielectric constant tensor:
#      x y z
#    x 1.850310 0.000000 0.000000 
#    y 0.000000 1.772220 0.000000 
#    z 0.000000 0.000000 1.773960 
# 
# From -- ./inp_files/14889.got.cif
#   From: 2010.03.12/outbox.cif.g09.slc.cpg/sg46_8_cif.got.tgz:14889.got - 2010.04.14 02:56:35.
