data_PCOD8192824
_publ_section_title
;
Structure prediction by ZEFSAII (Michael W. Deem and Ramdas Pophale) SiO2 
 PCOD8192824
Probable space group: I M A 2
;
_chemical_formula_sum "Si O2"
_cell_formula_units_Z 48
_cell_length_a 20.109135
_cell_length_b 14.970724
_cell_length_c 8.527772
_cell_angle_alpha 90.000000
_cell_angle_beta 90.000000
_cell_angle_gamma 90.000000
_cell_volume 2567.271348
_symmetry_space_group_name_H-M "I M A 2"
_symmetry_group_IT_number 46
_symmetry_cell_setting 'orthorhombic'
loop_
_space_group_symop_operation_xyz
x,y,z
-x,-y,z
1/2-x,y,z
1/2+x,-y,z
1/2+x,1/2+y,1/2+z
1/2-x,1/2-y,1/2+z
-x,1/2+y,1/2+z
x,1/2-y,1/2+z
loop_
_atom_site_type_symbol
_atom_site_label
_atom_site_fract_x
_atom_site_fract_y
_atom_site_fract_z
Si Si1 0.911333 0.036450 0.629720
Si Si2 0.542956 0.867642 0.750862
Si Si3 0.925348 0.980475 0.273342
Si Si4 0.826107 0.185634 0.533076
Si Si5 0.460802 0.312618 0.610637
Si Si6 0.889606 0.163215 0.210286
O O1 0.847097 0.101449 0.643532
O O2 0.974337 0.096363 0.676930
O O3 0.904911 0.950888 0.745634
O O4 0.917824 0.990200 0.459118
O O5 0.569012 0.785908 0.642764
O O6 0.535758 0.835503 0.928414
O O7 0.912284 0.881288 0.205686
O O8 0.880083 0.056081 0.185886
O O9 0.000000 0.000000 0.219132
O O10 0.750000 0.174475 0.481134
O O11 0.877507 0.184669 0.391531
O O12 0.835104 0.281735 0.613772
O O13 0.535329 0.307426 0.678433
#
# Coordination Sequence:
#
# PCOD8192824 Si02
#       6
#     8   8   8   8   8   8
#     4  10  21  34  50  78 110 144 183 228 265 331
#     4  11  21  31  52  80 113 138 183 213 291 333
#     4   9  18  32  50  70 108 143 174 216 275 320
#     4  11  22  37  54  76 109 155 192 225 264 310
#     4  11  21  33  54  81 109 149 169 224 284 337
#     4  10  21  33  51  76 107 144 186 222 263 324
#
# _framework density 18.696892999999999
#
# number of rings (size 3 to 8) (size 9 to 14) (size 15 to 20)
#    0.000    1.667    3.333    2.500    9.333    0.000 
#    0.000    0.000    0.000    0.000    0.000   11.667 
#    0.000    0.000    0.000    0.000    0.000    0.000 
#
# Total GULP energy -297358.618512 kJ/mol
# GULP energy per Si atom -12389.942438 kJ/mol
# Density = 1.865434 g / cm^3
# Si number density = 18.696893 Si / 1000 Ang^3
#
#
#
# Elastic Constant Matrix: (Units=GPa)
#
#
# Indices 1 2 3 4 5 6 
#
# 1 46.0661 31.0124 24.5930 0.0000 0.0000 0.0000
# 2 31.0124 170.2021 59.0048 0.0000 0.0000 0.0000
# 3 24.5930 59.0048 89.5330 0.0000 0.0000 0.0000
# 4 0.0000 0.0000 0.0000 37.1428 0.0000 0.0000
# 5 0.0000 0.0000 0.0000 0.0000 12.2235 0.0000
# 6 0.0000 0.0000 0.0000 0.0000 0.0000 18.0114
#
#
#
# Elastic Compliance Matrix: (Units=1/GPa)
#
#
# Indices 1 2 3 4 5 6 
#
# 1 0.026566 -0.002995 -0.005323 0.000000 0.000000 0.000000
# 2 -0.002995 0.007953 -0.004418 0.000000 0.000000 0.000000
# 3 -0.005323 -0.004418 0.015543 0.000000 0.000000 0.000000
# 4 0.000000 0.000000 0.000000 0.026923 0.000000 0.000000
# 5 0.000000 0.000000 0.000000 0.000000 0.081810 0.000000
# 6 0.000000 0.000000 0.000000 0.000000 0.000000 0.055520
#
#
# Mechanical properties :
#
#
# Convention : Reuss Voigt Hill
#
# Bulk Modulus (GPa) = 40.66959 59.44685 50.05822
# Shear Modulus (GPa) = 20.16246 26.22160 23.19203
#
# Velocity S-wave (km/s) = 3.28744 3.74900 3.52578
# Velocity P-wave (km/s) = 6.01739 7.11366 6.58836
#
# Compressibility (1/GPa) = 0.02458840
#
# Stress axis : x y z
#
# Youngs Moduli (GPa) = 37.64172 125.74058 64.33681
#
# Poissons Ratio (x) = 0.37661 0.34249
# Poissons Ratio (y) = 0.11274 0.28427
# Poissons Ratio (z) = 0.20038 0.55558
#
# Static dielectric constant tensor:
#      x y z
#    x 2.914840 0.000000 0.000000 
#    y 0.000000 4.294890 0.000000 
#    z 0.000000 0.000000 3.448040 
# 
# 
# High freq. dielectric constant tensor:
#      x y z
#    x 1.648450 0.000000 0.000000 
#    y 0.000000 1.754460 0.000000 
#    z 0.000000 0.000000 1.729290 
# 
# From -- ./inp_files/7304.got.cif
#   From: 2010.03.12/outbox.cif.g09.slc.cpg/sg46_4_cif.got.tgz:7304.got - 2010.04.14 02:56:35.
