data_PCOD8192985
_publ_section_title
;
Structure prediction by ZEFSAII (Michael W. Deem and Ramdas Pophale) SiO2 
 PCOD8192985
Probable space group: I M A 2
;
_chemical_formula_sum "Si O2"
_cell_formula_units_Z 48
_cell_length_a 16.541009
_cell_length_b 8.777545
_cell_length_c 15.623059
_cell_angle_alpha 90.000000
_cell_angle_beta 90.000000
_cell_angle_gamma 90.000000
_cell_volume 2268.303357
_symmetry_space_group_name_H-M "I M A 2"
_symmetry_group_IT_number 46
_symmetry_cell_setting 'orthorhombic'
loop_
_space_group_symop_operation_xyz
x,y,z
-x,-y,z
1/2-x,y,z
1/2+x,-y,z
1/2+x,1/2+y,1/2+z
1/2-x,1/2-y,1/2+z
-x,1/2+y,1/2+z
x,1/2-y,1/2+z
loop_
_atom_site_type_symbol
_atom_site_label
_atom_site_fract_x
_atom_site_fract_y
_atom_site_fract_z
Si Si1 0.843908 0.424793 0.120430
Si Si2 0.344335 0.391343 0.450538
Si Si3 0.087481 0.574951 0.787002
Si Si4 0.413291 0.563527 0.297460
Si Si5 0.090351 0.066238 0.455969
Si Si6 0.344430 0.586649 0.608443
O O1 0.750000 0.412796 0.142885
O O2 0.887453 0.495987 0.203538
O O3 0.880276 0.257361 0.099244
O O4 0.857561 0.533222 0.040034
O O5 0.250000 0.343497 0.460553
O O6 0.351159 0.501271 0.368328
O O7 0.403957 0.247053 0.440615
O O8 0.379107 0.479059 0.534096
O O9 0.085276 0.755122 0.796712
O O10 0.131075 0.511348 0.872380
O O11 0.135075 0.521493 0.702452
O O12 0.000000 0.500000 0.781729
O O13 0.500000 0.500000 0.321875
O O14 0.000000 0.000000 0.468418
O O15 0.250000 0.593623 0.595215
#
# Coordination Sequence:
#
# PCOD8192985 Si02
#       6
#     8   8   8   8   8   8
#     4  10  21  39  61  87 120 161 203 250 306 365
#     4  11  24  41  62  92 125 162 206 254 306 365
#     4  10  22  39  60  87 118 155 200 247 300 359
#     4  11  22  39  63  89 121 160 202 253 307 364
#     4  11  23  39  59  88 123 159 204 254 305 364
#     4   9  21  39  60  85 115 153 199 246 299 357
#
# _framework density 21.161190000000001
#
# number of rings (size 3 to 8) (size 9 to 14) (size 15 to 20)
#    0.000    1.667    0.000    4.500    0.000    8.000 
#    0.000    1.667    0.000    0.000    0.000    0.000 
#    0.000    0.000    0.000    0.000    0.000    0.000 
#
# Total GULP energy -297599.198762 kJ/mol
# GULP energy per Si atom -12399.966615 kJ/mol
# Density = 2.111303 g / cm^3
# Si number density = 21.161190 Si / 1000 Ang^3
#
#
#
# Elastic Constant Matrix: (Units=GPa)
#
#
# Indices 1 2 3 4 5 6 
#
# 1 45.6662 24.2534 10.8946 0.0000 0.0000 0.0000
# 2 24.2534 109.7806 64.4100 0.0000 0.0000 0.0000
# 3 10.8946 64.4100 177.7028 0.0000 0.0000 0.0000
# 4 0.0000 0.0000 0.0000 17.6970 0.0000 0.0000
# 5 0.0000 0.0000 0.0000 0.0000 7.5183 0.0000
# 6 0.0000 0.0000 0.0000 0.0000 0.0000 28.2289
#
#
#
# Elastic Compliance Matrix: (Units=1/GPa)
#
#
# Indices 1 2 3 4 5 6 
#
# 1 0.024858 -0.005839 0.000593 0.000000 0.000000 0.000000
# 2 -0.005839 0.012941 -0.004333 0.000000 0.000000 0.000000
# 3 0.000593 -0.004333 0.007161 0.000000 0.000000 0.000000
# 4 0.000000 0.000000 0.000000 0.056507 0.000000 0.000000
# 5 0.000000 0.000000 0.000000 0.000000 0.133009 0.000000
# 6 0.000000 0.000000 0.000000 0.000000 0.000000 0.035425
#
#
# Mechanical properties :
#
#
# Convention : Reuss Voigt Hill
#
# Bulk Modulus (GPa) = 38.75730 59.14063 48.94896
# Shear Modulus (GPa) = 16.79763 26.26159 21.52961
#
# Velocity S-wave (km/s) = 2.82049 3.52664 3.19315
# Velocity P-wave (km/s) = 5.38163 6.67767 6.06437
#
# Compressibility (1/GPa) = 0.02580159
#
# Stress axis : x y z
#
# Youngs Moduli (GPa) = 40.22850 77.27262 139.63640
#
# Poissons Ratio (x) = 0.45123 -0.08274
# Poissons Ratio (y) = 0.23491 0.60500
# Poissons Ratio (z) = -0.02384 0.33480
#
# Static dielectric constant tensor:
#      x y z
#    x 3.877240 0.000000 0.000000 
#    y 0.000000 3.886100 0.000000 
#    z 0.000000 0.000000 4.295420 
# 
# 
# High freq. dielectric constant tensor:
#      x y z
#    x 1.812970 0.000000 0.000000 
#    y 0.000000 1.829810 0.000000 
#    z 0.000000 0.000000 1.852180 
# 
# From -- ./inp_files/16560.got.cif
#   From: 2010.03.12/outbox.cif.g09.slc.cpg/sg46_9_cif.got.tgz:16560.got - 2010.04.14 02:56:35.
