data_PCOD8192478
_publ_section_title
;
Structure prediction by ZEFSAII (Michael W. Deem and Ramdas Pophale) SiO2 
 PCOD8192478
Probable space group: I M A 2
;
_chemical_formula_sum "Si O2"
_cell_formula_units_Z 40
_cell_length_a 8.736231
_cell_length_b 9.667807
_cell_length_c 25.117561
_cell_angle_alpha 90.000000
_cell_angle_beta 90.000000
_cell_angle_gamma 90.000000
_cell_volume 2121.434105
_symmetry_space_group_name_H-M "I M A 2"
_symmetry_group_IT_number 46
_symmetry_cell_setting 'orthorhombic'
loop_
_space_group_symop_operation_xyz
x,y,z
-x,-y,z
1/2-x,y,z
1/2+x,-y,z
1/2+x,1/2+y,1/2+z
1/2-x,1/2-y,1/2+z
-x,1/2+y,1/2+z
x,1/2-y,1/2+z
loop_
_atom_site_type_symbol
_atom_site_label
_atom_site_fract_x
_atom_site_fract_y
_atom_site_fract_z
Si Si1 0.931743 0.851991 0.637020
Si Si2 0.569697 0.151347 0.343790
Si Si3 0.570278 0.858129 0.048328
Si Si4 0.931180 0.646127 0.427302
Si Si5 0.569678 0.148341 0.747575
O O1 0.750000 0.858952 0.641232
O O2 0.989359 0.758553 0.588324
O O3 0.998280 0.795281 0.692631
O O4 0.000000 0.000000 0.624332
O O5 0.750000 0.139166 0.351875
O O6 0.498387 0.226385 0.394710
O O7 0.526572 0.239885 0.291934
O O8 0.500000 0.000000 0.337330
O O9 0.750000 0.872488 0.051115
O O10 0.500000 0.000000 0.068975
O O11 0.518028 0.825316 0.988125
O O12 0.750000 0.639629 0.420111
O O13 0.000000 0.500000 0.407254
O O14 0.750000 0.129552 0.740822
O O15 0.500000 0.000000 0.763655
#
# Coordination Sequence:
#
# PCOD8192478 Si02
#       5
#     8   8   8   8   8
#     4  10  20  35  55  80 109 141 179 220 265 316
#     4  11  24  39  56  81 111 143 180 225 276 324
#     4   9  20  36  55  81 110 142 179 220 265 315
#     4  10  20  37  59  82 110 144 184 224 267 323
#     4  10  21  37  57  80 106 140 181 221 266 320
#
# _framework density 18.855169
#
# number of rings (size 3 to 8) (size 9 to 14) (size 15 to 20)
#    0.000    2.000    0.000    4.200    0.000    8.800 
#    0.000    6.000    0.000    0.000    0.000    0.000 
#    0.000    0.000    0.000    0.000    0.000    0.000 
#
# Total GULP energy -248050.007859 kJ/mol
# GULP energy per Si atom -12402.500393 kJ/mol
# Density = 1.881225 g / cm^3
# Si number density = 18.855169 Si / 1000 Ang^3
#
#
#
# Elastic Constant Matrix: (Units=GPa)
#
#
# Indices 1 2 3 4 5 6 
#
# 1 80.3209 54.7804 53.9044 0.0000 0.0000 0.0000
# 2 54.7804 140.0021 96.3893 0.0000 0.0000 0.0000
# 3 53.9044 96.3893 131.5413 0.0000 0.0000 0.0000
# 4 0.0000 0.0000 0.0000 45.5045 0.0000 0.0000
# 5 0.0000 0.0000 0.0000 0.0000 29.6646 0.0000
# 6 0.0000 0.0000 0.0000 0.0000 0.0000 35.0378
#
#
#
# Elastic Compliance Matrix: (Units=1/GPa)
#
#
# Indices 1 2 3 4 5 6 
#
# 1 0.018226 -0.004015 -0.004527 0.000000 0.000000 0.000000
# 2 -0.004015 0.015300 -0.009566 0.000000 0.000000 0.000000
# 3 -0.004527 -0.009566 0.016467 0.000000 0.000000 0.000000
# 4 0.000000 0.000000 0.000000 0.021976 0.000000 0.000000
# 5 0.000000 0.000000 0.000000 0.000000 0.033710 0.000000
# 6 0.000000 0.000000 0.000000 0.000000 0.000000 0.028541
#
#
# Mechanical properties :
#
#
# Convention : Reuss Voigt Hill
#
# Bulk Modulus (GPa) = 72.58255 84.66806 78.62530
# Shear Modulus (GPa) = 28.56691 31.82737 30.19714
#
# Velocity S-wave (km/s) = 3.89661 4.11298 4.00626
# Velocity P-wave (km/s) = 7.66962 8.21933 7.94923
#
# Compressibility (1/GPa) = 0.01377742
#
# Stress axis : x y z
#
# Youngs Moduli (GPa) = 54.86525 65.36100 60.72805
#
# Poissons Ratio (x) = 0.26242 0.27492
# Poissons Ratio (y) = 0.22028 0.58091
# Poissons Ratio (z) = 0.24838 0.62523
#
# Static dielectric constant tensor:
#      x y z
#    x 3.518430 0.000000 0.000000 
#    y 0.000000 3.450140 0.000000 
#    z 0.000000 0.000000 3.750710 
# 
# 
# High freq. dielectric constant tensor:
#      x y z
#    x 1.744750 0.000000 0.000000 
#    y 0.000000 1.730790 0.000000 
#    z 0.000000 0.000000 1.743840 
# 
# From -- ./inp_files/22733.got.cif
#   From: 2010.03.12/outbox.cif.g09.slc.cpg/sg46_12_cif.got.tgz:22733.got - 2010.04.14 02:56:35.
