data_PCOD8192208
_publ_section_title
;
Structure prediction by ZEFSAII (Michael W. Deem and Ramdas Pophale) SiO2 
 PCOD8192208
Probable space group: I M A 2
;
_chemical_formula_sum "Si O2"
_cell_formula_units_Z 48
_cell_length_a 10.047819
_cell_length_b 8.846704
_cell_length_c 27.953886
_cell_angle_alpha 90.000000
_cell_angle_beta 90.000000
_cell_angle_gamma 90.000000
_cell_volume 2484.823178
_symmetry_space_group_name_H-M "I M A 2"
_symmetry_group_IT_number 46
_symmetry_cell_setting 'orthorhombic'
loop_
_space_group_symop_operation_xyz
x,y,z
-x,-y,z
1/2-x,y,z
1/2+x,-y,z
1/2+x,1/2+y,1/2+z
1/2-x,1/2-y,1/2+z
-x,1/2+y,1/2+z
x,1/2-y,1/2+z
loop_
_atom_site_type_symbol
_atom_site_label
_atom_site_fract_x
_atom_site_fract_y
_atom_site_fract_z
Si Si1 0.504835 0.178954 0.301960
Si Si2 0.004353 0.821246 0.584394
Si Si3 0.250000 0.313268 0.140671
Si Si4 0.405631 0.856682 0.888149
Si Si5 0.750000 0.174889 0.750164
Si Si6 0.250000 0.314178 0.251605
Si Si7 0.250000 0.672820 0.142936
Si Si8 0.404836 0.859092 0.997694
O O1 0.531746 0.220380 0.357378
O O2 0.621216 0.254782 0.272791
O O3 0.373345 0.250323 0.280493
O O4 0.500000 0.000000 0.296539
O O5 0.874577 0.752180 0.610041
O O6 0.122736 0.758836 0.616882
O O7 0.030842 0.771011 0.530154
O O8 0.000000 0.000000 0.583553
O O9 0.250000 0.257450 0.196054
O O10 0.250000 0.492811 0.141476
O O11 0.250000 0.891163 0.874260
O O12 0.414407 0.804589 0.943017
O O13 0.500000 0.000000 0.878270
O O14 0.750000 0.232016 0.696259
O O15 0.750000 0.994597 0.754551
O O16 0.250000 0.894477 0.010614
O O17 0.500000 0.000000 0.006794
#
# Coordination Sequence:
#
# PCOD8192208 Si02
#       8
#     8   8   4   8   4   4   4   8
#     4  12  25  40  60  93 129 156 194 260 320 360
#     4  10  19  36  61  88 118 156 200 251 301 349
#     4   9  20  35  58  91 118 151 208 253 284 351
#     4  10  22  42  66  89 117 161 212 252 298 372
#     4  11  21  41  66  87 116 165 216 247 292 369
#     4  11  23  41  66  89 118 167 214 247 294 369
#     4   9  18  35  60  85 114 155 208 253 286 347
#     4  10  22  40  61  89 123 159 201 250 300 361
#
# _framework density 19.317270000000001
#
# number of rings (size 3 to 8) (size 9 to 14) (size 15 to 20)
#    0.000    1.667    1.667    3.000    2.333    3.333 
#    0.000    5.000    0.000    0.000    0.000    0.000 
#    0.000    0.000    0.000    0.000    0.000    0.000 
#
# Total GULP energy -297495.584004 kJ/mol
# GULP energy per Si atom -12395.649333 kJ/mol
# Density = 1.927330 g / cm^3
# Si number density = 19.317270 Si / 1000 Ang^3
#
#
#
# Elastic Constant Matrix: (Units=GPa)
#
#
# Indices 1 2 3 4 5 6 
#
# 1 185.6098 51.2182 79.2213 0.0000 0.0000 0.0000
# 2 51.2182 85.3516 51.8282 0.0000 0.0000 0.0000
# 3 79.2213 51.8282 139.9697 0.0000 0.0000 0.0000
# 4 0.0000 0.0000 0.0000 28.8700 0.0000 0.0000
# 5 0.0000 0.0000 0.0000 0.0000 39.4725 0.0000
# 6 0.0000 0.0000 0.0000 0.0000 0.0000 23.3904
#
#
#
# Elastic Compliance Matrix: (Units=1/GPa)
#
#
# Indices 1 2 3 4 5 6 
#
# 1 0.007489 -0.002477 -0.003321 0.000000 0.000000 0.000000
# 2 -0.002477 0.015934 -0.004498 0.000000 0.000000 0.000000
# 3 -0.003321 -0.004498 0.010690 0.000000 0.000000 0.000000
# 4 0.000000 0.000000 0.000000 0.034638 0.000000 0.000000
# 5 0.000000 0.000000 0.000000 0.000000 0.025334 0.000000
# 6 0.000000 0.000000 0.000000 0.000000 0.000000 0.042753
#
#
# Mechanical properties :
#
#
# Convention : Reuss Voigt Hill
#
# Bulk Modulus (GPa) = 73.96652 86.16295 80.06474
# Shear Modulus (GPa) = 30.87621 33.59081 32.23351
#
# Velocity S-wave (km/s) = 4.00230 4.17454 4.08933
# Velocity P-wave (km/s) = 7.72861 8.24237 7.98962
#
# Compressibility (1/GPa) = 0.01351963
#
# Stress axis : x y z
#
# Youngs Moduli (GPa) = 133.53278 62.75849 93.54695
#
# Poissons Ratio (x) = 0.15546 0.31070
# Poissons Ratio (y) = 0.33077 0.42078
# Poissons Ratio (z) = 0.44351 0.28229
#
# Static dielectric constant tensor:
#      x y z
#    x 3.841960 0.000000 0.000000 
#    y 0.000000 3.298230 0.000000 
#    z 0.000000 0.000000 3.842270 
# 
# 
# High freq. dielectric constant tensor:
#      x y z
#    x 1.776000 0.000000 0.000000 
#    y 0.000000 1.721270 0.000000 
#    z 0.000000 0.000000 1.770910 
# 
# From -- ./inp_files/25067.got.cif
#   From: 2010.03.12/outbox.cif.g09.slc.cpg/sg46_13_cif.got.tgz:25067.got - 2010.04.14 02:56:35.
