data_PCOD8192184
_publ_section_title
;
Structure prediction by ZEFSAII (Michael W. Deem and Ramdas Pophale) SiO2 
 PCOD8192184
Probable space group: I M A 2
;
_chemical_formula_sum "Si O2"
_cell_formula_units_Z 40
_cell_length_a 15.015233
_cell_length_b 13.795794
_cell_length_c 9.683315
_cell_angle_alpha 90.000000
_cell_angle_beta 90.000000
_cell_angle_gamma 90.000000
_cell_volume 2005.870246
_symmetry_space_group_name_H-M "I M A 2"
_symmetry_group_IT_number 46
_symmetry_cell_setting 'orthorhombic'
loop_
_space_group_symop_operation_xyz
x,y,z
-x,-y,z
1/2-x,y,z
1/2+x,-y,z
1/2+x,1/2+y,1/2+z
1/2-x,1/2-y,1/2+z
-x,1/2+y,1/2+z
x,1/2-y,1/2+z
loop_
_atom_site_type_symbol
_atom_site_label
_atom_site_fract_x
_atom_site_fract_y
_atom_site_fract_z
Si Si1 0.570218 0.085024 0.342450
Si Si2 0.350814 0.594154 0.554483
Si Si3 0.152299 0.081325 0.864028
Si Si4 0.975631 0.300579 0.355395
Si Si5 0.092160 0.945055 0.642581
O O1 0.640873 0.086326 0.219161
O O2 0.516296 0.185681 0.345549
O O3 0.625310 0.073956 0.486327
O O4 0.500000 0.000000 0.318050
O O5 0.250000 0.626979 0.518149
O O6 0.371515 0.488452 0.491776
O O7 0.421903 0.670386 0.493848
O O8 0.250000 0.129736 0.882808
O O9 0.077404 0.163097 0.858796
O O10 0.158357 0.015150 0.725814
O O11 0.921896 0.344193 0.224659
O O12 0.000000 0.000000 0.632719
#
# Coordination Sequence:
#
# PCOD8192184 Si02
#       5
#     8   8   8   8   8
#     4  11  21  34  54  80 113 146 178 223 276 320
#     4  10  21  36  57  83 109 142 183 227 273 320
#     4   9  18  36  61  84 106 139 184 226 268 325
#     4  10  19  36  58  79 110 148 184 220 265 327
#     4   8  17  32  52  78 106 141 178 216 266 318
#
# _framework density 19.941469999999999
#
# number of rings (size 3 to 8) (size 9 to 14) (size 15 to 20)
#    0.000    2.400    0.000    4.200    0.000    1.600 
#    0.000    5.000    0.000   18.000    0.000    0.000 
#    0.000    0.000    0.000    0.000    0.000    0.000 
#
# Total GULP energy -247934.824368 kJ/mol
# GULP energy per Si atom -12396.741218 kJ/mol
# Density = 1.989608 g / cm^3
# Si number density = 19.941470 Si / 1000 Ang^3
#
#
#
# Elastic Constant Matrix: (Units=GPa)
#
#
# Indices 1 2 3 4 5 6 
#
# 1 92.0799 38.1220 23.0034 0.0000 0.0000 0.0000
# 2 38.1220 115.1800 28.6636 0.0000 0.0000 0.0000
# 3 23.0034 28.6636 147.9153 0.0000 0.0000 0.0000
# 4 0.0000 0.0000 0.0000 14.3148 0.0000 0.0000
# 5 0.0000 0.0000 0.0000 0.0000 13.7342 0.0000
# 6 0.0000 0.0000 0.0000 0.0000 0.0000 15.5848
#
#
#
# Elastic Compliance Matrix: (Units=1/GPa)
#
#
# Indices 1 2 3 4 5 6 
#
# 1 0.012794 -0.003929 -0.001228 0.000000 0.000000 0.000000
# 2 -0.003929 0.010328 -0.001390 0.000000 0.000000 0.000000
# 3 -0.001228 -0.001390 0.007221 0.000000 0.000000 0.000000
# 4 0.000000 0.000000 0.000000 0.069858 0.000000 0.000000
# 5 0.000000 0.000000 0.000000 0.000000 0.072811 0.000000
# 6 0.000000 0.000000 0.000000 0.000000 0.000000 0.064165
#
#
# Mechanical properties :
#
#
# Convention : Reuss Voigt Hill
#
# Bulk Modulus (GPa) = 57.97757 59.41701 58.69729
# Shear Modulus (GPa) = 19.52968 26.41920 22.97444
#
# Velocity S-wave (km/s) = 3.13285 3.64378 3.39793
# Velocity P-wave (km/s) = 6.49795 6.89661 6.70024
#
# Compressibility (1/GPa) = 0.01724805
#
# Stress axis : x y z
#
# Youngs Moduli (GPa) = 78.16466 96.82037 138.48305
#
# Poissons Ratio (x) = 0.38038 0.17010
# Poissons Ratio (y) = 0.30708 0.19256
# Poissons Ratio (z) = 0.09601 0.13463
#
# Static dielectric constant tensor:
#      x y z
#    x 3.492510 0.000000 0.000000 
#    y 0.000000 3.414810 0.000000 
#    z 0.000000 0.000000 4.191060 
# 
# 
# High freq. dielectric constant tensor:
#      x y z
#    x 1.758720 0.000000 0.000000 
#    y 0.000000 1.761670 0.000000 
#    z 0.000000 0.000000 1.790840 
# 
# From -- ./inp_files/5392.got.cif
#   From: 2010.03.12/outbox.cif.g09.slc.cpg/sg46_3_cif.got.tgz:5392.got - 2010.04.14 02:56:35.
