data_PCOD8192222
_publ_section_title
;
Structure prediction by ZEFSAII (Michael W. Deem and Ramdas Pophale) SiO2 
 PCOD8192222
Probable space group: I M A 2
;
_chemical_formula_sum "Si O2"
_cell_formula_units_Z 48
_cell_length_a 20.321406
_cell_length_b 11.660921
_cell_length_c 9.714244
_cell_angle_alpha 90.000000
_cell_angle_beta 90.000000
_cell_angle_gamma 90.000000
_cell_volume 2301.948555
_symmetry_space_group_name_H-M "I M A 2"
_symmetry_group_IT_number 46
_symmetry_cell_setting 'orthorhombic'
loop_
_space_group_symop_operation_xyz
x,y,z
-x,-y,z
1/2-x,y,z
1/2+x,-y,z
1/2+x,1/2+y,1/2+z
1/2-x,1/2-y,1/2+z
-x,1/2+y,1/2+z
x,1/2-y,1/2+z
loop_
_atom_site_type_symbol
_atom_site_label
_atom_site_fract_x
_atom_site_fract_y
_atom_site_fract_z
Si Si1 0.824433 0.012753 0.704710
Si Si2 0.040034 0.882204 0.654128
Si Si3 0.021459 0.675723 0.847921
Si Si4 0.326505 0.079684 0.001422
Si Si5 0.100935 0.472306 0.768296
Si Si6 0.176117 0.168575 0.485043
O O1 0.750000 0.061271 0.675869
O O2 0.881142 0.096232 0.646438
O O3 0.836004 0.995850 0.865996
O O4 0.831555 0.887427 0.635591
O O5 0.025248 0.802869 0.785832
O O6 0.014737 0.820565 0.514268
O O7 0.000000 0.000000 0.673760
O O8 0.086506 0.602661 0.812982
O O9 0.962061 0.609465 0.775307
O O10 0.250000 0.086002 0.045267
O O11 0.358587 0.206997 0.983083
O O12 0.368862 0.017637 0.117372
O O13 0.152930 0.421228 0.873109
O O14 0.250000 0.195634 0.444376
#
# Coordination Sequence:
#
# PCOD8192222 Si02
#       6
#     8   8   8   8   8   8
#     4  10  22  42  65  95 133 175 222 276 331 394
#     4  12  26  49  68  99 135 177 220 286 335 405
#     4  11  27  44  68  94 130 174 231 265 341 409
#     4  10  22  36  62 103 135 170 225 275 338 408
#     4  11  22  42  63  97 133 171 217 282 326 410
#     4  10  19  36  64  94 133 176 213 273 343 394
#
# _framework density 20.851899
#
# number of rings (size 3 to 8) (size 9 to 14) (size 15 to 20)
#    0.000    1.333    3.333    1.500    9.333    2.667 
#    0.000    2.500    0.000    0.000    0.000    0.000 
#    0.000    0.000    0.000    0.000    0.000    0.000 
#
# Total GULP energy -297567.549298 kJ/mol
# GULP energy per Si atom -12398.647887 kJ/mol
# Density = 2.080444 g / cm^3
# Si number density = 20.851899 Si / 1000 Ang^3
#
#
#
# Elastic Constant Matrix: (Units=GPa)
#
#
# Indices 1 2 3 4 5 6 
#
# 1 66.9192 20.5423 27.1791 0.0000 0.0000 0.0000
# 2 20.5423 93.8166 36.8227 0.0000 0.0000 0.0000
# 3 27.1791 36.8227 106.9107 0.0000 0.0000 0.0000
# 4 0.0000 0.0000 0.0000 38.9583 0.0000 0.0000
# 5 0.0000 0.0000 0.0000 0.0000 43.8248 0.0000
# 6 0.0000 0.0000 0.0000 0.0000 0.0000 24.9034
#
#
#
# Elastic Compliance Matrix: (Units=1/GPa)
#
#
# Indices 1 2 3 4 5 6 
#
# 1 0.017103 -0.002357 -0.003536 0.000000 0.000000 0.000000
# 2 -0.002357 0.012650 -0.003758 0.000000 0.000000 0.000000
# 3 -0.003536 -0.003758 0.011547 0.000000 0.000000 0.000000
# 4 0.000000 0.000000 0.000000 0.025668 0.000000 0.000000
# 5 0.000000 0.000000 0.000000 0.000000 0.022818 0.000000
# 6 0.000000 0.000000 0.000000 0.000000 0.000000 0.040155
#
#
# Mechanical properties :
#
#
# Convention : Reuss Voigt Hill
#
# Bulk Modulus (GPa) = 45.45843 48.52608 46.99226
# Shear Modulus (GPa) = 31.93325 33.74413 32.83869
#
# Velocity S-wave (km/s) = 3.91760 4.02714 3.97275
# Velocity P-wave (km/s) = 6.50472 6.70419 6.60521
#
# Compressibility (1/GPa) = 0.02199812
#
# Stress axis : x y z
#
# Youngs Moduli (GPa) = 58.46876 79.05062 86.60362
#
# Poissons Ratio (x) = 0.18632 0.30625
# Poissons Ratio (y) = 0.13781 0.32544
# Poissons Ratio (z) = 0.20676 0.29706
#
# Static dielectric constant tensor:
#      x y z
#    x 3.967470 0.000000 0.000000 
#    y 0.000000 3.950340 0.000000 
#    z 0.000000 0.000000 3.792200 
# 
# 
# High freq. dielectric constant tensor:
#      x y z
#    x 1.822050 0.000000 0.000000 
#    y 0.000000 1.792520 0.000000 
#    z 0.000000 0.000000 1.824510 
# 
# From -- ./inp_files/7817.got.cif
#   From: 2010.03.12/outbox.cif.g09.slc.cpg/sg46_4_cif.got.tgz:7817.got - 2010.04.14 02:56:35.
