data_PCOD8192882
_publ_section_title
;
Structure prediction by ZEFSAII (Michael W. Deem and Ramdas Pophale) SiO2 
 PCOD8192882
Probable space group: I M A 2
;
_chemical_formula_sum "Si O2"
_cell_formula_units_Z 48
_cell_length_a 16.158261
_cell_length_b 9.003838
_cell_length_c 15.760738
_cell_angle_alpha 90.000000
_cell_angle_beta 90.000000
_cell_angle_gamma 90.000000
_cell_volume 2292.972472
_symmetry_space_group_name_H-M "I M A 2"
_symmetry_group_IT_number 46
_symmetry_cell_setting 'orthorhombic'
loop_
_space_group_symop_operation_xyz
x,y,z
-x,-y,z
1/2-x,y,z
1/2+x,-y,z
1/2+x,1/2+y,1/2+z
1/2-x,1/2-y,1/2+z
-x,1/2+y,1/2+z
x,1/2-y,1/2+z
loop_
_atom_site_type_symbol
_atom_site_label
_atom_site_fract_x
_atom_site_fract_y
_atom_site_fract_z
Si Si1 0.653540 0.416813 0.773300
Si Si2 0.346106 0.887395 0.963736
Si Si3 0.091623 0.566103 0.954264
Si Si4 0.589642 0.927502 0.618427
Si Si5 0.654513 0.089636 0.776358
Si Si6 0.651965 0.893606 0.116631
O O1 0.750000 0.403553 0.758091
O O2 0.637193 0.479988 0.867333
O O3 0.612807 0.252511 0.763000
O O4 0.618685 0.525255 0.701208
O O5 0.250000 0.835725 0.970226
O O6 0.405081 0.743597 0.969455
O O7 0.362105 0.966212 0.872518
O O8 0.368786 0.003133 0.036545
O O9 0.000000 0.500000 0.946410
O O10 0.138134 0.493813 0.036274
O O11 0.594781 0.750918 0.609538
O O12 0.500000 0.000000 0.610727
O O13 0.623255 0.968712 0.710519
O O14 0.750000 0.109330 0.758784
O O15 0.750000 0.853843 0.120504
#
# Coordination Sequence:
#
# PCOD8192882 Si02
#       6
#     8   8   8   8   8   8
#     4   9  19  36  60  87 111 144 191 238 285 336
#     4   9  19  38  63  88 114 148 191 238 288 340
#     4  10  21  37  56  83 117 153 194 232 281 344
#     4  11  24  38  52  80 119 155 193 233 285 345
#     4   9  18  36  62  87 112 147 191 237 286 340
#     4  10  21  37  60  89 116 147 191 240 288 339
#
# _framework density 20.933526000000001
#
# number of rings (size 3 to 8) (size 9 to 14) (size 15 to 20)
#    0.000    2.333    0.000    3.000    0.000    8.000 
#    0.000   13.333    0.000    0.000    0.000    0.000 
#    0.000    0.000    0.000    0.000    0.000    0.000 
#
# Total GULP energy -297402.555618 kJ/mol
# GULP energy per Si atom -12391.773151 kJ/mol
# Density = 2.088588 g / cm^3
# Si number density = 20.933526 Si / 1000 Ang^3
#
#
#
# Elastic Constant Matrix: (Units=GPa)
#
#
# Indices 1 2 3 4 5 6 
#
# 1 25.6340 46.2016 23.7198 0.0000 0.0000 0.0000
# 2 46.2016 146.7090 96.2470 0.0000 0.0000 0.0000
# 3 23.7198 96.2470 200.6335 0.0000 0.0000 0.0000
# 4 0.0000 0.0000 0.0000 12.8175 0.0000 0.0000
# 5 0.0000 0.0000 0.0000 0.0000 20.4684 0.0000
# 6 0.0000 0.0000 0.0000 0.0000 0.0000 28.7703
#
#
#
# Elastic Compliance Matrix: (Units=1/GPa)
#
#
# Indices 1 2 3 4 5 6 
#
# 1 0.092866 -0.032166 0.004451 0.000000 0.000000 0.000000
# 2 -0.032166 0.021088 -0.006313 0.000000 0.000000 0.000000
# 3 0.004451 -0.006313 0.007487 0.000000 0.000000 0.000000
# 4 0.000000 0.000000 0.000000 0.078019 0.000000 0.000000
# 5 0.000000 0.000000 0.000000 0.000000 0.048856 0.000000
# 6 0.000000 0.000000 0.000000 0.000000 0.000000 0.034758
#
#
# Mechanical properties :
#
#
# Convention : Reuss Voigt Hill
#
# Bulk Modulus (GPa) = 18.73194 78.36815 48.55004
# Shear Modulus (GPa) = 13.55300 26.19843 19.87571
#
# Velocity S-wave (km/s) = 2.54723 3.54150 3.08469
# Velocity P-wave (km/s) = 4.19748 7.36484 5.99415
#
# Compressibility (1/GPa) = 0.05338475
#
# Stress axis : x y z
#
# Youngs Moduli (GPa) = 10.76825 47.42135 133.57310
#
# Poissons Ratio (x) = 1.52533 -0.59458
# Poissons Ratio (y) = 0.34637 0.84328
# Poissons Ratio (z) = -0.04793 0.29938
#
# Static dielectric constant tensor:
#      x y z
#    x 3.472820 0.000000 0.000000 
#    y 0.000000 4.158850 0.000000 
#    z 0.000000 0.000000 4.829500 
# 
# 
# High freq. dielectric constant tensor:
#      x y z
#    x 1.786340 0.000000 0.000000 
#    y 0.000000 1.810470 0.000000 
#    z 0.000000 0.000000 1.850060 
# 
# From -- ./inp_files/16525.got.cif
#   From: 2010.03.12/outbox.cif.g09.slc.cpg/sg46_9_cif.got.tgz:16525.got - 2010.04.14 02:56:35.
