data_PCOD8192030
_publ_section_title
;
Structure prediction by ZEFSAII (Michael W. Deem and Ramdas Pophale) SiO2 
 PCOD8192030
Probable space group: I M A 2
;
_chemical_formula_sum "Si O2"
_cell_formula_units_Z 64
_cell_length_a 8.695329
_cell_length_b 23.139223
_cell_length_c 19.066742
_cell_angle_alpha 90.000000
_cell_angle_beta 90.000000
_cell_angle_gamma 90.000000
_cell_volume 3836.288680
_symmetry_space_group_name_H-M "I M A 2"
_symmetry_group_IT_number 46
_symmetry_cell_setting 'orthorhombic'
loop_
_space_group_symop_operation_xyz
x,y,z
-x,-y,z
1/2-x,y,z
1/2+x,-y,z
1/2+x,1/2+y,1/2+z
1/2-x,1/2-y,1/2+z
-x,1/2+y,1/2+z
x,1/2-y,1/2+z
loop_
_atom_site_type_symbol
_atom_site_label
_atom_site_fract_x
_atom_site_fract_y
_atom_site_fract_z
Si Si1 0.930903 0.777634 0.059780
Si Si2 0.070456 0.062599 0.561739
Si Si3 0.569584 0.233861 0.353688
Si Si4 0.430802 0.750979 0.200032
Si Si5 0.569489 0.562892 0.345468
Si Si6 0.928591 0.627543 0.203580
Si Si7 0.932409 0.156532 0.937723
Si Si8 0.431239 0.667614 0.986991
O O1 0.750000 0.781589 0.050961
O O2 0.978737 0.786381 0.140628
O O3 0.987008 0.714314 0.036429
O O4 0.009426 0.828953 0.015788
O O5 0.250000 0.060503 0.545764
O O6 0.035616 0.084114 0.640103
O O7 0.991632 0.104303 0.504806
O O8 0.000000 0.000000 0.551317
O O9 0.750000 0.242576 0.348303
O O10 0.506442 0.224674 0.274971
O O11 0.502642 0.293092 0.386553
O O12 0.528076 0.180613 0.405184
O O13 0.250000 0.760973 0.190242
O O14 0.465029 0.683054 0.194742
O O15 0.500000 0.500000 0.342764
O O16 0.750000 0.558192 0.354145
O O17 0.522507 0.595617 0.274520
O O18 0.500796 0.595929 0.412530
O O19 0.750000 0.646345 0.203818
O O20 0.750000 0.153327 0.938434
O O21 0.250000 0.672798 0.000273
#
# Coordination Sequence:
#
# PCOD8192030 Si02
#       8
#     8   8   8   8   8   8   8   8
#     4  11  21  33  49  74 104 133 166 210 257 309
#     4  11  22  35  50  71 100 137 177 214 250 296
#     4   8  17  31  50  74  99 126 164 207 252 302
#     4  11  19  31  52  76 101 137 171 205 254 306
#     4  11  22  35  51  73 102 140 178 216 256 300
#     4  10  21  34  47  70 104 138 176 213 249 294
#     4  10  19  35  53  73  98 132 173 215 256 303
#     4  10  19  34  52  73  98 131 170 212 254 300
#
# _framework density 16.682791000000002
#
# number of rings (size 3 to 8) (size 9 to 14) (size 15 to 20)
#    0.000    1.750    2.500    4.125    0.000    1.000 
#    0.000    1.875    0.000    0.000    0.000    0.875 
#    0.000    2.000    0.000    0.000    0.000    0.000 
#
# Total GULP energy -396846.051614 kJ/mol
# GULP energy per Si atom -12401.439113 kJ/mol
# Density = 1.664482 g / cm^3
# Si number density = 16.682791 Si / 1000 Ang^3
#
#
#
# Elastic Constant Matrix: (Units=GPa)
#
#
# Indices 1 2 3 4 5 6 
#
# 1 72.3942 30.0034 35.0384 0.0000 0.0000 0.0000
# 2 30.0034 52.8570 36.7842 0.0000 0.0000 0.0000
# 3 35.0384 36.7842 115.0078 0.0000 0.0000 0.0000
# 4 0.0000 0.0000 0.0000 25.9895 0.0000 0.0000
# 5 0.0000 0.0000 0.0000 0.0000 23.1269 0.0000
# 6 0.0000 0.0000 0.0000 0.0000 0.0000 27.2522
#
#
#
# Elastic Compliance Matrix: (Units=1/GPa)
#
#
# Indices 1 2 3 4 5 6 
#
# 1 0.018825 -0.008611 -0.002981 0.000000 0.000000 0.000000
# 2 -0.008611 0.028275 -0.006420 0.000000 0.000000 0.000000
# 3 -0.002981 -0.006420 0.011657 0.000000 0.000000 0.000000
# 4 0.000000 0.000000 0.000000 0.038477 0.000000 0.000000
# 5 0.000000 0.000000 0.000000 0.000000 0.043240 0.000000
# 6 0.000000 0.000000 0.000000 0.000000 0.000000 0.036694
#
#
# Mechanical properties :
#
#
# Convention : Reuss Voigt Hill
#
# Bulk Modulus (GPa) = 43.99070 49.32347 46.65709
# Shear Modulus (GPa) = 22.64813 24.50257 23.57535
#
# Velocity S-wave (km/s) = 3.68852 3.83656 3.76327
# Velocity P-wave (km/s) = 6.67581 7.01821 6.84915
#
# Compressibility (1/GPa) = 0.02273208
#
# Stress axis : x y z
#
# Youngs Moduli (GPa) = 53.12117 35.36732 85.78815
#
# Poissons Ratio (x) = 0.30455 0.25574
# Poissons Ratio (y) = 0.45743 0.55075
# Poissons Ratio (z) = 0.15836 0.22706
#
# Static dielectric constant tensor:
#      x y z
#    x 3.125840 0.000000 0.000000 
#    y 0.000000 2.894300 0.000000 
#    z 0.000000 0.000000 3.469810 
# 
# 
# High freq. dielectric constant tensor:
#      x y z
#    x 1.649770 0.000000 0.000000 
#    y 0.000000 1.611870 0.000000 
#    z 0.000000 0.000000 1.644990 
# 
# From -- ./inp_files/18575.got.cif
#   From: 2010.03.12/outbox.cif.g09.slc.cpg/sg46_10_cif.got.tgz:18575.got - 2010.04.14 02:56:35.
