data_PCOD8192687
_publ_section_title
;
Structure prediction by ZEFSAII (Michael W. Deem and Ramdas Pophale) SiO2 
 PCOD8192687
Probable space group: I M A 2
;
_chemical_formula_sum "Si O2"
_cell_formula_units_Z 52
_cell_length_a 13.164354
_cell_length_b 8.324543
_cell_length_c 21.762701
_cell_angle_alpha 90.000000
_cell_angle_beta 90.000000
_cell_angle_gamma 90.000000
_cell_volume 2384.914140
_symmetry_space_group_name_H-M "I M A 2"
_symmetry_group_IT_number 46
_symmetry_cell_setting 'orthorhombic'
loop_
_space_group_symop_operation_xyz
x,y,z
-x,-y,z
1/2-x,y,z
1/2+x,-y,z
1/2+x,1/2+y,1/2+z
1/2-x,1/2-y,1/2+z
-x,1/2+y,1/2+z
x,1/2-y,1/2+z
loop_
_atom_site_type_symbol
_atom_site_label
_atom_site_fract_x
_atom_site_fract_y
_atom_site_fract_z
Si Si1 0.043103 0.832469 0.162780
Si Si2 0.871181 0.233460 0.032180
Si Si3 0.638959 0.886058 0.667211
Si Si4 0.128333 0.091238 0.964753
Si Si5 0.500000 0.500000 0.355633
Si Si6 0.637106 0.171882 0.762062
Si Si7 0.365765 0.419192 0.023747
O O1 0.100051 0.764188 0.103602
O O2 0.114112 0.836866 0.224294
O O3 0.947001 0.734099 0.187840
O O4 0.000000 0.000000 0.141864
O O5 0.750000 0.234979 0.028365
O O6 0.912553 0.405450 0.002802
O O7 0.912167 0.074455 0.996799
O O8 0.750000 0.807622 0.678096
O O9 0.624380 0.925721 0.596317
O O10 0.626976 0.044429 0.707206
O O11 0.250000 0.093234 0.963748
O O12 0.084237 0.093007 0.896005
O O13 0.083677 0.251886 0.999097
O O14 0.442537 0.634726 0.315744
O O15 0.750000 0.177539 0.790909
O O16 0.250000 0.412258 0.001064
#
# Coordination Sequence:
#
# PCOD8192687 Si02
#       7
#     8   8   8   8   4   8   8
#     4  12  23  36  63 102 137 163 211 270 342 415
#     4  10  21  39  64  98 138 173 208 266 341 404
#     4  10  20  37  62  93 125 162 207 264 332 398
#     4  10  23  41  63  95 132 170 221 275 324 397
#     4  12  24  44  66  90 122 182 236 268 322 394
#     4  11  23  44  69  92 126 172 223 277 329 398
#     4   9  18  36  63  94 128 164 203 258 334 395
#
# _framework density 21.803719000000001
#
# number of rings (size 3 to 8) (size 9 to 14) (size 15 to 20)
#    0.000    1.538    3.077    1.846    3.231    2.462 
#    0.000    1.538    0.000    1.846    0.000    0.000 
#    0.000    0.000    0.000    0.000    0.000    0.000 
#
# Total GULP energy -322168.716646 kJ/mol
# GULP energy per Si atom -12391.104486 kJ/mol
# Density = 2.175409 g / cm^3
# Si number density = 21.803719 Si / 1000 Ang^3
#
#
#
# Elastic Constant Matrix: (Units=GPa)
#
#
# Indices 1 2 3 4 5 6 
#
# 1 48.5488 39.3376 27.6909 0.0000 0.0000 0.0000
# 2 39.3376 148.9131 44.1508 0.0000 0.0000 0.0000
# 3 27.6909 44.1508 107.7720 0.0000 0.0000 0.0000
# 4 0.0000 0.0000 0.0000 19.9066 0.0000 0.0000
# 5 0.0000 0.0000 0.0000 0.0000 4.7278 0.0000
# 6 0.0000 0.0000 0.0000 0.0000 0.0000 31.1907
#
#
#
# Elastic Compliance Matrix: (Units=1/GPa)
#
#
# Indices 1 2 3 4 5 6 
#
# 1 0.028213 -0.006037 -0.004776 0.000000 0.000000 0.000000
# 2 -0.006037 0.008936 -0.002109 0.000000 0.000000 0.000000
# 3 -0.004776 -0.002109 0.011370 0.000000 0.000000 0.000000
# 4 0.000000 0.000000 0.000000 0.050235 0.000000 0.000000
# 5 0.000000 0.000000 0.000000 0.000000 0.211516 0.000000
# 6 0.000000 0.000000 0.000000 0.000000 0.000000 0.032061
#
#
# Mechanical properties :
#
#
# Convention : Reuss Voigt Hill
#
# Bulk Modulus (GPa) = 44.10282 58.62138 51.36210
# Shear Modulus (GPa) = 13.30729 24.10199 18.70464
#
# Velocity S-wave (km/s) = 2.47315 3.32837 2.93211
# Velocity P-wave (km/s) = 5.33164 6.45872 5.92206
#
# Compressibility (1/GPa) = 0.02267429
#
# Stress axis : x y z
#
# Youngs Moduli (GPa) = 35.44405 111.91295 87.94945
#
# Poissons Ratio (x) = 0.67562 0.42005
# Poissons Ratio (y) = 0.21398 0.18553
# Poissons Ratio (z) = 0.16928 0.23608
#
# Static dielectric constant tensor:
#      x y z
#    x 5.168060 0.000000 0.000000 
#    y 0.000000 5.382380 0.000000 
#    z 0.000000 0.000000 3.619110 
# 
# 
# High freq. dielectric constant tensor:
#      x y z
#    x 1.890930 0.000000 0.000000 
#    y 0.000000 1.850190 0.000000 
#    z 0.000000 0.000000 1.821270 
# 
# From -- ./inp_files/21941.got.cif
#   From: 2010.03.12/outbox.cif.g09.slc.cpg/sg46_11_cif.got.tgz:21941.got - 2010.04.14 02:56:35.
