data_PCOD8192261
_publ_section_title
;
Structure prediction by ZEFSAII (Michael W. Deem and Ramdas Pophale) SiO2 
 PCOD8192261
Probable space group: I M A 2
;
_chemical_formula_sum "Si O2"
_cell_formula_units_Z 36
_cell_length_a 16.943372
_cell_length_b 7.387819
_cell_length_c 14.965755
_cell_angle_alpha 90.000000
_cell_angle_beta 90.000000
_cell_angle_gamma 90.000000
_cell_volume 1873.331881
_symmetry_space_group_name_H-M "I M A 2"
_symmetry_group_IT_number 46
_symmetry_cell_setting 'orthorhombic'
loop_
_space_group_symop_operation_xyz
x,y,z
-x,-y,z
1/2-x,y,z
1/2+x,-y,z
1/2+x,1/2+y,1/2+z
1/2-x,1/2-y,1/2+z
-x,1/2+y,1/2+z
x,1/2-y,1/2+z
loop_
_atom_site_type_symbol
_atom_site_label
_atom_site_fract_x
_atom_site_fract_y
_atom_site_fract_z
Si Si1 0.000000 0.000000 0.354430
Si Si2 0.839225 0.047914 0.968891
Si Si3 0.068507 0.196948 0.514811
Si Si4 0.895660 0.154675 0.592686
Si Si5 0.070113 0.647250 0.289745
O O1 0.043240 0.855632 0.292584
O O2 0.941994 0.877800 0.414608
O O3 0.750000 0.982841 0.952417
O O4 0.875537 0.106767 0.874563
O O5 0.837605 0.211624 0.039939
O O6 0.890186 0.889621 0.013240
O O7 0.984929 0.212029 0.565866
O O8 0.123389 0.051415 0.564432
O O9 0.880218 0.150447 0.698496
O O10 0.000000 0.500000 0.285038
#
# Coordination Sequence:
#
# PCOD8192261 Si02
#       5
#     4   8   8   8   8
#     4  10  20  34  66  90 112 150 208 270 286 340
#     4  12  25  40  59  89 135 168 192 240 311 384
#     4  10  19  40  62  92 113 160 211 258 298 335
#     4  10  22  39  67  91 115 156 214 264 295 345
#     4  12  21  39  69  94 117 154 213 261 300 346
#
# _framework density 19.217098
#
# number of rings (size 3 to 8) (size 9 to 14) (size 15 to 20)
#    0.000    1.333    8.889    0.667    3.111    1.778 
#    0.000    0.000    0.000    0.000    0.000    0.000 
#    0.000    0.000    0.000    0.000    0.000    0.000 
#
# Total GULP energy -223105.992222 kJ/mol
# GULP energy per Si atom -12394.777346 kJ/mol
# Density = 1.917336 g / cm^3
# Si number density = 19.217098 Si / 1000 Ang^3
#
#
#
# Elastic Constant Matrix: (Units=GPa)
#
#
# Indices 1 2 3 4 5 6 
#
# 1 53.2574 22.5604 13.6591 0.0000 0.0000 0.0000
# 2 22.5604 100.7738 35.5591 0.0000 0.0000 0.0000
# 3 13.6591 35.5591 130.7983 0.0000 0.0000 0.0000
# 4 0.0000 0.0000 0.0000 19.7851 0.0000 0.0000
# 5 0.0000 0.0000 0.0000 0.0000 -0.5901 0.0000
# 6 0.0000 0.0000 0.0000 0.0000 0.0000 12.5677
#
#
#
# Elastic Compliance Matrix: (Units=1/GPa)
#
#
# Indices 1 2 3 4 5 6 
#
# 1 0.020863 -0.004316 -0.001005 0.000000 0.000000 0.000000
# 2 -0.004316 0.011869 -0.002776 0.000000 0.000000 0.000000
# 3 -0.001005 -0.002776 0.008505 0.000000 0.000000 0.000000
# 4 0.000000 0.000000 0.000000 0.050543 0.000000 0.000000
# 5 0.000000 0.000000 0.000000 0.000000 -1.694514 0.000000
# 6 0.000000 0.000000 0.000000 0.000000 0.000000 0.079569
#
#
# Mechanical properties :
#
#
# Convention : Reuss Voigt Hill
#
# Bulk Modulus (GPa) = 39.93234 47.59851 43.76543
# Shear Modulus (GPa) = -3.33639 20.55595 8.60978
#
# Velocity S-wave (km/s) = -1.31906 3.27413 2.11896
# Velocity P-wave (km/s) = 4.30172 6.25426 5.36752
#
# Compressibility (1/GPa) = 0.02504236
#
# Stress axis : x y z
#
# Youngs Moduli (GPa) = 47.93221 84.25340 117.57735
#
# Poissons Ratio (x) = 0.36362 0.11821
# Poissons Ratio (y) = 0.20687 0.32640
# Poissons Ratio (z) = 0.04819 0.23389
#
# Static dielectric constant tensor:
#      x y z
#    x 3.111870 0.000000 0.000000 
#    y 0.000000 3.853170 0.000000 
#    z 0.000000 0.000000 3.583160 
# 
# 
# High freq. dielectric constant tensor:
#      x y z
#    x 1.700260 0.000000 0.000000 
#    y 0.000000 1.767860 0.000000 
#    z 0.000000 0.000000 1.756210 
# 
# From -- ./inp_files/16346.got.cif
#   From: 2010.03.12/outbox.cif.g09.slc.cpg/sg46_9_cif.got.tgz:16346.got - 2010.04.14 02:56:35.
