data_PCOD8192557
_publ_section_title
;
Structure prediction by ZEFSAII (Michael W. Deem and Ramdas Pophale) SiO2 
 PCOD8192557
Probable space group: I M A 2
;
_chemical_formula_sum "Si O2"
_cell_formula_units_Z 48
_cell_length_a 8.523270
_cell_length_b 30.913043
_cell_length_c 9.120933
_cell_angle_alpha 90.000000
_cell_angle_beta 90.000000
_cell_angle_gamma 90.000000
_cell_volume 2403.185361
_symmetry_space_group_name_H-M "I M A 2"
_symmetry_group_IT_number 46
_symmetry_cell_setting 'orthorhombic'
loop_
_space_group_symop_operation_xyz
x,y,z
-x,-y,z
1/2-x,y,z
1/2+x,-y,z
1/2+x,1/2+y,1/2+z
1/2-x,1/2-y,1/2+z
-x,1/2+y,1/2+z
x,1/2-y,1/2+z
loop_
_atom_site_type_symbol
_atom_site_label
_atom_site_fract_x
_atom_site_fract_y
_atom_site_fract_z
Si Si1 0.938061 0.863274 0.099030
Si Si2 0.434417 0.866187 0.419462
Si Si3 0.432707 0.715977 0.425876
Si Si4 0.924204 0.956804 0.428828
Si Si5 0.066960 0.291825 0.110852
Si Si6 0.579316 0.542336 0.582760
O O1 0.750000 0.860869 0.092159
O O2 0.001455 0.911117 0.050841
O O3 0.989703 0.853204 0.264509
O O4 0.017376 0.830265 0.988758
O O5 0.250000 0.857527 0.412323
O O6 0.467448 0.915692 0.464533
O O7 0.513726 0.837010 0.542686
O O8 0.250000 0.724653 0.455976
O O9 0.464535 0.716966 0.253985
O O10 0.536534 0.753163 0.498288
O O11 0.750000 0.949655 0.494686
O O12 0.910502 0.963498 0.256094
O O13 0.000000 0.000000 0.499433
O O14 0.250000 0.293723 0.151135
O O15 0.500000 0.500000 0.511209
O O16 0.750000 0.543644 0.511157
#
# Coordination Sequence:
#
# PCOD8192557 Si02
#       6
#     8   8   8   8   8   8
#     4  10  20  36  56  83 116 153 191 231 280 337
#     4  11  21  35  56  85 117 151 190 237 284 332
#     4  12  25  42  62  87 114 144 184 233 282 335
#     4   9  16  28  47  76 111 149 189 233 280 331
#     4  12  25  43  63  84 112 149 186 227 280 341
#     4   8  15  26  45  73 108 144 184 227 270 318
#
# _framework density 19.973490000000002
#
# number of rings (size 3 to 8) (size 9 to 14) (size 15 to 20)
#    0.000    1.667    0.000    7.500    0.000    4.667 
#    0.000    0.000    0.000    1.000    0.000    4.667 
#    0.000    0.000    0.000    0.000    0.000    0.000 
#
# Total GULP energy -297574.868435 kJ/mol
# GULP energy per Si atom -12398.952851 kJ/mol
# Density = 1.992803 g / cm^3
# Si number density = 19.973490 Si / 1000 Ang^3
#
#
#
# Elastic Constant Matrix: (Units=GPa)
#
#
# Indices 1 2 3 4 5 6 
#
# 1 96.2134 20.0452 7.8051 -0.0007 0.0004 0.0000
# 2 20.0452 126.1501 34.5046 -0.0041 0.0019 0.0009
# 3 7.8051 34.5046 63.0450 -0.0005 0.0037 0.0025
# 4 -0.0007 -0.0041 -0.0005 20.6692 0.0022 0.0011
# 5 0.0004 0.0019 0.0037 0.0022 26.0190 0.0002
# 6 0.0000 0.0009 0.0025 0.0011 0.0002 37.1746
#
#
#
# Elastic Compliance Matrix: (Units=1/GPa)
#
#
# Indices 1 2 3 4 5 6 
#
# 1 0.010761 -0.001582 -0.000466 0.000000 0.000000 0.000000
# 2 -0.001582 0.009555 -0.005034 0.000002 0.000000 0.000000
# 3 -0.000466 -0.005034 0.018674 -0.000001 -0.000002 -0.000001
# 4 0.000000 0.000002 -0.000001 0.048381 -0.000004 -0.000001
# 5 0.000000 0.000000 -0.000002 -0.000004 0.038433 0.000000
# 6 0.000000 0.000000 -0.000001 -0.000001 0.000000 0.026900
#
#
# Mechanical properties :
#
#
# Convention : Reuss Voigt Hill
#
# Bulk Modulus (GPa) = 40.28020 45.56870 42.92445
# Shear Modulus (GPa) = 28.54769 31.64280 30.09525
#
# Velocity S-wave (km/s) = 3.78468 3.98457 3.88591
# Velocity P-wave (km/s) = 6.26969 6.63575 6.45532
#
# Compressibility (1/GPa) = 0.02482609
#
# Stress axis : x y z
#
# Youngs Moduli (GPa) = 92.92768 104.65355 53.54928
#
# Poissons Ratio (x) = 0.16561 0.02496
# Poissons Ratio (y) = 0.14705 0.26955
# Poissons Ratio (z) = 0.04332 0.52680
#
# Static dielectric constant tensor:
#      x y z
#    x 3.819350 0.000000 0.000000 
#    y 0.000000 3.974540 -0.000010 
#    z 0.000000 -0.000010 3.220010 
# 
# 
# High freq. dielectric constant tensor:
#      x y z
#    x 1.790220 0.000000 0.000000 
#    y 0.000000 1.802480 0.000000 
#    z 0.000000 0.000000 1.732590 
# 
# From -- ./inp_files/3889.got.cif
#   From: 2010.03.12/outbox.cif.g09.slc.cpg/sg46_2_cif.got.tgz:3889.got - 2010.04.14 02:56:35.
