data_PCOD8192280
_publ_section_title
;
Structure prediction by ZEFSAII (Michael W. Deem and Ramdas Pophale) SiO2 
 PCOD8192280
Probable space group: I M A 2
;
_chemical_formula_sum "Si O2"
_cell_formula_units_Z 48
_cell_length_a 9.227114
_cell_length_b 17.031723
_cell_length_c 18.439448
_cell_angle_alpha 90.000000
_cell_angle_beta 90.000000
_cell_angle_gamma 90.000000
_cell_volume 2897.826552
_symmetry_space_group_name_H-M "I M A 2"
_symmetry_group_IT_number 46
_symmetry_cell_setting 'orthorhombic'
loop_
_space_group_symop_operation_xyz
x,y,z
-x,-y,z
1/2-x,y,z
1/2+x,-y,z
1/2+x,1/2+y,1/2+z
1/2-x,1/2-y,1/2+z
-x,1/2+y,1/2+z
x,1/2-y,1/2+z
loop_
_atom_site_type_symbol
_atom_site_label
_atom_site_fract_x
_atom_site_fract_y
_atom_site_fract_z
Si Si1 0.916932 0.686803 0.634840
Si Si2 0.079609 0.081249 0.005902
Si Si3 0.583187 0.209950 0.912212
Si Si4 0.586001 0.077905 0.657721
Si Si5 0.079902 0.729789 0.249752
Si Si6 0.413096 0.806228 0.543459
O O1 0.750000 0.696791 0.654717
O O2 0.945664 0.606340 0.590221
O O3 0.006639 0.695186 0.709693
O O4 0.963885 0.755323 0.580817
O O5 0.250000 0.073501 0.989174
O O6 0.000000 0.000000 0.992238
O O7 0.012301 0.143603 0.950220
O O8 0.750000 0.180912 0.909241
O O9 0.522468 0.225955 0.832008
O O10 0.572050 0.292757 0.956995
O O11 0.750000 0.056464 0.675445
O O12 0.534640 0.149221 0.709435
O O13 0.565854 0.104535 0.572830
O O14 0.500000 0.000000 0.675678
O O15 0.250000 0.744178 0.247550
O O16 0.250000 0.779025 0.568462
#
# Coordination Sequence:
#
# PCOD8192280 Si02
#       6
#     8   8   8   8   8   8
#     4   9  17  29  46  67  89 116 153 191 224 262
#     4  10  20  32  47  69  95 123 155 191 232 276
#     4   9  17  31  50  69  90 118 151 188 230 274
#     4   9  17  28  42  63  89 115 144 176 212 258
#     4   9  18  31  47  68  92 119 150 183 225 275
#     4   8  15  29  47  64  84 113 151 189 221 261
#
# _framework density 16.564139000000001
#
# number of rings (size 3 to 8) (size 9 to 14) (size 15 to 20)
#    0.000    3.000    0.000    2.000    0.000    6.000 
#    0.000    1.667    0.000    1.000    0.000    4.667 
#    0.000    0.000    0.000    0.000    0.000    0.000 
#
# Total GULP energy -297315.740479 kJ/mol
# GULP energy per Si atom -12388.155853 kJ/mol
# Density = 1.652644 g / cm^3
# Si number density = 16.564139 Si / 1000 Ang^3
#
#
#
# Elastic Constant Matrix: (Units=GPa)
#
#
# Indices 1 2 3 4 5 6 
#
# 1 55.5427 14.6738 40.4439 0.0000 0.0000 0.0000
# 2 14.6738 15.8830 36.5954 0.0000 0.0000 0.0000
# 3 40.4439 36.5954 133.1539 0.0000 0.0000 0.0000
# 4 0.0000 0.0000 0.0000 16.4727 0.0000 0.0000
# 5 0.0000 0.0000 0.0000 0.0000 21.9926 0.0000
# 6 0.0000 0.0000 0.0000 0.0000 0.0000 24.3168
#
#
#
# Elastic Compliance Matrix: (Units=1/GPa)
#
#
# Indices 1 2 3 4 5 6 
#
# 1 0.024340 -0.014868 -0.003307 0.000000 0.000000 0.000000
# 2 -0.014868 0.180749 -0.045160 0.000000 0.000000 0.000000
# 3 -0.003307 -0.045160 0.020926 0.000000 0.000000 0.000000
# 4 0.000000 0.000000 0.000000 0.060707 0.000000 0.000000
# 5 0.000000 0.000000 0.000000 0.000000 0.045470 0.000000
# 6 0.000000 0.000000 0.000000 0.000000 0.000000 0.041124
#
#
# Mechanical properties :
#
#
# Convention : Reuss Voigt Hill
#
# Bulk Modulus (GPa) = 10.06595 43.11175 26.58885
# Shear Modulus (GPa) = 9.37909 20.08084 14.72996
#
# Velocity S-wave (km/s) = 2.38214 3.48560 2.98530
# Velocity P-wave (km/s) = 3.69544 6.50253 5.28863
#
# Compressibility (1/GPa) = 0.09934485
#
# Stress axis : x y z
#
# Youngs Moduli (GPa) = 41.08466 5.53253 47.78732
#
# Poissons Ratio (x) = 0.08226 0.15801
# Poissons Ratio (y) = 0.61086 2.15808
# Poissons Ratio (z) = 0.13585 0.24985
#
# Static dielectric constant tensor:
#      x y z
#    x 3.128190 0.000000 0.000000 
#    y 0.000000 2.941550 0.000000 
#    z 0.000000 0.000000 3.360340 
# 
# 
# High freq. dielectric constant tensor:
#      x y z
#    x 1.642120 0.000000 0.000000 
#    y 0.000000 1.603810 0.000000 
#    z 0.000000 0.000000 1.634080 
# 
# From -- ./inp_files/13919.got.cif
#   From: 2010.03.12/outbox.cif.g09.slc.cpg/sg46_7_cif.got.tgz:13919.got - 2010.04.14 02:56:35.
