data_PCOD8192820
_publ_section_title
;
Structure prediction by ZEFSAII (Michael W. Deem and Ramdas Pophale) SiO2 
 PCOD8192820
Probable space group: I M A 2
;
_chemical_formula_sum "Si O2"
_cell_formula_units_Z 64
_cell_length_a 14.513398
_cell_length_b 17.756507
_cell_length_c 14.227021
_cell_angle_alpha 90.000000
_cell_angle_beta 90.000000
_cell_angle_gamma 90.000000
_cell_volume 3666.406503
_symmetry_space_group_name_H-M "I M A 2"
_symmetry_group_IT_number 46
_symmetry_cell_setting 'orthorhombic'
loop_
_space_group_symop_operation_xyz
x,y,z
-x,-y,z
1/2-x,y,z
1/2+x,-y,z
1/2+x,1/2+y,1/2+z
1/2-x,1/2-y,1/2+z
-x,1/2+y,1/2+z
x,1/2-y,1/2+z
loop_
_atom_site_type_symbol
_atom_site_label
_atom_site_fract_x
_atom_site_fract_y
_atom_site_fract_z
Si Si1 0.974466 0.661987 0.378960
Si Si2 0.473877 0.338740 0.878960
Si Si3 0.353123 0.076727 0.023679
Si Si4 0.099468 0.536351 0.378960
Si Si5 0.643069 0.927155 0.520360
Si Si6 0.143069 0.427155 0.737560
Si Si7 0.354951 0.942519 0.378960
Si Si8 0.853123 0.576727 0.234241
O O1 0.986759 0.750130 0.378960
O O2 0.919107 0.635829 0.471595
O O3 0.919107 0.635829 0.286325
O O4 0.079021 0.626055 0.378960
O O5 0.417960 0.362824 0.786212
O O6 0.576346 0.372669 0.878960
O O7 0.417959 0.362824 0.971708
O O8 0.250000 0.110298 0.022524
O O9 0.387895 0.065505 0.129733
O O10 0.350252 0.994629 0.972544
O O11 0.149749 0.505371 0.285376
O O12 0.000000 0.500000 0.378960
O O13 0.750000 0.904367 0.509462
O O14 0.612105 0.934495 0.628187
O O15 0.624940 0.007181 0.470943
O O16 0.250000 0.404367 0.748458
O O17 0.124940 0.507181 0.786977
O O18 0.250000 0.912326 0.378960
O O19 0.750000 0.610298 0.235396
#
# Coordination Sequence:
#
# PCOD8192820 Si02
#       8
#     8   8   8   8   8   8   8   8
#     4  10  21  31  43  72 104 130 162 193 234 298
#     4  11  21  32  48  72 104 136 155 190 247 294
#     4   9  17  32  53  73  94 124 160 203 246 283
#     4   8  16  30  47  66  91 123 163 200 226 268
#     4   9  18  32  53  77  96 122 164 204 242 289
#     4   9  18  32  53  77  96 122 164 204 242 289
#     4   9  19  35  52  72  94 123 170 211 235 276
#     4   9  17  32  53  73  94 124 160 203 246 283
#
# _framework density 17.455784000000001
#
# number of rings (size 3 to 8) (size 9 to 14) (size 15 to 20)
#    0.000    3.000    0.000    4.125    0.000    9.000 
#    0.000    3.750    0.000    0.000    0.000    8.750 
#    0.000    0.000    0.000    0.000    0.000    0.000 
#
# Total GULP energy -396601.917487 kJ/mol
# GULP energy per Si atom -12393.809921 kJ/mol
# Density = 1.741605 g / cm^3
# Si number density = 17.455784 Si / 1000 Ang^3
#
#
#
# Elastic Constant Matrix: (Units=GPa)
#
#
# Indices 1 2 3 4 5 6 
#
# 1 67.4894 57.3968 37.4534 0.0000 0.0000 0.0000
# 2 57.3968 142.5657 58.4621 0.0000 0.0000 0.0000
# 3 37.4534 58.4621 168.2348 -0.0001 0.0000 0.0000
# 4 0.0000 0.0000 -0.0001 7.0461 0.0000 0.0000
# 5 0.0000 0.0000 0.0000 0.0000 4.8452 0.0000
# 6 0.0000 0.0000 0.0000 0.0000 0.0000 18.0374
#
#
#
# Elastic Compliance Matrix: (Units=1/GPa)
#
#
# Indices 1 2 3 4 5 6 
#
# 1 0.023235 -0.008435 -0.002241 0.000000 0.000000 0.000000
# 2 -0.008435 0.011242 -0.002029 0.000000 0.000000 0.000000
# 3 -0.002241 -0.002029 0.007148 0.000000 0.000000 0.000000
# 4 0.000000 0.000000 0.000000 0.141922 0.000000 0.000000
# 5 0.000000 0.000000 0.000000 0.000000 0.206388 0.000000
# 6 0.000000 0.000000 0.000000 0.000000 0.000000 0.055440
#
#
# Mechanical properties :
#
#
# Convention : Reuss Voigt Hill
#
# Bulk Modulus (GPa) = 61.67397 76.10165 68.88781
# Shear Modulus (GPa) = 10.49997 20.98425 15.74211
#
# Velocity S-wave (km/s) = 2.45525 3.47095 3.00630
# Velocity P-wave (km/s) = 6.59135 7.73012 7.18334
#
# Compressibility (1/GPa) = 0.01621429
#
# Stress axis : x y z
#
# Youngs Moduli (GPa) = 43.03903 88.95012 139.89736
#
# Poissons Ratio (x) = 0.75031 0.31357
# Poissons Ratio (y) = 0.36304 0.28383
# Poissons Ratio (z) = 0.09647 0.18047
#
# Static dielectric constant tensor:
#      x y z
#    x 3.586790 0.000000 0.000000 
#    y 0.000000 3.276940 0.000000 
#    z 0.000000 0.000000 3.472630 
# 
# 
# High freq. dielectric constant tensor:
#      x y z
#    x 1.676820 0.000000 0.000000 
#    y 0.000000 1.636370 0.000000 
#    z 0.000000 0.000000 1.682510 
# 
# From -- ./inp_files/16191.got.cif
#   From: 2010.03.12/outbox.cif.g09.slc.cpg/sg46_9_cif.got.tgz:16191.got - 2010.04.14 02:56:35.
