data_PCOD8192549
_publ_section_title
;
Structure prediction by ZEFSAII (Michael W. Deem and Ramdas Pophale) SiO2 
 PCOD8192549
Probable space group: I M A 2
;
_chemical_formula_sum "Si O2"
_cell_formula_units_Z 56
_cell_length_a 22.321643
_cell_length_b 11.552649
_cell_length_c 10.959940
_cell_angle_alpha 90.000000
_cell_angle_beta 90.000000
_cell_angle_gamma 90.000000
_cell_volume 2826.284737
_symmetry_space_group_name_H-M "I M A 2"
_symmetry_group_IT_number 46
_symmetry_cell_setting 'orthorhombic'
loop_
_space_group_symop_operation_xyz
x,y,z
-x,-y,z
1/2-x,y,z
1/2+x,-y,z
1/2+x,1/2+y,1/2+z
1/2-x,1/2-y,1/2+z
-x,1/2+y,1/2+z
x,1/2-y,1/2+z
loop_
_atom_site_type_symbol
_atom_site_label
_atom_site_fract_x
_atom_site_fract_y
_atom_site_fract_z
Si Si1 0.025879 0.372586 0.279700
Si Si2 0.620032 0.612684 0.080370
Si Si3 0.086846 0.699372 0.395908
Si Si4 0.629175 0.851267 0.973391
Si Si5 0.567972 0.047891 0.390148
Si Si6 0.182160 0.522761 0.296467
Si Si7 0.932100 0.467441 0.618725
O O1 0.055696 0.360960 0.146162
O O2 0.074119 0.335245 0.380140
O O3 0.000000 0.500000 0.306118
O O4 0.967845 0.292664 0.297078
O O5 0.660776 0.538275 0.171744
O O6 0.651763 0.730116 0.031401
O O7 0.609856 0.543192 0.957088
O O8 0.088609 0.829421 0.447999
O O9 0.143379 0.637916 0.328642
O O10 0.074499 0.629817 0.517963
O O11 0.679955 0.924620 0.902438
O O12 0.607793 0.921561 0.090055
O O13 0.589479 0.068801 0.252040
O O14 0.500000 0.000000 0.403860
O O15 0.250000 0.565203 0.280869
O O16 0.000000 0.500000 0.626562
#
# Coordination Sequence:
#
# PCOD8192549 Si02
#       7
#     8   8   8   8   8   8   8
#     4  11  18  35  58  89 124 168 197 247 325 402
#     4  11  24  37  62  94 130 162 208 267 329 384
#     4  11  21  40  63  86 131 170 208 262 318 383
#     4  10  20  37  64  90 126 159 206 262 329 383
#     4  11  26  33  58 100 132 161 199 252 317 399
#     4  10  24  45  68  88 116 176 234 264 313 374
#     4  10  20  36  55  88 131 163 195 241 317 393
#
# _framework density 19.813997000000001
#
# number of rings (size 3 to 8) (size 9 to 14) (size 15 to 20)
#    0.000    1.429    5.714    1.286   10.000    0.571 
#    0.000    0.714    0.000    0.857    0.000    0.000 
#    0.000    0.000    0.000    0.000    0.000    0.000 
#
# Total GULP energy -346870.239385 kJ/mol
# GULP energy per Si atom -12388.222835 kJ/mol
# Density = 1.976890 g / cm^3
# Si number density = 19.813997 Si / 1000 Ang^3
#
#
#
# Elastic Constant Matrix: (Units=GPa)
#
#
# Indices 1 2 3 4 5 6 
#
# 1 83.5514 17.4321 22.6920 0.0000 0.0000 0.0000
# 2 17.4321 116.8009 23.8316 0.0000 0.0000 0.0000
# 3 22.6920 23.8316 90.2396 0.0000 0.0000 0.0000
# 4 0.0000 0.0000 0.0000 22.4474 0.0000 0.0000
# 5 0.0000 0.0000 0.0000 0.0000 13.8397 0.0000
# 6 0.0000 0.0000 0.0000 0.0000 0.0000 14.9514
#
#
#
# Elastic Compliance Matrix: (Units=1/GPa)
#
#
# Indices 1 2 3 4 5 6 
#
# 1 0.013044 -0.001350 -0.002924 0.000000 0.000000 0.000000
# 2 -0.001350 0.009189 -0.002087 0.000000 0.000000 0.000000
# 3 -0.002924 -0.002087 0.012368 0.000000 0.000000 0.000000
# 4 0.000000 0.000000 0.000000 0.044549 0.000000 0.000000
# 5 0.000000 0.000000 0.000000 0.000000 0.072256 0.000000
# 6 0.000000 0.000000 0.000000 0.000000 0.000000 0.066884
#
#
# Mechanical properties :
#
#
# Convention : Reuss Voigt Hill
#
# Bulk Modulus (GPa) = 45.70548 46.50037 46.10292
# Shear Modulus (GPa) = 20.98154 25.35678 23.16916
#
# Velocity S-wave (km/s) = 3.25764 3.58123 3.42326
# Velocity P-wave (km/s) = 6.10467 6.37335 6.24046
#
# Compressibility (1/GPa) = 0.02187922
#
# Stress axis : x y z
#
# Youngs Moduli (GPa) = 76.66108 108.82618 80.85385
#
# Poissons Ratio (x) = 0.14695 0.23638
# Poissons Ratio (y) = 0.10352 0.16876
# Poissons Ratio (z) = 0.22413 0.22714
#
# Static dielectric constant tensor:
#      x y z
#    x 3.240160 0.000000 0.000000 
#    y 0.000000 3.856760 0.000000 
#    z 0.000000 0.000000 4.181960 
# 
# 
# High freq. dielectric constant tensor:
#      x y z
#    x 1.721720 0.000000 0.000000 
#    y 0.000000 1.780560 0.000000 
#    z 0.000000 0.000000 1.785070 
# 
# From -- ./inp_files/12803.got.cif
#   From: 2010.03.12/outbox.cif.g09.slc.cpg/sg46_7_cif.got.tgz:12803.got - 2010.04.14 02:56:35.
