data_PCOD8192631
_publ_section_title
;
Structure prediction by ZEFSAII (Michael W. Deem and Ramdas Pophale) SiO2 
 PCOD8192631
Probable space group: I M A 2
;
_chemical_formula_sum "Si O2"
_cell_formula_units_Z 64
_cell_length_a 17.940347
_cell_length_b 18.446912
_cell_length_c 8.945500
_cell_angle_alpha 90.000000
_cell_angle_beta 90.000000
_cell_angle_gamma 90.000000
_cell_volume 2960.459573
_symmetry_space_group_name_H-M "I M A 2"
_symmetry_group_IT_number 46
_symmetry_cell_setting 'orthorhombic'
loop_
_space_group_symop_operation_xyz
x,y,z
-x,-y,z
1/2-x,y,z
1/2+x,-y,z
1/2+x,1/2+y,1/2+z
1/2-x,1/2-y,1/2+z
-x,1/2+y,1/2+z
x,1/2-y,1/2+z
loop_
_atom_site_type_symbol
_atom_site_label
_atom_site_fract_x
_atom_site_fract_y
_atom_site_fract_z
Si Si1 0.917572 0.466808 0.937240
Si Si2 0.665929 0.976197 0.020848
Si Si3 0.461428 0.289354 0.926060
Si Si4 0.664492 0.905805 0.344749
Si Si5 0.163016 0.855963 0.943544
Si Si6 0.942222 0.142728 0.681052
Si Si7 0.441009 0.856423 0.188736
Si Si8 0.547792 0.875730 0.932216
O O1 0.855531 0.528930 0.957152
O O2 0.904892 0.420595 0.786377
O O3 0.000000 0.500000 0.935825
O O4 0.903137 0.415619 0.076890
O O5 0.750000 0.962643 0.975830
O O6 0.649631 0.943004 0.184847
O O7 0.618806 0.926321 0.910031
O O8 0.646847 0.060131 0.989655
O O9 0.391664 0.340870 0.886072
O O10 0.523296 0.295198 0.795603
O O11 0.429034 0.208874 0.929564
O O12 0.505936 0.303315 0.081432
O O13 0.750000 0.879740 0.364636
O O14 0.250000 0.836238 0.939425
O O15 0.125262 0.827890 0.788603
O O16 0.120940 0.816130 0.082997
O O17 0.997510 0.102226 0.792809
O O18 0.504738 0.892859 0.086056
#
# Coordination Sequence:
#
# PCOD8192631 Si02
#       8
#     8   8   8   8   8   8   8   8
#     4  11  19  36  58  87 118 151 203 250 301 353
#     4  10  21  36  59  89 121 161 198 237 294 359
#     4  11  22  40  59  88 122 161 211 241 279 353
#     4  11  22  37  61  91 124 161 202 248 294 354
#     4  10  22  39  61  94 124 145 190 254 318 367
#     4  10  24  35  60  88 120 154 195 251 310 348
#     4  10  20  36  64  83 110 157 202 251 290 349
#     4  11  22  37  60  86 120 161 204 243 279 349
#
# _framework density 21.618265999999998
#
# number of rings (size 3 to 8) (size 9 to 14) (size 15 to 20)
#    0.000    1.500    5.000    0.750    1.750    2.000 
#    0.000    3.750    0.000   12.000    0.000    1.750 
#    0.000    0.000    0.000    0.000    0.000    0.000 
#
# Total GULP energy -396433.010844 kJ/mol
# GULP energy per Si atom -12388.531589 kJ/mol
# Density = 2.156906 g / cm^3
# Si number density = 21.618266 Si / 1000 Ang^3
#
#
#
# Elastic Constant Matrix: (Units=GPa)
#
#
# Indices 1 2 3 4 5 6 
#
# 1 109.3695 15.2382 32.8843 0.0000 0.0000 0.0000
# 2 15.2382 48.4349 2.6295 0.0000 0.0000 0.0000
# 3 32.8843 2.6295 103.4217 0.0000 0.0000 0.0000
# 4 0.0000 0.0000 0.0000 18.7942 0.0000 0.0000
# 5 0.0000 0.0000 0.0000 0.0000 24.8356 0.0000
# 6 0.0000 0.0000 0.0000 0.0000 0.0000 18.0205
#
#
#
# Elastic Compliance Matrix: (Units=1/GPa)
#
#
# Indices 1 2 3 4 5 6 
#
# 1 0.010568 -0.003147 -0.003280 0.000000 0.000000 0.000000
# 2 -0.003147 0.021612 0.000451 0.000000 0.000000 0.000000
# 3 -0.003280 0.000451 0.010701 0.000000 0.000000 0.000000
# 4 0.000000 0.000000 0.000000 0.053208 0.000000 0.000000
# 5 0.000000 0.000000 0.000000 0.000000 0.040265 0.000000
# 6 0.000000 0.000000 0.000000 0.000000 0.000000 0.055492
#
#
# Mechanical properties :
#
#
# Convention : Reuss Voigt Hill
#
# Bulk Modulus (GPa) = 32.33248 40.30333 36.31791
# Shear Modulus (GPa) = 23.35283 26.36167 24.85725
#
# Velocity S-wave (km/s) = 3.29026 3.49580 3.39459
# Velocity P-wave (km/s) = 5.42429 5.91421 5.67454
#
# Compressibility (1/GPa) = 0.03092865
#
# Stress axis : x y z
#
# Youngs Moduli (GPa) = 94.62508 46.27108 93.45202
#
# Poissons Ratio (x) = 0.14560 0.30654
# Poissons Ratio (y) = 0.29776 -0.04215
# Poissons Ratio (z) = 0.31039 -0.02087
#
# Static dielectric constant tensor:
#      x y z
#    x 3.883340 0.000000 0.000000 
#    y 0.000000 3.770440 0.000000 
#    z 0.000000 0.000000 4.197910 
# 
# 
# High freq. dielectric constant tensor:
#      x y z
#    x 1.836530 0.000000 0.000000 
#    y 0.000000 1.841040 0.000000 
#    z 0.000000 0.000000 1.859780 
# 
# From -- ./inp_files/6939.got.cif
#   From: 2010.03.12/outbox.cif.g09.slc.cpg/sg46_4_cif.got.tgz:6939.got - 2010.04.14 02:56:35.
