data_PCOD8192291
_publ_section_title
;
Structure prediction by ZEFSAII (Michael W. Deem and Ramdas Pophale) SiO2 
 PCOD8192291
Probable space group: I M A 2
;
_chemical_formula_sum "Si O2"
_cell_formula_units_Z 64
_cell_length_a 8.731024
_cell_length_b 22.937137
_cell_length_c 19.000029
_cell_angle_alpha 90.000000
_cell_angle_beta 90.000000
_cell_angle_gamma 90.000000
_cell_volume 3805.034987
_symmetry_space_group_name_H-M "I M A 2"
_symmetry_group_IT_number 46
_symmetry_cell_setting 'orthorhombic'
loop_
_space_group_symop_operation_xyz
x,y,z
-x,-y,z
1/2-x,y,z
1/2+x,-y,z
1/2+x,1/2+y,1/2+z
1/2-x,1/2-y,1/2+z
-x,1/2+y,1/2+z
x,1/2-y,1/2+z
loop_
_atom_site_type_symbol
_atom_site_label
_atom_site_fract_x
_atom_site_fract_y
_atom_site_fract_z
Si Si1 0.570380 0.060545 0.751010
Si Si2 0.927370 0.244372 0.619843
Si Si3 0.429997 0.936609 0.481679
Si Si4 0.925497 0.174856 0.829931
Si Si5 0.930813 0.879863 0.617421
Si Si6 0.928307 0.720205 0.752487
Si Si7 0.571543 0.651767 0.887207
Si Si8 0.925116 0.256912 0.462871
O O1 0.750000 0.053630 0.737834
O O2 0.534085 0.108183 0.811584
O O3 0.492205 0.077783 0.677843
O O4 0.500000 0.000000 0.778138
O O5 0.750000 0.228306 0.628096
O O6 0.961845 0.273120 0.543755
O O7 0.025205 0.186418 0.633632
O O8 0.978922 0.290207 0.679955
O O9 0.250000 0.941719 0.487787
O O10 0.493242 0.896959 0.544085
O O11 0.477054 0.905745 0.408360
O O12 0.500000 0.000000 0.485576
O O13 0.750000 0.188718 0.809117
O O14 0.952921 0.186490 0.913344
O O15 0.032828 0.216683 0.784470
O O16 0.750000 0.886861 0.611788
O O17 0.750000 0.717937 0.735774
O O18 0.975217 0.669843 0.807846
O O19 0.750000 0.637609 0.893167
O O20 0.534863 0.704651 0.939950
O O21 0.750000 0.234838 0.455521
#
# Coordination Sequence:
#
# PCOD8192291 Si02
#       8
#     8   8   8   8   8   8   8   8
#     4  11  22  35  51  71  99 135 174 211 249 297
#     4  11  20  31  50  76 104 135 169 204 251 305
#     4  12  24  38  54  73 100 136 175 212 252 300
#     4   9  18  33  51  70  95 129 168 209 252 297
#     4  12  23  35  50  71 103 137 173 212 247 292
#     4  10  20  32  50  74 102 132 166 207 253 300
#     4  10  20  34  51  74 100 131 169 211 253 299
#     4   9  18  32  51  73  98 129 165 208 254 304
#
# _framework density 16.819818999999999
#
# number of rings (size 3 to 8) (size 9 to 14) (size 15 to 20)
#    0.000    1.500    2.500    4.125    0.000    2.500 
#    0.000    0.000    0.000    0.000    0.000    0.875 
#    0.000    4.000    0.000    0.000    0.000    0.000 
#
# Total GULP energy -396843.437263 kJ/mol
# GULP energy per Si atom -12401.357414 kJ/mol
# Density = 1.678154 g / cm^3
# Si number density = 16.819819 Si / 1000 Ang^3
#
#
#
# Elastic Constant Matrix: (Units=GPa)
#
#
# Indices 1 2 3 4 5 6 
#
# 1 94.5364 21.5590 34.0369 0.0000 0.0000 0.0000
# 2 21.5590 37.0554 22.5549 0.0000 0.0000 0.0000
# 3 34.0369 22.5549 105.9858 0.0001 0.0000 0.0000
# 4 0.0000 0.0000 0.0001 24.1828 0.0000 0.0000
# 5 0.0000 0.0000 0.0000 0.0000 24.8759 0.0000
# 6 0.0000 0.0000 0.0000 0.0000 0.0000 24.7948
#
#
#
# Elastic Compliance Matrix: (Units=1/GPa)
#
#
# Indices 1 2 3 4 5 6 
#
# 1 0.012945 -0.005745 -0.002935 0.000000 0.000000 0.000000
# 2 -0.005745 0.033552 -0.005295 0.000000 0.000000 0.000000
# 3 -0.002935 -0.005295 0.011505 0.000000 0.000000 0.000000
# 4 0.000000 0.000000 0.000000 0.041352 0.000000 0.000000
# 5 0.000000 0.000000 0.000000 0.000000 0.040200 0.000000
# 6 0.000000 0.000000 0.000000 0.000000 0.000000 0.040331
#
#
# Mechanical properties :
#
#
# Convention : Reuss Voigt Hill
#
# Bulk Modulus (GPa) = 33.27597 43.76437 38.52017
# Shear Modulus (GPa) = 22.95149 25.39914 24.17532
#
# Velocity S-wave (km/s) = 3.69799 3.89018 3.79530
# Velocity P-wave (km/s) = 6.16930 6.80103 6.49285
#
# Compressibility (1/GPa) = 0.03005172
#
# Stress axis : x y z
#
# Youngs Moduli (GPa) = 77.25206 29.80422 86.92232
#
# Poissons Ratio (x) = 0.17123 0.25507
# Poissons Ratio (y) = 0.44382 0.46028
# Poissons Ratio (z) = 0.22670 0.15782
#
# Static dielectric constant tensor:
#      x y z
#    x 3.269340 0.000000 0.000000 
#    y 0.000000 3.003180 0.000000 
#    z 0.000000 0.000000 3.404780 
# 
# 
# High freq. dielectric constant tensor:
#      x y z
#    x 1.663390 0.000000 0.000000 
#    y 0.000000 1.613960 0.000000 
#    z 0.000000 0.000000 1.648360 
# 
# From -- ./inp_files/18556.got.cif
#   From: 2010.03.12/outbox.cif.g09.slc.cpg/sg46_10_cif.got.tgz:18556.got - 2010.04.14 02:56:35.
