data_PCOD8192624
_publ_section_title
;
Structure prediction by ZEFSAII (Michael W. Deem and Ramdas Pophale) SiO2 
 PCOD8192624
Probable space group: I M A 2
;
_chemical_formula_sum "Si O2"
_cell_formula_units_Z 60
_cell_length_a 15.893929
_cell_length_b 18.857315
_cell_length_c 10.169788
_cell_angle_alpha 90.000000
_cell_angle_beta 90.000000
_cell_angle_gamma 90.000000
_cell_volume 3048.056578
_symmetry_space_group_name_H-M "I M A 2"
_symmetry_group_IT_number 46
_symmetry_cell_setting 'orthorhombic'
loop_
_space_group_symop_operation_xyz
x,y,z
-x,-y,z
1/2-x,y,z
1/2+x,-y,z
1/2+x,1/2+y,1/2+z
1/2-x,1/2-y,1/2+z
-x,1/2+y,1/2+z
x,1/2-y,1/2+z
loop_
_atom_site_type_symbol
_atom_site_label
_atom_site_fract_x
_atom_site_fract_y
_atom_site_fract_z
Si Si1 0.000000 0.000000 0.411381
Si Si2 0.343322 0.677088 0.044836
Si Si3 0.844859 0.419720 0.798878
Si Si4 0.079050 0.674908 0.592450
Si Si5 0.522883 0.575703 0.418043
Si Si6 0.654238 0.814538 0.951908
Si Si7 0.502123 0.608252 0.132891
Si Si8 0.921633 0.748539 0.697501
O O1 0.917460 0.021011 0.325528
O O2 0.028031 0.064747 0.503756
O O3 0.250000 0.669678 0.104005
O O4 0.348990 0.645552 0.899248
O O5 0.367731 0.759475 0.038581
O O6 0.404413 0.631266 0.136202
O O7 0.750000 0.453680 0.800124
O O8 0.861610 0.383609 0.658835
O O9 0.039183 0.638107 0.464526
O O10 0.005723 0.699675 0.694694
O O11 0.500000 0.500000 0.486641
O O12 0.616218 0.605432 0.448985
O O13 0.515661 0.562507 0.262870
O O14 0.750000 0.820799 0.908788
O O15 0.608699 0.760890 0.847554
O O16 0.647815 0.786067 0.101363
O O17 0.561134 0.676298 0.130180
#
# Coordination Sequence:
#
# PCOD8192624 Si02
#       8
#     4   8   8   8   8   8   8   8
#     4  10  20  36  62  78 118 156 190 238 284 334
#     4   9  19  34  56  86 113 139 182 239 288 333
#     4  10  22  38  58  86 119 153 195 239 288 351
#     4  10  21  34  59  82 114 151 186 231 289 347
#     4  10  21  38  57  79 108 154 191 224 284 354
#     4  10  20  37  57  84 113 143 187 246 289 340
#     4   9  18  35  59  82 106 148 191 230 282 344
#     4   9  20  33  60  83 111 144 191 231 297 347
#
# _framework density 19.684674000000001
#
# number of rings (size 3 to 8) (size 9 to 14) (size 15 to 20)
#    0.000    2.400    0.667    0.800   12.133    0.000 
#    0.000    6.000    0.000    0.000    0.000    0.000 
#    0.000    0.000    0.000    0.000    0.000    0.000 
#
# Total GULP energy -371805.127864 kJ/mol
# GULP energy per Si atom -12393.504262 kJ/mol
# Density = 1.963987 g / cm^3
# Si number density = 19.684674 Si / 1000 Ang^3
#
#
#
# Elastic Constant Matrix: (Units=GPa)
#
#
# Indices 1 2 3 4 5 6 
#
# 1 125.8095 44.2698 19.6929 0.0000 0.0000 0.0000
# 2 44.2698 93.9243 12.6340 0.0000 0.0000 0.0000
# 3 19.6929 12.6340 42.3502 0.0000 0.0000 0.0000
# 4 0.0000 0.0000 0.0000 16.2908 0.0000 0.0000
# 5 0.0000 0.0000 0.0000 0.0000 20.4752 0.0000
# 6 0.0000 0.0000 0.0000 0.0000 0.0000 26.9609
#
#
#
# Elastic Compliance Matrix: (Units=1/GPa)
#
#
# Indices 1 2 3 4 5 6 
#
# 1 0.009970 -0.004246 -0.003369 0.000000 0.000000 0.000000
# 2 -0.004246 0.012900 -0.001874 0.000000 0.000000 0.000000
# 3 -0.003369 -0.001874 0.025738 0.000000 0.000000 0.000000
# 4 0.000000 0.000000 0.000000 0.061384 0.000000 0.000000
# 5 0.000000 0.000000 0.000000 0.000000 0.048840 0.000000
# 6 0.000000 0.000000 0.000000 0.000000 0.000000 0.037091
#
#
# Mechanical properties :
#
#
# Convention : Reuss Voigt Hill
#
# Bulk Modulus (GPa) = 33.74971 46.14194 39.94583
# Shear Modulus (GPa) = 22.24407 25.11119 23.67763
#
# Velocity S-wave (km/s) = 3.36522 3.57553 3.47197
# Velocity P-wave (km/s) = 5.68173 6.36689 6.03404
#
# Compressibility (1/GPa) = 0.02962988
#
# Stress axis : x y z
#
# Youngs Moduli (GPa) = 100.30074 77.51796 38.85231
#
# Poissons Ratio (x) = 0.32914 0.13091
# Poissons Ratio (y) = 0.42588 0.07281
# Poissons Ratio (z) = 0.33795 0.14527
#
# Static dielectric constant tensor:
#      x y z
#    x 3.624880 0.000000 0.000000 
#    y 0.000000 3.571270 0.000000 
#    z 0.000000 0.000000 3.421520 
# 
# 
# High freq. dielectric constant tensor:
#      x y z
#    x 1.757320 0.000000 0.000000 
#    y 0.000000 1.762200 0.000000 
#    z 0.000000 0.000000 1.759450 
# 
# From -- ./inp_files/11271.got.cif
#   From: 2010.03.12/outbox.cif.g09.slc.cpg/sg46_6_cif.got.tgz:11271.got - 2010.04.14 02:56:35.
