data_PCOD8192501
_publ_section_title
;
Structure prediction by ZEFSAII (Michael W. Deem and Ramdas Pophale) SiO2 
 PCOD8192501
Probable space group: I M A 2
;
_chemical_formula_sum "Si O2"
_cell_formula_units_Z 64
_cell_length_a 8.925919
_cell_length_b 24.656769
_cell_length_c 15.185529
_cell_angle_alpha 90.000000
_cell_angle_beta 90.000000
_cell_angle_gamma 90.000000
_cell_volume 3342.096868
_symmetry_space_group_name_H-M "I M A 2"
_symmetry_group_IT_number 46
_symmetry_cell_setting 'orthorhombic'
loop_
_space_group_symop_operation_xyz
x,y,z
-x,-y,z
1/2-x,y,z
1/2+x,-y,z
1/2+x,1/2+y,1/2+z
1/2-x,1/2-y,1/2+z
-x,1/2+y,1/2+z
x,1/2-y,1/2+z
loop_
_atom_site_type_symbol
_atom_site_label
_atom_site_fract_x
_atom_site_fract_y
_atom_site_fract_z
Si Si1 0.580775 0.716224 0.516700
Si Si2 0.572702 0.355849 0.219733
Si Si3 0.427103 0.608218 0.548502
Si Si4 0.422679 0.259896 0.316117
Si Si5 0.572801 0.057509 0.866552
Si Si6 0.924671 0.444489 0.726386
Si Si7 0.926043 0.349872 0.861066
Si Si8 0.427603 0.161479 0.543443
O O1 0.750000 0.704047 0.545269
O O2 0.477452 0.670379 0.558748
O O3 0.563532 0.713967 0.411938
O O4 0.530545 0.774933 0.552016
O O5 0.750000 0.352458 0.209337
O O6 0.510557 0.297714 0.248738
O O7 0.524462 0.401819 0.289008
O O8 0.497089 0.370465 0.126256
O O9 0.250000 0.608969 0.547330
O O10 0.489780 0.580798 0.459201
O O11 0.489486 0.575025 0.631996
O O12 0.250000 0.254737 0.286531
O O13 0.497496 0.201110 0.313841
O O14 0.750000 0.050560 0.870595
O O15 0.500000 0.000000 0.845952
O O16 0.750000 0.454613 0.717362
O O17 0.961654 0.401159 0.801004
O O18 0.000000 0.500000 0.755617
O O19 0.750000 0.338611 0.871585
O O20 0.998387 0.362456 0.955601
O O21 0.250000 0.152922 0.537861
#
# Coordination Sequence:
#
# PCOD8192501 Si02
#       8
#     8   8   8   8   8   8   8   8
#     4   9  19  34  53  82 116 152 191 229 281 342
#     4  11  22  37  58  87 119 157 199 243 295 351
#     4  10  20  36  56  84 119 154 191 235 284 346
#     4  10  20  35  56  85 120 156 194 238 288 348
#     4  10  22  38  58  84 116 155 199 240 290 349
#     4  10  23  40  60  86 115 151 199 246 295 350
#     4  10  21  39  60  86 117 153 198 247 299 355
#     4  10  22  39  58  86 119 154 197 244 299 356
#
# _framework density 19.149654000000002
#
# number of rings (size 3 to 8) (size 9 to 14) (size 15 to 20)
#    0.000    2.000    1.250    2.625    1.750    5.500 
#    0.000    0.625    0.000    0.000    0.000    0.000 
#    0.000    0.000    0.000    0.000    0.000    0.000 
#
# Total GULP energy -396904.754230 kJ/mol
# GULP energy per Si atom -12403.273570 kJ/mol
# Density = 1.910607 g / cm^3
# Si number density = 19.149654 Si / 1000 Ang^3
#
#
#
# Elastic Constant Matrix: (Units=GPa)
#
#
# Indices 1 2 3 4 5 6 
#
# 1 61.7901 49.7239 44.4228 0.0000 0.0000 0.0000
# 2 49.7239 115.4051 65.9763 -0.0001 0.0000 0.0000
# 3 44.4228 65.9763 126.7511 -0.0004 0.0001 0.0000
# 4 0.0000 -0.0001 -0.0004 18.8311 0.0001 0.0000
# 5 0.0000 0.0000 0.0001 0.0001 25.1148 0.0000
# 6 0.0000 0.0000 0.0000 0.0000 0.0000 36.3638
#
#
#
# Elastic Compliance Matrix: (Units=1/GPa)
#
#
# Indices 1 2 3 4 5 6 
#
# 1 0.026672 -0.008753 -0.004792 0.000000 0.000000 0.000000
# 2 -0.008753 0.015208 -0.004849 0.000000 0.000000 0.000000
# 3 -0.004792 -0.004849 0.012093 0.000000 0.000000 0.000000
# 4 0.000000 0.000000 0.000000 0.053104 0.000000 0.000000
# 5 0.000000 0.000000 0.000000 0.000000 0.039817 0.000000
# 6 0.000000 0.000000 0.000000 0.000000 0.000000 0.027500
#
#
# Mechanical properties :
#
#
# Convention : Reuss Voigt Hill
#
# Bulk Modulus (GPa) = 58.18402 69.35470 63.76936
# Shear Modulus (GPa) = 23.05109 25.65017 24.35063
#
# Velocity S-wave (km/s) = 3.47325 3.66383 3.56981
# Velocity P-wave (km/s) = 6.82162 7.36166 7.09678
#
# Compressibility (1/GPa) = 0.01718685
#
# Stress axis : x y z
#
# Youngs Moduli (GPa) = 37.49194 65.75388 82.69412
#
# Poissons Ratio (x) = 0.57552 0.39627
# Poissons Ratio (y) = 0.32815 0.40095
# Poissons Ratio (z) = 0.17966 0.31882
#
# Static dielectric constant tensor:
#      x y z
#    x 3.448620 0.000000 0.000000 
#    y 0.000000 3.356300 0.000000 
#    z 0.000000 0.000000 3.682440 
# 
# 
# High freq. dielectric constant tensor:
#      x y z
#    x 1.745610 0.000000 0.000000 
#    y 0.000000 1.733700 0.000000 
#    z 0.000000 0.000000 1.752410 
# 
# From -- ./inp_files/14429.got.cif
#   From: 2010.03.12/outbox.cif.g09.slc.cpg/sg46_8_cif.got.tgz:14429.got - 2010.04.14 02:56:35.
