data_PCOD8192850
_publ_section_title
;
Structure prediction by ZEFSAII (Michael W. Deem and Ramdas Pophale) SiO2 
 PCOD8192850
Probable space group: I M A 2
;
_chemical_formula_sum "Si O2"
_cell_formula_units_Z 56
_cell_length_a 17.306740
_cell_length_b 5.031823
_cell_length_c 30.653886
_cell_angle_alpha 90.000000
_cell_angle_beta 90.000000
_cell_angle_gamma 90.000000
_cell_volume 2669.476876
_symmetry_space_group_name_H-M "I M A 2"
_symmetry_group_IT_number 46
_symmetry_cell_setting 'orthorhombic'
loop_
_space_group_symop_operation_xyz
x,y,z
-x,-y,z
1/2-x,y,z
1/2+x,-y,z
1/2+x,1/2+y,1/2+z
1/2-x,1/2-y,1/2+z
-x,1/2+y,1/2+z
x,1/2-y,1/2+z
loop_
_atom_site_type_symbol
_atom_site_label
_atom_site_fract_x
_atom_site_fract_y
_atom_site_fract_z
Si Si1 0.663994 0.144010 0.372020
Si Si2 0.053086 0.761643 0.294540
Si Si3 0.408726 0.490572 0.518907
Si Si4 0.162426 0.615877 0.714612
Si Si5 0.591246 0.499427 0.069408
Si Si6 0.835769 0.655440 0.428763
Si Si7 0.835722 0.876961 0.657979
O O1 0.750000 0.073169 0.353867
O O2 0.613026 0.272300 0.333797
O O3 0.670085 0.372614 0.406914
O O4 0.628597 0.881344 0.396251
O O5 0.100521 0.866000 0.252996
O O6 0.000000 0.500000 0.286045
O O7 0.000000 0.000000 0.309903
O O8 0.500000 0.500000 0.521117
O O9 0.374326 0.763992 0.538773
O O10 0.387872 0.401708 0.470446
O O11 0.373727 0.270208 0.550923
O O12 0.250000 0.534534 0.730120
O O13 0.132397 0.398344 0.679049
O O14 0.165696 0.909564 0.696027
O O15 0.500000 0.500000 0.065881
O O16 0.612846 0.492895 0.120149
O O17 0.750000 0.752742 0.442773
O O18 0.750000 0.825092 0.639304
#
# Coordination Sequence:
#
# PCOD8192850 Si02
#       7
#     8   8   8   8   8   8   8
#     4  10  22  41  61  84 118 156 192 237 297 354
#     4  12  25  40  61  92 120 150 198 246 293 350
#     4  10  21  36  54  80 115 153 190 234 294 353
#     4  10  22  41  61  84 118 156 192 237 297 354
#     4  10  21  36  54  80 115 153 190 234 294 353
#     4  10  21  37  60  86 111 149 198 240 285 345
#     4  10  21  37  60  86 111 149 198 240 285 345
#
# _framework density 20.977892000000001
#
# number of rings (size 3 to 8) (size 9 to 14) (size 15 to 20)
#    0.000    1.714    0.000    3.857    0.000    4.571 
#    0.000    5.714    0.000    0.000    0.000    0.000 
#    0.000    0.000    0.000    0.000    0.000    0.000 
#
# Total GULP energy -346987.973292 kJ/mol
# GULP energy per Si atom -12392.427618 kJ/mol
# Density = 2.093015 g / cm^3
# Si number density = 20.977892 Si / 1000 Ang^3
#
#
#
# Elastic Constant Matrix: (Units=GPa)
#
#
# Indices 1 2 3 4 5 6 
#
# 1 44.9744 30.6226 33.2770 0.0000 0.0000 0.0000
# 2 30.6226 121.1871 29.1249 0.0000 0.0000 0.0000
# 3 33.2770 29.1249 97.1258 0.0000 0.0000 0.0000
# 4 0.0000 0.0000 0.0000 40.8418 0.0000 0.0000
# 5 0.0000 0.0000 0.0000 0.0000 18.4245 0.0000
# 6 0.0000 0.0000 0.0000 0.0000 0.0000 21.9168
#
#
#
# Elastic Compliance Matrix: (Units=1/GPa)
#
#
# Indices 1 2 3 4 5 6 
#
# 1 0.033576 -0.006164 -0.009655 0.000000 0.000000 0.000000
# 2 -0.006164 0.010024 -0.000894 0.000000 0.000000 0.000000
# 3 -0.009655 -0.000894 0.013872 0.000000 0.000000 0.000000
# 4 0.000000 0.000000 0.000000 0.024485 0.000000 0.000000
# 5 0.000000 0.000000 0.000000 0.000000 0.054276 0.000000
# 6 0.000000 0.000000 0.000000 0.000000 0.000000 0.045627
#
#
# Mechanical properties :
#
#
# Convention : Reuss Voigt Hill
#
# Bulk Modulus (GPa) = 41.58763 49.92629 45.75696
# Shear Modulus (GPa) = 22.39129 27.58745 24.98937
#
# Velocity S-wave (km/s) = 3.27062 3.63033 3.45516
# Velocity P-wave (km/s) = 5.84210 6.43611 6.14628
#
# Compressibility (1/GPa) = 0.02404561
#
# Stress axis : x y z
#
# Youngs Moduli (GPa) = 29.78338 99.75968 72.08703
#
# Poissons Ratio (x) = 0.61489 0.69602
# Poissons Ratio (y) = 0.18358 0.06445
# Poissons Ratio (z) = 0.28757 0.08919
#
# Static dielectric constant tensor:
#      x y z
#    x 4.024700 0.000000 0.000000 
#    y 0.000000 4.175220 0.000000 
#    z 0.000000 0.000000 3.643980 
# 
# 
# High freq. dielectric constant tensor:
#      x y z
#    x 1.809070 0.000000 0.000000 
#    y 0.000000 1.842350 0.000000 
#    z 0.000000 0.000000 1.818510 
# 
# From -- ./inp_files/25399.got.cif
#   From: 2010.03.12/outbox.cif.g09.slc.cpg/sg46_13_cif.got.tgz:25399.got - 2010.04.14 02:56:35.
