data_PCOD8192747
_publ_section_title
;
Structure prediction by ZEFSAII (Michael W. Deem and Ramdas Pophale) SiO2 
 PCOD8192747
Probable space group: I M A 2
;
_chemical_formula_sum "Si O2"
_cell_formula_units_Z 56
_cell_length_a 18.238305
_cell_length_b 9.668708
_cell_length_c 15.200751
_cell_angle_alpha 90.000000
_cell_angle_beta 90.000000
_cell_angle_gamma 90.000000
_cell_volume 2680.513283
_symmetry_space_group_name_H-M "I M A 2"
_symmetry_group_IT_number 46
_symmetry_cell_setting 'orthorhombic'
loop_
_space_group_symop_operation_xyz
x,y,z
-x,-y,z
1/2-x,y,z
1/2+x,-y,z
1/2+x,1/2+y,1/2+z
1/2-x,1/2-y,1/2+z
-x,1/2+y,1/2+z
x,1/2-y,1/2+z
loop_
_atom_site_type_symbol
_atom_site_label
_atom_site_fract_x
_atom_site_fract_y
_atom_site_fract_z
Si Si1 0.830906 0.383382 0.378000
Si Si2 0.833878 0.458394 0.177301
Si Si3 0.670450 0.999240 0.057929
Si Si4 0.833070 0.732858 0.682759
Si Si5 0.438764 0.774059 0.117161
Si Si6 0.516340 0.165724 0.933028
Si Si7 0.467535 0.150585 0.282879
O O1 0.750000 0.310164 0.386101
O O2 0.841679 0.440498 0.281435
O O3 0.837075 0.504616 0.451940
O O4 0.900691 0.288829 0.401954
O O5 0.750000 0.434433 0.146588
O O6 0.861371 0.613736 0.161347
O O7 0.886437 0.359574 0.121016
O O8 0.750000 0.059846 0.085530
O O9 0.610296 0.089364 0.108097
O O10 0.662769 0.842250 0.088717
O O11 0.750000 0.736233 0.720789
O O12 0.883074 0.647902 0.751804
O O13 0.485319 0.779394 0.205539
O O14 0.492744 0.775471 0.032292
O O15 0.464607 0.250873 0.868132
O O16 0.500000 0.000000 0.927826
O O17 0.500000 0.000000 0.305874
#
# Coordination Sequence:
#
# PCOD8192747 Si02
#       7
#     8   8   8   8   8   8   8
#     4   9  18  35  61  91 120 162 213 258 311 385
#     4  10  20  38  64  95 130 169 219 270 326 392
#     4   9  18  35  61  90 126 170 217 260 315 388
#     4  10  22  40  63  92 129 175 219 265 328 391
#     4  11  22  39  65  95 124 171 213 268 328 384
#     4  11  24  42  64  93 128 169 217 271 330 400
#     4  12  24  43  64  95 133 167 217 276 330 391
#
# _framework density 20.891522999999999
#
# number of rings (size 3 to 8) (size 9 to 14) (size 15 to 20)
#    0.000    1.714    2.857    1.714    2.000    0.571 
#    2.571    0.714    0.000    0.000    0.000    0.000 
#    0.000    0.000    0.000    0.000    0.000    0.000 
#
# Total GULP energy -346936.605246 kJ/mol
# GULP energy per Si atom -12390.593044 kJ/mol
# Density = 2.084397 g / cm^3
# Si number density = 20.891523 Si / 1000 Ang^3
#
#
#
# Elastic Constant Matrix: (Units=GPa)
#
#
# Indices 1 2 3 4 5 6 
#
# 1 75.8501 20.6902 18.7223 0.0000 0.0000 0.0000
# 2 20.6902 102.5761 39.0664 0.0000 0.0000 0.0000
# 3 18.7223 39.0664 103.8818 0.0000 0.0000 0.0000
# 4 0.0000 0.0000 0.0000 26.6596 0.0000 0.0000
# 5 0.0000 0.0000 0.0000 0.0000 22.0366 0.0000
# 6 0.0000 0.0000 0.0000 0.0000 0.0000 27.9136
#
#
#
# Elastic Compliance Matrix: (Units=1/GPa)
#
#
# Indices 1 2 3 4 5 6 
#
# 1 0.014213 -0.002207 -0.001731 0.000000 0.000000 0.000000
# 2 -0.002207 0.011721 -0.004010 0.000000 0.000000 0.000000
# 3 -0.001731 -0.004010 0.011446 0.000000 0.000000 0.000000
# 4 0.000000 0.000000 0.000000 0.037510 0.000000 0.000000
# 5 0.000000 0.000000 0.000000 0.000000 0.045379 0.000000
# 6 0.000000 0.000000 0.000000 0.000000 0.000000 0.035825
#
#
# Mechanical properties :
#
#
# Convention : Reuss Voigt Hill
#
# Bulk Modulus (GPa) = 46.54835 48.80730 47.67783
# Shear Modulus (GPa) = 27.90888 28.91057 28.40972
#
# Velocity S-wave (km/s) = 3.65895 3.72404 3.69164
# Velocity P-wave (km/s) = 6.33877 6.47335 6.40641
#
# Compressibility (1/GPa) = 0.02148304
#
# Stress axis : x y z
#
# Youngs Moduli (GPa) = 70.35594 85.31395 87.36314
#
# Poissons Ratio (x) = 0.18833 0.15127
# Poissons Ratio (y) = 0.15531 0.35034
# Poissons Ratio (z) = 0.12182 0.34212
#
# Static dielectric constant tensor:
#      x y z
#    x 4.302830 0.000000 0.000000 
#    y 0.000000 3.520970 0.000000 
#    z 0.000000 0.000000 3.797420 
# 
# 
# High freq. dielectric constant tensor:
#      x y z
#    x 1.837850 0.000000 0.000000 
#    y 0.000000 1.787340 0.000000 
#    z 0.000000 0.000000 1.813940 
# 
# From -- ./inp_files/17128.got.cif
#   From: 2010.03.12/outbox.cif.g09.slc.cpg/sg46_9_cif.got.tgz:17128.got - 2010.04.14 02:56:35.
