data_PCOD8192871
_publ_section_title
;
Structure prediction by ZEFSAII (Michael W. Deem and Ramdas Pophale) SiO2 
 PCOD8192871
Probable space group: I M A 2
;
_chemical_formula_sum "Si O2"
_cell_formula_units_Z 48
_cell_length_a 14.432722
_cell_length_b 16.935289
_cell_length_c 9.642491
_cell_angle_alpha 90.000000
_cell_angle_beta 90.000000
_cell_angle_gamma 90.000000
_cell_volume 2356.840003
_symmetry_space_group_name_H-M "I M A 2"
_symmetry_group_IT_number 46
_symmetry_cell_setting 'orthorhombic'
loop_
_space_group_symop_operation_xyz
x,y,z
-x,-y,z
1/2-x,y,z
1/2+x,-y,z
1/2+x,1/2+y,1/2+z
1/2-x,1/2-y,1/2+z
-x,1/2+y,1/2+z
x,1/2-y,1/2+z
loop_
_atom_site_type_symbol
_atom_site_label
_atom_site_fract_x
_atom_site_fract_y
_atom_site_fract_z
Si Si1 0.557655 0.569662 0.039010
Si Si2 0.545851 0.623924 0.336971
Si Si3 0.750000 0.545715 0.964600
Si Si4 0.750000 0.014961 0.156387
Si Si5 0.750000 0.621391 0.438789
Si Si6 0.250000 0.209745 0.341872
Si Si7 0.549732 0.423091 0.609498
Si Si8 0.550661 0.803615 0.302727
O O1 0.500000 0.500000 0.967728
O O2 0.516401 0.590535 0.188389
O O3 0.658761 0.529027 0.052997
O O4 0.552482 0.646651 0.943804
O O5 0.654426 0.601995 0.358295
O O6 0.481569 0.582312 0.450342
O O7 0.517743 0.716174 0.340341
O O8 0.750000 0.499143 0.819777
O O9 0.750000 0.639038 0.947615
O O10 0.839529 0.067028 0.116131
O O11 0.750000 0.928750 0.082062
O O12 0.750000 0.716376 0.449280
O O13 0.342788 0.204946 0.245498
O O14 0.500000 0.500000 0.676597
O O15 0.515116 0.344602 0.689363
#
# Coordination Sequence:
#
# PCOD8192871 Si02
#       8
#     8   8   4   4   4   4   8   8
#     4  11  22  38  58  89 123 159 201 250 321 380
#     4  11  23  39  61  95 128 164 204 270 337 382
#     4  10  21  40  56  88 123 161 203 253 308 397
#     4  12  24  40  66  91 123 171 230 268 318 384
#     4  10  21  36  59  91 128 153 201 260 324 396
#     4   8  18  34  57  92 120 155 188 249 322 383
#     4  12  23  40  65  93 123 169 224 271 318 392
#     4  10  21  39  63  89 127 167 210 255 319 396
#
# _framework density 20.366254000000001
#
# number of rings (size 3 to 8) (size 9 to 14) (size 15 to 20)
#    0.000    1.333    1.667    5.500    0.000    0.000 
#    6.000    0.833    0.000    2.000    0.000    0.000 
#    0.000    0.000    0.000    0.000    0.000    0.000 
#
# Total GULP energy -297422.801435 kJ/mol
# GULP energy per Si atom -12392.616726 kJ/mol
# Density = 2.031990 g / cm^3
# Si number density = 20.366254 Si / 1000 Ang^3
#
#
#
# Elastic Constant Matrix: (Units=GPa)
#
#
# Indices 1 2 3 4 5 6 
#
# 1 139.8611 54.5259 34.9512 0.0000 0.0000 0.0000
# 2 54.5259 95.0824 23.6841 0.0000 0.0000 0.0000
# 3 34.9512 23.6841 102.6929 0.0000 0.0000 0.0000
# 4 0.0000 0.0000 0.0000 28.2822 0.0000 0.0000
# 5 0.0000 0.0000 0.0000 0.0000 26.4367 0.0000
# 6 0.0000 0.0000 0.0000 0.0000 0.0000 33.6811
#
#
#
# Elastic Compliance Matrix: (Units=1/GPa)
#
#
# Indices 1 2 3 4 5 6 
#
# 1 0.009627 -0.004991 -0.002125 0.000000 0.000000 0.000000
# 2 -0.004991 0.013746 -0.001471 0.000000 0.000000 0.000000
# 3 -0.002125 -0.001471 0.010800 0.000000 0.000000 0.000000
# 4 0.000000 0.000000 0.000000 0.035358 0.000000 0.000000
# 5 0.000000 0.000000 0.000000 0.000000 0.037826 0.000000
# 6 0.000000 0.000000 0.000000 0.000000 0.000000 0.029690
#
#
# Mechanical properties :
#
#
# Convention : Reuss Voigt Hill
#
# Bulk Modulus (GPa) = 58.83309 62.66209 60.74759
# Shear Modulus (GPa) = 31.27154 32.64501 31.95828
#
# Velocity S-wave (km/s) = 3.92274 4.00796 3.96558
# Velocity P-wave (km/s) = 7.03331 7.22861 7.13163
#
# Compressibility (1/GPa) = 0.01699724
#
# Stress axis : x y z
#
# Youngs Moduli (GPa) = 103.87488 72.74831 92.58831
#
# Poissons Ratio (x) = 0.36311 0.19678
# Poissons Ratio (y) = 0.51847 0.13624
# Poissons Ratio (z) = 0.22077 0.10705
#
# Static dielectric constant tensor:
#      x y z
#    x 4.184300 0.000000 0.000000 
#    y 0.000000 3.744410 0.000000 
#    z 0.000000 0.000000 3.444930 
# 
# 
# High freq. dielectric constant tensor:
#      x y z
#    x 1.788370 0.000000 0.000000 
#    y 0.000000 1.795010 0.000000 
#    z 0.000000 0.000000 1.788720 
# 
# From -- ./inp_files/5757.got.cif
#   From: 2010.03.12/outbox.cif.g09.slc.cpg/sg46_3_cif.got.tgz:5757.got - 2010.04.14 02:56:35.
