data_PCOD8192990
_publ_section_title
;
Structure prediction by ZEFSAII (Michael W. Deem and Ramdas Pophale) SiO2 
 PCOD8192990
Probable space group: I M A 2
;
_chemical_formula_sum "Si O2"
_cell_formula_units_Z 28
_cell_length_a 19.941428
_cell_length_b 11.770602
_cell_length_c 4.767566
_cell_angle_alpha 90.000000
_cell_angle_beta 90.000000
_cell_angle_gamma 90.000000
_cell_volume 1119.055546
_symmetry_space_group_name_H-M "I M A 2"
_symmetry_group_IT_number 46
_symmetry_cell_setting 'orthorhombic'
loop_
_space_group_symop_operation_xyz
x,y,z
-x,-y,z
1/2-x,y,z
1/2+x,-y,z
1/2+x,1/2+y,1/2+z
1/2-x,1/2-y,1/2+z
-x,1/2+y,1/2+z
x,1/2-y,1/2+z
loop_
_atom_site_type_symbol
_atom_site_label
_atom_site_fract_x
_atom_site_fract_y
_atom_site_fract_z
Si Si1 0.750000 0.830749 0.171221
Si Si2 0.750000 0.329683 0.366226
Si Si3 0.073557 0.174115 0.506647
Si Si4 0.644806 0.980639 0.887370
Si Si5 0.500000 0.500000 0.308446
O O1 0.750000 0.783954 0.485074
O O2 0.684456 0.907988 0.118970
O O3 0.750000 0.215831 0.182423
O O4 0.815967 0.404936 0.308586
O O5 0.076199 0.295417 0.677250
O O6 0.136804 0.095775 0.603238
O O7 0.005442 0.109775 0.600325
O O8 0.568465 0.011626 0.995137
#
# Coordination Sequence:
#
# PCOD8192990 Si02
#       5
#     4   4   8   8   4
#     4  11  22  39  66  94 126 163 208 267 318 372
#     4  11  26  45  66  92 132 177 210 259 324 384
#     4  10  21  39  61  90 125 162 203 258 316 361
#     4   9  22  43  63  98 126 164 221 259 314 390
#     4   8  22  42  60 102 126 168 212 270 312 394
#
# _framework density 25.021101000000002
#
# number of rings (size 3 to 8) (size 9 to 14) (size 15 to 20)
#    1.714    0.571    0.000    1.714    0.000   10.286 
#    0.000    0.000    0.000    0.000    0.000    0.000 
#    0.000    0.000    0.000    0.000    0.000    0.000 
#
# Total GULP energy -173435.408347 kJ/mol
# GULP energy per Si atom -12388.243453 kJ/mol
# Density = 2.496415 g / cm^3
# Si number density = 25.021101 Si / 1000 Ang^3
#
#
#
# Elastic Constant Matrix: (Units=GPa)
#
#
# Indices 1 2 3 4 5 6 
#
# 1 208.1937 53.4587 8.7521 0.0000 0.0000 0.0000
# 2 53.4587 117.0372 -0.3646 0.0000 0.0000 0.0000
# 3 8.7521 -0.3646 50.4589 0.0000 0.0000 0.0000
# 4 0.0000 0.0000 0.0000 6.0977 0.0000 0.0000
# 5 0.0000 0.0000 0.0000 0.0000 17.0231 0.0000
# 6 0.0000 0.0000 0.0000 0.0000 0.0000 64.5671
#
#
#
# Elastic Compliance Matrix: (Units=1/GPa)
#
#
# Indices 1 2 3 4 5 6 
#
# 1 0.005489 -0.002510 -0.000970 0.000000 0.000000 0.000000
# 2 -0.002510 0.009692 0.000505 0.000000 0.000000 0.000000
# 3 -0.000970 0.000505 0.019990 0.000000 0.000000 0.000000
# 4 0.000000 0.000000 0.000000 0.163995 0.000000 0.000000
# 5 0.000000 0.000000 0.000000 0.000000 0.058744 0.000000
# 6 0.000000 0.000000 0.000000 0.000000 0.000000 0.015488
#
#
# Mechanical properties :
#
#
# Convention : Reuss Voigt Hill
#
# Bulk Modulus (GPa) = 34.22145 55.48692 44.85419
# Shear Modulus (GPa) = 17.29582 38.46049 27.87815
#
# Velocity S-wave (km/s) = 2.63201 3.92487 3.34156
# Velocity P-wave (km/s) = 4.78993 6.53939 5.73180
#
# Compressibility (1/GPa) = 0.02922144
#
# Stress axis : x y z
#
# Youngs Moduli (GPa) = 182.19909 103.17417 50.02494
#
# Poissons Ratio (x) = 0.25897 0.04853
# Poissons Ratio (y) = 0.45732 -0.02528
# Poissons Ratio (z) = 0.17676 -0.05214
#
# Static dielectric constant tensor:
#      x y z
#    x 4.633630 0.000000 0.000000 
#    y 0.000000 4.503130 0.000000 
#    z 0.000000 0.000000 3.858640 
# 
# 
# High freq. dielectric constant tensor:
#      x y z
#    x 1.997630 0.000000 0.000000 
#    y 0.000000 2.000840 0.000000 
#    z 0.000000 0.000000 1.975770 
# 
# From -- ./inp_files/2253.got.cif
#   From: 2010.03.12/outbox.cif.g09.slc.cpg/sg46_2_cif.got.tgz:2253.got - 2010.04.14 02:56:35.
