data_PCOD8192463
_publ_section_title
;
Structure prediction by ZEFSAII (Michael W. Deem and Ramdas Pophale) SiO2 
 PCOD8192463
Probable space group: I M A 2
;
_chemical_formula_sum "Si O2"
_cell_formula_units_Z 64
_cell_length_a 8.522805
_cell_length_b 20.255954
_cell_length_c 19.790308
_cell_angle_alpha 90.000000
_cell_angle_beta 90.000000
_cell_angle_gamma 90.000000
_cell_volume 3416.550208
_symmetry_space_group_name_H-M "I M A 2"
_symmetry_group_IT_number 46
_symmetry_cell_setting 'orthorhombic'
loop_
_space_group_symop_operation_xyz
x,y,z
-x,-y,z
1/2-x,y,z
1/2+x,-y,z
1/2+x,1/2+y,1/2+z
1/2-x,1/2-y,1/2+z
-x,1/2+y,1/2+z
x,1/2-y,1/2+z
loop_
_atom_site_type_symbol
_atom_site_label
_atom_site_fract_x
_atom_site_fract_y
_atom_site_fract_z
Si Si1 0.933462 0.677798 0.627350
Si Si2 0.065014 0.930479 0.873308
Si Si3 0.432949 0.069911 0.374568
Si Si4 0.563790 0.317973 0.121912
Si Si5 0.066255 0.827677 0.272496
Si Si6 0.064179 0.570549 0.528179
Si Si7 0.064998 0.571128 0.018965
Si Si8 0.564813 0.179388 0.773698
O O1 0.750000 0.674789 0.643669
O O2 0.980599 0.750083 0.600591
O O3 0.030583 0.658896 0.694168
O O4 0.976713 0.626497 0.569571
O O5 0.250000 0.932312 0.865964
O O6 0.990885 0.872529 0.826674
O O7 0.015373 0.917668 0.950427
O O8 0.000000 0.000000 0.846831
O O9 0.250000 0.061900 0.387182
O O10 0.465470 0.123402 0.317634
O O11 0.511075 0.092509 0.444563
O O12 0.500000 0.000000 0.349698
O O13 0.750000 0.307083 0.117374
O O14 0.502921 0.374817 0.071948
O O15 0.511508 0.338340 0.197613
O O16 0.250000 0.839038 0.285765
O O17 0.011541 0.753647 0.292014
O O18 0.250000 0.574297 0.539162
O O19 0.000000 0.500000 0.553006
O O20 0.250000 0.567578 0.020630
O O21 0.000000 0.500000 0.040207
O O22 0.750000 0.175817 0.778420
#
# Coordination Sequence:
#
# PCOD8192463 Si02
#       8
#     8   8   8   8   8   8   8   8
#     4  11  22  36  55  80 108 138 176 223 272 319
#     4   9  18  33  53  77 105 137 173 213 257 306
#     4  11  22  37  56  80 109 140 177 220 267 319
#     4   9  19  36  56  77 106 145 184 220 264 320
#     4  10  20  37  58  79 106 140 177 217 263 318
#     4  10  20  35  54  77 106 140 177 217 263 317
#     4  10  20  35  55  79 108 143 182 223 270 321
#     4   8  16  33  55  77 103 137 175 213 255 308
#
# _framework density 18.732344999999999
#
# number of rings (size 3 to 8) (size 9 to 14) (size 15 to 20)
#    0.000    2.250    0.000    4.875    0.000    3.500 
#    0.000    8.125    0.000    0.000    0.000    0.000 
#    0.000    0.000    0.000    0.000    0.000    0.000 
#
# Total GULP energy -396851.785076 kJ/mol
# GULP energy per Si atom -12401.618284 kJ/mol
# Density = 1.868971 g / cm^3
# Si number density = 18.732345 Si / 1000 Ang^3
#
#
#
# Elastic Constant Matrix: (Units=GPa)
#
#
# Indices 1 2 3 4 5 6 
#
# 1 46.5335 24.4534 12.4760 0.0000 0.0000 0.0000
# 2 24.4534 145.3087 90.5686 0.0000 0.0000 0.0000
# 3 12.4760 90.5686 95.1478 -0.0001 0.0000 0.0000
# 4 0.0000 0.0000 -0.0001 42.4546 0.0000 0.0000
# 5 0.0000 0.0000 0.0000 0.0000 22.8057 0.0000
# 6 0.0000 0.0000 0.0000 0.0000 0.0000 30.9245
#
#
#
# Elastic Compliance Matrix: (Units=1/GPa)
#
#
# Indices 1 2 3 4 5 6 
#
# 1 0.023685 -0.005041 0.001693 0.000000 0.000000 0.000000
# 2 -0.005041 0.017994 -0.016467 0.000000 0.000000 0.000000
# 3 0.001693 -0.016467 0.025962 0.000000 0.000000 0.000000
# 4 0.000000 0.000000 0.000000 0.023555 0.000000 0.000000
# 5 0.000000 0.000000 0.000000 0.000000 0.043849 0.000000
# 6 0.000000 0.000000 0.000000 0.000000 0.000000 0.032337
#
#
# Mechanical properties :
#
#
# Convention : Reuss Voigt Hill
#
# Bulk Modulus (GPa) = 35.70019 60.22067 47.96043
# Shear Modulus (GPa) = 23.11091 29.86975 26.49033
#
# Velocity S-wave (km/s) = 3.51628 3.99752 3.76460
# Velocity P-wave (km/s) = 5.96532 7.31605 6.67494
#
# Compressibility (1/GPa) = 0.02801105
#
# Stress axis : x y z
#
# Youngs Moduli (GPa) = 42.22072 55.57517 38.51744
#
# Poissons Ratio (x) = 0.28014 -0.06519
# Poissons Ratio (y) = 0.21283 0.63426
# Poissons Ratio (z) = -0.07146 0.91514
#
# Static dielectric constant tensor:
#      x y z
#    x 3.339630 0.000000 0.000000 
#    y 0.000000 3.716500 0.000000 
#    z 0.000000 0.000000 3.561460 
# 
# 
# High freq. dielectric constant tensor:
#      x y z
#    x 1.722650 0.000000 0.000000 
#    y 0.000000 1.734360 0.000000 
#    z 0.000000 0.000000 1.726830 
# 
# From -- ./inp_files/21321.got.cif
#   From: 2010.03.12/outbox.cif.g09.slc.cpg/sg46_11_cif.got.tgz:21321.got - 2010.04.14 02:56:35.
