data_PCOD8192502
_publ_section_title
;
Structure prediction by ZEFSAII (Michael W. Deem and Ramdas Pophale) SiO2 
 PCOD8192502
Probable space group: I M A 2
;
_chemical_formula_sum "Si O2"
_cell_formula_units_Z 64
_cell_length_a 16.768569
_cell_length_b 19.608053
_cell_length_c 9.607407
_cell_angle_alpha 90.000000
_cell_angle_beta 90.000000
_cell_angle_gamma 90.000000
_cell_volume 3158.905715
_symmetry_space_group_name_H-M "I M A 2"
_symmetry_group_IT_number 46
_symmetry_cell_setting 'orthorhombic'
loop_
_space_group_symop_operation_xyz
x,y,z
-x,-y,z
1/2-x,y,z
1/2+x,-y,z
1/2+x,1/2+y,1/2+z
1/2-x,1/2-y,1/2+z
-x,1/2+y,1/2+z
x,1/2-y,1/2+z
loop_
_atom_site_type_symbol
_atom_site_label
_atom_site_fract_x
_atom_site_fract_y
_atom_site_fract_z
Si Si1 0.842902 0.065347 0.743510
Si Si2 0.091536 0.204373 0.211926
Si Si3 0.659007 0.561385 0.713291
Si Si4 0.080293 0.693705 0.603059
Si Si5 0.158639 0.309380 0.009997
Si Si6 0.081458 0.960254 0.030879
Si Si7 0.659418 0.215670 0.814686
Si Si8 0.156961 0.461850 0.015755
O O1 0.750000 0.047856 0.773050
O O2 0.854067 0.146582 0.723682
O O3 0.878612 0.021665 0.614032
O O4 0.898675 0.043619 0.870003
O O5 0.111434 0.127976 0.162871
O O6 0.149741 0.257427 0.136419
O O7 0.102885 0.211179 0.378562
O O8 0.003244 0.223369 0.159098
O O9 0.750000 0.583723 0.735280
O O10 0.652821 0.502873 0.599452
O O11 0.623162 0.532464 0.858759
O O12 0.079268 0.612311 0.606396
O O13 0.145725 0.720821 0.712311
O O14 0.100587 0.719426 0.447438
O O15 0.250000 0.309128 0.957322
O O16 0.136853 0.385035 0.068263
O O17 0.000000 0.000000 0.057442
O O18 0.750000 0.217993 0.871152
O O19 0.250000 0.476078 0.014550
#
# Coordination Sequence:
#
# PCOD8192502 Si02
#       8
#     8   8   8   8   8   8   8   8
#     4   9  19  38  61  85 117 155 199 251 304 362
#     4  11  21  37  57  83 122 161 199 252 311 363
#     4  10  20  36  60  86 116 156 201 250 305 367
#     4  11  23  41  62  87 125 160 199 257 316 366
#     4  10  20  35  56  85 120 159 207 250 296 363
#     4  11  22  39  58  85 123 157 201 248 306 371
#     4  10  22  40  64  91 120 159 209 256 305 370
#     4   8  17  35  56  84 115 147 192 246 296 352
#
# _framework density 20.260179999999998
#
# number of rings (size 3 to 8) (size 9 to 14) (size 15 to 20)
#    0.000    2.000    1.250    3.375    0.000    3.500 
#    4.500    4.375    0.000    0.000    0.000    0.000 
#    0.000    0.000    0.000    0.000    0.000    0.000 
#
# Total GULP energy -396715.382553 kJ/mol
# GULP energy per Si atom -12397.355705 kJ/mol
# Density = 2.021407 g / cm^3
# Si number density = 20.260180 Si / 1000 Ang^3
#
#
#
# Elastic Constant Matrix: (Units=GPa)
#
#
# Indices 1 2 3 4 5 6 
#
# 1 64.1296 31.3400 32.3233 0.0000 0.0000 0.0000
# 2 31.3400 97.6114 51.1951 0.0000 0.0000 0.0000
# 3 32.3233 51.1951 63.2632 0.0000 0.0000 0.0000
# 4 0.0000 0.0000 0.0000 46.7574 0.0000 0.0000
# 5 0.0000 0.0000 0.0000 0.0000 27.5498 0.0000
# 6 0.0000 0.0000 0.0000 0.0000 0.0000 27.4314
#
#
#
# Elastic Compliance Matrix: (Units=1/GPa)
#
#
# Indices 1 2 3 4 5 6 
#
# 1 0.021215 -0.001957 -0.009256 0.000000 0.000000 0.000000
# 2 -0.001957 0.017980 -0.013550 0.000000 0.000000 0.000000
# 3 -0.009256 -0.013550 0.031501 0.000000 0.000000 0.000000
# 4 0.000000 0.000000 0.000000 0.021387 0.000000 0.000000
# 5 0.000000 0.000000 0.000000 0.000000 0.036298 0.000000
# 6 0.000000 0.000000 0.000000 0.000000 0.000000 0.036455
#
#
# Mechanical properties :
#
#
# Convention : Reuss Voigt Hill
#
# Bulk Modulus (GPa) = 47.23573 50.52456 48.88015
# Shear Modulus (GPa) = 22.58173 27.69078 25.13625
#
# Velocity S-wave (km/s) = 3.34216 3.70098 3.52614
# Velocity P-wave (km/s) = 6.18535 6.57685 6.38411
#
# Compressibility (1/GPa) = 0.02117041
#
# Stress axis : x y z
#
# Youngs Moduli (GPa) = 47.13639 55.61811 31.74470
#
# Poissons Ratio (x) = 0.10885 0.29382
# Poissons Ratio (y) = 0.09225 0.43014
# Poissons Ratio (z) = 0.43628 0.75363
#
# Static dielectric constant tensor:
#      x y z
#    x 3.461940 0.000000 0.000000 
#    y 0.000000 3.748150 0.000000 
#    z 0.000000 0.000000 3.601910 
# 
# 
# High freq. dielectric constant tensor:
#      x y z
#    x 1.779640 0.000000 0.000000 
#    y 0.000000 1.796720 0.000000 
#    z 0.000000 0.000000 1.786410 
# 
# From -- ./inp_files/6967.got.cif
#   From: 2010.03.12/outbox.cif.g09.slc.cpg/sg46_4_cif.got.tgz:6967.got - 2010.04.14 02:56:35.
