data_PCOD8192838
_publ_section_title
;
Structure prediction by ZEFSAII (Michael W. Deem and Ramdas Pophale) SiO2 
 PCOD8192838
Probable space group: I M A 2
;
_chemical_formula_sum "Si O2"
_cell_formula_units_Z 56
_cell_length_a 15.198216
_cell_length_b 5.060193
_cell_length_c 34.834359
_cell_angle_alpha 90.000000
_cell_angle_beta 90.000000
_cell_angle_gamma 90.000000
_cell_volume 2678.967946
_symmetry_space_group_name_H-M "I M A 2"
_symmetry_group_IT_number 46
_symmetry_cell_setting 'orthorhombic'
loop_
_space_group_symop_operation_xyz
x,y,z
-x,-y,z
1/2-x,y,z
1/2+x,-y,z
1/2+x,1/2+y,1/2+z
1/2-x,1/2-y,1/2+z
-x,1/2+y,1/2+z
x,1/2-y,1/2+z
loop_
_atom_site_type_symbol
_atom_site_label
_atom_site_fract_x
_atom_site_fract_y
_atom_site_fract_z
Si Si1 0.848990 0.657227 0.766230
Si Si2 0.942416 0.752670 0.843178
Si Si3 0.147190 0.827619 0.051452
Si Si4 0.000000 0.500000 0.610198
Si Si5 0.348990 0.342772 0.003534
Si Si6 0.500000 0.000000 0.659566
Si Si7 0.442416 0.252670 0.426586
Si Si8 0.647190 0.327620 0.218312
O O1 0.750000 0.559801 0.766149
O O2 0.874786 0.669244 0.810516
O O3 0.893954 0.433037 0.739263
O O4 0.863385 0.943579 0.749198
O O5 0.897655 0.822657 0.884882
O O6 0.000000 0.500000 0.850480
O O7 0.000000 0.000000 0.828749
O O8 0.250000 0.798544 0.064948
O O9 0.106047 0.566960 0.030501
O O10 0.085038 0.898597 0.086962
O O11 0.136615 0.056418 0.020566
O O12 0.966755 0.750000 0.634882
O O13 0.250000 0.440197 0.003615
O O14 0.374786 0.330757 0.959248
O O15 0.414962 0.898596 0.682802
O O16 0.500000 0.500000 0.441015
O O17 0.500000 0.000000 0.419285
O O18 0.750000 0.298544 0.204816
#
# Coordination Sequence:
#
# PCOD8192838 Si02
#       8
#     8   8   8   4   8   4   8   8
#     4  10  21  38  60  87 117 159 205 244 297 351
#     4  10  21  35  54  86 122 159 200 246 298 344
#     4  10  23  41  62  91 122 155 200 251 298 357
#     4  12  26  42  64  94 119 156 201 238 312 384
#     4  10  21  38  60  87 117 159 205 244 297 351
#     4  12  26  42  64  94 119 156 201 238 312 384
#     4  10  21  35  54  86 122 159 200 246 298 344
#     4  10  23  41  62  91 122 155 200 251 298 357
#
# _framework density 20.903572
#
# number of rings (size 3 to 8) (size 9 to 14) (size 15 to 20)
#    0.000    1.714    0.000    3.429    6.000    1.714 
#    0.000    0.000    0.000   10.286    0.000    0.000 
#    0.000    0.000    0.000    0.000    0.000    0.000 
#
# Total GULP energy -346962.540598 kJ/mol
# GULP energy per Si atom -12391.519307 kJ/mol
# Density = 2.085599 g / cm^3
# Si number density = 20.903572 Si / 1000 Ang^3
#
#
#
# Elastic Constant Matrix: (Units=GPa)
#
#
# Indices 1 2 3 4 5 6 
#
# 1 50.7681 28.6546 50.5437 0.0000 0.0000 0.0000
# 2 28.6546 104.1484 25.9658 0.0000 0.0000 0.0000
# 3 50.5437 25.9658 128.5535 0.0000 0.0000 0.0000
# 4 0.0000 0.0000 0.0000 35.8145 0.0000 0.0000
# 5 0.0000 0.0000 0.0000 0.0000 22.1585 0.0000
# 6 0.0000 0.0000 0.0000 0.0000 0.0000 19.9608
#
#
#
# Elastic Compliance Matrix: (Units=1/GPa)
#
#
# Indices 1 2 3 4 5 6 
#
# 1 0.036422 -0.006793 -0.012948 0.000000 0.000000 0.000000
# 2 -0.006793 0.011378 0.000373 0.000000 0.000000 0.000000
# 3 -0.012948 0.000373 0.012795 0.000000 0.000000 0.000000
# 4 0.000000 0.000000 0.000000 0.027922 0.000000 0.000000
# 5 0.000000 0.000000 0.000000 0.000000 0.045129 0.000000
# 6 0.000000 0.000000 0.000000 0.000000 0.000000 0.050098
#
#
# Mechanical properties :
#
#
# Convention : Reuss Voigt Hill
#
# Bulk Modulus (GPa) = 45.75031 54.86647 50.30839
# Shear Modulus (GPa) = 21.76119 27.47380 24.61749
#
# Velocity S-wave (km/s) = 3.23000 3.62928 3.43544
# Velocity P-wave (km/s) = 5.98702 6.62319 6.31312
#
# Compressibility (1/GPa) = 0.02185778
#
# Stress axis : x y z
#
# Youngs Moduli (GPa) = 27.45556 87.89116 78.15850
#
# Poissons Ratio (x) = 0.59703 1.01202
# Poissons Ratio (y) = 0.18650 -0.02912
# Poissons Ratio (z) = 0.35550 -0.03275
#
# Static dielectric constant tensor:
#      x y z
#    x 3.663610 0.000000 0.000000 
#    y 0.000000 4.128300 0.000000 
#    z 0.000000 0.000000 4.097870 
# 
# 
# High freq. dielectric constant tensor:
#      x y z
#    x 1.793440 0.000000 0.000000 
#    y 0.000000 1.845740 0.000000 
#    z 0.000000 0.000000 1.828830 
# 
# From -- ./inp_files/25452.got.cif
#   From: 2010.03.12/outbox.cif.g09.slc.cpg/sg46_13_cif.got.tgz:25452.got - 2010.04.14 02:56:35.
