data_PCOD8192917
_publ_section_title
;
Structure prediction by ZEFSAII (Michael W. Deem and Ramdas Pophale) SiO2 
 PCOD8192917
Probable space group: I M A 2
;
_chemical_formula_sum "Si O2"
_cell_formula_units_Z 48
_cell_length_a 18.463051
_cell_length_b 5.452345
_cell_length_c 20.323015
_cell_angle_alpha 90.000000
_cell_angle_beta 90.000000
_cell_angle_gamma 90.000000
_cell_volume 2045.855402
_symmetry_space_group_name_H-M "I M A 2"
_symmetry_group_IT_number 46
_symmetry_cell_setting 'orthorhombic'
loop_
_space_group_symop_operation_xyz
x,y,z
-x,-y,z
1/2-x,y,z
1/2+x,-y,z
1/2+x,1/2+y,1/2+z
1/2-x,1/2-y,1/2+z
-x,1/2+y,1/2+z
x,1/2-y,1/2+z
loop_
_atom_site_type_symbol
_atom_site_label
_atom_site_fract_x
_atom_site_fract_y
_atom_site_fract_z
Si Si1 0.171048 0.781588 0.286110
Si Si2 0.574426 0.931298 0.719570
Si Si3 0.430314 0.342852 0.850324
Si Si4 0.833844 0.264718 0.040579
Si Si5 0.329755 0.007373 0.915190
Si Si6 0.663701 0.763185 0.108754
O O1 0.250000 0.854429 0.257711
O O2 0.122553 0.677652 0.226856
O O3 0.179705 0.569954 0.340191
O O4 0.136599 0.008878 0.321998
O O5 0.546180 0.830742 0.790113
O O6 0.500000 0.000000 0.681292
O O7 0.623017 0.737641 0.679200
O O8 0.500000 0.500000 0.873441
O O9 0.396634 0.201365 0.914122
O O10 0.750000 0.285450 0.054996
O O11 0.862759 0.014371 0.074697
O O12 0.865813 0.523148 0.067593
O O13 0.850339 0.222736 0.962605
O O14 0.250000 0.114791 0.939157
O O15 0.750000 0.756086 0.119035
#
# Coordination Sequence:
#
# PCOD8192917 Si02
#       6
#     8   8   8   8   8   8
#     4  10  21  37  62  92 120 156 207 256 308 379
#     4  11  23  40  59  85 127 167 204 259 322 385
#     4  11  22  37  61  90 124 168 204 258 327 388
#     4   9  20  39  63  92 123 161 211 267 318 367
#     4   9  20  37  61  91 124 161 207 262 320 383
#     4  10  22  39  64  92 122 164 216 266 311 371
#
# _framework density 23.462067000000001
#
# number of rings (size 3 to 8) (size 9 to 14) (size 15 to 20)
#    0.000    2.000    1.667    1.000    4.667    2.000 
#    0.000    0.833    3.667    0.000    0.000    0.000 
#    0.000    0.000    0.000    0.000    0.000    0.000 
#
# Total GULP energy -297363.058891 kJ/mol
# GULP energy per Si atom -12390.127454 kJ/mol
# Density = 2.340867 g / cm^3
# Si number density = 23.462067 Si / 1000 Ang^3
#
#
#
# Elastic Constant Matrix: (Units=GPa)
#
#
# Indices 1 2 3 4 5 6 
#
# 1 115.1738 16.5552 4.3703 0.0000 0.0000 0.0000
# 2 16.5552 91.8625 -2.1581 0.0000 0.0000 0.0000
# 3 4.3703 -2.1581 48.3118 0.0000 0.0000 0.0000
# 4 0.0000 0.0000 0.0000 24.4930 0.0000 0.0000
# 5 0.0000 0.0000 0.0000 0.0000 9.1492 0.0000
# 6 0.0000 0.0000 0.0000 0.0000 0.0000 25.9865
#
#
#
# Elastic Compliance Matrix: (Units=1/GPa)
#
#
# Indices 1 2 3 4 5 6 
#
# 1 0.008951 -0.001634 -0.000883 0.000000 0.000000 0.000000
# 2 -0.001634 0.011196 0.000648 0.000000 0.000000 0.000000
# 3 -0.000883 0.000648 0.020808 0.000000 0.000000 0.000000
# 4 0.000000 0.000000 0.000000 0.040828 0.000000 0.000000
# 5 0.000000 0.000000 0.000000 0.000000 0.109299 0.000000
# 6 0.000000 0.000000 0.000000 0.000000 0.000000 0.038481
#
#
# Mechanical properties :
#
#
# Convention : Reuss Voigt Hill
#
# Bulk Modulus (GPa) = 26.86959 32.54256 29.70608
# Shear Modulus (GPa) = 20.34958 27.69780 24.02369
#
# Velocity S-wave (km/s) = 2.94826 3.43962 3.20337
# Velocity P-wave (km/s) = 4.80280 5.44748 5.13526
#
# Compressibility (1/GPa) = 0.03721679
#
# Stress axis : x y z
#
# Youngs Moduli (GPa) = 111.72098 89.32155 48.05920
#
# Poissons Ratio (x) = 0.14594 0.04242
# Poissons Ratio (y) = 0.18253 -0.03114
# Poissons Ratio (z) = 0.09861 -0.05787
#
# Static dielectric constant tensor:
#      x y z
#    x 4.174900 0.000000 0.000000 
#    y 0.000000 4.353570 0.000000 
#    z 0.000000 0.000000 4.129810 
# 
# 
# High freq. dielectric constant tensor:
#      x y z
#    x 1.912710 0.000000 0.000000 
#    y 0.000000 1.929410 0.000000 
#    z 0.000000 0.000000 1.905410 
# 
# From -- ./inp_files/22346.got.cif
#   From: 2010.03.12/outbox.cif.g09.slc.cpg/sg46_12_cif.got.tgz:22346.got - 2010.04.14 02:56:35.
