data_PCOD8192977
_publ_section_title
;
Structure prediction by ZEFSAII (Michael W. Deem and Ramdas Pophale) SiO2 
 PCOD8192977
Probable space group: I M A 2
;
_chemical_formula_sum "Si O2"
_cell_formula_units_Z 64
_cell_length_a 15.172524
_cell_length_b 23.667158
_cell_length_c 9.145881
_cell_angle_alpha 90.000000
_cell_angle_beta 90.000000
_cell_angle_gamma 90.000000
_cell_volume 3284.199189
_symmetry_space_group_name_H-M "I M A 2"
_symmetry_group_IT_number 46
_symmetry_cell_setting 'orthorhombic'
loop_
_space_group_symop_operation_xyz
x,y,z
-x,-y,z
1/2-x,y,z
1/2+x,-y,z
1/2+x,1/2+y,1/2+z
1/2-x,1/2-y,1/2+z
-x,1/2+y,1/2+z
x,1/2-y,1/2+z
loop_
_atom_site_type_symbol
_atom_site_label
_atom_site_fract_x
_atom_site_fract_y
_atom_site_fract_z
Si Si1 0.004502 0.309180 0.818680
Si Si2 0.648310 0.130993 0.813385
Si Si3 0.149029 0.101248 0.976042
Si Si4 0.346821 0.395915 0.812914
Si Si5 0.350057 0.870000 0.473425
Si Si6 0.851827 0.495068 0.286307
Si Si7 0.005937 0.192076 0.971071
Si Si8 0.097847 0.504279 0.968068
O O1 0.028521 0.251104 0.896728
O O2 0.002363 0.300824 0.645087
O O3 0.079444 0.353030 0.871487
O O4 0.909979 0.331064 0.871710
O O5 0.750000 0.147156 0.843174
O O6 0.624569 0.139471 0.642750
O O7 0.629283 0.066021 0.857971
O O8 0.588210 0.170461 0.913656
O O9 0.250000 0.118129 0.938776
O O10 0.084491 0.150522 0.921060
O O11 0.121336 0.042932 0.900268
O O12 0.134428 0.089697 0.145478
O O13 0.250000 0.367831 0.831333
O O14 0.344847 0.454448 0.899720
O O15 0.250000 0.851422 0.444227
O O16 0.360117 0.935459 0.428526
O O17 0.750000 0.497856 0.238536
O O18 0.908474 0.504728 0.141641
O O19 0.000000 0.500000 0.901855
#
# Coordination Sequence:
#
# PCOD8192977 Si02
#       8
#     8   8   8   8   8   8   8   8
#     4  11  24  41  57  86 108 150 197 238 291 337
#     4   9  20  38  59  85 116 153 189 231 283 336
#     4   9  21  39  59  85 117 153 189 232 285 339
#     4  10  21  40  60  83 119 153 187 233 283 341
#     4  10  21  39  60  84 119 153 189 233 280 337
#     4   9  19  35  56  88 120 152 191 226 279 341
#     4  11  24  39  61  81 115 146 195 245 284 339
#     4  11  20  33  58  91 121 149 187 229 280 340
#
# _framework density 19.487245999999999
#
# number of rings (size 3 to 8) (size 9 to 14) (size 15 to 20)
#    0.000    2.000    1.250    2.625    3.500    3.500 
#    0.000    1.250    0.000    0.000    0.000    0.000 
#    0.000    0.000    0.000    0.000    0.000    0.000 
#
# Total GULP energy -396879.462597 kJ/mol
# GULP energy per Si atom -12402.483206 kJ/mol
# Density = 1.944289 g / cm^3
# Si number density = 19.487246 Si / 1000 Ang^3
#
#
#
# Elastic Constant Matrix: (Units=GPa)
#
#
# Indices 1 2 3 4 5 6 
#
# 1 79.0902 17.3257 19.9118 0.0003 0.0002 0.0000
# 2 17.3257 85.4123 28.1048 0.0000 0.0000 0.0000
# 3 19.9118 28.1048 49.8403 0.0003 -0.0003 0.0003
# 4 0.0003 0.0000 0.0003 35.4598 -0.0002 0.0001
# 5 0.0002 0.0000 -0.0003 -0.0002 26.7944 0.0001
# 6 0.0000 0.0000 0.0003 0.0001 0.0001 21.7493
#
#
#
# Elastic Compliance Matrix: (Units=1/GPa)
#
#
# Indices 1 2 3 4 5 6 
#
# 1 0.014164 -0.001242 -0.004959 0.000000 0.000000 0.000000
# 2 -0.001242 0.014484 -0.007671 0.000000 0.000000 0.000000
# 3 -0.004959 -0.007671 0.026371 0.000000 0.000000 0.000000
# 4 0.000000 0.000000 0.000000 0.028201 0.000000 0.000000
# 5 0.000000 0.000000 0.000000 0.000000 0.037321 0.000000
# 6 0.000000 0.000000 0.000000 0.000000 0.000000 0.045979
#
#
# Mechanical properties :
#
#
# Convention : Reuss Voigt Hill
#
# Bulk Modulus (GPa) = 36.66242 38.33637 37.49939
# Shear Modulus (GPa) = 24.58751 26.73407 25.66079
#
# Velocity S-wave (km/s) = 3.55593 3.70790 3.63271
# Velocity P-wave (km/s) = 5.97611 6.16819 6.07291
#
# Compressibility (1/GPa) = 0.02727589
#
# Stress axis : x y z
#
# Youngs Moduli (GPa) = 70.60069 69.04151 37.92037
#
# Poissons Ratio (x) = 0.08572 0.18803
# Poissons Ratio (y) = 0.08765 0.29091
# Poissons Ratio (z) = 0.35009 0.52965
#
# Static dielectric constant tensor:
#      x y z
#    x 3.628010 0.000000 0.000000 
#    y 0.000000 3.541270 0.000000 
#    z 0.000000 0.000000 3.405420 
# 
# 
# High freq. dielectric constant tensor:
#      x y z
#    x 1.770900 0.000000 0.000000 
#    y 0.000000 1.755990 0.000000 
#    z 0.000000 0.000000 1.749240 
# 
# From -- ./inp_files/6062.got.cif
#   From: 2010.03.12/outbox.cif.g09.slc.cpg/sg46_4_cif.got.tgz:6062.got - 2010.04.14 02:56:35.
