data_PCOD8192724
_publ_section_title
;
Structure prediction by ZEFSAII (Michael W. Deem and Ramdas Pophale) SiO2 
 PCOD8192724
Probable space group: I M A 2
;
_chemical_formula_sum "Si O2"
_cell_formula_units_Z 48
_cell_length_a 8.509160
_cell_length_b 9.135430
_cell_length_c 30.225309
_cell_angle_alpha 90.000000
_cell_angle_beta 90.000000
_cell_angle_gamma 90.000000
_cell_volume 2349.559424
_symmetry_space_group_name_H-M "I M A 2"
_symmetry_group_IT_number 46
_symmetry_cell_setting 'orthorhombic'
loop_
_space_group_symop_operation_xyz
x,y,z
-x,-y,z
1/2-x,y,z
1/2+x,-y,z
1/2+x,1/2+y,1/2+z
1/2-x,1/2-y,1/2+z
-x,1/2+y,1/2+z
x,1/2-y,1/2+z
loop_
_atom_site_type_symbol
_atom_site_label
_atom_site_fract_x
_atom_site_fract_y
_atom_site_fract_z
Si Si1 0.564796 0.838173 0.958050
Si Si2 0.433581 0.652183 0.295227
Si Si3 0.065163 0.660277 0.039116
Si Si4 0.063774 0.656424 0.195974
Si Si5 0.935878 0.338580 0.877589
Si Si6 0.434831 0.159355 0.119277
O O1 0.750000 0.837119 0.967577
O O2 0.528113 0.760414 0.912094
O O3 0.500000 0.000000 0.954839
O O4 0.474127 0.759030 0.997315
O O5 0.500000 0.500000 0.313873
O O6 0.250000 0.631774 0.292428
O O7 0.498055 0.686191 0.245970
O O8 0.479547 0.782174 0.328497
O O9 0.250000 0.653759 0.046588
O O10 0.000000 0.500000 0.029643
O O11 0.986709 0.724758 0.082755
O O12 0.250000 0.656031 0.192454
O O13 0.000000 0.500000 0.178935
O O14 0.996785 0.787845 0.166713
O O15 0.750000 0.331981 0.886846
O O16 0.000000 0.500000 0.882560
O O17 0.250000 0.149254 0.120534
O O18 0.500000 0.000000 0.107413
#
# Coordination Sequence:
#
# PCOD8192724 Si02
#       6
#     8   8   8   8   8   8
#     4  12  25  43  65  92 123 159 199 246 298 356
#     4   9  20  37  60  87 119 156 201 249 300 356
#     4  12  25  44  67  93 123 159 199 245 296 354
#     4  10  20  38  61  89 121 159 202 249 300 357
#     4  11  23  40  60  88 122 161 203 249 300 356
#     4  12  25  42  62  89 122 160 201 248 300 357
#
# _framework density 20.429359999999999
#
# number of rings (size 3 to 8) (size 9 to 14) (size 15 to 20)
#    0.000    1.000    0.000    7.500    0.000    4.000 
#    0.000    1.667    0.000    0.000    0.000    0.000 
#    0.000    0.000    0.000    0.000    0.000    0.000 
#
# Total GULP energy -297741.102987 kJ/mol
# GULP energy per Si atom -12405.879291 kJ/mol
# Density = 2.038286 g / cm^3
# Si number density = 20.429360 Si / 1000 Ang^3
#
#
#
# Elastic Constant Matrix: (Units=GPa)
#
#
# Indices 1 2 3 4 5 6 
#
# 1 88.9606 22.1126 19.9658 0.0000 0.0000 0.0000
# 2 22.1126 135.5459 45.9849 0.0000 0.0000 0.0000
# 3 19.9658 45.9849 100.3412 0.0000 0.0000 0.0000
# 4 0.0000 0.0000 0.0000 41.7059 0.0000 0.0000
# 5 0.0000 0.0000 0.0000 0.0000 34.7829 0.0000
# 6 0.0000 0.0000 0.0000 0.0000 0.0000 38.3617
#
#
#
# Elastic Compliance Matrix: (Units=1/GPa)
#
#
# Indices 1 2 3 4 5 6 
#
# 1 0.011973 -0.001356 -0.001761 0.000000 0.000000 0.000000
# 2 -0.001356 0.008889 -0.003804 0.000000 0.000000 0.000000
# 3 -0.001761 -0.003804 0.012060 0.000000 0.000000 0.000000
# 4 0.000000 0.000000 0.000000 0.023977 0.000000 0.000000
# 5 0.000000 0.000000 0.000000 0.000000 0.028750 0.000000
# 6 0.000000 0.000000 0.000000 0.000000 0.000000 0.026068
#
#
# Mechanical properties :
#
#
# Convention : Reuss Voigt Hill
#
# Bulk Modulus (GPa) = 52.40990 55.66381 54.03685
# Shear Modulus (GPa) = 37.90200 38.75572 38.32886
#
# Velocity S-wave (km/s) = 4.31196 4.36025 4.33617
# Velocity P-wave (km/s) = 7.10637 7.25639 7.18177
#
# Compressibility (1/GPa) = 0.01908037
#
# Stress axis : x y z
#
# Youngs Moduli (GPa) = 83.51996 112.49462 82.92040
#
# Poissons Ratio (x) = 0.15252 0.14603
# Poissons Ratio (y) = 0.11324 0.31543
# Poissons Ratio (z) = 0.14708 0.42794
#
# Static dielectric constant tensor:
#      x y z
#    x 3.817750 0.000000 0.000000 
#    y 0.000000 3.776440 0.000000 
#    z 0.000000 0.000000 4.088260 
# 
# 
# High freq. dielectric constant tensor:
#      x y z
#    x 1.813090 0.000000 0.000000 
#    y 0.000000 1.806730 0.000000 
#    z 0.000000 0.000000 1.814080 
# 
# From -- ./inp_files/25006.got.cif
#   From: 2010.03.12/outbox.cif.g09.slc.cpg/sg46_13_cif.got.tgz:25006.got - 2010.04.14 02:56:35.
