data_PCOD8192023
_publ_section_title
;
Structure prediction by ZEFSAII (Michael W. Deem and Ramdas Pophale) SiO2 
 PCOD8192023
Probable space group: I M A 2
;
_chemical_formula_sum "Si O2"
_cell_formula_units_Z 64
_cell_length_a 20.512492
_cell_length_b 15.792023
_cell_length_c 9.957048
_cell_angle_alpha 90.000000
_cell_angle_beta 90.000000
_cell_angle_gamma 90.000000
_cell_volume 3225.423852
_symmetry_space_group_name_H-M "I M A 2"
_symmetry_group_IT_number 46
_symmetry_cell_setting 'orthorhombic'
loop_
_space_group_symop_operation_xyz
x,y,z
-x,-y,z
1/2-x,y,z
1/2+x,-y,z
1/2+x,1/2+y,1/2+z
1/2-x,1/2-y,1/2+z
-x,1/2+y,1/2+z
x,1/2-y,1/2+z
loop_
_atom_site_type_symbol
_atom_site_label
_atom_site_fract_x
_atom_site_fract_y
_atom_site_fract_z
Si Si1 0.047684 0.924280 0.962120
Si Si2 0.821662 0.630588 0.648637
Si Si3 0.176567 0.521914 0.844138
Si Si4 0.040567 0.916161 0.272679
Si Si5 0.587108 0.727330 0.083093
Si Si6 0.323288 0.073507 0.606706
Si Si7 0.823774 0.985768 0.900923
Si Si8 0.508491 0.734814 0.334950
O O1 0.124062 0.946654 0.953605
O O2 0.042239 0.838039 0.877324
O O3 0.027749 0.905479 0.115033
O O4 0.000000 0.000000 0.908418
O O5 0.750000 0.667260 0.674337
O O6 0.838724 0.562154 0.760425
O O7 0.871127 0.706288 0.668926
O O8 0.827047 0.594536 0.498290
O O9 0.250000 0.556299 0.806881
O O10 0.117899 0.583895 0.805227
O O11 0.173404 0.504323 0.002952
O O12 0.017498 0.830885 0.346134
O O13 0.000000 0.000000 0.323816
O O14 0.628317 0.644226 0.052109
O O15 0.527565 0.708212 0.183711
O O16 0.567045 0.769239 0.942511
O O17 0.250000 0.110541 0.612432
O O18 0.345171 0.041873 0.752511
O O19 0.750000 0.024256 0.902137
#
# Coordination Sequence:
#
# PCOD8192023 Si02
#       8
#     8   8   8   8   8   8   8   8
#     4  11  22  41  65  88 122 164 203 253 307 357
#     4  10  19  33  58  88 113 158 210 240 289 373
#     4  10  21  38  62  87 115 156 208 250 298 362
#     4  11  22  41  65  88 122 164 203 253 307 357
#     4  12  21  36  54  82 129 160 190 248 306 362
#     4  10  21  35  54  88 125 156 190 244 311 369
#     4  10  21  38  62  87 115 156 208 250 298 362
#     4  12  26  38  58  94 120 158 212 252 296 364
#
# _framework density 19.842354
#
# number of rings (size 3 to 8) (size 9 to 14) (size 15 to 20)
#    0.000    1.250    2.500    4.875    0.000    1.000 
#    0.000    8.125    0.000    0.000    0.000    0.000 
#    0.000    0.000    0.000    0.000    0.000    0.000 
#
# Total GULP energy -396745.217476 kJ/mol
# GULP energy per Si atom -12398.288046 kJ/mol
# Density = 1.979719 g / cm^3
# Si number density = 19.842354 Si / 1000 Ang^3
#
#
#
# Elastic Constant Matrix: (Units=GPa)
#
#
# Indices 1 2 3 4 5 6 
#
# 1 88.2487 32.4234 -4.6939 0.0000 0.0000 0.0000
# 2 32.4234 80.2311 -1.2211 0.0000 0.0000 0.0000
# 3 -4.6939 -1.2211 75.5921 0.0000 0.0000 0.0000
# 4 0.0000 0.0000 0.0000 25.8616 0.0000 0.0000
# 5 0.0000 0.0000 0.0000 0.0000 27.2946 0.0000
# 6 0.0000 0.0000 0.0000 0.0000 0.0000 26.6405
#
#
#
# Elastic Compliance Matrix: (Units=1/GPa)
#
#
# Indices 1 2 3 4 5 6 
#
# 1 0.013349 -0.005383 0.000742 0.000000 0.000000 0.000000
# 2 -0.005383 0.014638 -0.000098 0.000000 0.000000 0.000000
# 3 0.000742 -0.000098 0.013273 0.000000 0.000000 0.000000
# 4 0.000000 0.000000 0.000000 0.038667 0.000000 0.000000
# 5 0.000000 0.000000 0.000000 0.000000 0.036637 0.000000
# 6 0.000000 0.000000 0.000000 0.000000 0.000000 0.037537
#
#
# Mechanical properties :
#
#
# Convention : Reuss Voigt Hill
#
# Bulk Modulus (GPa) = 31.46441 33.00985 32.23713
# Shear Modulus (GPa) = 28.70687 30.46358 29.58523
#
# Velocity S-wave (km/s) = 3.80774 3.92252 3.86555
# Velocity P-wave (km/s) = 5.93494 6.09812 6.01708
#
# Compressibility (1/GPa) = 0.03178194
#
# Stress axis : x y z
#
# Youngs Moduli (GPa) = 74.91214 68.31506 75.33876
#
# Poissons Ratio (x) = 0.36776 -0.05590
# Poissons Ratio (y) = 0.40328 0.00737
# Poissons Ratio (z) = -0.05558 0.00668
#
# Static dielectric constant tensor:
#      x y z
#    x 3.767380 0.000000 0.000000 
#    y 0.000000 3.327750 0.000000 
#    z 0.000000 0.000000 3.633220 
# 
# 
# High freq. dielectric constant tensor:
#      x y z
#    x 1.780060 0.000000 0.000000 
#    y 0.000000 1.738280 0.000000 
#    z 0.000000 0.000000 1.784810 
# 
# From -- ./inp_files/7985.got.cif
#   From: 2010.03.12/outbox.cif.g09.slc.cpg/sg46_4_cif.got.tgz:7985.got - 2010.04.14 02:56:35.
