data_PCOD8192735
_publ_section_title
;
Structure prediction by ZEFSAII (Michael W. Deem and Ramdas Pophale) SiO2 
 PCOD8192735
Probable space group: I M A 2
;
_chemical_formula_sum "Si O2"
_cell_formula_units_Z 64
_cell_length_a 28.657455
_cell_length_b 11.206423
_cell_length_c 8.955884
_cell_angle_alpha 90.000000
_cell_angle_beta 90.000000
_cell_angle_gamma 90.000000
_cell_volume 2876.160320
_symmetry_space_group_name_H-M "I M A 2"
_symmetry_group_IT_number 46
_symmetry_cell_setting 'orthorhombic'
loop_
_space_group_symop_operation_xyz
x,y,z
-x,-y,z
1/2-x,y,z
1/2+x,-y,z
1/2+x,1/2+y,1/2+z
1/2-x,1/2-y,1/2+z
-x,1/2+y,1/2+z
x,1/2-y,1/2+z
loop_
_atom_site_type_symbol
_atom_site_label
_atom_site_fract_x
_atom_site_fract_y
_atom_site_fract_z
Si Si1 0.198049 0.140578 0.619760
Si Si2 0.197355 0.123544 0.269631
Si Si3 0.305471 0.609202 0.213432
Si Si4 0.100241 0.083206 0.223778
Si Si5 0.562783 0.742428 0.461569
Si Si6 0.580383 0.170325 0.221493
Si Si7 0.855507 0.262775 0.467776
Si Si8 0.003495 0.358187 0.206034
O O1 0.250000 0.137407 0.685648
O O2 0.199428 0.146723 0.443306
O O3 0.176048 0.258387 0.690168
O O4 0.172846 0.021366 0.678833
O O5 0.250000 0.084686 0.213318
O O6 0.154757 0.033983 0.226443
O O7 0.250000 0.611748 0.212208
O O8 0.324079 0.644013 0.375979
O O9 0.321933 0.691892 0.078387
O O10 0.094763 0.161852 0.374688
O O11 0.091633 0.160465 0.075181
O O12 0.064341 0.969500 0.230776
O O13 0.538866 0.657753 0.341215
O O14 0.522923 0.813296 0.549268
O O15 0.618933 0.178322 0.350133
O O16 0.603850 0.173409 0.059314
O O17 0.542492 0.276439 0.237605
O O18 0.000000 0.500000 0.191209
#
# Coordination Sequence:
#
# PCOD8192735 Si02
#       8
#     8   8   8   8   8   8   8   8
#     4   9  19  34  58  87 125 176 231 282 331 385
#     4  10  20  38  62  94 134 186 234 280 336 398
#     4  10  20  39  61  90 134 181 231 285 335 399
#     4  11  24  43  66 100 146 175 236 284 348 398
#     4  10  26  43  67 105 133 182 217 295 339 424
#     4  11  25  43  69  96 132 179 224 291 343 422
#     4  10  23  39  61  99 123 178 229 280 348 394
#     4  11  26  46  74 101 134 175 225 273 356 424
#
# _framework density 22.251891000000001
#
# number of rings (size 3 to 8) (size 9 to 14) (size 15 to 20)
#    0.000    1.750    0.000    2.625    7.000    3.000 
#    4.500    4.375    0.000    0.000    0.000    0.000 
#    0.000    0.000    0.000    0.000    0.000    0.000 
#
# Total GULP energy -396427.645460 kJ/mol
# GULP energy per Si atom -12388.363921 kJ/mol
# Density = 2.220124 g / cm^3
# Si number density = 22.251891 Si / 1000 Ang^3
#
#
#
# Elastic Constant Matrix: (Units=GPa)
#
#
# Indices 1 2 3 4 5 6 
#
# 1 98.0181 31.3609 17.5962 0.0000 0.0000 0.0000
# 2 31.3609 108.5055 13.6176 0.0000 0.0000 0.0000
# 3 17.5962 13.6176 84.3551 0.0000 0.0000 0.0000
# 4 0.0000 0.0000 0.0000 11.5472 0.0000 0.0000
# 5 0.0000 0.0000 0.0000 0.0000 21.0074 0.0000
# 6 0.0000 0.0000 0.0000 0.0000 0.0000 25.6241
#
#
#
# Elastic Compliance Matrix: (Units=1/GPa)
#
#
# Indices 1 2 3 4 5 6 
#
# 1 0.011535 -0.003095 -0.001907 0.000000 0.000000 0.000000
# 2 -0.003095 0.010237 -0.001007 0.000000 0.000000 0.000000
# 3 -0.001907 -0.001007 0.012415 0.000000 0.000000 0.000000
# 4 0.000000 0.000000 0.000000 0.086601 0.000000 0.000000
# 5 0.000000 0.000000 0.000000 0.000000 0.047602 0.000000
# 6 0.000000 0.000000 0.000000 0.000000 0.000000 0.039026
#
#
# Mechanical properties :
#
#
# Convention : Reuss Voigt Hill
#
# Bulk Modulus (GPa) = 45.10559 46.22532 45.66545
# Shear Modulus (GPa) = 22.04375 26.85599 24.44987
#
# Velocity S-wave (km/s) = 3.15087 3.47783 3.31838
# Velocity P-wave (km/s) = 5.79239 6.07831 5.93707
#
# Compressibility (1/GPa) = 0.02217020
#
# Stress axis : x y z
#
# Youngs Moduli (GPa) = 86.69607 97.68574 80.54826
#
# Poissons Ratio (x) = 0.30229 0.15357
# Poissons Ratio (y) = 0.26828 0.08112
# Poissons Ratio (z) = 0.16529 0.09838
#
# Static dielectric constant tensor:
#      x y z
#    x 4.099860 0.000000 0.000000 
#    y 0.000000 4.139110 0.000000 
#    z 0.000000 0.000000 4.112300 
# 
# 
# High freq. dielectric constant tensor:
#      x y z
#    x 1.874310 0.000000 0.000000 
#    y 0.000000 1.874370 0.000000 
#    z 0.000000 0.000000 1.892450 
# 
# From -- ./inp_files/8497.got.cif
#   From: 2010.03.12/outbox.cif.g09.slc.cpg/sg46_5_cif.got.tgz:8497.got - 2010.04.14 02:56:35.
