data_PCOD8192507
_publ_section_title
;
Structure prediction by ZEFSAII (Michael W. Deem and Ramdas Pophale) SiO2 
 PCOD8192507
Probable space group: I M A 2
;
_chemical_formula_sum "Si O2"
_cell_formula_units_Z 48
_cell_length_a 17.497317
_cell_length_b 9.558320
_cell_length_c 14.868123
_cell_angle_alpha 90.000000
_cell_angle_beta 90.000000
_cell_angle_gamma 90.000000
_cell_volume 2486.618562
_symmetry_space_group_name_H-M "I M A 2"
_symmetry_group_IT_number 46
_symmetry_cell_setting 'orthorhombic'
loop_
_space_group_symop_operation_xyz
x,y,z
-x,-y,z
1/2-x,y,z
1/2+x,-y,z
1/2+x,1/2+y,1/2+z
1/2-x,1/2-y,1/2+z
-x,1/2+y,1/2+z
x,1/2-y,1/2+z
loop_
_atom_site_type_symbol
_atom_site_label
_atom_site_fract_x
_atom_site_fract_y
_atom_site_fract_z
Si Si1 0.333822 0.046336 0.427160
Si Si2 0.052961 0.241224 0.358735
Si Si3 0.986150 0.838258 0.674246
Si Si4 0.665429 0.756151 0.089386
Si Si5 0.575570 0.286707 0.996955
Si Si6 0.587157 0.518068 0.482921
O O1 0.250000 0.010276 0.388094
O O2 0.385094 0.115042 0.347242
O O3 0.328176 0.167187 0.499860
O O4 0.365919 0.909655 0.476470
O O5 0.089420 0.391238 0.390028
O O6 0.002115 0.258874 0.269186
O O7 0.999998 0.186457 0.439212
O O8 0.046262 0.782486 0.600516
O O9 0.896300 0.814886 0.654173
O O10 0.000000 0.000000 0.688911
O O11 0.750000 0.765433 0.135131
O O12 0.636867 0.910700 0.061256
O O13 0.617374 0.140864 0.969554
O O14 0.500000 0.500000 0.517104
#
# Coordination Sequence:
#
# PCOD8192507 Si02
#       6
#     8   8   8   8   8   8
#     4  10  20  38  60  83 118 157 194 245 304 362
#     4  10  21  36  58  86 115 150 202 246 297 363
#     4  12  20  35  63  88 115 158 203 254 300 358
#     4  10  20  35  57  84 114 152 196 241 296 359
#     4  11  19  38  59  90 115 147 206 250 297 361
#     4   9  17  35  56  80 117 146 193 248 291 362
#
# _framework density 19.303322000000001
#
# number of rings (size 3 to 8) (size 9 to 14) (size 15 to 20)
#    0.000    1.667    6.667    2.000    0.000    1.333 
#    6.000    0.000    0.000    4.000    0.000    0.000 
#    0.000    0.000    0.000    0.000    0.000    0.000 
#
# Total GULP energy -297393.698008 kJ/mol
# GULP energy per Si atom -12391.404084 kJ/mol
# Density = 1.925939 g / cm^3
# Si number density = 19.303322 Si / 1000 Ang^3
#
#
#
# Elastic Constant Matrix: (Units=GPa)
#
#
# Indices 1 2 3 4 5 6 
#
# 1 89.5326 63.3703 18.7030 0.0000 0.0000 0.0000
# 2 63.3703 124.1319 30.8309 0.0000 0.0000 0.0000
# 3 18.7030 30.8309 82.8496 0.0000 0.0000 0.0000
# 4 0.0000 0.0000 0.0000 24.1419 0.0000 0.0000
# 5 0.0000 0.0000 0.0000 0.0000 17.7503 0.0000
# 6 0.0000 0.0000 0.0000 0.0000 0.0000 21.6428
#
#
#
# Elastic Compliance Matrix: (Units=1/GPa)
#
#
# Indices 1 2 3 4 5 6 
#
# 1 0.017524 -0.008775 -0.000691 0.000000 0.000000 0.000000
# 2 -0.008775 0.013270 -0.002957 0.000000 0.000000 0.000000
# 3 -0.000691 -0.002957 0.013327 0.000000 0.000000 0.000000
# 4 0.000000 0.000000 0.000000 0.041422 0.000000 0.000000
# 5 0.000000 0.000000 0.000000 0.000000 0.056337 0.000000
# 6 0.000000 0.000000 0.000000 0.000000 0.000000 0.046205
#
#
# Mechanical properties :
#
#
# Convention : Reuss Voigt Hill
#
# Bulk Modulus (GPa) = 51.88003 58.03584 54.95794
# Shear Modulus (GPa) = 22.79420 24.94767 23.87094
#
# Velocity S-wave (km/s) = 3.44007 3.59890 3.52038
# Velocity P-wave (km/s) = 6.53554 6.88476 6.71242
#
# Compressibility (1/GPa) = 0.01927524
#
# Stress axis : x y z
#
# Youngs Moduli (GPa) = 57.06470 75.35816 75.03843
#
# Poissons Ratio (x) = 0.66124 0.05183
# Poissons Ratio (y) = 0.50072 0.22191
# Poissons Ratio (z) = 0.03941 0.22286
#
# Static dielectric constant tensor:
#      x y z
#    x 3.769030 0.000000 0.000000 
#    y 0.000000 3.873450 0.000000 
#    z 0.000000 0.000000 3.296820 
# 
# 
# High freq. dielectric constant tensor:
#      x y z
#    x 1.732380 0.000000 0.000000 
#    y 0.000000 1.763200 0.000000 
#    z 0.000000 0.000000 1.720550 
# 
# From -- ./inp_files/16536.got.cif
#   From: 2010.03.12/outbox.cif.g09.slc.cpg/sg46_9_cif.got.tgz:16536.got - 2010.04.14 02:56:35.
