data_PCOD8192729
_publ_section_title
;
Structure prediction by ZEFSAII (Michael W. Deem and Ramdas Pophale) SiO2 
 PCOD8192729
Probable space group: I M A 2
;
_chemical_formula_sum "Si O2"
_cell_formula_units_Z 56
_cell_length_a 8.744988
_cell_length_b 19.968639
_cell_length_c 15.383334
_cell_angle_alpha 90.000000
_cell_angle_beta 90.000000
_cell_angle_gamma 90.000000
_cell_volume 2686.322521
_symmetry_space_group_name_H-M "I M A 2"
_symmetry_group_IT_number 46
_symmetry_cell_setting 'orthorhombic'
loop_
_space_group_symop_operation_xyz
x,y,z
-x,-y,z
1/2-x,y,z
1/2+x,-y,z
1/2+x,1/2+y,1/2+z
1/2-x,1/2-y,1/2+z
-x,1/2+y,1/2+z
x,1/2-y,1/2+z
loop_
_atom_site_type_symbol
_atom_site_label
_atom_site_fract_x
_atom_site_fract_y
_atom_site_fract_z
Si Si1 0.571891 0.818615 0.304530
Si Si2 0.584290 0.438337 0.873080
Si Si3 0.066652 0.424860 0.475936
Si Si4 0.569100 0.172432 0.118514
Si Si5 0.915903 0.438018 0.069884
Si Si6 0.071451 0.329410 0.323117
Si Si7 0.429980 0.187248 0.627971
O O1 0.750000 0.820135 0.280135
O O2 0.525171 0.873934 0.373864
O O3 0.476929 0.836995 0.218549
O O4 0.529904 0.747285 0.348501
O O5 0.500000 0.500000 0.824013
O O6 0.750000 0.424833 0.828560
O O7 0.613472 0.459790 0.971537
O O8 0.250000 0.428577 0.477491
O O9 0.002297 0.383278 0.391337
O O10 0.000000 0.500000 0.473563
O O11 0.010019 0.385306 0.561112
O O12 0.750000 0.167153 0.106287
O O13 0.511901 0.246416 0.091491
O O14 0.750000 0.424442 0.114412
O O15 0.000000 0.500000 0.118759
O O16 0.023527 0.373292 0.066622
O O17 0.250000 0.341719 0.325244
O O18 0.012241 0.336256 0.223942
O O19 0.250000 0.201327 0.627171
#
# Coordination Sequence:
#
# PCOD8192729 Si02
#       7
#     8   8   8   8   8   8   8
#     4  10  20  38  62  88 115 153 197 243 296 354
#     4  10  21  36  54  82 117 153 192 238 287 345
#     4  11  23  42  63  89 121 159 201 250 303 363
#     4  11  23  40  60  88 119 153 197 248 297 353
#     4  10  21  36  54  83 119 156 196 239 289 348
#     4   8  19  38  60  86 115 149 195 241 292 352
#     4  10  20  38  62  88 118 157 199 245 296 354
#
# _framework density 20.846342
#
# number of rings (size 3 to 8) (size 9 to 14) (size 15 to 20)
#    0.000    2.000    0.000    4.286    2.000    2.857 
#    0.000   12.143    0.000    0.000    0.000    0.000 
#    0.000    0.000    0.000    0.000    0.000    0.000 
#
# Total GULP energy -346966.519568 kJ/mol
# GULP energy per Si atom -12391.661413 kJ/mol
# Density = 2.079889 g / cm^3
# Si number density = 20.846342 Si / 1000 Ang^3
#
#
#
# Elastic Constant Matrix: (Units=GPa)
#
#
# Indices 1 2 3 4 5 6 
#
# 1 116.3128 61.0975 27.9910 0.0000 0.0000 0.0000
# 2 61.0975 175.7962 44.8718 0.0000 0.0000 0.0000
# 3 27.9910 44.8718 53.4951 0.0000 0.0000 0.0000
# 4 0.0000 0.0000 0.0000 26.8774 0.0000 0.0000
# 5 0.0000 0.0000 0.0000 0.0000 22.3218 0.0000
# 6 0.0000 0.0000 0.0000 0.0000 0.0000 38.4243
#
#
#
# Elastic Compliance Matrix: (Units=1/GPa)
#
#
# Indices 1 2 3 4 5 6 
#
# 1 0.010938 -0.002978 -0.003225 0.000000 0.000000 0.000000
# 2 -0.002978 0.008049 -0.005193 0.000000 0.000000 0.000000
# 3 -0.003225 -0.005193 0.024737 0.000000 0.000000 0.000000
# 4 0.000000 0.000000 0.000000 0.037206 0.000000 0.000000
# 5 0.000000 0.000000 0.000000 0.000000 0.044799 0.000000
# 6 0.000000 0.000000 0.000000 0.000000 0.000000 0.026025
#
#
# Mechanical properties :
#
#
# Convention : Reuss Voigt Hill
#
# Bulk Modulus (GPa) = 47.77631 68.16942 57.97286
# Shear Modulus (GPa) = 27.54447 31.63429 29.58938
#
# Velocity S-wave (km/s) = 3.63893 3.89973 3.77159
# Velocity P-wave (km/s) = 6.37368 7.28348 6.84372
#
# Compressibility (1/GPa) = 0.02093088
#
# Stress axis : x y z
#
# Youngs Moduli (GPa) = 91.42361 124.23803 40.42545
#
# Poissons Ratio (x) = 0.37002 0.13038
# Poissons Ratio (y) = 0.27229 0.20994
# Poissons Ratio (z) = 0.29485 0.64519
#
# Static dielectric constant tensor:
#      x y z
#    x 3.969840 0.000000 0.000000 
#    y 0.000000 3.867320 0.000000 
#    z 0.000000 0.000000 3.639370 
# 
# 
# High freq. dielectric constant tensor:
#      x y z
#    x 1.818780 0.000000 0.000000 
#    y 0.000000 1.827430 0.000000 
#    z 0.000000 0.000000 1.793060 
# 
# From -- ./inp_files/14196.got.cif
#   From: 2010.03.12/outbox.cif.g09.slc.cpg/sg46_8_cif.got.tgz:14196.got - 2010.04.14 02:56:35.
