data_PCOD8192881
_publ_section_title
;
Structure prediction by ZEFSAII (Michael W. Deem and Ramdas Pophale) SiO2 
 PCOD8192881
Probable space group: I M A 2
;
_chemical_formula_sum "Si O2"
_cell_formula_units_Z 48
_cell_length_a 9.033676
_cell_length_b 15.497175
_cell_length_c 18.455338
_cell_angle_alpha 90.000000
_cell_angle_beta 90.000000
_cell_angle_gamma 90.000000
_cell_volume 2583.681949
_symmetry_space_group_name_H-M "I M A 2"
_symmetry_group_IT_number 46
_symmetry_cell_setting 'orthorhombic'
loop_
_space_group_symop_operation_xyz
x,y,z
-x,-y,z
1/2-x,y,z
1/2+x,-y,z
1/2+x,1/2+y,1/2+z
1/2-x,1/2-y,1/2+z
-x,1/2+y,1/2+z
x,1/2-y,1/2+z
loop_
_atom_site_type_symbol
_atom_site_label
_atom_site_fract_x
_atom_site_fract_y
_atom_site_fract_z
Si Si1 0.921609 0.740628 0.595600
Si Si2 0.585440 0.343551 0.987642
Si Si3 0.575327 0.915024 0.356314
Si Si4 0.913305 0.152869 0.980694
Si Si5 0.425892 0.587070 0.329841
Si Si6 0.577958 0.749954 0.262560
O O1 0.750000 0.752641 0.579328
O O2 0.955855 0.727263 0.679416
O O3 0.005884 0.826631 0.565671
O O4 0.979113 0.655233 0.551233
O O5 0.750000 0.383220 0.999304
O O6 0.487600 0.405606 0.937750
O O7 0.597407 0.250246 0.948418
O O8 0.750000 0.927705 0.359420
O O9 0.529381 0.833205 0.308203
O O10 0.500000 0.000000 0.321599
O O11 0.750000 0.120982 0.005137
O O12 0.974695 0.095745 0.914439
O O13 0.500000 0.500000 0.299313
O O14 0.250000 0.582062 0.322280
O O15 0.483342 0.667002 0.283347
O O16 0.750000 0.728433 0.275433
#
# Coordination Sequence:
#
# PCOD8192881 Si02
#       6
#     8   8   8   8   8   8
#     4   9  17  31  55  81 107 143 181 221 271 322
#     4   9  17  33  54  79 106 135 179 222 265 319
#     4  11  22  36  57  83 111 145 183 226 272 322
#     4   8  17  33  53  78 105 137 179 219 265 319
#     4  11  22  36  57  83 111 144 183 226 272 323
#     4  10  21  37  56  80 113 147 181 222 272 326
#
# _framework density 18.578137999999999
#
# number of rings (size 3 to 8) (size 9 to 14) (size 15 to 20)
#    1.000    1.333    1.667    1.500    0.000    3.333 
#    0.000    1.667    0.000    8.000    0.000    0.000 
#    0.000    0.000    0.000    0.000    0.000    0.000 
#
# Total GULP energy -297383.083077 kJ/mol
# GULP energy per Si atom -12390.961795 kJ/mol
# Density = 1.853585 g / cm^3
# Si number density = 18.578138 Si / 1000 Ang^3
#
#
#
# Elastic Constant Matrix: (Units=GPa)
#
#
# Indices 1 2 3 4 5 6 
#
# 1 99.6827 34.2222 42.2807 0.0000 0.0000 0.0000
# 2 34.2222 76.3620 14.7215 0.0000 0.0000 0.0000
# 3 42.2807 14.7215 74.9817 0.0000 0.0000 0.0000
# 4 0.0000 0.0000 0.0000 9.7235 0.0000 0.0000
# 5 0.0000 0.0000 0.0000 0.0000 27.1472 0.0000
# 6 0.0000 0.0000 0.0000 0.0000 0.0000 27.8614
#
#
#
# Elastic Compliance Matrix: (Units=1/GPa)
#
#
# Indices 1 2 3 4 5 6 
#
# 1 0.014993 -0.005290 -0.007416 0.000000 0.000000 0.000000
# 2 -0.005290 0.015477 -0.000056 0.000000 0.000000 0.000000
# 3 -0.007416 -0.000056 0.017529 0.000000 0.000000 0.000000
# 4 0.000000 0.000000 0.000000 0.102844 0.000000 0.000000
# 5 0.000000 0.000000 0.000000 0.000000 0.036836 0.000000
# 6 0.000000 0.000000 0.000000 0.000000 0.000000 0.035892
#
#
# Mechanical properties :
#
#
# Convention : Reuss Voigt Hill
#
# Bulk Modulus (GPa) = 44.49088 48.16390 46.32739
# Shear Modulus (GPa) = 19.48658 23.59988 21.54323
#
# Velocity S-wave (km/s) = 3.24218 3.56800 3.40899
# Velocity P-wave (km/s) = 6.16568 6.55404 6.36283
#
# Compressibility (1/GPa) = 0.02247651
#
# Stress axis : x y z
#
# Youngs Moduli (GPa) = 66.69644 64.61237 57.04756
#
# Poissons Ratio (x) = 0.34178 0.42306
# Poissons Ratio (y) = 0.35280 0.00319
# Poissons Ratio (z) = 0.49461 0.00361
#
# Static dielectric constant tensor:
#      x y z
#    x 3.437660 0.000000 0.000000 
#    y 0.000000 3.194070 0.000000 
#    z 0.000000 0.000000 3.224210 
# 
# 
# High freq. dielectric constant tensor:
#      x y z
#    x 1.731280 0.000000 0.000000 
#    y 0.000000 1.696500 0.000000 
#    z 0.000000 0.000000 1.703890 
# 
# From -- ./inp_files/20911.got.cif
#   From: 2010.03.12/outbox.cif.g09.slc.cpg/sg46_11_cif.got.tgz:20911.got - 2010.04.14 02:56:35.
