data_PCOD8192894
_publ_section_title
;
Structure prediction by ZEFSAII (Michael W. Deem and Ramdas Pophale) SiO2 
 PCOD8192894
Probable space group: I M A 2
;
_chemical_formula_sum "Si O2"
_cell_formula_units_Z 48
_cell_length_a 16.877270
_cell_length_b 5.040902
_cell_length_c 27.375456
_cell_angle_alpha 90.000000
_cell_angle_beta 90.000000
_cell_angle_gamma 90.000000
_cell_volume 2329.012475
_symmetry_space_group_name_H-M "I M A 2"
_symmetry_group_IT_number 46
_symmetry_cell_setting 'orthorhombic'
loop_
_space_group_symop_operation_xyz
x,y,z
-x,-y,z
1/2-x,y,z
1/2+x,-y,z
1/2+x,1/2+y,1/2+z
1/2-x,1/2-y,1/2+z
-x,1/2+y,1/2+z
x,1/2-y,1/2+z
loop_
_atom_site_type_symbol
_atom_site_label
_atom_site_fract_x
_atom_site_fract_y
_atom_site_fract_z
Si Si1 0.842227 0.395600 0.698200
Si Si2 0.910165 0.594529 0.149278
Si Si3 0.553665 0.255651 0.285389
Si Si4 0.840487 0.323363 0.484412
Si Si5 0.841945 0.690933 0.046676
Si Si6 0.052784 0.757942 0.894944
O O1 0.750000 0.469663 0.701142
O O2 0.891481 0.660948 0.685526
O O3 0.871432 0.281884 0.750178
O O4 0.854468 0.160740 0.658804
O O5 0.894457 0.703645 0.095188
O O6 0.000000 0.500000 0.156546
O O7 0.500000 0.500000 0.266869
O O8 0.586340 0.307582 0.340225
O O9 0.500000 0.000000 0.285042
O O10 0.750000 0.374809 0.472121
O O11 0.875724 0.590150 0.508816
O O12 0.876165 0.238450 0.432809
O O13 0.853672 0.094454 0.523472
O O14 0.750000 0.749841 0.059788
O O15 0.000000 0.500000 0.897078
O O16 0.000000 0.000000 0.912519
#
# Coordination Sequence:
#
# PCOD8192894 Si02
#       6
#     8   8   8   8   8   8
#     4  12  24  40  63  90 120 157 198 246 297 353
#     4  12  25  41  62  89 120 158 200 246 296 353
#     4  10  21  39  61  85 117 154 193 240 294 348
#     4  10  21  37  59  84 116 153 190 237 290 341
#     4  10  21  38  58  84 117 154 193 238 289 342
#     4  10  21  37  59  86 116 152 191 237 289 343
#
# _framework density 20.609594000000001
#
# number of rings (size 3 to 8) (size 9 to 14) (size 15 to 20)
#    0.000    1.333    0.000    6.500    0.000    4.000 
#    0.000    0.000    0.000   10.000    0.000    0.000 
#    0.000    0.000    0.000    0.000    0.000    0.000 
#
# Total GULP energy -297677.945186 kJ/mol
# GULP energy per Si atom -12403.247716 kJ/mol
# Density = 2.056269 g / cm^3
# Si number density = 20.609594 Si / 1000 Ang^3
#
#
#
# Elastic Constant Matrix: (Units=GPa)
#
#
# Indices 1 2 3 4 5 6 
#
# 1 96.1540 38.9310 64.2036 0.0000 0.0000 0.0000
# 2 38.9310 121.6327 23.8713 0.0000 0.0000 0.0000
# 3 64.2036 23.8713 121.9465 0.0000 0.0000 0.0000
# 4 0.0000 0.0000 0.0000 33.3630 0.0000 0.0000
# 5 0.0000 0.0000 0.0000 0.0000 31.0306 0.0000
# 6 0.0000 0.0000 0.0000 0.0000 0.0000 26.9517
#
#
#
# Elastic Compliance Matrix: (Units=1/GPa)
#
#
# Indices 1 2 3 4 5 6 
#
# 1 0.017728 -0.003996 -0.008551 0.000000 0.000000 0.000000
# 2 -0.003996 0.009451 0.000254 0.000000 0.000000 0.000000
# 3 -0.008551 0.000254 0.012653 0.000000 0.000000 0.000000
# 4 0.000000 0.000000 0.000000 0.029973 0.000000 0.000000
# 5 0.000000 0.000000 0.000000 0.000000 0.032226 0.000000
# 6 0.000000 0.000000 0.000000 0.000000 0.000000 0.037103
#
#
# Mechanical properties :
#
#
# Convention : Reuss Voigt Hill
#
# Bulk Modulus (GPa) = 65.59758 65.97166 65.78462
# Shear Modulus (GPa) = 29.62050 32.45088 31.03569
#
# Velocity S-wave (km/s) = 3.79518 3.97237 3.88478
# Velocity P-wave (km/s) = 7.14859 7.28830 7.21878
#
# Compressibility (1/GPa) = 0.01524446
#
# Stress axis : x y z
#
# Youngs Moduli (GPa) = 56.40915 105.81323 79.03407
#
# Poissons Ratio (x) = 0.42281 0.67584
# Poissons Ratio (y) = 0.22540 -0.02006
# Poissons Ratio (z) = 0.48237 -0.02685
#
# Static dielectric constant tensor:
#      x y z
#    x 3.477710 0.000000 0.000000 
#    y 0.000000 4.009880 0.000000 
#    z 0.000000 0.000000 3.923500 
# 
# 
# High freq. dielectric constant tensor:
#      x y z
#    x 1.784550 0.000000 0.000000 
#    y 0.000000 1.830010 0.000000 
#    z 0.000000 0.000000 1.816920 
# 
# From -- ./inp_files/24583.got.cif
#   From: 2010.03.12/outbox.cif.g09.slc.cpg/sg46_13_cif.got.tgz:24583.got - 2010.04.14 02:56:35.
