data_PCOD8192711
_publ_section_title
;
Structure prediction by ZEFSAII (Michael W. Deem and Ramdas Pophale) SiO2 
 PCOD8192711
Probable space group: I M A 2
;
_chemical_formula_sum "Si O2"
_cell_formula_units_Z 48
_cell_length_a 10.023654
_cell_length_b 7.370852
_cell_length_c 31.577911
_cell_angle_alpha 90.000000
_cell_angle_beta 90.000000
_cell_angle_gamma 90.000000
_cell_volume 2333.066697
_symmetry_space_group_name_H-M "I M A 2"
_symmetry_group_IT_number 46
_symmetry_cell_setting 'orthorhombic'
loop_
_space_group_symop_operation_xyz
x,y,z
-x,-y,z
1/2-x,y,z
1/2+x,-y,z
1/2+x,1/2+y,1/2+z
1/2-x,1/2-y,1/2+z
-x,1/2+y,1/2+z
x,1/2-y,1/2+z
loop_
_atom_site_type_symbol
_atom_site_label
_atom_site_fract_x
_atom_site_fract_y
_atom_site_fract_z
Si Si1 0.500000 0.000000 0.303601
Si Si2 0.599732 0.334064 0.663609
Si Si3 0.487324 0.786179 0.984358
Si Si4 0.595092 0.160913 0.750125
Si Si5 0.250000 0.265056 0.438815
Si Si6 0.750000 0.998787 0.360869
Si Si7 0.250000 0.692919 0.424427
Si Si8 0.902779 0.331269 0.571233
O O1 0.545219 0.162240 0.273896
O O2 0.622265 0.948913 0.333390
O O3 0.500000 0.500000 0.669775
O O4 0.750000 0.413350 0.668161
O O5 0.574996 0.185244 0.699768
O O6 0.584867 0.235248 0.617424
O O7 0.626281 0.708946 0.968174
O O8 0.378477 0.735416 0.949395
O O9 0.500000 0.000000 0.990021
O O10 0.448309 0.706940 0.031042
O O11 0.750000 0.120048 0.761328
O O12 0.500000 0.000000 0.765853
O O13 0.250000 0.473486 0.421895
O O14 0.250000 0.138710 0.399029
O O15 0.750000 0.208768 0.378244
O O16 0.750000 0.394837 0.562897
O O17 0.000000 0.500000 0.574499
#
# Coordination Sequence:
#
# PCOD8192711 Si02
#       8
#     4   8   8   8   4   4   4   8
#     4  12  26  46  68  98 132 162 218 276 328 396
#     4   9  18  34  59  91 127 167 211 255 314 375
#     4   9  17  31  55  83 120 161 208 253 307 367
#     4  11  25  44  71  98 130 174 214 264 330 395
#     4  10  22  38  60  87 119 163 209 260 314 382
#     4  12  26  42  68  92 124 164 212 270 328 392
#     4  10  20  38  60  85 117 161 205 254 318 374
#     4   9  16  27  51  87 122 163 209 256 300 364
#
# _framework density 20.573782000000001
#
# number of rings (size 3 to 8) (size 9 to 14) (size 15 to 20)
#    0.000    2.000    2.500    1.000    4.667    2.000 
#    0.000    0.000    3.667    0.000    0.000    0.000 
#    0.000    0.000    0.000    0.000    0.000    0.000 
#
# Total GULP energy -297412.702712 kJ/mol
# GULP energy per Si atom -12392.195946 kJ/mol
# Density = 2.052695 g / cm^3
# Si number density = 20.573782 Si / 1000 Ang^3
#
#
#
# Elastic Constant Matrix: (Units=GPa)
#
#
# Indices 1 2 3 4 5 6 
#
# 1 173.4050 38.8938 64.6595 0.0000 0.0000 0.0000
# 2 38.8938 64.7484 29.7819 0.0000 0.0000 0.0000
# 3 64.6595 29.7819 130.0588 0.0000 0.0000 0.0000
# 4 0.0000 0.0000 0.0000 4.7867 0.0000 0.0000
# 5 0.0000 0.0000 0.0000 0.0000 37.6030 0.0000
# 6 0.0000 0.0000 0.0000 0.0000 0.0000 7.0610
#
#
#
# Elastic Compliance Matrix: (Units=1/GPa)
#
#
# Indices 1 2 3 4 5 6 
#
# 1 0.007619 -0.003168 -0.003063 0.000000 0.000000 0.000000
# 2 -0.003168 0.018580 -0.002679 0.000000 0.000000 0.000000
# 3 -0.003063 -0.002679 0.009825 0.000000 0.000000 0.000000
# 4 0.000000 0.000000 0.000000 0.208911 0.000000 0.000000
# 5 0.000000 0.000000 0.000000 0.000000 0.026594 0.000000
# 6 0.000000 0.000000 0.000000 0.000000 0.000000 0.141624
#
#
# Mechanical properties :
#
#
# Convention : Reuss Voigt Hill
#
# Bulk Modulus (GPa) = 54.93354 70.54250 62.73802
# Shear Modulus (GPa) = 11.44055 25.54860 18.49457
#
# Velocity S-wave (km/s) = 2.36068 3.52775 3.00148
# Velocity P-wave (km/s) = 5.84715 7.13830 6.52474
#
# Compressibility (1/GPa) = 0.01820382
#
# Stress axis : x y z
#
# Youngs Moduli (GPa) = 131.24313 53.82134 101.78150
#
# Poissons Ratio (x) = 0.17052 0.31171
# Poissons Ratio (y) = 0.41581 0.27272
# Poissons Ratio (z) = 0.40194 0.14421
#
# Static dielectric constant tensor:
#      x y z
#    x 3.930620 0.000000 0.000000 
#    y 0.000000 3.250860 0.000000 
#    z 0.000000 0.000000 4.381190 
# 
# 
# High freq. dielectric constant tensor:
#      x y z
#    x 1.826620 0.000000 0.000000 
#    y 0.000000 1.756980 0.000000 
#    z 0.000000 0.000000 1.826650 
# 
# From -- ./inp_files/25092.got.cif
#   From: 2010.03.12/outbox.cif.g09.slc.cpg/sg46_13_cif.got.tgz:25092.got - 2010.04.14 02:56:35.
