data_PCOD8192028
_publ_section_title
;
Structure prediction by ZEFSAII (Michael W. Deem and Ramdas Pophale) SiO2 
 PCOD8192028
Probable space group: I M A 2
;
_chemical_formula_sum "Si O2"
_cell_formula_units_Z 64
_cell_length_a 8.793445
_cell_length_b 23.118033
_cell_length_c 19.161124
_cell_angle_alpha 90.000000
_cell_angle_beta 90.000000
_cell_angle_gamma 90.000000
_cell_volume 3895.210321
_symmetry_space_group_name_H-M "I M A 2"
_symmetry_group_IT_number 46
_symmetry_cell_setting 'orthorhombic'
loop_
_space_group_symop_operation_xyz
x,y,z
-x,-y,z
1/2-x,y,z
1/2+x,-y,z
1/2+x,1/2+y,1/2+z
1/2-x,1/2-y,1/2+z
-x,1/2+y,1/2+z
x,1/2-y,1/2+z
loop_
_atom_site_type_symbol
_atom_site_label
_atom_site_fract_x
_atom_site_fract_y
_atom_site_fract_z
Si Si1 0.071338 0.439419 0.133020
Si Si2 0.072765 0.732424 0.343314
Si Si3 0.069405 0.613344 0.995569
Si Si4 0.429512 0.938420 0.348294
Si Si5 0.574317 0.221617 0.142211
Si Si6 0.571983 0.837647 0.265858
Si Si7 0.422704 0.657537 0.217644
Si Si8 0.928848 0.256277 0.995288
O O1 0.250000 0.446251 0.125773
O O2 0.000000 0.500000 0.156478
O O3 0.004187 0.420840 0.059024
O O4 0.034409 0.392872 0.193207
O O5 0.250000 0.750314 0.335036
O O6 0.039543 0.674780 0.298121
O O7 0.029725 0.721667 0.424338
O O8 0.973775 0.785454 0.316414
O O9 0.250000 0.611890 0.004765
O O10 0.004489 0.678747 0.993536
O O11 0.016771 0.582901 0.924372
O O12 0.250000 0.942237 0.344316
O O13 0.487010 0.895367 0.288774
O O14 0.500000 0.000000 0.331815
O O15 0.750000 0.202896 0.147871
O O16 0.475081 0.176720 0.186420
O O17 0.552442 0.286606 0.169711
O O18 0.511461 0.220735 0.062492
O O19 0.750000 0.848038 0.270093
O O20 0.250000 0.635183 0.210583
O O21 0.750000 0.262883 0.003922
#
# Coordination Sequence:
#
# PCOD8192028 Si02
#       8
#     8   8   8   8   8   8   8   8
#     4  12  24  35  49  68  97 133 173 209 246 290
#     4   9  17  32  53  74  97 129 164 201 248 298
#     4  10  19  34  52  71  99 132 169 205 238 287
#     4  11  22  36  53  71  97 132 171 208 247 292
#     4   9  17  31  52  72  97 130 163 200 244 292
#     4  11  21  32  47  71 101 131 167 206 244 288
#     4   9  17  31  50  72  98 128 164 203 246 291
#     4   9  15  29  53  77  98 129 166 198 239 294
#
# _framework density 16.430434999999999
#
# number of rings (size 3 to 8) (size 9 to 14) (size 15 to 20)
#    0.000    2.000    2.500    3.750    0.000    4.000 
#    0.000    0.625    0.000    0.000    0.000    0.875 
#    0.000    4.000    0.000    0.000    0.000    0.000 
#
# Total GULP energy -396786.076731 kJ/mol
# GULP energy per Si atom -12399.564898 kJ/mol
# Density = 1.639304 g / cm^3
# Si number density = 16.430435 Si / 1000 Ang^3
#
#
#
# Elastic Constant Matrix: (Units=GPa)
#
#
# Indices 1 2 3 4 5 6 
#
# 1 49.5636 26.9458 23.9897 0.0000 0.0000 0.0000
# 2 26.9458 82.8780 51.3419 0.0000 0.0000 0.0000
# 3 23.9897 51.3419 128.0752 0.0000 0.0000 0.0000
# 4 0.0000 0.0000 0.0000 30.3215 0.0000 0.0000
# 5 0.0000 0.0000 0.0000 0.0000 18.2393 0.0000
# 6 0.0000 0.0000 0.0000 0.0000 0.0000 25.2433
#
#
#
# Elastic Compliance Matrix: (Units=1/GPa)
#
#
# Indices 1 2 3 4 5 6 
#
# 1 0.024845 -0.006911 -0.001883 0.000000 0.000000 0.000000
# 2 -0.006911 0.017975 -0.005911 0.000000 0.000000 0.000000
# 3 -0.001883 -0.005911 0.010530 0.000000 0.000000 0.000000
# 4 0.000000 0.000000 0.000000 0.032980 0.000000 0.000000
# 5 0.000000 0.000000 0.000000 0.000000 0.054827 0.000000
# 6 0.000000 0.000000 0.000000 0.000000 0.000000 0.039615
#
#
# Mechanical properties :
#
#
# Convention : Reuss Voigt Hill
#
# Bulk Modulus (GPa) = 41.77263 51.67462 46.72362
# Shear Modulus (GPa) = 22.91882 25.31012 24.11447
#
# Velocity S-wave (km/s) = 3.73889 3.92910 3.83518
# Velocity P-wave (km/s) = 6.64215 7.21822 6.93617
#
# Compressibility (1/GPa) = 0.02393912
#
# Stress axis : x y z
#
# Youngs Moduli (GPa) = 40.24973 55.63370 94.96461
#
# Poissons Ratio (x) = 0.38449 0.17884
# Poissons Ratio (y) = 0.27817 0.56134
# Poissons Ratio (z) = 0.07580 0.32885
#
# Static dielectric constant tensor:
#      x y z
#    x 2.955770 0.000000 0.000000 
#    y 0.000000 2.962650 0.000000 
#    z 0.000000 0.000000 3.356450 
# 
# 
# High freq. dielectric constant tensor:
#      x y z
#    x 1.621760 0.000000 0.000000 
#    y 0.000000 1.605110 0.000000 
#    z 0.000000 0.000000 1.634420 
# 
# From -- ./inp_files/21468.got.cif
#   From: 2010.03.12/outbox.cif.g09.slc.cpg/sg46_11_cif.got.tgz:21468.got - 2010.04.14 02:56:35.
