data_PCOD8192069
_publ_section_title
;
Structure prediction by ZEFSAII (Michael W. Deem and Ramdas Pophale) SiO2 
 PCOD8192069
Probable space group: I M A 2
;
_chemical_formula_sum "Si O2"
_cell_formula_units_Z 40
_cell_length_a 16.203626
_cell_length_b 15.283576
_cell_length_c 7.719045
_cell_angle_alpha 90.000000
_cell_angle_beta 90.000000
_cell_angle_gamma 90.000000
_cell_volume 1911.616473
_symmetry_space_group_name_H-M "I M A 2"
_symmetry_group_IT_number 46
_symmetry_cell_setting 'orthorhombic'
loop_
_space_group_symop_operation_xyz
x,y,z
-x,-y,z
1/2-x,y,z
1/2+x,-y,z
1/2+x,1/2+y,1/2+z
1/2-x,1/2-y,1/2+z
-x,1/2+y,1/2+z
x,1/2-y,1/2+z
loop_
_atom_site_type_symbol
_atom_site_label
_atom_site_fract_x
_atom_site_fract_y
_atom_site_fract_z
Si Si1 0.062393 0.580097 0.221320
Si Si2 0.657238 0.837495 0.930281
Si Si3 0.345722 0.968986 0.043212
Si Si4 0.916402 0.669252 0.075913
Si Si5 0.153873 0.496397 0.922514
O O1 0.102275 0.593041 0.412335
O O2 0.000000 0.500000 0.227326
O O3 0.008731 0.663524 0.158883
O O4 0.134231 0.560880 0.081923
O O5 0.750000 0.811507 0.985002
O O6 0.652229 0.845287 0.723638
O O7 0.631720 0.929952 0.009551
O O8 0.592732 0.764542 0.993242
O O9 0.250000 0.950224 0.006641
O O10 0.369118 0.952534 0.244115
O O11 0.899222 0.593473 0.933603
O O12 0.250000 0.471449 0.921232
#
# Coordination Sequence:
#
# PCOD8192069 Si02
#       5
#     8   8   8   8   8
#     4  10  20  35  52  80 119 154 191 243 295 351
#     4  11  20  34  55  80 118 156 190 230 288 362
#     4  10  20  35  59  84 110 152 198 242 293 355
#     4  11  22  35  51  86 124 158 192 243 304 362
#     4  10  19  34  56  82 110 147 198 244 292 351
#
# _framework density 20.924700999999999
#
# number of rings (size 3 to 8) (size 9 to 14) (size 15 to 20)
#    0.000    1.600    4.000    3.600    0.000    4.000 
#    3.600    0.000    0.000    0.000    0.000    5.600 
#    0.000    0.000    0.000    0.000    0.000    0.000 
#
# Total GULP energy -247961.020865 kJ/mol
# GULP energy per Si atom -12398.051043 kJ/mol
# Density = 2.087708 g / cm^3
# Si number density = 20.924701 Si / 1000 Ang^3
#
#
#
# Elastic Constant Matrix: (Units=GPa)
#
#
# Indices 1 2 3 4 5 6 
#
# 1 87.2730 30.8800 47.2227 0.0000 0.0000 0.0000
# 2 30.8800 36.1610 11.3599 0.0000 0.0000 0.0000
# 3 47.2227 11.3599 137.3429 0.0000 0.0000 0.0000
# 4 0.0000 0.0000 0.0000 24.2463 0.0000 0.0000
# 5 0.0000 0.0000 0.0000 0.0000 41.2706 0.0000
# 6 0.0000 0.0000 0.0000 0.0000 0.0000 29.8648
#
#
#
# Elastic Compliance Matrix: (Units=1/GPa)
#
#
# Indices 1 2 3 4 5 6 
#
# 1 0.019850 -0.015202 -0.005568 0.000000 0.000000 0.000000
# 2 -0.015202 0.040034 0.001916 0.000000 0.000000 0.000000
# 3 -0.005568 0.001916 0.009037 0.000000 0.000000 0.000000
# 4 0.000000 0.000000 0.000000 0.041243 0.000000 0.000000
# 5 0.000000 0.000000 0.000000 0.000000 0.024230 0.000000
# 6 0.000000 0.000000 0.000000 0.000000 0.000000 0.033484
#
#
# Mechanical properties :
#
#
# Convention : Reuss Voigt Hill
#
# Bulk Modulus (GPa) = 32.03790 48.85580 40.44685
# Shear Modulus (GPa) = 23.14912 30.49731 26.82321
#
# Velocity S-wave (km/s) = 3.32973 3.82184 3.58424
# Velocity P-wave (km/s) = 5.48881 6.54785 6.04158
#
# Compressibility (1/GPa) = 0.03121303
#
# Stress axis : x y z
#
# Youngs Moduli (GPa) = 50.37829 24.97869 110.65720
#
# Poissons Ratio (x) = 0.37972 0.61610
# Poissons Ratio (y) = 0.76585 -0.21197
# Poissons Ratio (z) = 0.28049 -0.04785
#
# Static dielectric constant tensor:
#      x y z
#    x 3.908670 0.000000 0.000000 
#    y 0.000000 3.366060 0.000000 
#    z 0.000000 0.000000 4.120080 
# 
# 
# High freq. dielectric constant tensor:
#      x y z
#    x 1.814210 0.000000 0.000000 
#    y 0.000000 1.761190 0.000000 
#    z 0.000000 0.000000 1.836720 
# 
# From -- ./inp_files/5401.got.cif
#   From: 2010.03.12/outbox.cif.g09.slc.cpg/sg46_3_cif.got.tgz:5401.got - 2010.04.14 02:56:35.
