data_PCOD8192766
_publ_section_title
;
Structure prediction by ZEFSAII (Michael W. Deem and Ramdas Pophale) SiO2 
 PCOD8192766
Probable space group: I M A 2
;
_chemical_formula_sum "Si O2"
_cell_formula_units_Z 48
_cell_length_a 13.940822
_cell_length_b 19.790573
_cell_length_c 8.513505
_cell_angle_alpha 90.000000
_cell_angle_beta 90.000000
_cell_angle_gamma 90.000000
_cell_volume 2348.849259
_symmetry_space_group_name_H-M "I M A 2"
_symmetry_group_IT_number 46
_symmetry_cell_setting 'orthorhombic'
loop_
_space_group_symop_operation_xyz
x,y,z
-x,-y,z
1/2-x,y,z
1/2+x,-y,z
1/2+x,1/2+y,1/2+z
1/2-x,1/2-y,1/2+z
-x,1/2+y,1/2+z
x,1/2-y,1/2+z
loop_
_atom_site_type_symbol
_atom_site_label
_atom_site_fract_x
_atom_site_fract_y
_atom_site_fract_z
Si Si1 0.448943 0.586374 0.236880
Si Si2 0.354068 0.542180 0.543042
Si Si3 0.362786 0.710578 0.079991
Si Si4 0.579741 0.341090 0.739139
Si Si5 0.923225 0.943362 0.279576
Si Si6 0.142543 0.041446 0.608572
O O1 0.434361 0.561664 0.415776
O O2 0.406564 0.660252 0.209753
O O3 0.563371 0.585954 0.202394
O O4 0.390486 0.536534 0.121424
O O5 0.250000 0.541082 0.460886
O O6 0.353565 0.597099 0.682708
O O7 0.372690 0.468331 0.618949
O O8 0.250000 0.718594 0.110171
O O9 0.414901 0.782038 0.109478
O O10 0.382835 0.685775 0.905106
O O11 0.471410 0.369922 0.751876
O O12 0.851440 0.936937 0.426135
O O13 0.000000 0.000000 0.329398
O O14 0.250000 0.051815 0.678913
#
# Coordination Sequence:
#
# PCOD8192766 Si02
#       6
#     8   8   8   8   8   8
#     4  11  23  38  61 100 129 163 205 261 318 377
#     4  11  22  38  63  96 132 168 210 261 317 381
#     4  12  22  39  62  90 131 170 207 255 319 389
#     4  11  24  39  59  93 128 170 210 255 318 381
#     4  10  20  39  60  89 127 167 207 258 304 366
#     4  11  21  39  64  91 125 166 210 255 312 372
#
# _framework density 20.435538999999999
#
# number of rings (size 3 to 8) (size 9 to 14) (size 15 to 20)
#    0.000    1.000    3.333    5.500    7.000    0.000 
#    0.000    0.000    0.000    2.000    0.000    0.000 
#    0.000    0.000    0.000    0.000    0.000    0.000 
#
# Total GULP energy -297520.406715 kJ/mol
# GULP energy per Si atom -12396.683613 kJ/mol
# Density = 2.038903 g / cm^3
# Si number density = 20.435539 Si / 1000 Ang^3
#
#
#
# Elastic Constant Matrix: (Units=GPa)
#
#
# Indices 1 2 3 4 5 6 
#
# 1 129.0006 47.3127 48.0988 0.0000 0.0000 0.0000
# 2 47.3127 105.8570 25.9158 0.0000 0.0000 0.0000
# 3 48.0988 25.9158 111.5202 0.0000 0.0000 0.0000
# 4 0.0000 0.0000 0.0000 34.2823 0.0000 0.0000
# 5 0.0000 0.0000 0.0000 0.0000 20.5392 0.0000
# 6 0.0000 0.0000 0.0000 0.0000 0.0000 17.1284
#
#
#
# Elastic Compliance Matrix: (Units=1/GPa)
#
#
# Indices 1 2 3 4 5 6 
#
# 1 0.010507 -0.003803 -0.003648 0.000000 0.000000 0.000000
# 2 -0.003803 0.011393 -0.001007 0.000000 0.000000 0.000000
# 3 -0.003648 -0.001007 0.010774 0.000000 0.000000 0.000000
# 4 0.000000 0.000000 0.000000 0.029170 0.000000 0.000000
# 5 0.000000 0.000000 0.000000 0.000000 0.048687 0.000000
# 6 0.000000 0.000000 0.000000 0.000000 0.000000 0.058383
#
#
# Mechanical properties :
#
#
# Convention : Reuss Voigt Hill
#
# Bulk Modulus (GPa) = 63.46013 65.44806 64.45409
# Shear Modulus (GPa) = 26.16665 29.39333 27.77999
#
# Velocity S-wave (km/s) = 3.58222 3.79666 3.69100
# Velocity P-wave (km/s) = 6.94485 7.16350 7.05502
#
# Compressibility (1/GPa) = 0.01575793
#
# Stress axis : x y z
#
# Youngs Moduli (GPa) = 95.17636 87.77274 92.81246
#
# Poissons Ratio (x) = 0.33380 0.33857
# Poissons Ratio (y) = 0.36195 0.09350
# Poissons Ratio (z) = 0.34719 0.08842
#
# Static dielectric constant tensor:
#      x y z
#    x 3.684890 0.000000 0.000000 
#    y 0.000000 3.702310 0.000000 
#    z 0.000000 0.000000 3.701480 
# 
# 
# High freq. dielectric constant tensor:
#      x y z
#    x 1.786260 0.000000 0.000000 
#    y 0.000000 1.773020 0.000000 
#    z 0.000000 0.000000 1.812940 
# 
# From -- ./inp_files/5718.got.cif
#   From: 2010.03.12/outbox.cif.g09.slc.cpg/sg46_3_cif.got.tgz:5718.got - 2010.04.14 02:56:35.
