data_PCOD8192941
_publ_section_title
;
Structure prediction by ZEFSAII (Michael W. Deem and Ramdas Pophale) SiO2 
 PCOD8192941
Probable space group: I M A 2
;
_chemical_formula_sum "Si O2"
_cell_formula_units_Z 64
_cell_length_a 9.019247
_cell_length_b 17.468955
_cell_length_c 20.239853
_cell_angle_alpha 90.000000
_cell_angle_beta 90.000000
_cell_angle_gamma 90.000000
_cell_volume 3188.926875
_symmetry_space_group_name_H-M "I M A 2"
_symmetry_group_IT_number 46
_symmetry_cell_setting 'orthorhombic'
loop_
_space_group_symop_operation_xyz
x,y,z
-x,-y,z
1/2-x,y,z
1/2+x,-y,z
1/2+x,1/2+y,1/2+z
1/2-x,1/2-y,1/2+z
-x,1/2+y,1/2+z
x,1/2-y,1/2+z
loop_
_atom_site_type_symbol
_atom_site_label
_atom_site_fract_x
_atom_site_fract_y
_atom_site_fract_z
Si Si1 0.921851 0.580758 0.872050
Si Si2 0.921118 0.824092 0.500901
Si Si3 0.922613 0.579918 0.125240
Si Si4 0.425256 0.832471 0.256631
Si Si5 0.423506 0.665696 0.495267
Si Si6 0.920970 0.675131 0.251533
Si Si7 0.577589 0.079490 0.126858
Si Si8 0.922789 0.921833 0.879866
O O1 0.750000 0.570702 0.854568
O O2 0.945769 0.611386 0.945695
O O3 0.000000 0.500000 0.863555
O O4 0.992174 0.641595 0.822396
O O5 0.750000 0.797761 0.503309
O O6 0.975120 0.859250 0.570207
O O7 0.020209 0.751293 0.483731
O O8 0.750000 0.564594 0.117164
O O9 0.963877 0.611927 0.197141
O O10 0.000000 0.500000 0.112927
O O11 0.250000 0.835981 0.267274
O O12 0.472063 0.746375 0.240313
O O13 0.477399 0.885995 0.196205
O O14 0.250000 0.662430 0.479400
O O15 0.460180 0.640420 0.569828
O O16 0.506734 0.607436 0.447401
O O17 0.750000 0.700685 0.243186
O O18 0.950161 0.640755 0.323470
O O19 0.750000 0.062057 0.129365
O O20 0.500000 0.000000 0.111414
O O21 0.750000 0.937467 0.891152
O O22 0.000000 0.000000 0.857444
#
# Coordination Sequence:
#
# PCOD8192941 Si02
#       8
#     8   8   8   8   8   8   8   8
#     4  11  23  39  59  85 117 151 190 235 283 337
#     4  10  22  39  59  85 117 152 190 234 284 337
#     4  10  21  38  60  86 116 152 193 236 285 338
#     4  11  23  39  60  86 115 149 191 236 284 339
#     4  11  23  39  60  86 115 149 191 236 284 339
#     4  10  22  39  59  85 117 152 190 234 284 337
#     4  10  23  40  58  84 114 146 187 234 282 334
#     4  11  23  39  59  85 117 151 190 235 283 337
#
# _framework density 20.069448999999999
#
# number of rings (size 3 to 8) (size 9 to 14) (size 15 to 20)
#    0.000    1.500    0.000    4.500    0.000   10.000 
#    0.000    0.000    0.000    0.000    0.000    0.000 
#    0.000    0.000    0.000    0.000    0.000    0.000 
#
# Total GULP energy -397030.221924 kJ/mol
# GULP energy per Si atom -12407.194435 kJ/mol
# Density = 2.002377 g / cm^3
# Si number density = 20.069449 Si / 1000 Ang^3
#
#
#
# Elastic Constant Matrix: (Units=GPa)
#
#
# Indices 1 2 3 4 5 6 
#
# 1 90.2106 48.4386 39.5056 0.0000 0.0000 0.0000
# 2 48.4386 102.1235 11.0427 0.0000 0.0000 0.0000
# 3 39.5056 11.0427 90.1358 0.0000 0.0000 0.0000
# 4 0.0000 0.0000 0.0000 29.3167 0.0000 0.0000
# 5 0.0000 0.0000 0.0000 0.0000 29.5323 0.0000
# 6 0.0000 0.0000 0.0000 0.0000 0.0000 44.3604
#
#
#
# Elastic Compliance Matrix: (Units=1/GPa)
#
#
# Indices 1 2 3 4 5 6 
#
# 1 0.018507 -0.008007 -0.007131 0.000000 0.000000 0.000000
# 2 -0.008007 0.013388 0.001869 0.000000 0.000000 0.000000
# 3 -0.007131 0.001869 0.013991 0.000000 0.000000 0.000000
# 4 0.000000 0.000000 0.000000 0.034110 0.000000 0.000000
# 5 0.000000 0.000000 0.000000 0.000000 0.033861 0.000000
# 6 0.000000 0.000000 0.000000 0.000000 0.000000 0.022543
#
#
# Mechanical properties :
#
#
# Convention : Reuss Voigt Hill
#
# Bulk Modulus (GPa) = 51.68278 53.38263 52.53270
# Shear Modulus (GPa) = 29.51826 32.87408 31.19617
#
# Velocity S-wave (km/s) = 3.83927 4.05163 3.94688
# Velocity P-wave (km/s) = 6.74249 6.96738 6.85586
#
# Compressibility (1/GPa) = 0.01934881
#
# Stress axis : x y z
#
# Youngs Moduli (GPa) = 54.03257 74.69434 71.47640
#
# Poissons Ratio (x) = 0.59810 0.50967
# Poissons Ratio (y) = 0.43265 -0.13361
# Poissons Ratio (z) = 0.38528 -0.13963
#
# Static dielectric constant tensor:
#      x y z
#    x 3.656280 0.000000 0.000000 
#    y 0.000000 3.561750 0.000000 
#    z 0.000000 0.000000 3.827930 
# 
# 
# High freq. dielectric constant tensor:
#      x y z
#    x 1.785000 0.000000 0.000000 
#    y 0.000000 1.792400 0.000000 
#    z 0.000000 0.000000 1.799860 
# 
# From -- ./inp_files/21353.got.cif
#   From: 2010.03.12/outbox.cif.g09.slc.cpg/sg46_11_cif.got.tgz:21353.got - 2010.04.14 02:56:35.
