data_PCOD8192855
_publ_section_title
;
Structure prediction by ZEFSAII (Michael W. Deem and Ramdas Pophale) SiO2 
 PCOD8192855
Probable space group: I M A 2
;
_chemical_formula_sum "Si O2"
_cell_formula_units_Z 64
_cell_length_a 15.407352
_cell_length_b 12.012575
_cell_length_c 17.679975
_cell_angle_alpha 90.000000
_cell_angle_beta 90.000000
_cell_angle_gamma 90.000000
_cell_volume 3272.244628
_symmetry_space_group_name_H-M "I M A 2"
_symmetry_group_IT_number 46
_symmetry_cell_setting 'orthorhombic'
loop_
_space_group_symop_operation_xyz
x,y,z
-x,-y,z
1/2-x,y,z
1/2+x,-y,z
1/2+x,1/2+y,1/2+z
1/2-x,1/2-y,1/2+z
-x,1/2+y,1/2+z
x,1/2-y,1/2+z
loop_
_atom_site_type_symbol
_atom_site_label
_atom_site_fract_x
_atom_site_fract_y
_atom_site_fract_z
Si Si1 0.149613 0.019694 0.531870
Si Si2 0.651278 0.739098 0.267003
Si Si3 0.346646 0.726632 0.013764
Si Si4 0.402124 0.012745 0.698080
Si Si5 0.497117 0.125627 0.191855
Si Si6 0.149207 0.235655 0.440403
Si Si7 0.655858 0.269471 0.192982
Si Si8 0.502652 0.874920 0.012373
O O1 0.250000 0.021292 0.555998
O O2 0.096738 0.042631 0.608752
O O3 0.126833 0.112283 0.470004
O O4 0.126537 0.900576 0.494473
O O5 0.750000 0.778038 0.254208
O O6 0.643177 0.609914 0.245439
O O7 0.591934 0.815940 0.214837
O O8 0.622962 0.757322 0.353214
O O9 0.250000 0.754949 0.981445
O O10 0.345890 0.739691 0.103288
O O11 0.419433 0.808129 0.978366
O O12 0.500000 0.000000 0.726061
O O13 0.353804 0.897925 0.716624
O O14 0.579179 0.192937 0.226938
O O15 0.501597 0.126753 0.102151
O O16 0.500000 0.000000 0.223380
O O17 0.250000 0.265375 0.453455
O O18 0.093422 0.323434 0.487082
O O19 0.750000 0.227925 0.223292
O O20 0.500000 0.000000 0.980705
#
# Coordination Sequence:
#
# PCOD8192855 Si02
#       8
#     8   8   8   8   8   8   8   8
#     4   9  18  33  55  87 114 140 187 236 285 344
#     4  11  23  40  57  80 118 158 191 234 286 343
#     4   8  16  31  54  84 114 138 172 229 290 337
#     4  11  19  31  59  91 114 142 187 242 294 340
#     4  10  21  38  58  86 112 148 196 237 283 342
#     4  10  23  39  56  80 115 155 192 231 283 340
#     4   9  17  32  54  85 117 141 173 230 293 341
#     4  10  21  36  57  82 113 147 192 236 279 339
#
# _framework density 19.558440000000001
#
# number of rings (size 3 to 8) (size 9 to 14) (size 15 to 20)
#    0.000    2.250    1.250    2.625    3.500    3.000 
#    2.250    2.500    0.000    0.750    0.000    0.000 
#    0.000    0.000    0.000    0.000    0.000    0.000 
#
# Total GULP energy -396791.983726 kJ/mol
# GULP energy per Si atom -12399.749491 kJ/mol
# Density = 1.951392 g / cm^3
# Si number density = 19.558440 Si / 1000 Ang^3
#
#
#
# Elastic Constant Matrix: (Units=GPa)
#
#
# Indices 1 2 3 4 5 6 
#
# 1 114.2631 63.7939 18.2975 0.0000 0.0000 0.0000
# 2 63.7939 159.0752 37.5854 0.0000 0.0000 0.0000
# 3 18.2975 37.5854 31.3875 0.0000 0.0000 0.0000
# 4 0.0000 0.0000 0.0000 2.9312 0.0000 0.0000
# 5 0.0000 0.0000 0.0000 0.0000 17.7249 0.0000
# 6 0.0000 0.0000 0.0000 0.0000 0.0000 29.4833
#
#
#
# Elastic Compliance Matrix: (Units=1/GPa)
#
#
# Indices 1 2 3 4 5 6 
#
# 1 0.011336 -0.004162 -0.001624 0.000000 0.000000 0.000000
# 2 -0.004162 0.010295 -0.009901 0.000000 0.000000 0.000000
# 3 -0.001624 -0.009901 0.044663 0.000000 0.000000 0.000000
# 4 0.000000 0.000000 0.000000 0.341151 0.000000 0.000000
# 5 0.000000 0.000000 0.000000 0.000000 0.056418 0.000000
# 6 0.000000 0.000000 0.000000 0.000000 0.000000 0.033918
#
#
# Mechanical properties :
#
#
# Convention : Reuss Voigt Hill
#
# Bulk Modulus (GPa) = 28.63829 60.45328 44.54579
# Shear Modulus (GPa) = 9.24564 22.36448 15.80506
#
# Velocity S-wave (km/s) = 2.17657 3.38519 2.84578
# Velocity P-wave (km/s) = 4.58157 6.80114 5.79855
#
# Compressibility (1/GPa) = 0.03491828
#
# Stress axis : x y z
#
# Youngs Moduli (GPa) = 88.21782 97.13489 22.38982
#
# Poissons Ratio (x) = 0.40429 0.03636
# Poissons Ratio (y) = 0.36718 0.22169
# Poissons Ratio (z) = 0.14327 0.96178
#
# Static dielectric constant tensor:
#      x y z
#    x 3.823230 0.000000 0.000000 
#    y 0.000000 3.809540 0.000000 
#    z 0.000000 0.000000 3.134390 
# 
# 
# High freq. dielectric constant tensor:
#      x y z
#    x 1.777570 0.000000 0.000000 
#    y 0.000000 1.766860 0.000000 
#    z 0.000000 0.000000 1.715950 
# 
# From -- ./inp_files/19652.got.cif
#   From: 2010.03.12/outbox.cif.g09.slc.cpg/sg46_10_cif.got.tgz:19652.got - 2010.04.14 02:56:35.
