data_PCOD8192103
_publ_section_title
;
Structure prediction by ZEFSAII (Michael W. Deem and Ramdas Pophale) SiO2 
 PCOD8192103
Probable space group: I M A 2
;
_chemical_formula_sum "Si O2"
_cell_formula_units_Z 64
_cell_length_a 8.910547
_cell_length_b 18.076223
_cell_length_c 20.501169
_cell_angle_alpha 90.000000
_cell_angle_beta 90.000000
_cell_angle_gamma 90.000000
_cell_volume 3302.103499
_symmetry_space_group_name_H-M "I M A 2"
_symmetry_group_IT_number 46
_symmetry_cell_setting 'orthorhombic'
loop_
_space_group_symop_operation_xyz
x,y,z
-x,-y,z
1/2-x,y,z
1/2+x,-y,z
1/2+x,1/2+y,1/2+z
1/2-x,1/2-y,1/2+z
-x,1/2+y,1/2+z
x,1/2-y,1/2+z
loop_
_atom_site_type_symbol
_atom_site_label
_atom_site_fract_x
_atom_site_fract_y
_atom_site_fract_z
Si Si1 0.580923 0.702790 0.561360
Si Si2 0.075340 0.842806 0.696736
Si Si3 0.076911 0.357965 0.925530
Si Si4 0.421577 0.186378 0.203603
Si Si5 0.421325 0.648643 0.053967
Si Si6 0.573015 0.076741 0.301080
Si Si7 0.423888 0.923947 0.825431
Si Si8 0.918701 0.816641 0.920613
O O1 0.750000 0.738769 0.558742
O O2 0.564889 0.656508 0.628610
O O3 0.452646 0.764290 0.560923
O O4 0.560999 0.654183 0.495521
O O5 0.250000 0.818831 0.702523
O O6 0.045727 0.883163 0.626752
O O7 0.030595 0.901543 0.752090
O O8 0.970949 0.771562 0.706489
O O9 0.250000 0.378075 0.915553
O O10 0.045813 0.270729 0.918294
O O11 0.980890 0.401948 0.872982
O O12 0.025979 0.385989 0.997542
O O13 0.250000 0.180636 0.228584
O O14 0.527426 0.138933 0.249495
O O15 0.250000 0.636026 0.033020
O O16 0.750000 0.068024 0.301290
O O17 0.500000 0.000000 0.278737
O O18 0.250000 0.937393 0.832210
O O19 0.467183 0.858517 0.874417
O O20 0.500000 0.000000 0.846055
O O21 0.750000 0.831880 0.895895
#
# Coordination Sequence:
#
# PCOD8192103 Si02
#       8
#     8   8   8   8   8   8   8   8
#     4   8  16  31  52  79 110 140 173 216 264 316
#     4   9  19  35  55  80 109 142 181 223 266 317
#     4  10  20  36  58  84 111 140 176 217 264 320
#     4  10  19  34  58  85 110 139 176 219 268 320
#     4   9  16  29  52  81 110 138 173 220 268 312
#     4  12  25  40  56  77 108 144 182 223 268 320
#     4  11  23  37  52  73 104 141 181 222 265 313
#     4   9  18  34  56  81 108 138 174 216 261 312
#
# _framework density 19.381585999999999
#
# number of rings (size 3 to 8) (size 9 to 14) (size 15 to 20)
#    0.000    2.250    0.000    4.125    0.000    6.500 
#    0.000    1.250    0.000    1.500    0.000    0.000 
#    0.000    0.000    0.000    0.000    0.000    0.000 
#
# Total GULP energy -396686.592091 kJ/mol
# GULP energy per Si atom -12396.456003 kJ/mol
# Density = 1.933747 g / cm^3
# Si number density = 19.381586 Si / 1000 Ang^3
#
#
#
# Elastic Constant Matrix: (Units=GPa)
#
#
# Indices 1 2 3 4 5 6 
#
# 1 97.7311 21.4056 34.8143 0.0000 0.0000 0.0000
# 2 21.4056 29.1566 4.1213 0.0000 0.0000 0.0000
# 3 34.8143 4.1213 92.6926 0.0000 0.0000 0.0000
# 4 0.0000 0.0000 0.0000 1.4822 0.0000 0.0000
# 5 0.0000 0.0000 0.0000 0.0000 33.2878 0.0000
# 6 0.0000 0.0000 0.0000 0.0000 0.0000 26.5618
#
#
#
# Elastic Compliance Matrix: (Units=1/GPa)
#
#
# Indices 1 2 3 4 5 6 
#
# 1 0.014076 -0.009647 -0.004858 0.000000 0.000000 0.000000
# 2 -0.009647 0.041126 0.001795 0.000000 0.000000 0.000000
# 3 -0.004858 0.001795 0.012533 0.000000 0.000000 0.000000
# 4 0.000000 0.000000 0.000000 0.674680 0.000000 0.000000
# 5 0.000000 0.000000 0.000000 0.000000 0.030041 0.000000
# 6 0.000000 0.000000 0.000000 0.000000 0.000000 0.037648
#
#
# Mechanical properties :
#
#
# Convention : Reuss Voigt Hill
#
# Bulk Modulus (GPa) = 23.63227 37.80695 30.71961
# Shear Modulus (GPa) = 5.88492 22.88229 14.38360
#
# Velocity S-wave (km/s) = 1.74440 3.43974 2.72716
# Velocity P-wave (km/s) = 4.03446 5.94346 5.07945
#
# Compressibility (1/GPa) = 0.04231501
#
# Stress axis : x y z
#
# Youngs Moduli (GPa) = 71.04523 24.31530 79.78911
#
# Poissons Ratio (x) = 0.23457 0.38759
# Poissons Ratio (y) = 0.68538 -0.14320
# Poissons Ratio (z) = 0.34512 -0.04364
#
# Static dielectric constant tensor:
#      x y z
#    x 3.559980 0.000000 0.000000 
#    y 0.000000 3.092050 0.000000 
#    z 0.000000 0.000000 3.990270 
# 
# 
# High freq. dielectric constant tensor:
#      x y z
#    x 1.763100 0.000000 0.000000 
#    y 0.000000 1.704110 0.000000 
#    z 0.000000 0.000000 1.778300 
# 
# From -- ./inp_files/21346.got.cif
#   From: 2010.03.12/outbox.cif.g09.slc.cpg/sg46_11_cif.got.tgz:21346.got - 2010.04.14 02:56:35.
