data_PCOD8192966
_publ_section_title
;
Structure prediction by ZEFSAII (Michael W. Deem and Ramdas Pophale) SiO2 
 PCOD8192966
Probable space group: I M A 2
;
_chemical_formula_sum "Si O2"
_cell_formula_units_Z 48
_cell_length_a 8.567984
_cell_length_b 27.906919
_cell_length_c 9.651082
_cell_angle_alpha 90.000000
_cell_angle_beta 90.000000
_cell_angle_gamma 90.000000
_cell_volume 2307.631955
_symmetry_space_group_name_H-M "I M A 2"
_symmetry_group_IT_number 46
_symmetry_cell_setting 'orthorhombic'
loop_
_space_group_symop_operation_xyz
x,y,z
-x,-y,z
1/2-x,y,z
1/2+x,-y,z
1/2+x,1/2+y,1/2+z
1/2-x,1/2-y,1/2+z
-x,1/2+y,1/2+z
x,1/2-y,1/2+z
loop_
_atom_site_type_symbol
_atom_site_label
_atom_site_fract_x
_atom_site_fract_y
_atom_site_fract_z
Si Si1 0.066827 0.791755 0.039890
Si Si2 0.066483 0.209886 0.731576
Si Si3 0.931886 0.446779 0.892961
Si Si4 0.923893 0.547999 0.400851
Si Si5 0.073501 0.392276 0.134019
Si Si6 0.435212 0.390317 0.645741
O O1 0.250000 0.782384 0.051630
O O2 0.976744 0.753576 0.133404
O O3 0.025763 0.842467 0.106875
O O4 0.019240 0.787607 0.879239
O O5 0.250000 0.209337 0.763096
O O6 0.018125 0.162717 0.643436
O O7 0.750000 0.448916 0.857407
O O8 0.000000 0.500000 0.879344
O O9 0.020616 0.408482 0.797383
O O10 0.957446 0.425384 0.045772
O O11 0.750000 0.532954 0.435414
O O12 0.934629 0.589843 0.290359
O O13 0.997704 0.568360 0.542142
O O14 0.000000 0.500000 0.344064
O O15 0.250000 0.396823 0.074928
O O16 0.250000 0.381219 0.632313
#
# Coordination Sequence:
#
# PCOD8192966 Si02
#       6
#     8   8   8   8   8   8
#     4  12  26  44  68 102 137 169 218 277 333 393
#     4  11  24  46  72  97 131 177 222 266 330 403
#     4  12  26  43  64  96 134 176 223 272 330 390
#     4  10  21  38  63  94 124 160 210 260 316 383
#     4  10  22  43  67  94 127 170 219 267 321 391
#     4  11  23  44  68  93 129 174 221 268 326 396
#
# _framework density 20.800543999999999
#
# number of rings (size 3 to 8) (size 9 to 14) (size 15 to 20)
#    0.000    1.000    1.667    5.000    2.333    6.000 
#    0.000    0.000    0.000    0.000    0.000    0.000 
#    0.000    0.000    0.000    0.000    0.000    0.000 
#
# Total GULP energy -297637.906122 kJ/mol
# GULP energy per Si atom -12401.579422 kJ/mol
# Density = 2.075320 g / cm^3
# Si number density = 20.800544 Si / 1000 Ang^3
#
#
#
# Elastic Constant Matrix: (Units=GPa)
#
#
# Indices 1 2 3 4 5 6 
#
# 1 58.8519 25.0911 16.7910 0.0019 0.0007 0.0005
# 2 25.0911 124.4821 30.1194 -0.0045 0.0000 -0.0003
# 3 16.7910 30.1194 72.9061 -0.0130 -0.0008 0.0024
# 4 0.0019 -0.0045 -0.0130 37.0138 -0.0001 0.0007
# 5 0.0007 0.0000 -0.0008 -0.0001 34.8393 -0.0014
# 6 0.0005 -0.0003 0.0024 0.0007 -0.0014 31.1705
#
#
#
# Elastic Compliance Matrix: (Units=1/GPa)
#
#
# Indices 1 2 3 4 5 6 
#
# 1 0.019215 -0.003113 -0.003139 -0.000002 0.000000 0.000000
# 2 -0.003113 0.009430 -0.003179 0.000000 0.000000 0.000000
# 3 -0.003139 -0.003179 0.015752 0.000005 0.000000 -0.000001
# 4 -0.000002 0.000000 0.000005 0.027017 0.000000 -0.000001
# 5 0.000000 0.000000 0.000000 0.000000 0.028703 0.000001
# 6 0.000000 0.000000 -0.000001 -0.000001 0.000001 0.032082
#
#
# Mechanical properties :
#
#
# Convention : Reuss Voigt Hill
#
# Bulk Modulus (GPa) = 39.16243 44.47143 41.81693
# Shear Modulus (GPa) = 31.33359 32.88729 32.11044
#
# Velocity S-wave (km/s) = 3.88543 3.98059 3.93330
# Velocity P-wave (km/s) = 6.24477 6.52328 6.38554
#
# Compressibility (1/GPa) = 0.02553468
#
# Stress axis : x y z
#
# Youngs Moduli (GPa) = 52.04312 106.04504 63.48220
#
# Poissons Ratio (x) = 0.33017 0.19928
# Poissons Ratio (y) = 0.16204 0.20179
# Poissons Ratio (z) = 0.16337 0.33708
#
# Static dielectric constant tensor:
#      x y z
#    x 3.758310 0.000000 0.000000 
#    y 0.000000 3.944610 -0.000010 
#    z 0.000000 -0.000010 3.741010 
# 
# 
# High freq. dielectric constant tensor:
#      x y z
#    x 1.813560 0.000000 0.000000 
#    y 0.000000 1.830330 0.000000 
#    z 0.000000 0.000000 1.824140 
# 
# From -- ./inp_files/3931.got.cif
#   From: 2010.03.12/outbox.cif.g09.slc.cpg/sg46_2_cif.got.tgz:3931.got - 2010.04.14 02:56:35.
