data_PCOD8192164
_publ_section_title
;
Structure prediction by ZEFSAII (Michael W. Deem and Ramdas Pophale) SiO2 
 PCOD8192164
Probable space group: I M A 2
;
_chemical_formula_sum "Si O2"
_cell_formula_units_Z 64
_cell_length_a 9.095461
_cell_length_b 27.221351
_cell_length_c 13.085658
_cell_angle_alpha 90.000000
_cell_angle_beta 90.000000
_cell_angle_gamma 90.000000
_cell_volume 3239.887700
_symmetry_space_group_name_H-M "I M A 2"
_symmetry_group_IT_number 46
_symmetry_cell_setting 'orthorhombic'
loop_
_space_group_symop_operation_xyz
x,y,z
-x,-y,z
1/2-x,y,z
1/2+x,-y,z
1/2+x,1/2+y,1/2+z
1/2-x,1/2-y,1/2+z
-x,1/2+y,1/2+z
x,1/2-y,1/2+z
loop_
_atom_site_type_symbol
_atom_site_label
_atom_site_fract_x
_atom_site_fract_y
_atom_site_fract_z
Si Si1 0.923348 0.374144 0.009030
Si Si2 0.923877 0.097931 0.125559
Si Si3 0.414547 0.734944 0.985589
Si Si4 0.075724 0.948364 0.914773
Si Si5 0.577438 0.127218 0.738148
Si Si6 0.414265 0.704289 0.682136
Si Si7 0.075165 0.949052 0.337645
Si Si8 0.577022 0.723475 0.313450
O O1 0.750000 0.371075 0.999856
O O2 0.965427 0.391591 0.124151
O O3 0.984516 0.319652 0.985492
O O4 0.984743 0.411347 0.923671
O O5 0.750000 0.097783 0.116715
O O6 0.980250 0.153920 0.135870
O O7 0.976845 0.067909 0.225065
O O8 0.986904 0.073976 0.021426
O O9 0.250000 0.736395 0.937353
O O10 0.520835 0.774044 0.929795
O O11 0.406050 0.752309 0.101206
O O12 0.250000 0.955769 0.919051
O O13 0.029694 0.913122 0.821292
O O14 0.000000 0.000000 0.894027
O O15 0.750000 0.138854 0.746893
O O16 0.491041 0.177230 0.756744
O O17 0.250000 0.693699 0.726319
O O18 0.520377 0.724058 0.770349
O O19 0.250000 0.954481 0.342888
O O20 0.000000 0.000000 0.364176
O O21 0.750000 0.719756 0.306015
#
# Coordination Sequence:
#
# PCOD8192164 Si02
#       8
#     8   8   8   8   8   8   8   8
#     4   9  18  35  59  83 105 141 192 246 281 319
#     4   9  18  34  57  85 112 143 187 239 284 339
#     4  10  19  35  60  83 107 147 196 238 278 336
#     4  10  21  37  60  86 113 147 190 243 297 347
#     4  10  20  39  61  81 109 151 203 241 276 342
#     4  10  19  36  62  85 106 145 200 239 274 333
#     4  10  20  35  55  79 110 143 184 232 285 338
#     4  12  24  35  52  84 124 155 181 230 298 352
#
# _framework density 19.753769999999999
#
# number of rings (size 3 to 8) (size 9 to 14) (size 15 to 20)
#    0.000    2.000    1.250    3.000    0.000    5.500 
#    0.000    3.750    0.000    0.000    0.000    0.000 
#    0.000    0.000    0.000    0.000    0.000    0.000 
#
# Total GULP energy -396741.146421 kJ/mol
# GULP energy per Si atom -12398.160826 kJ/mol
# Density = 1.970881 g / cm^3
# Si number density = 19.753770 Si / 1000 Ang^3
#
#
#
# Elastic Constant Matrix: (Units=GPa)
#
#
# Indices 1 2 3 4 5 6 
#
# 1 50.6194 29.5155 27.5307 0.0001 0.0002 0.0000
# 2 29.5155 117.5544 40.5679 -0.0002 -0.0004 0.0000
# 3 27.5307 40.5679 123.6470 0.0005 0.0014 0.0000
# 4 0.0001 -0.0002 0.0005 37.2952 0.0004 0.0000
# 5 0.0002 -0.0004 0.0014 0.0004 8.4724 0.0002
# 6 0.0000 0.0000 0.0000 0.0000 0.0002 30.2606
#
#
#
# Elastic Compliance Matrix: (Units=1/GPa)
#
#
# Indices 1 2 3 4 5 6 
#
# 1 0.024713 -0.004856 -0.003909 0.000000 0.000000 0.000000
# 2 -0.004856 0.010547 -0.002379 0.000000 0.000001 0.000000
# 3 -0.003909 -0.002379 0.009739 0.000000 -0.000002 0.000000
# 4 0.000000 0.000000 0.000000 0.026813 -0.000001 0.000000
# 5 0.000000 0.000001 -0.000002 -0.000001 0.118030 -0.000001
# 6 0.000000 0.000000 0.000000 0.000000 -0.000001 0.033046
#
#
# Mechanical properties :
#
#
# Convention : Reuss Voigt Hill
#
# Bulk Modulus (GPa) = 44.03400 54.11654 49.07527
# Shear Modulus (GPa) = 19.78267 28.15275 23.96771
#
# Velocity S-wave (km/s) = 3.16802 3.77926 3.48706
# Velocity P-wave (km/s) = 5.97676 6.81900 6.41172
#
# Compressibility (1/GPa) = 0.02270972
#
# Stress axis : x y z
#
# Youngs Moduli (GPa) = 40.46489 94.81408 102.68444
#
# Poissons Ratio (x) = 0.46040 0.40142
# Poissons Ratio (y) = 0.19649 0.24431
# Poissons Ratio (z) = 0.15819 0.22558
#
# Static dielectric constant tensor:
#      x y z
#    x 3.143060 0.000000 0.000000 
#    y 0.000000 3.614140 0.000000 
#    z 0.000000 0.000000 3.892280 
# 
# 
# High freq. dielectric constant tensor:
#      x y z
#    x 1.720890 0.000000 0.000000 
#    y 0.000000 1.774090 0.000000 
#    z 0.000000 0.000000 1.787340 
# 
# From -- ./inp_files/9709.got.cif
#   From: 2010.03.12/outbox.cif.g09.slc.cpg/sg46_5_cif.got.tgz:9709.got - 2010.04.14 02:56:35.
