data_PCOD8192476
_publ_section_title
;
Structure prediction by ZEFSAII (Michael W. Deem and Ramdas Pophale) SiO2 
 PCOD8192476
Probable space group: I M A 2
;
_chemical_formula_sum "Si O2"
_cell_formula_units_Z 64
_cell_length_a 16.982797
_cell_length_b 9.436448
_cell_length_c 20.449924
_cell_angle_alpha 90.000000
_cell_angle_beta 90.000000
_cell_angle_gamma 90.000000
_cell_volume 3277.249213
_symmetry_space_group_name_H-M "I M A 2"
_symmetry_group_IT_number 46
_symmetry_cell_setting 'orthorhombic'
loop_
_space_group_symop_operation_xyz
x,y,z
-x,-y,z
1/2-x,y,z
1/2+x,-y,z
1/2+x,1/2+y,1/2+z
1/2-x,1/2-y,1/2+z
-x,1/2+y,1/2+z
x,1/2-y,1/2+z
loop_
_atom_site_type_symbol
_atom_site_label
_atom_site_fract_x
_atom_site_fract_y
_atom_site_fract_z
Si Si1 0.156486 0.934324 0.985780
Si Si2 0.841476 0.617696 0.369310
Si Si3 0.657566 0.855717 0.099045
Si Si4 0.076142 0.411061 0.729078
Si Si5 0.587834 0.553905 0.095443
Si Si6 0.343827 0.436414 0.862169
Si Si7 0.658184 0.380210 0.982989
Si Si8 0.925079 0.586292 0.241717
O O1 0.250000 0.924104 0.981193
O O2 0.119970 0.776210 0.987871
O O3 0.119440 0.014426 0.922910
O O4 0.132121 0.019765 0.050262
O O5 0.750000 0.613440 0.381456
O O6 0.871170 0.777673 0.380652
O O7 0.858010 0.564033 0.295911
O O8 0.750000 0.815474 0.092959
O O9 0.640719 0.914413 0.171459
O O10 0.603707 0.719673 0.080893
O O11 0.115417 0.479073 0.793771
O O12 0.049089 0.249575 0.738549
O O13 0.000000 0.500000 0.708526
O O14 0.500000 0.500000 0.079108
O O15 0.606762 0.527944 0.172172
O O16 0.645292 0.462401 0.050621
O O17 0.250000 0.446210 0.853350
O O18 0.376807 0.537188 0.919906
O O19 0.750000 0.367706 0.971120
O O20 0.000000 0.500000 0.265723
#
# Coordination Sequence:
#
# PCOD8192476 Si02
#       8
#     8   8   8   8   8   8   8   8
#     4   9  19  34  53  80 108 136 176 224 270 319
#     4   9  17  33  56  78 101 134 179 224 265 318
#     4  10  20  37  60  82 109 148 190 227 271 333
#     4  10  21  35  55  81 110 141 178 228 279 328
#     4  10  21  36  55  80 110 142 180 230 281 331
#     4   9  18  34  56  79 104 140 184 226 270 325
#     4  10  20  35  55  79 109 143 183 230 276 327
#     4   9  20  36  52  75 106 138 173 215 268 329
#
# _framework density 19.528572
#
# number of rings (size 3 to 8) (size 9 to 14) (size 15 to 20)
#    0.000    2.500    0.000    1.500    0.000   10.000 
#    0.000    3.125    0.000    5.250    0.000    0.000 
#    0.000    0.000    0.000    0.000    0.000    0.000 
#
# Total GULP energy -396704.176107 kJ/mol
# GULP energy per Si atom -12397.005503 kJ/mol
# Density = 1.948412 g / cm^3
# Si number density = 19.528572 Si / 1000 Ang^3
#
#
#
# Elastic Constant Matrix: (Units=GPa)
#
#
# Indices 1 2 3 4 5 6 
#
# 1 32.7556 29.2986 26.7911 0.0000 0.0000 0.0000
# 2 29.2986 124.2410 86.4625 0.0000 0.0000 0.0000
# 3 26.7911 86.4625 135.3927 0.0000 0.0000 0.0000
# 4 0.0000 0.0000 0.0000 23.9776 0.0000 0.0000
# 5 0.0000 0.0000 0.0000 0.0000 13.1221 0.0000
# 6 0.0000 0.0000 0.0000 0.0000 0.0000 29.3128
#
#
#
# Elastic Compliance Matrix: (Units=1/GPa)
#
#
# Indices 1 2 3 4 5 6 
#
# 1 0.039523 -0.006980 -0.003364 0.000000 0.000000 0.000000
# 2 -0.006980 0.015720 -0.008658 0.000000 0.000000 0.000000
# 3 -0.003364 -0.008658 0.013580 0.000000 0.000000 0.000000
# 4 0.000000 0.000000 0.000000 0.041706 0.000000 0.000000
# 5 0.000000 0.000000 0.000000 0.000000 0.076208 0.000000
# 6 0.000000 0.000000 0.000000 0.000000 0.000000 0.034115
#
#
# Mechanical properties :
#
#
# Convention : Reuss Voigt Hill
#
# Bulk Modulus (GPa) = 32.44460 64.16596 48.30528
# Shear Modulus (GPa) = 18.57858 23.27163 20.92511
#
# Velocity S-wave (km/s) = 3.08775 3.45580 3.27695
# Velocity P-wave (km/s) = 5.41869 6.98944 6.25358
#
# Compressibility (1/GPa) = 0.03082177
#
# Stress axis : x y z
#
# Youngs Moduli (GPa) = 25.30159 63.61343 73.63571
#
# Poissons Ratio (x) = 0.44400 0.24768
# Poissons Ratio (y) = 0.17660 0.63752
# Poissons Ratio (z) = 0.08510 0.55075
#
# Static dielectric constant tensor:
#      x y z
#    x 3.239730 0.000000 0.000000 
#    y 0.000000 3.809240 0.000000 
#    z 0.000000 0.000000 3.738810 
# 
# 
# High freq. dielectric constant tensor:
#      x y z
#    x 1.729990 0.000000 0.000000 
#    y 0.000000 1.761630 0.000000 
#    z 0.000000 0.000000 1.775040 
# 
# From -- ./inp_files/20221.got.cif
#   From: 2010.03.12/outbox.cif.g09.slc.cpg/sg46_11_cif.got.tgz:20221.got - 2010.04.14 02:56:35.
