data_PCOD8192897
_publ_section_title
;
Structure prediction by ZEFSAII (Michael W. Deem and Ramdas Pophale) SiO2 
 PCOD8192897
Probable space group: I M A 2
;
_chemical_formula_sum "Si O2"
_cell_formula_units_Z 64
_cell_length_a 8.698019
_cell_length_b 30.824690
_cell_length_c 11.955521
_cell_angle_alpha 90.000000
_cell_angle_beta 90.000000
_cell_angle_gamma 90.000000
_cell_volume 3205.439440
_symmetry_space_group_name_H-M "I M A 2"
_symmetry_group_IT_number 46
_symmetry_cell_setting 'orthorhombic'
loop_
_space_group_symop_operation_xyz
x,y,z
-x,-y,z
1/2-x,y,z
1/2+x,-y,z
1/2+x,1/2+y,1/2+z
1/2-x,1/2-y,1/2+z
-x,1/2+y,1/2+z
x,1/2-y,1/2+z
loop_
_atom_site_type_symbol
_atom_site_label
_atom_site_fract_x
_atom_site_fract_y
_atom_site_fract_z
Si Si1 0.569776 0.876278 0.157380
Si Si2 0.431873 0.374733 0.405800
Si Si3 0.069859 0.071939 0.514719
Si Si4 0.432059 0.045241 0.760708
Si Si5 0.427090 0.296706 0.813393
Si Si6 0.928889 0.800272 0.739848
Si Si7 0.430321 0.544069 0.790174
Si Si8 0.427826 0.835722 0.521382
O O1 0.750000 0.886053 0.157484
O O2 0.532367 0.830634 0.215710
O O3 0.488613 0.914589 0.223336
O O4 0.502146 0.874133 0.031626
O O5 0.250000 0.377782 0.410760
O O6 0.497804 0.416384 0.339104
O O7 0.480734 0.330677 0.342985
O O8 0.250000 0.064695 0.495122
O O9 0.013509 0.053873 0.633981
O O10 0.977519 0.046581 0.419911
O O11 0.035565 0.122715 0.507689
O O12 0.250000 0.043689 0.767427
O O13 0.500000 0.000000 0.804411
O O14 0.250000 0.301191 0.850900
O O15 0.462382 0.249113 0.768879
O O16 0.536362 0.303796 0.919098
O O17 0.750000 0.808312 0.710039
O O18 0.034214 0.811172 0.635017
O O19 0.500000 0.500000 0.737898
O O20 0.250000 0.541763 0.779626
O O21 0.250000 0.849607 0.519289
#
# Coordination Sequence:
#
# PCOD8192897 Si02
#       8
#     8   8   8   8   8   8   8   8
#     4  10  21  39  62  89 121 158 205 256 304 360
#     4   9  19  38  61  87 120 157 202 254 301 351
#     4  11  21  39  64  90 122 158 204 256 304 359
#     4  10  21  37  59  87 119 154 194 249 302 357
#     4  10  22  38  65  94 120 160 210 257 301 357
#     4  10  21  40  66  93 121 159 209 255 299 362
#     4  12  25  41  62  90 123 161 203 251 308 366
#     4  12  24  38  61  92 130 166 197 249 311 366
#
# _framework density 19.966061
#
# number of rings (size 3 to 8) (size 9 to 14) (size 15 to 20)
#    0.000    1.500    2.500    3.000    1.750    3.000 
#    0.000    2.500    0.000    0.000    0.000    0.000 
#    0.000    0.000    0.000    0.000    0.000    0.000 
#
# Total GULP energy -396944.715642 kJ/mol
# GULP energy per Si atom -12404.522364 kJ/mol
# Density = 1.992062 g / cm^3
# Si number density = 19.966061 Si / 1000 Ang^3
#
#
#
# Elastic Constant Matrix: (Units=GPa)
#
#
# Indices 1 2 3 4 5 6 
#
# 1 56.2345 36.0796 37.1374 -0.0012 -0.0019 -0.0001
# 2 36.0796 158.8163 57.2197 -0.0036 -0.0025 -0.0003
# 3 37.1374 57.2197 138.1703 -0.0033 -0.0129 0.0000
# 4 -0.0012 -0.0036 -0.0033 47.5856 0.0083 -0.0010
# 5 -0.0019 -0.0025 -0.0129 0.0083 -2.8616 0.0012
# 6 -0.0001 -0.0003 0.0000 -0.0010 0.0012 26.0119
#
#
#
# Elastic Compliance Matrix: (Units=1/GPa)
#
#
# Indices 1 2 3 4 5 6 
#
# 1 0.023212 -0.003556 -0.004766 0.000000 0.000010 0.000000
# 2 -0.003556 0.007946 -0.002335 0.000000 0.000006 0.000000
# 3 -0.004766 -0.002335 0.009485 0.000000 -0.000038 0.000000
# 4 0.000000 0.000000 0.000000 0.021015 0.000061 0.000001
# 5 0.000010 0.000006 -0.000038 0.000061 -0.349456 0.000016
# 6 0.000000 0.000000 0.000000 0.000001 0.000016 0.038444
#
#
# Mechanical properties :
#
#
# Convention : Reuss Voigt Hill
#
# Bulk Modulus (GPa) = 51.73597 68.23274 59.98435
# Shear Modulus (GPa) = -22.56343 28.99950 3.21803
#
# Velocity S-wave (km/s) = -3.36533 3.81522 1.27092
# Velocity P-wave (km/s) = 3.29661 7.32506 5.67997
#
# Compressibility (1/GPa) = 0.01932891
#
# Stress axis : x y z
#
# Youngs Moduli (GPa) = 43.08155 125.85607 105.42562
#
# Poissons Ratio (x) = 0.44754 0.50248
# Poissons Ratio (y) = 0.15320 0.24614
# Poissons Ratio (z) = 0.20534 0.29383
#
# Static dielectric constant tensor:
#      x y z
#    x 3.514430 -0.000030 0.000010 
#    y -0.000030 3.641620 0.000000 
#    z 0.000010 0.000000 3.859930 
# 
# 
# High freq. dielectric constant tensor:
#      x y z
#    x 1.756610 0.000000 0.000000 
#    y 0.000000 1.793840 0.000000 
#    z 0.000000 0.000000 1.783950 
# 
# From -- ./inp_files/9683.got.cif
#   From: 2010.03.12/outbox.cif.g09.slc.cpg/sg46_5_cif.got.tgz:9683.got - 2010.04.14 02:56:35.
