data_PCOD8192707
_publ_section_title
;
Structure prediction by ZEFSAII (Michael W. Deem and Ramdas Pophale) SiO2 
 PCOD8192707
Probable space group: I M A 2
;
_chemical_formula_sum "Si O2"
_cell_formula_units_Z 64
_cell_length_a 14.166926
_cell_length_b 17.757010
_cell_length_c 12.805152
_cell_angle_alpha 90.000000
_cell_angle_beta 90.000000
_cell_angle_gamma 90.000000
_cell_volume 3221.292806
_symmetry_space_group_name_H-M "I M A 2"
_symmetry_group_IT_number 46
_symmetry_cell_setting 'orthorhombic'
loop_
_space_group_symop_operation_xyz
x,y,z
-x,-y,z
1/2-x,y,z
1/2+x,-y,z
1/2+x,1/2+y,1/2+z
1/2-x,1/2-y,1/2+z
-x,1/2+y,1/2+z
x,1/2-y,1/2+z
loop_
_atom_site_type_symbol
_atom_site_label
_atom_site_fract_x
_atom_site_fract_y
_atom_site_fract_z
Si Si1 0.639770 0.056582 0.805970
Si Si2 0.477651 0.817046 0.907316
Si Si3 0.140802 0.923466 0.574868
Si Si4 0.141770 0.424502 0.463221
Si Si5 0.851953 0.585026 0.697421
Si Si6 0.362959 0.754171 0.585490
Si Si7 0.471016 0.680268 0.770013
Si Si8 0.901987 0.032619 0.353163
O O1 0.750000 0.076945 0.820070
O O2 0.576665 0.129193 0.827180
O O3 0.618399 0.034493 0.684670
O O4 0.609062 0.990055 0.883867
O O5 0.575076 0.852716 0.947621
O O6 0.508384 0.738664 0.855629
O O7 0.403625 0.801767 0.999029
O O8 0.250000 0.910579 0.560807
O O9 0.097718 0.839258 0.569504
O O10 0.109358 0.976234 0.478190
O O11 0.250000 0.401687 0.438405
O O12 0.129838 0.452453 0.583066
O O13 0.750000 0.627991 0.693366
O O14 0.833728 0.519076 0.783386
O O15 0.935565 0.643361 0.720569
O O16 0.250000 0.749034 0.587102
O O17 0.404632 0.725635 0.693255
O O18 0.399412 0.620198 0.822430
O O19 0.000000 0.000000 0.316143
#
# Coordination Sequence:
#
# PCOD8192707 Si02
#       8
#     8   8   8   8   8   8   8   8
#     4  10  22  38  58  90 123 160 201 245 298 357
#     4  12  22  38  63  89 121 157 199 245 302 357
#     4  10  20  38  58  84 124 158 192 238 299 363
#     4  10  23  41  63  89 119 157 205 251 294 347
#     4  10  22  42  64  87 119 159 203 251 296 345
#     4  11  23  37  58  90 124 155 191 241 303 363
#     4  11  23  39  60  91 121 155 201 246 298 359
#     4  10  22  37  59  88 120 157 201 246 297 352
#
# _framework density 19.867799000000002
#
# number of rings (size 3 to 8) (size 9 to 14) (size 15 to 20)
#    0.000    1.500    3.750    1.125    1.750    4.000 
#    0.000    0.000    0.000    0.000    0.000    0.000 
#    0.000    0.000    0.000    0.000    0.000    0.000 
#
# Total GULP energy -396596.443091 kJ/mol
# GULP energy per Si atom -12393.638847 kJ/mol
# Density = 1.982258 g / cm^3
# Si number density = 19.867799 Si / 1000 Ang^3
#
#
#
# Elastic Constant Matrix: (Units=GPa)
#
#
# Indices 1 2 3 4 5 6 
#
# 1 77.2357 31.7741 29.1264 0.0000 0.0000 0.0000
# 2 31.7741 83.6712 34.5476 0.0000 0.0000 0.0000
# 3 29.1264 34.5476 111.8263 0.0000 0.0000 0.0000
# 4 0.0000 0.0000 0.0000 30.1243 0.0000 0.0000
# 5 0.0000 0.0000 0.0000 0.0000 27.3228 0.0000
# 6 0.0000 0.0000 0.0000 0.0000 0.0000 22.3362
#
#
#
# Elastic Compliance Matrix: (Units=1/GPa)
#
#
# Indices 1 2 3 4 5 6 
#
# 1 0.015989 -0.004989 -0.002623 0.000000 0.000000 0.000000
# 2 -0.004989 0.015255 -0.003414 0.000000 0.000000 0.000000
# 3 -0.002623 -0.003414 0.010680 0.000000 0.000000 0.000000
# 4 0.000000 0.000000 0.000000 0.033196 0.000000 0.000000
# 5 0.000000 0.000000 0.000000 0.000000 0.036599 0.000000
# 6 0.000000 0.000000 0.000000 0.000000 0.000000 0.044770
#
#
# Mechanical properties :
#
#
# Convention : Reuss Voigt Hill
#
# Bulk Modulus (GPa) = 50.31827 51.51438 50.91632
# Shear Modulus (GPa) = 27.00278 27.77567 27.38922
#
# Velocity S-wave (km/s) = 3.69063 3.74307 3.71694
# Velocity P-wave (km/s) = 6.59867 6.68324 6.64109
#
# Compressibility (1/GPa) = 0.01987350
#
# Stress axis : x y z
#
# Youngs Moduli (GPa) = 62.54329 65.55033 93.63010
#
# Poissons Ratio (x) = 0.32701 0.24562
# Poissons Ratio (y) = 0.31200 0.31962
# Poissons Ratio (z) = 0.16407 0.22377
#
# Static dielectric constant tensor:
#      x y z
#    x 3.567520 0.000000 0.000000 
#    y 0.000000 3.759510 0.000000 
#    z 0.000000 0.000000 3.943900 
# 
# 
# High freq. dielectric constant tensor:
#      x y z
#    x 1.776770 0.000000 0.000000 
#    y 0.000000 1.757050 0.000000 
#    z 0.000000 0.000000 1.791730 
# 
# From -- ./inp_files/11299.got.cif
#   From: 2010.03.12/outbox.cif.g09.slc.cpg/sg46_6_cif.got.tgz:11299.got - 2010.04.14 02:56:35.
