data_PCOD8192165
_publ_section_title
;
Structure prediction by ZEFSAII (Michael W. Deem and Ramdas Pophale) SiO2 
 PCOD8192165
Probable space group: I M A 2
;
_chemical_formula_sum "Si O2"
_cell_formula_units_Z 48
_cell_length_a 8.751020
_cell_length_b 30.775214
_cell_length_c 9.144852
_cell_angle_alpha 90.000000
_cell_angle_beta 90.000000
_cell_angle_gamma 90.000000
_cell_volume 2462.841365
_symmetry_space_group_name_H-M "I M A 2"
_symmetry_group_IT_number 46
_symmetry_cell_setting 'orthorhombic'
loop_
_space_group_symop_operation_xyz
x,y,z
-x,-y,z
1/2-x,y,z
1/2+x,-y,z
1/2+x,1/2+y,1/2+z
1/2-x,1/2-y,1/2+z
-x,1/2+y,1/2+z
x,1/2-y,1/2+z
loop_
_atom_site_type_symbol
_atom_site_label
_atom_site_fract_x
_atom_site_fract_y
_atom_site_fract_z
Si Si1 0.931427 0.791219 0.038170
Si Si2 0.072048 0.871330 0.536259
Si Si3 0.571050 0.873107 0.849997
Si Si4 0.570682 0.454793 0.854520
Si Si5 0.070682 0.045166 0.045168
Si Si6 0.068645 0.292355 0.866715
O O1 0.750000 0.789068 0.044244
O O2 0.998495 0.791585 0.202322
O O3 0.984712 0.834661 0.956083
O O4 0.997072 0.749289 0.953358
O O5 0.250000 0.861316 0.519849
O O6 0.029532 0.918568 0.473596
O O7 0.025478 0.869660 0.703931
O O8 0.979917 0.836040 0.445712
O O9 0.750000 0.868712 0.813227
O O10 0.532068 0.918597 0.925940
O O11 0.500000 0.500000 0.910680
O O12 0.750000 0.460875 0.833979
O O13 0.500592 0.440735 0.699443
O O14 0.250000 0.039488 0.067792
O O15 0.000000 0.000000 0.988527
O O16 0.250000 0.290537 0.862689
#
# Coordination Sequence:
#
# PCOD8192165 Si02
#       6
#     8   8   8   8   8   8
#     4   9  18  34  59  87 109 137 182 229 268 313
#     4  11  24  38  53  79 113 146 181 224 275 324
#     4  10  21  37  57  81 109 145 187 225 266 320
#     4  10  21  37  57  80 108 143 183 226 272 323
#     4  10  20  35  58  85 111 142 181 224 273 327
#     4  10  19  35  60  84 109 141 179 224 270 321
#
# _framework density 19.489684
#
# number of rings (size 3 to 8) (size 9 to 14) (size 15 to 20)
#    0.000    2.000    0.000    4.500    0.000    8.667 
#    0.000    7.500    0.000    0.000    0.000    0.000 
#    0.000    0.000    0.000    0.000    0.000    0.000 
#
# Total GULP energy -297678.378645 kJ/mol
# GULP energy per Si atom -12403.265777 kJ/mol
# Density = 1.944532 g / cm^3
# Si number density = 19.489684 Si / 1000 Ang^3
#
#
#
# Elastic Constant Matrix: (Units=GPa)
#
#
# Indices 1 2 3 4 5 6 
#
# 1 45.6246 34.4735 25.2821 0.0005 -0.0003 -0.0002
# 2 34.4735 133.4425 79.2735 0.0001 -0.0008 -0.0007
# 3 25.2821 79.2735 148.4643 0.0012 -0.0016 -0.0012
# 4 0.0005 0.0001 0.0012 40.0180 -0.0009 -0.0009
# 5 -0.0003 -0.0008 -0.0016 -0.0009 22.2448 0.0006
# 6 -0.0002 -0.0007 -0.0012 -0.0009 0.0006 25.6350
#
#
#
# Elastic Compliance Matrix: (Units=1/GPa)
#
#
# Indices 1 2 3 4 5 6 
#
# 1 0.027404 -0.006308 -0.001298 0.000000 0.000000 0.000000
# 2 -0.006308 0.012427 -0.005561 0.000000 0.000000 0.000000
# 3 -0.001298 -0.005561 0.009926 0.000000 0.000000 0.000000
# 4 0.000000 0.000000 0.000000 0.024989 0.000001 0.000001
# 5 0.000000 0.000000 0.000000 0.000001 0.044954 -0.000001
# 6 0.000000 0.000000 0.000000 0.000001 -0.000001 0.039009
#
#
# Mechanical properties :
#
#
# Convention : Reuss Voigt Hill
#
# Bulk Modulus (GPa) = 42.69571 67.28773 54.99172
# Shear Modulus (GPa) = 25.92649 30.14638 28.03643
#
# Velocity S-wave (km/s) = 3.65124 3.93719 3.79691
# Velocity P-wave (km/s) = 6.30316 7.43427 6.89196
#
# Compressibility (1/GPa) = 0.02342156
#
# Stress axis : x y z
#
# Youngs Moduli (GPa) = 36.49124 80.46740 100.74255
#
# Poissons Ratio (x) = 0.50761 0.13080
# Poissons Ratio (y) = 0.23019 0.56028
# Poissons Ratio (z) = 0.04738 0.44752
#
# Static dielectric constant tensor:
#      x y z
#    x 3.373720 0.000000 0.000000 
#    y 0.000000 3.794400 0.000000 
#    z 0.000000 0.000000 3.684490 
# 
# 
# High freq. dielectric constant tensor:
#      x y z
#    x 1.740840 0.000000 0.000000 
#    y 0.000000 1.776140 0.000000 
#    z 0.000000 0.000000 1.766610 
# 
# From -- ./inp_files/3919.got.cif
#   From: 2010.03.12/outbox.cif.g09.slc.cpg/sg46_2_cif.got.tgz:3919.got - 2010.04.14 02:56:35.
