data_PCOD8192980
_publ_section_title
;
Structure prediction by ZEFSAII (Michael W. Deem and Ramdas Pophale) SiO2 
 PCOD8192980
Probable space group: I M A 2
;
_chemical_formula_sum "Si O2"
_cell_formula_units_Z 56
_cell_length_a 9.184241
_cell_length_b 23.642236
_cell_length_c 13.587564
_cell_angle_alpha 90.000000
_cell_angle_beta 90.000000
_cell_angle_gamma 90.000000
_cell_volume 2950.349204
_symmetry_space_group_name_H-M "I M A 2"
_symmetry_group_IT_number 46
_symmetry_cell_setting 'orthorhombic'
loop_
_space_group_symop_operation_xyz
x,y,z
-x,-y,z
1/2-x,y,z
1/2+x,-y,z
1/2+x,1/2+y,1/2+z
1/2-x,1/2-y,1/2+z
-x,1/2+y,1/2+z
x,1/2-y,1/2+z
loop_
_atom_site_type_symbol
_atom_site_label
_atom_site_fract_x
_atom_site_fract_y
_atom_site_fract_z
Si Si1 0.419556 0.555735 0.265680
Si Si2 0.919542 0.328455 0.804719
Si Si3 0.923267 0.773341 0.480071
Si Si4 0.918348 0.370865 0.086707
Si Si5 0.580805 0.055779 0.988761
Si Si6 0.916315 0.443179 0.900688
Si Si7 0.580826 0.173310 0.078353
O O1 0.500000 0.500000 0.227568
O O2 0.250000 0.542764 0.256783
O O3 0.461207 0.608454 0.195844
O O4 0.466365 0.570700 0.376860
O O5 0.750000 0.320042 0.832506
O O6 0.964587 0.393355 0.826096
O O7 0.950894 0.313373 0.692116
O O8 0.014846 0.286801 0.871821
O O9 0.750000 0.774406 0.477351
O O10 0.980810 0.817992 0.560433
O O11 0.979192 0.711749 0.510775
O O12 0.750000 0.351150 0.080611
O O13 0.946739 0.422515 0.011807
O O14 0.750000 0.042012 0.994209
O O15 0.500000 0.000000 0.027929
O O16 0.538619 0.108376 0.057285
O O17 0.750000 0.458655 0.884460
O O18 0.000000 0.500000 0.875237
O O19 0.750000 0.184103 0.052078
#
# Coordination Sequence:
#
# PCOD8192980 Si02
#       7
#     8   8   8   8   8   8   8
#     4   9  17  30  50  77 109 143 179 219 263 314
#     4   9  20  39  58  76 104 144 186 222 259 317
#     4  11  23  37  55  82 112 137 172 227 280 321
#     4   9  18  33  51  73 106 148 188 220 258 318
#     4   9  19  35  55  81 110 140 176 218 264 313
#     4   9  17  29  47  73 103 136 177 222 267 314
#     4  10  21  39  61  80 104 144 186 218 259 321
#
# _framework density 18.980803999999999
#
# number of rings (size 3 to 8) (size 9 to 14) (size 15 to 20)
#    0.000    2.571    0.000    2.571    0.000    5.714 
#    0.000    2.857    0.000    0.000    0.000    0.000 
#    0.000    0.000    0.000    0.000    0.000    0.000 
#
# Total GULP energy -347228.845700 kJ/mol
# GULP energy per Si atom -12401.030204 kJ/mol
# Density = 1.893760 g / cm^3
# Si number density = 18.980804 Si / 1000 Ang^3
#
#
#
# Elastic Constant Matrix: (Units=GPa)
#
#
# Indices 1 2 3 4 5 6 
#
# 1 88.2059 63.3683 46.6193 0.0000 0.0000 0.0000
# 2 63.3683 113.6871 50.4773 0.0000 0.0000 0.0000
# 3 46.6193 50.4773 84.0373 0.0004 -0.0002 0.0000
# 4 0.0000 0.0000 0.0004 23.6085 -0.0001 0.0000
# 5 0.0000 0.0000 -0.0002 -0.0001 17.6995 0.0000
# 6 0.0000 0.0000 0.0000 0.0000 0.0000 37.2971
#
#
#
# Elastic Compliance Matrix: (Units=1/GPa)
#
#
# Indices 1 2 3 4 5 6 
#
# 1 0.021123 -0.008961 -0.006336 0.000000 0.000000 0.000000
# 2 -0.008961 0.015796 -0.004517 0.000000 0.000000 0.000000
# 3 -0.006336 -0.004517 0.018127 0.000000 0.000000 0.000000
# 4 0.000000 0.000000 0.000000 0.042358 0.000000 0.000000
# 5 0.000000 0.000000 0.000000 0.000000 0.056499 0.000000
# 6 0.000000 0.000000 0.000000 0.000000 0.000000 0.026812
#
#
# Mechanical properties :
#
#
# Convention : Reuss Voigt Hill
#
# Bulk Modulus (GPa) = 64.85213 67.42890 66.14051
# Shear Modulus (GPa) = 22.17464 24.08537 23.13000
#
# Velocity S-wave (km/s) = 3.42170 3.56607 3.49463
# Velocity P-wave (km/s) = 7.06060 7.24967 7.15576
#
# Compressibility (1/GPa) = 0.01541969
#
# Stress axis : x y z
#
# Youngs Moduli (GPa) = 47.34096 63.30535 55.16514
#
# Poissons Ratio (x) = 0.56728 0.34951
# Poissons Ratio (y) = 0.42422 0.24919
# Poissons Ratio (z) = 0.29994 0.28596
#
# Static dielectric constant tensor:
#      x y z
#    x 3.337990 0.000000 0.000000 
#    y 0.000000 3.367070 0.000000 
#    z 0.000000 0.000000 3.550860 
# 
# 
# High freq. dielectric constant tensor:
#      x y z
#    x 1.723030 0.000000 0.000000 
#    y 0.000000 1.733840 0.000000 
#    z 0.000000 0.000000 1.737610 
# 
# From -- ./inp_files/14133.got.cif
#   From: 2010.03.12/outbox.cif.g09.slc.cpg/sg46_8_cif.got.tgz:14133.got - 2010.04.14 02:56:35.
