data_PCOD8192218
_publ_section_title
;
Structure prediction by ZEFSAII (Michael W. Deem and Ramdas Pophale) SiO2 
 PCOD8192218
Probable space group: I M A 2
;
_chemical_formula_sum "Si O2"
_cell_formula_units_Z 64
_cell_length_a 14.599525
_cell_length_b 12.326970
_cell_length_c 15.993501
_cell_angle_alpha 90.000000
_cell_angle_beta 90.000000
_cell_angle_gamma 90.000000
_cell_volume 2878.316896
_symmetry_space_group_name_H-M "I M A 2"
_symmetry_group_IT_number 46
_symmetry_cell_setting 'orthorhombic'
loop_
_space_group_symop_operation_xyz
x,y,z
-x,-y,z
1/2-x,y,z
1/2+x,-y,z
1/2+x,1/2+y,1/2+z
1/2-x,1/2-y,1/2+z
-x,1/2+y,1/2+z
x,1/2-y,1/2+z
loop_
_atom_site_type_symbol
_atom_site_label
_atom_site_fract_x
_atom_site_fract_y
_atom_site_fract_z
Si Si1 0.852866 0.427361 0.419250
Si Si2 0.648718 0.041466 0.572877
Si Si3 0.860723 0.216440 0.071344
Si Si4 0.143105 0.243307 0.292653
Si Si5 0.354189 0.384399 0.540197
Si Si6 0.899718 0.985278 0.751938
Si Si7 0.858440 0.658712 0.971649
Si Si8 0.511545 0.612652 0.678657
O O1 0.750000 0.390209 0.405321
O O2 0.894988 0.342760 0.486204
O O3 0.860490 0.549636 0.453862
O O4 0.896740 0.424740 0.326697
O O5 0.750000 0.053061 0.535758
O O6 0.603532 0.159874 0.563074
O O7 0.660923 0.008645 0.670432
O O8 0.598159 0.949383 0.515516
O O9 0.750000 0.204473 0.086120
O O10 0.914659 0.164939 0.150340
O O11 0.250000 0.217403 0.273531
O O12 0.129903 0.372598 0.294323
O O13 0.109990 0.182649 0.377047
O O14 0.074468 0.201388 0.222525
O O15 0.250000 0.391987 0.574908
O O16 0.386742 0.261019 0.527623
O O17 0.426664 0.435422 0.603085
O O18 0.000000 0.000000 0.713944
O O19 0.750000 0.650190 0.972821
O O20 0.500000 0.500000 0.732038
#
# Coordination Sequence:
#
# PCOD8192218 Si02
#       8
#     8   8   8   8   8   8   8   8
#     4  10  20  37  63  92 124 169 216 269 328 389
#     4  10  21  41  64  89 125 174 220 265 324 401
#     4  10  23  42  63  89 129 176 221 267 334 409
#     4  11  23  42  66  98 134 172 222 283 337 400
#     4  10  19  36  63  93 123 162 209 266 330 388
#     4  12  24  38  64 100 134 167 220 279 332 391
#     4   9  19  38  66  94 125 167 217 272 334 391
#     4  12  24  38  62  93 130 167 221 271 334 400
#
# _framework density 22.235216000000001
#
# number of rings (size 3 to 8) (size 9 to 14) (size 15 to 20)
#    0.000    1.500    2.500    3.000    1.750    1.500 
#    0.000    4.375    0.000    3.000    0.000    0.000 
#    0.000    0.000    0.000    0.000    0.000    0.000 
#
# Total GULP energy -396463.583279 kJ/mol
# GULP energy per Si atom -12389.486977 kJ/mol
# Density = 2.218461 g / cm^3
# Si number density = 22.235216 Si / 1000 Ang^3
#
#
#
# Elastic Constant Matrix: (Units=GPa)
#
#
# Indices 1 2 3 4 5 6 
#
# 1 65.5178 21.2552 21.8872 0.0000 0.0000 0.0000
# 2 21.2552 158.6663 49.2995 0.0000 0.0000 0.0000
# 3 21.8872 49.2995 101.8229 0.0000 0.0000 0.0000
# 4 0.0000 0.0000 0.0000 31.5142 0.0000 0.0000
# 5 0.0000 0.0000 0.0000 0.0000 3.4521 0.0000
# 6 0.0000 0.0000 0.0000 0.0000 0.0000 25.7691
#
#
#
# Elastic Compliance Matrix: (Units=1/GPa)
#
#
# Indices 1 2 3 4 5 6 
#
# 1 0.016675 -0.001318 -0.002946 0.000000 0.000000 0.000000
# 2 -0.001318 0.007523 -0.003359 0.000000 0.000000 0.000000
# 3 -0.002946 -0.003359 0.012080 0.000000 0.000000 0.000000
# 4 0.000000 0.000000 0.000000 0.031732 0.000000 0.000000
# 5 0.000000 0.000000 0.000000 0.000000 0.289681 0.000000
# 6 0.000000 0.000000 0.000000 0.000000 0.000000 0.038806
#
#
# Mechanical properties :
#
#
# Convention : Reuss Voigt Hill
#
# Bulk Modulus (GPa) = 47.54761 56.76565 52.15663
# Shear Modulus (GPa) = 11.94017 27.71808 19.82913
#
# Velocity S-wave (km/s) = 2.31983 3.53453 2.98952
# Velocity P-wave (km/s) = 5.34844 6.49940 5.95181
#
# Compressibility (1/GPa) = 0.02103155
#
# Stress axis : x y z
#
# Youngs Moduli (GPa) = 59.97031 132.92911 82.77805
#
# Poissons Ratio (x) = 0.17526 0.24386
# Poissons Ratio (y) = 0.07907 0.27804
# Poissons Ratio (z) = 0.17667 0.44650
#
# Static dielectric constant tensor:
#      x y z
#    x 3.875410 0.000000 0.000000 
#    y 0.000000 4.239640 0.000000 
#    z 0.000000 0.000000 3.901680 
# 
# 
# High freq. dielectric constant tensor:
#      x y z
#    x 1.872100 0.000000 0.000000 
#    y 0.000000 1.879160 0.000000 
#    z 0.000000 0.000000 1.859220 
# 
# From -- ./inp_files/19656.got.cif
#   From: 2010.03.12/outbox.cif.g09.slc.cpg/sg46_10_cif.got.tgz:19656.got - 2010.04.14 02:56:35.
