data_PCOD8192032
_publ_section_title
;
Structure prediction by ZEFSAII (Michael W. Deem and Ramdas Pophale) SiO2 
 PCOD8192032
Probable space group: I M A 2
;
_chemical_formula_sum "Si O2"
_cell_formula_units_Z 64
_cell_length_a 8.612234
_cell_length_b 23.260183
_cell_length_c 19.114594
_cell_angle_alpha 90.000000
_cell_angle_beta 90.000000
_cell_angle_gamma 90.000000
_cell_volume 3829.076354
_symmetry_space_group_name_H-M "I M A 2"
_symmetry_group_IT_number 46
_symmetry_cell_setting 'orthorhombic'
loop_
_space_group_symop_operation_xyz
x,y,z
-x,-y,z
1/2-x,y,z
1/2+x,-y,z
1/2+x,1/2+y,1/2+z
1/2-x,1/2-y,1/2+z
-x,1/2+y,1/2+z
x,1/2-y,1/2+z
loop_
_atom_site_type_symbol
_atom_site_label
_atom_site_fract_x
_atom_site_fract_y
_atom_site_fract_z
Si Si1 0.431953 0.838253 0.371540
Si Si2 0.432280 0.561696 0.230148
Si Si3 0.567205 0.229970 0.241070
Si Si4 0.931373 0.561796 0.954834
Si Si5 0.931097 0.336167 0.329095
Si Si6 0.066647 0.377409 0.096200
Si Si7 0.067035 0.748377 0.089760
Si Si8 0.568902 0.729479 0.447226
O O1 0.250000 0.848596 0.379162
O O2 0.479344 0.823243 0.291195
O O3 0.519782 0.895871 0.392448
O O4 0.477493 0.785587 0.421431
O O5 0.500000 0.500000 0.249636
O O6 0.250000 0.558884 0.212225
O O7 0.463543 0.600881 0.298323
O O8 0.524031 0.586295 0.164214
O O9 0.750000 0.237160 0.237346
O O10 0.502338 0.289357 0.273952
O O11 0.506154 0.221998 0.161956
O O12 0.750000 0.555417 0.954802
O O13 0.000000 0.500000 0.939253
O O14 0.988689 0.585760 0.029401
O O15 0.750000 0.325872 0.343703
O O16 0.021118 0.326781 0.402385
O O17 0.250000 0.364380 0.094106
O O18 0.971448 0.318803 0.093957
O O19 0.250000 0.756134 0.078813
O O20 0.976794 0.780757 0.027805
O O21 0.750000 0.741674 0.440574
#
# Coordination Sequence:
#
# PCOD8192032 Si02
#       8
#     8   8   8   8   8   8   8   8
#     4  10  19  34  53  72  97 131 168 209 253 300
#     4  11  22  36  53  73 101 136 178 215 253 302
#     4   8  16  31  51  74  96 125 167 205 246 299
#     4  11  23  36  50  71 100 135 176 213 247 294
#     4   9  18  35  52  70  96 133 173 209 250 302
#     4  11  22  34  48  72 105 137 176 213 246 293
#     4  11  19  32  53  75 102 138 170 204 252 305
#     4  11  21  32  48  75 104 130 166 211 255 303
#
# _framework density 16.714214999999999
#
# number of rings (size 3 to 8) (size 9 to 14) (size 15 to 20)
#    0.000    1.750    2.500    4.125    0.000    3.500 
#    0.000    1.875    0.000    0.000    0.000    0.875 
#    0.000    4.000    0.000    0.000    0.000    0.000 
#
# Total GULP energy -396798.907123 kJ/mol
# GULP energy per Si atom -12399.965848 kJ/mol
# Density = 1.667617 g / cm^3
# Si number density = 16.714215 Si / 1000 Ang^3
#
#
#
# Elastic Constant Matrix: (Units=GPa)
#
#
# Indices 1 2 3 4 5 6 
#
# 1 23.7285 17.0604 18.1359 0.0000 0.0000 0.0000
# 2 17.0604 75.0201 51.2314 0.0000 0.0000 0.0000
# 3 18.1359 51.2314 126.8902 0.0001 0.0000 0.0000
# 4 0.0000 0.0000 0.0001 25.1813 0.0000 0.0000
# 5 0.0000 0.0000 0.0000 0.0000 19.6218 0.0000
# 6 0.0000 0.0000 0.0000 0.0000 0.0000 25.8042
#
#
#
# Elastic Compliance Matrix: (Units=1/GPa)
#
#
# Indices 1 2 3 4 5 6 
#
# 1 0.051570 -0.009242 -0.003639 0.000000 0.000000 0.000000
# 2 -0.009242 0.020061 -0.006778 0.000000 0.000000 0.000000
# 3 -0.003639 -0.006778 0.011138 0.000000 0.000000 0.000000
# 4 0.000000 0.000000 0.000000 0.039712 0.000000 0.000000
# 5 0.000000 0.000000 0.000000 0.000000 0.050964 0.000000
# 6 0.000000 0.000000 0.000000 0.000000 0.000000 0.038753
#
#
# Mechanical properties :
#
#
# Convention : Reuss Voigt Hill
#
# Bulk Modulus (GPa) = 23.01582 44.27714 33.64648
# Shear Modulus (GPa) = 18.79700 23.40221 21.09961
#
# Velocity S-wave (km/s) = 3.35716 3.74590 3.55685
# Velocity P-wave (km/s) = 5.36912 6.72735 6.08624
#
# Compressibility (1/GPa) = 0.04344837
#
# Stress axis : x y z
#
# Youngs Moduli (GPa) = 19.39113 49.84909 89.78524
#
# Poissons Ratio (x) = 0.46073 0.32674
# Poissons Ratio (y) = 0.17922 0.60860
# Poissons Ratio (z) = 0.07057 0.33790
#
# Static dielectric constant tensor:
#      x y z
#    x 3.119890 0.000000 0.000000 
#    y 0.000000 2.998810 0.000000 
#    z 0.000000 0.000000 3.503810 
# 
# 
# High freq. dielectric constant tensor:
#      x y z
#    x 1.648200 0.000000 0.000000 
#    y 0.000000 1.614130 0.000000 
#    z 0.000000 0.000000 1.644560 
# 
# From -- ./inp_files/18593.got.cif
#   From: 2010.03.12/outbox.cif.g09.slc.cpg/sg46_10_cif.got.tgz:18593.got - 2010.04.14 02:56:35.
