data_PCOD8192168
_publ_section_title
;
Structure prediction by ZEFSAII (Michael W. Deem and Ramdas Pophale) SiO2 
 PCOD8192168
Probable space group: I M A 2
;
_chemical_formula_sum "Si O2"
_cell_formula_units_Z 64
_cell_length_a 8.596055
_cell_length_b 28.590630
_cell_length_c 12.569380
_cell_angle_alpha 90.000000
_cell_angle_beta 90.000000
_cell_angle_gamma 90.000000
_cell_volume 3089.134138
_symmetry_space_group_name_H-M "I M A 2"
_symmetry_group_IT_number 46
_symmetry_cell_setting 'orthorhombic'
loop_
_space_group_symop_operation_xyz
x,y,z
-x,-y,z
1/2-x,y,z
1/2+x,-y,z
1/2+x,1/2+y,1/2+z
1/2-x,1/2-y,1/2+z
-x,1/2+y,1/2+z
x,1/2-y,1/2+z
loop_
_atom_site_type_symbol
_atom_site_label
_atom_site_fract_x
_atom_site_fract_y
_atom_site_fract_z
Si Si1 0.432425 0.699187 0.204770
Si Si2 0.927365 0.668628 0.004024
Si Si3 0.928609 0.426232 0.052178
Si Si4 0.933310 0.382976 0.689542
Si Si5 0.430219 0.453375 0.846447
Si Si6 0.928659 0.707687 0.771590
Si Si7 0.066430 0.598742 0.280681
Si Si8 0.065029 0.948204 0.995070
O O1 0.250000 0.695412 0.180874
O O2 0.469355 0.745507 0.270535
O O3 0.491293 0.652557 0.268122
O O4 0.530132 0.705825 0.095624
O O5 0.750000 0.650239 0.015773
O O6 0.952801 0.690712 0.890495
O O7 0.051480 0.627686 0.021129
O O8 0.750000 0.441218 0.034628
O O9 0.037907 0.456154 0.973497
O O10 0.980046 0.431830 0.175909
O O11 0.750000 0.376561 0.687375
O O12 0.991517 0.413864 0.589601
O O13 0.984502 0.408489 0.798184
O O14 0.010532 0.331613 0.688472
O O15 0.500000 0.500000 0.792294
O O16 0.250000 0.449753 0.820945
O O17 0.750000 0.718498 0.744814
O O18 0.250000 0.599841 0.292123
O O19 0.996264 0.573724 0.385323
O O20 0.250000 0.951364 0.992766
O O21 0.000000 0.000000 0.013659
#
# Coordination Sequence:
#
# PCOD8192168 Si02
#       8
#     8   8   8   8   8   8   8   8
#     4  10  21  37  60  88 119 161 209 258 308 370
#     4  10  20  36  57  82 117 156 193 246 307 362
#     4  10  19  35  60  86 114 151 194 242 298 361
#     4  11  23  39  61  87 118 159 206 255 306 370
#     4  12  24  38  57  84 118 153 192 246 303 362
#     4  11  23  38  59  88 123 160 202 256 314 376
#     4   8  18  38  61  86 119 156 200 252 302 359
#     4  10  22  41  63  89 122 162 207 257 311 370
#
# _framework density 20.717780000000001
#
# number of rings (size 3 to 8) (size 9 to 14) (size 15 to 20)
#    0.000    1.750    1.250    4.125    0.000    5.000 
#    0.000    6.250    0.000    0.000    0.000    0.000 
#    0.000    0.000    0.000    0.000    0.000    0.000 
#
# Total GULP energy -396737.471689 kJ/mol
# GULP energy per Si atom -12398.045990 kJ/mol
# Density = 2.067063 g / cm^3
# Si number density = 20.717780 Si / 1000 Ang^3
#
#
#
# Elastic Constant Matrix: (Units=GPa)
#
#
# Indices 1 2 3 4 5 6 
#
# 1 50.0279 15.8216 26.9753 0.0006 -0.0002 0.0000
# 2 15.8216 81.2753 26.1451 0.0016 -0.0001 0.0000
# 3 26.9753 26.1451 107.1544 0.0053 0.0001 0.0007
# 4 0.0006 0.0016 0.0053 25.8084 0.0001 0.0004
# 5 -0.0002 -0.0001 0.0001 0.0001 25.7460 0.0005
# 6 0.0000 0.0000 0.0007 0.0004 0.0005 31.8586
#
#
#
# Elastic Compliance Matrix: (Units=1/GPa)
#
#
# Indices 1 2 3 4 5 6 
#
# 1 0.023755 -0.002931 -0.005265 0.000001 0.000000 0.000000
# 2 -0.002931 0.013713 -0.002608 0.000000 0.000000 0.000000
# 3 -0.005265 -0.002608 0.011294 -0.000002 0.000000 0.000000
# 4 0.000001 0.000000 -0.000002 0.038747 0.000000 -0.000001
# 5 0.000000 0.000000 0.000000 0.000000 0.038841 -0.000001
# 6 0.000000 0.000000 0.000000 -0.000001 -0.000001 0.031389
#
#
# Mechanical properties :
#
#
# Convention : Reuss Voigt Hill
#
# Bulk Modulus (GPa) = 36.82630 41.81572 39.32101
# Shear Modulus (GPa) = 26.53956 27.98363 27.26160
#
# Velocity S-wave (km/s) = 3.58299 3.67918 3.63141
# Velocity P-wave (km/s) = 5.91024 6.18675 6.05007
#
# Compressibility (1/GPa) = 0.02715451
#
# Stress axis : x y z
#
# Youngs Moduli (GPa) = 42.09718 72.92145 88.54142
#
# Poissons Ratio (x) = 0.21370 0.46617
# Poissons Ratio (y) = 0.12337 0.23094
# Poissons Ratio (z) = 0.22164 0.19020
#
# Static dielectric constant tensor:
#      x y z
#    x 3.587360 0.000000 0.000000 
#    y 0.000000 3.802880 0.000000 
#    z 0.000000 0.000000 4.058820 
# 
# 
# High freq. dielectric constant tensor:
#      x y z
#    x 1.800870 0.000000 0.000000 
#    y 0.000000 1.810440 0.000000 
#    z 0.000000 0.000000 1.813040 
# 
# From -- ./inp_files/9800.got.cif
#   From: 2010.03.12/outbox.cif.g09.slc.cpg/sg46_5_cif.got.tgz:9800.got - 2010.04.14 02:56:35.
