data_PCOD8192179
_publ_section_title
;
Structure prediction by ZEFSAII (Michael W. Deem and Ramdas Pophale) SiO2 
 PCOD8192179
Probable space group: I M A 2
;
_chemical_formula_sum "Si O2"
_cell_formula_units_Z 56
_cell_length_a 31.953743
_cell_length_b 4.901984
_cell_length_c 16.975223
_cell_angle_alpha 90.000000
_cell_angle_beta 90.000000
_cell_angle_gamma 90.000000
_cell_volume 2658.943539
_symmetry_space_group_name_H-M "I M A 2"
_symmetry_group_IT_number 46
_symmetry_cell_setting 'orthorhombic'
loop_
_space_group_symop_operation_xyz
x,y,z
-x,-y,z
1/2-x,y,z
1/2+x,-y,z
1/2+x,1/2+y,1/2+z
1/2-x,1/2-y,1/2+z
-x,1/2+y,1/2+z
x,1/2-y,1/2+z
loop_
_atom_site_type_symbol
_atom_site_label
_atom_site_fract_x
_atom_site_fract_y
_atom_site_fract_z
Si Si1 0.374590 0.646760 0.456310
Si Si2 0.953063 0.992806 0.045495
Si Si3 0.250000 0.689268 0.877686
Si Si4 0.338821 0.823176 0.297342
Si Si5 0.952690 0.491812 0.150128
Si Si6 0.837897 0.838651 0.537187
Si Si7 0.131111 0.342039 0.207747
Si Si8 0.750000 0.795981 0.987075
O O1 0.423285 0.601946 0.476388
O O2 0.370677 0.739467 0.366606
O O3 0.353417 0.352538 0.466216
O O4 0.350474 0.853452 0.515075
O O5 0.945293 0.181291 0.122649
O O6 0.945619 0.681930 0.072846
O O7 0.000000 0.000000 0.012145
O O8 0.208883 0.711316 0.824463
O O9 0.250000 0.383662 0.908881
O O10 0.250000 0.895236 0.952743
O O11 0.344087 0.621005 0.223909
O O12 0.352616 0.123418 0.270635
O O13 0.918739 0.588750 0.215253
O O14 0.000000 0.500000 0.184669
O O15 0.858822 0.747676 0.619049
O O16 0.788528 0.785559 0.543108
#
# Coordination Sequence:
#
# PCOD8192179 Si02
#       8
#     8   8   4   8   8   8   8   4
#     4  12  21  42  63  98 123 175 216 264 321 390
#     4  10  19  35  65  97 124 160 214 270 311 370
#     4  12  24  44  64  90 130 170 228 260 330 410
#     4  12  26  40  65  90 136 179 206 267 340 397
#     4  10  20  37  65  94 124 165 211 261 320 384
#     4  12  23  39  69  90 127 164 224 277 310 381
#     4  12  24  42  62 100 132 167 215 269 333 390
#     4  12  22  42  66  96 118 168 230 278 318 378
#
# _framework density 21.060994999999998
#
# number of rings (size 3 to 8) (size 9 to 14) (size 15 to 20)
#    0.000    0.571    5.714    3.429    0.000    1.143 
#    0.000    0.714    0.000    1.714    0.000    0.000 
#    0.000    0.000    0.000    0.000    0.000    0.000 
#
# Total GULP energy -347158.763933 kJ/mol
# GULP energy per Si atom -12398.527283 kJ/mol
# Density = 2.101306 g / cm^3
# Si number density = 21.060995 Si / 1000 Ang^3
#
#
#
# Elastic Constant Matrix: (Units=GPa)
#
#
# Indices 1 2 3 4 5 6 
#
# 1 174.3835 32.5283 30.3082 0.0000 0.0000 0.0000
# 2 32.5283 85.2296 9.6600 0.0000 0.0000 0.0000
# 3 30.3082 9.6600 58.4666 0.0000 0.0000 0.0000
# 4 0.0000 0.0000 0.0000 31.8902 0.0000 0.0000
# 5 0.0000 0.0000 0.0000 0.0000 28.5007 0.0000
# 6 0.0000 0.0000 0.0000 0.0000 0.0000 35.7651
#
#
#
# Elastic Compliance Matrix: (Units=1/GPa)
#
#
# Indices 1 2 3 4 5 6 
#
# 1 0.006684 -0.002199 -0.003101 0.000000 0.000000 0.000000
# 2 -0.002199 0.012681 -0.000955 0.000000 0.000000 0.000000
# 3 -0.003101 -0.000955 0.018869 0.000000 0.000000 0.000000
# 4 0.000000 0.000000 0.000000 0.031358 0.000000 0.000000
# 5 0.000000 0.000000 0.000000 0.000000 0.035087 0.000000
# 6 0.000000 0.000000 0.000000 0.000000 0.000000 0.027960
#
#
# Mechanical properties :
#
#
# Convention : Reuss Voigt Hill
#
# Bulk Modulus (GPa) = 38.87695 51.45250 45.16473
# Shear Modulus (GPa) = 32.52584 35.60342 34.06463
#
# Velocity S-wave (km/s) = 3.93410 4.11602 4.02609
# Velocity P-wave (km/s) = 6.25584 6.86091 6.56535
#
# Compressibility (1/GPa) = 0.02572218
#
# Stress axis : x y z
#
# Youngs Moduli (GPa) = 149.61618 78.86025 52.99622
#
# Poissons Ratio (x) = 0.17344 0.16436
# Poissons Ratio (y) = 0.32906 0.05061
# Poissons Ratio (z) = 0.46402 0.07531
#
# Static dielectric constant tensor:
#      x y z
#    x 4.465360 0.000000 0.000000 
#    y 0.000000 4.010530 0.000000 
#    z 0.000000 0.000000 3.384430 
# 
# 
# High freq. dielectric constant tensor:
#      x y z
#    x 1.842450 0.000000 0.000000 
#    y 0.000000 1.848310 0.000000 
#    z 0.000000 0.000000 1.783820 
# 
# From -- ./inp_files/17713.got.cif
#   From: 2010.03.12/outbox.cif.g09.slc.cpg/sg46_9_cif.got.tgz:17713.got - 2010.04.14 02:56:35.
