data_PCOD8192143
_publ_section_title
;
Structure prediction by ZEFSAII (Michael W. Deem and Ramdas Pophale) SiO2 
 PCOD8192143
Probable space group: I M A 2
;
_chemical_formula_sum "Si O2"
_cell_formula_units_Z 64
_cell_length_a 9.132616
_cell_length_b 27.955218
_cell_length_c 12.613264
_cell_angle_alpha 90.000000
_cell_angle_beta 90.000000
_cell_angle_gamma 90.000000
_cell_volume 3220.220173
_symmetry_space_group_name_H-M "I M A 2"
_symmetry_group_IT_number 46
_symmetry_cell_setting 'orthorhombic'
loop_
_space_group_symop_operation_xyz
x,y,z
-x,-y,z
1/2-x,y,z
1/2+x,-y,z
1/2+x,1/2+y,1/2+z
1/2-x,1/2-y,1/2+z
-x,1/2+y,1/2+z
x,1/2-y,1/2+z
loop_
_atom_site_type_symbol
_atom_site_label
_atom_site_fract_x
_atom_site_fract_y
_atom_site_fract_z
Si Si1 0.577949 0.295520 0.938040
Si Si2 0.577602 0.949128 0.156349
Si Si3 0.420034 0.118791 0.346910
Si Si4 0.588571 0.181655 0.673751
Si Si5 0.079792 0.095710 0.931652
Si Si6 0.413035 0.927863 0.731233
Si Si7 0.420359 0.296642 0.371894
Si Si8 0.079742 0.044614 0.526078
O O1 0.750000 0.293476 0.917384
O O2 0.507884 0.331288 0.850948
O O3 0.511203 0.242756 0.934849
O O4 0.535496 0.314676 0.053661
O O5 0.750000 0.958114 0.165664
O O6 0.523674 0.913822 0.249780
O O7 0.500000 0.000000 0.167027
O O8 0.534599 0.923611 0.046567
O O9 0.250000 0.131071 0.331629
O O10 0.449900 0.091571 0.457183
O O11 0.750000 0.205484 0.687850
O O12 0.599080 0.127155 0.704846
O O13 0.470221 0.206699 0.749332
O O14 0.250000 0.087358 0.907200
O O15 0.043095 0.152147 0.924468
O O16 0.987884 0.065422 0.845950
O O17 0.250000 0.950794 0.732894
O O18 0.513296 0.952298 0.643368
O O19 0.250000 0.284552 0.378006
O O20 0.250000 0.033405 0.535154
O O21 0.000000 0.000000 0.468306
#
# Coordination Sequence:
#
# PCOD8192143 Si02
#       8
#     8   8   8   8   8   8   8   8
#     4  11  22  37  59  87 120 156 199 249 304 366
#     4  10  22  41  63  88 121 160 205 254 305 365
#     4  10  22  39  59  85 117 156 201 248 297 359
#     4   9  19  36  56  79 111 150 189 239 296 350
#     4   9  20  39  60  83 117 157 200 248 298 354
#     4  10  19  35  58  83 112 146 188 236 293 351
#     4  10  21  36  57  86 117 157 203 249 303 359
#     4  11  22  35  55  83 115 148 189 237 291 352
#
# _framework density 19.874417000000001
#
# number of rings (size 3 to 8) (size 9 to 14) (size 15 to 20)
#    0.000    2.000    1.250    1.875    0.000    5.000 
#    0.000    2.500    0.000    0.000    0.000    0.000 
#    0.000    0.000    0.000    0.000    0.000    0.000 
#
# Total GULP energy -396817.258841 kJ/mol
# GULP energy per Si atom -12400.539339 kJ/mol
# Density = 1.982918 g / cm^3
# Si number density = 19.874417 Si / 1000 Ang^3
#
#
#
# Elastic Constant Matrix: (Units=GPa)
#
#
# Indices 1 2 3 4 5 6 
#
# 1 85.4935 33.2512 39.2464 -0.0001 0.0000 0.0000
# 2 33.2512 59.7317 28.3230 0.0002 0.0000 0.0000
# 3 39.2464 28.3230 109.4501 0.0010 -0.0003 -0.0001
# 4 -0.0001 0.0002 0.0010 21.6313 0.0000 -0.0001
# 5 0.0000 0.0000 -0.0003 0.0000 29.0795 0.0001
# 6 0.0000 0.0000 -0.0001 -0.0001 0.0001 36.4194
#
#
#
# Elastic Compliance Matrix: (Units=1/GPa)
#
#
# Indices 1 2 3 4 5 6 
#
# 1 0.016329 -0.007196 -0.003993 0.000000 0.000000 0.000000
# 2 -0.007196 0.022255 -0.003178 0.000000 0.000000 0.000000
# 3 -0.003993 -0.003178 0.011391 0.000000 0.000000 0.000000
# 4 0.000000 0.000000 0.000000 0.046229 0.000000 0.000000
# 5 0.000000 0.000000 0.000000 0.000000 0.034388 0.000000
# 6 0.000000 0.000000 0.000000 0.000000 0.000000 0.027458
#
#
# Mechanical properties :
#
#
# Convention : Reuss Voigt Hill
#
# Bulk Modulus (GPa) = 47.08390 50.70182 48.89286
# Shear Modulus (GPa) = 25.79113 27.68304 26.73708
#
# Velocity S-wave (km/s) = 3.60628 3.73620 3.67181
# Velocity P-wave (km/s) = 6.40956 6.64671 6.52921
#
# Compressibility (1/GPa) = 0.02123868
#
# Stress axis : x y z
#
# Youngs Moduli (GPa) = 61.24199 44.93421 87.78984
#
# Poissons Ratio (x) = 0.32337 0.35053
# Poissons Ratio (y) = 0.44073 0.27904
# Poissons Ratio (z) = 0.24453 0.14282
#
# Static dielectric constant tensor:
#      x y z
#    x 3.755880 0.000000 0.000000 
#    y 0.000000 3.632310 0.000000 
#    z 0.000000 0.000000 3.680940 
# 
# 
# High freq. dielectric constant tensor:
#      x y z
#    x 1.777960 0.000000 0.000000 
#    y 0.000000 1.774450 0.000000 
#    z 0.000000 0.000000 1.773950 
# 
# From -- ./inp_files/9669.got.cif
#   From: 2010.03.12/outbox.cif.g09.slc.cpg/sg46_5_cif.got.tgz:9669.got - 2010.04.14 02:56:35.
