data_PCOD8192217
_publ_section_title
;
Structure prediction by ZEFSAII (Michael W. Deem and Ramdas Pophale) SiO2 
 PCOD8192217
Probable space group: I M A 2
;
_chemical_formula_sum "Si O2"
_cell_formula_units_Z 64
_cell_length_a 8.491060
_cell_length_b 23.819017
_cell_length_c 15.404426
_cell_angle_alpha 90.000000
_cell_angle_beta 90.000000
_cell_angle_gamma 90.000000
_cell_volume 3115.525171
_symmetry_space_group_name_H-M "I M A 2"
_symmetry_group_IT_number 46
_symmetry_cell_setting 'orthorhombic'
loop_
_space_group_symop_operation_xyz
x,y,z
-x,-y,z
1/2-x,y,z
1/2+x,-y,z
1/2+x,1/2+y,1/2+z
1/2-x,1/2-y,1/2+z
-x,1/2+y,1/2+z
x,1/2-y,1/2+z
loop_
_atom_site_type_symbol
_atom_site_label
_atom_site_fract_x
_atom_site_fract_y
_atom_site_fract_z
Si Si1 0.066231 0.061091 0.342740
Si Si2 0.435980 0.634868 0.188416
Si Si3 0.434254 0.561831 0.345256
Si Si4 0.067388 0.369234 0.500862
Si Si5 0.433035 0.868369 0.496140
Si Si6 0.932256 0.754048 0.447027
Si Si7 0.434875 0.747519 0.759492
Si Si8 0.933376 0.371853 0.683333
O O1 0.250000 0.058653 0.322076
O O2 0.038846 0.099051 0.427258
O O3 0.976765 0.086307 0.260531
O O4 0.000000 0.000000 0.363365
O O5 0.250000 0.632563 0.195013
O O6 0.510082 0.595134 0.263049
O O7 0.488283 0.613768 0.093009
O O8 0.488263 0.699380 0.202033
O O9 0.500000 0.500000 0.348840
O O10 0.250000 0.558094 0.332810
O O11 0.469787 0.593660 0.434030
O O12 0.250000 0.378231 0.480443
O O13 0.017590 0.304375 0.491212
O O14 0.028556 0.389736 0.597817
O O15 0.250000 0.882240 0.479403
O O16 0.458065 0.801802 0.487894
O O17 0.750000 0.768162 0.464381
O O18 0.960949 0.750354 0.345034
O O19 0.250000 0.748661 0.784026
O O20 0.479547 0.691555 0.707665
O O21 0.750000 0.377479 0.663242
#
# Coordination Sequence:
#
# PCOD8192217 Si02
#       8
#     8   8   8   8   8   8   8   8
#     4  12  26  45  66  91 124 163 209 261 312 369
#     4   9  20  38  63  93 123 161 207 253 302 364
#     4  11  23  42  65  89 121 161 209 261 311 368
#     4  11  24  41  62  93 129 166 207 256 310 369
#     4  11  22  40  65  94 127 165 208 254 307 372
#     4  11  22  36  59  93 130 166 203 251 310 366
#     4  10  19  36  63  92 124 162 204 248 304 372
#     4  11  23  40  66  97 125 163 206 253 310 371
#
# _framework density 20.542283000000001
#
# number of rings (size 3 to 8) (size 9 to 14) (size 15 to 20)
#    0.000    1.250    2.500    3.750    0.000    4.000 
#    0.000    7.500    0.000    0.000    0.000    0.000 
#    0.000    0.000    0.000    0.000    0.000    0.000 
#
# Total GULP energy -396944.934751 kJ/mol
# GULP energy per Si atom -12404.529211 kJ/mol
# Density = 2.049553 g / cm^3
# Si number density = 20.542283 Si / 1000 Ang^3
#
#
#
# Elastic Constant Matrix: (Units=GPa)
#
#
# Indices 1 2 3 4 5 6 
#
# 1 43.0281 13.0674 6.2398 0.0004 0.0001 0.0002
# 2 13.0674 103.3194 36.3697 0.0007 0.0001 0.0002
# 3 6.2398 36.3697 134.7676 0.0021 0.0002 0.0005
# 4 0.0004 0.0007 0.0021 -70.0407 -0.0003 -0.0005
# 5 0.0001 0.0001 0.0002 -0.0003 26.9257 -0.0001
# 6 0.0002 0.0002 0.0005 -0.0005 -0.0001 22.3933
#
#
#
# Elastic Compliance Matrix: (Units=1/GPa)
#
#
# Indices 1 2 3 4 5 6 
#
# 1 0.024182 -0.002944 -0.000325 0.000000 0.000000 0.000000
# 2 -0.002944 0.011053 -0.002847 0.000000 0.000000 0.000000
# 3 -0.000325 -0.002847 0.008203 0.000000 0.000000 0.000000
# 4 0.000000 0.000000 0.000000 -0.014277 0.000000 0.000000
# 5 0.000000 0.000000 0.000000 0.000000 0.037139 0.000000
# 6 0.000000 0.000000 0.000000 0.000000 0.000000 0.044656
#
#
# Mechanical properties :
#
#
# Convention : Reuss Voigt Hill
#
# Bulk Modulus (GPa) = 32.04411 43.60765 37.82588
# Shear Modulus (GPa) = 37.42791 10.88486 24.15639
#
# Velocity S-wave (km/s) = 4.27311 2.30440 3.43291
# Velocity P-wave (km/s) = 6.32289 5.32491 5.84524
#
# Compressibility (1/GPa) = 0.03120698
#
# Stress axis : x y z
#
# Youngs Moduli (GPa) = 41.35335 90.47234 121.89999
#
# Poissons Ratio (x) = 0.26635 0.03964
# Poissons Ratio (y) = 0.12174 0.34700
# Poissons Ratio (z) = 0.01345 0.25754
#
# Static dielectric constant tensor:
#      x y z
#    x 3.558430 0.000000 0.000000 
#    y 0.000000 4.220640 0.000000 
#    z 0.000000 0.000000 3.967050 
# 
# 
# High freq. dielectric constant tensor:
#      x y z
#    x 1.795680 0.000000 0.000000 
#    y 0.000000 1.803280 0.000000 
#    z 0.000000 0.000000 1.816130 
# 
# From -- ./inp_files/14493.got.cif
#   From: 2010.03.12/outbox.cif.g09.slc.cpg/sg46_8_cif.got.tgz:14493.got - 2010.04.14 02:56:35.
