data_PCOD8192372
_publ_section_title
;
Structure prediction by ZEFSAII (Michael W. Deem and Ramdas Pophale) SiO2 
 PCOD8192372
Probable space group: I M A 2
;
_chemical_formula_sum "Si O2"
_cell_formula_units_Z 64
_cell_length_a 8.743896
_cell_length_b 22.804442
_cell_length_c 18.954350
_cell_angle_alpha 90.000000
_cell_angle_beta 90.000000
_cell_angle_gamma 90.000000
_cell_volume 3779.491120
_symmetry_space_group_name_H-M "I M A 2"
_symmetry_group_IT_number 46
_symmetry_cell_setting 'orthorhombic'
loop_
_space_group_symop_operation_xyz
x,y,z
-x,-y,z
1/2-x,y,z
1/2+x,-y,z
1/2+x,1/2+y,1/2+z
1/2-x,1/2-y,1/2+z
-x,1/2+y,1/2+z
x,1/2-y,1/2+z
loop_
_atom_site_type_symbol
_atom_site_label
_atom_site_fract_x
_atom_site_fract_y
_atom_site_fract_z
Si Si1 0.927141 0.380160 0.537710
Si Si2 0.571055 0.437625 0.683104
Si Si3 0.430068 0.436364 0.404035
Si Si4 0.072699 0.261087 0.892694
Si Si5 0.069268 0.656541 0.309552
Si Si6 0.074655 0.164918 0.260634
Si Si7 0.426768 0.756820 0.538369
Si Si8 0.930666 0.717757 0.181117
O O1 0.750000 0.393893 0.519951
O O2 0.984417 0.414480 0.607004
O O3 0.952871 0.311791 0.551210
O O4 0.033951 0.399489 0.473996
O O5 0.500000 0.500000 0.700722
O O6 0.750000 0.444786 0.683712
O O7 0.525323 0.391910 0.743932
O O8 0.500000 0.500000 0.413185
O O9 0.250000 0.440316 0.393136
O O10 0.505876 0.405602 0.336325
O O11 0.250000 0.241905 0.892019
O O12 0.047509 0.316937 0.841914
O O13 0.974168 0.206020 0.866563
O O14 0.018379 0.279328 0.970175
O O15 0.250000 0.653798 0.302290
O O16 0.995279 0.668473 0.233531
O O17 0.250000 0.149046 0.246027
O O18 0.022581 0.218721 0.211226
O O19 0.250000 0.772611 0.528673
O O20 0.493324 0.791681 0.605140
O O21 0.750000 0.710637 0.175815
#
# Coordination Sequence:
#
# PCOD8192372 Si02
#       8
#     8   8   8   8   8   8   8   8
#     4  10  21  35  49  73 105 140 180 216 252 302
#     4  11  22  35  51  71 100 136 177 215 255 301
#     4  12  24  37  54  74 102 140 181 220 262 308
#     4  10  20  34  52  76 103 135 172 213 262 313
#     4  11  21  35  53  75 103 135 174 218 262 310
#     4   9  19  34  51  72  99 131 171 213 256 303
#     4  11  20  32  52  79 108 139 174 212 258 310
#     4  10  20  34  53  76 104 136 172 214 262 312
#
# _framework density 16.933496999999999
#
# number of rings (size 3 to 8) (size 9 to 14) (size 15 to 20)
#    0.000    1.500    2.500    4.875    0.000    5.000 
#    0.000    0.000    0.000    0.000    0.000    0.875 
#    0.000    4.000    0.000    0.000    0.000    0.000 
#
# Total GULP energy -396956.033663 kJ/mol
# GULP energy per Si atom -12404.876052 kJ/mol
# Density = 1.689496 g / cm^3
# Si number density = 16.933497 Si / 1000 Ang^3
#
#
#
# Elastic Constant Matrix: (Units=GPa)
#
#
# Indices 1 2 3 4 5 6 
#
# 1 74.7349 21.5306 23.2337 0.0000 0.0000 0.0000
# 2 21.5306 34.1633 15.7522 0.0000 0.0000 0.0000
# 3 23.2337 15.7522 96.0700 0.0000 0.0000 0.0000
# 4 0.0000 0.0000 0.0000 22.4125 0.0000 0.0000
# 5 0.0000 0.0000 0.0000 0.0000 32.3398 0.0000
# 6 0.0000 0.0000 0.0000 0.0000 0.0000 25.4492
#
#
#
# Elastic Compliance Matrix: (Units=1/GPa)
#
#
# Indices 1 2 3 4 5 6 
#
# 1 0.016900 -0.009483 -0.002532 0.000000 0.000000 0.000000
# 2 -0.009483 0.036987 -0.003771 0.000000 0.000000 0.000000
# 3 -0.002532 -0.003771 0.011640 0.000000 0.000000 0.000000
# 4 0.000000 0.000000 0.000000 0.044618 0.000000 0.000000
# 5 0.000000 0.000000 0.000000 0.000000 0.030922 0.000000
# 6 0.000000 0.000000 0.000000 0.000000 0.000000 0.039294
#
#
# Mechanical properties :
#
#
# Convention : Reuss Voigt Hill
#
# Bulk Modulus (GPa) = 29.45221 36.22233 32.83727
# Shear Modulus (GPa) = 22.39636 25.67041 24.03339
#
# Velocity S-wave (km/s) = 3.64071 3.89775 3.77142
# Velocity P-wave (km/s) = 5.92484 6.45709 6.19668
#
# Compressibility (1/GPa) = 0.03395330
#
# Stress axis : x y z
#
# Youngs Moduli (GPa) = 59.17203 27.03685 85.91217
#
# Poissons Ratio (x) = 0.25640 0.21754
# Poissons Ratio (y) = 0.56114 0.32398
# Poissons Ratio (z) = 0.14983 0.10196
#
# Static dielectric constant tensor:
#      x y z
#    x 3.234330 0.000000 0.000000 
#    y 0.000000 3.027830 0.000000 
#    z 0.000000 0.000000 3.239770 
# 
# 
# High freq. dielectric constant tensor:
#      x y z
#    x 1.668520 0.000000 0.000000 
#    y 0.000000 1.621610 0.000000 
#    z 0.000000 0.000000 1.651640 
# 
# From -- ./inp_files/18540.got.cif
#   From: 2010.03.12/outbox.cif.g09.slc.cpg/sg46_10_cif.got.tgz:18540.got - 2010.04.14 02:56:35.
