data_PCOD8192145
_publ_section_title
;
Structure prediction by ZEFSAII (Michael W. Deem and Ramdas Pophale) SiO2 
 PCOD8192145
Probable space group: I M A 2
;
_chemical_formula_sum "Si O2"
_cell_formula_units_Z 32
_cell_length_a 18.284303
_cell_length_b 7.826718
_cell_length_c 8.728507
_cell_angle_alpha 90.000000
_cell_angle_beta 90.000000
_cell_angle_gamma 90.000000
_cell_volume 1249.102451
_symmetry_space_group_name_H-M "I M A 2"
_symmetry_group_IT_number 46
_symmetry_cell_setting 'orthorhombic'
loop_
_space_group_symop_operation_xyz
x,y,z
-x,-y,z
1/2-x,y,z
1/2+x,-y,z
1/2+x,1/2+y,1/2+z
1/2-x,1/2-y,1/2+z
-x,1/2+y,1/2+z
x,1/2-y,1/2+z
loop_
_atom_site_type_symbol
_atom_site_label
_atom_site_fract_x
_atom_site_fract_y
_atom_site_fract_z
Si Si1 0.003855 0.214146 0.705500
Si Si2 0.250000 0.996376 0.413108
Si Si3 0.750000 0.146524 0.067381
Si Si4 0.403336 0.069901 0.439317
Si Si5 0.595357 0.329617 0.455925
O O1 0.055391 0.096955 0.599358
O O2 0.054863 0.330739 0.808633
O O3 0.954043 0.344702 0.607039
O O4 0.948966 0.092677 0.809992
O O5 0.250000 0.905503 0.245105
O O6 0.250000 0.852455 0.547914
O O7 0.318307 0.125042 0.438436
O O8 0.825346 0.081279 0.984125
O O9 0.398820 0.868715 0.406696
#
# Coordination Sequence:
#
# PCOD8192145 Si02
#       5
#     8   4   4   8   8
#     4  10  19  35  58  83 118 156 193 238 294 350
#     4  10  22  42  62  86 124 154 196 248 298 352
#     4  10  20  38  64  88 116 158 194 248 298 342
#     4  10  22  39  58  84 118 157 193 246 293 342
#     4  10  20  37  58  85 117 151 197 246 290 342
#
# _framework density 25.618393999999999
#
# number of rings (size 3 to 8) (size 9 to 14) (size 15 to 20)
#    0.000    2.000    0.000    6.000    0.000    1.000 
#    0.000   40.000    0.000    0.000    0.000    0.000 
#    0.000    0.000    0.000    0.000    0.000    0.000 
#
# Total GULP energy -198214.795063 kJ/mol
# GULP energy per Si atom -12388.424691 kJ/mol
# Density = 2.556009 g / cm^3
# Si number density = 25.618394 Si / 1000 Ang^3
#
#
#
# Elastic Constant Matrix: (Units=GPa)
#
#
# Indices 1 2 3 4 5 6 
#
# 1 294.2705 20.1044 110.3005 0.0000 0.0000 0.0000
# 2 20.1044 39.6661 19.7058 0.0000 0.0000 0.0000
# 3 110.3005 19.7058 177.8103 0.0000 0.0000 0.0000
# 4 0.0000 0.0000 0.0000 28.3846 0.0000 0.0000
# 5 0.0000 0.0000 0.0000 0.0000 82.5835 0.0000
# 6 0.0000 0.0000 0.0000 0.0000 0.0000 32.6613
#
#
#
# Elastic Compliance Matrix: (Units=1/GPa)
#
#
# Indices 1 2 3 4 5 6 
#
# 1 0.004460 -0.000938 -0.002663 0.000000 0.000000 0.000000
# 2 -0.000938 0.026877 -0.002397 0.000000 0.000000 0.000000
# 3 -0.002663 -0.002397 0.007542 0.000000 0.000000 0.000000
# 4 0.000000 0.000000 0.000000 0.035230 0.000000 0.000000
# 5 0.000000 0.000000 0.000000 0.000000 0.012109 0.000000
# 6 0.000000 0.000000 0.000000 0.000000 0.000000 0.030617
#
#
# Mechanical properties :
#
#
# Convention : Reuss Voigt Hill
#
# Bulk Modulus (GPa) = 37.19795 90.21870 63.70832
# Shear Modulus (GPa) = 36.28670 52.83496 44.56083
#
# Velocity S-wave (km/s) = 3.76763 4.54627 4.17515
# Velocity P-wave (km/s) = 5.78604 7.92786 6.94007
#
# Compressibility (1/GPa) = 0.02688320
#
# Stress axis : x y z
#
# Youngs Moduli (GPa) = 224.19140 37.20721 132.59878
#
# Poissons Ratio (x) = 0.03489 0.35311
# Poissons Ratio (y) = 0.21024 0.31782
# Poissons Ratio (z) = 0.59703 0.08918
#
# Static dielectric constant tensor:
#      x y z
#    x 6.022500 0.000000 0.000000 
#    y 0.000000 4.013810 0.000000 
#    z 0.000000 0.000000 4.842150 
# 
# 
# High freq. dielectric constant tensor:
#      x y z
#    x 2.058210 0.000000 0.000000 
#    y 0.000000 1.978350 0.000000 
#    z 0.000000 0.000000 2.041470 
# 
# From -- ./inp_files/7108.got.cif
#   From: 2010.03.12/outbox.cif.g09.slc.cpg/sg46_4_cif.got.tgz:7108.got - 2010.04.14 02:56:35.
