data_PCOD8192496
_publ_section_title
;
Structure prediction by ZEFSAII (Michael W. Deem and Ramdas Pophale) SiO2 
 PCOD8192496
Probable space group: I M A 2
;
_chemical_formula_sum "Si O2"
_cell_formula_units_Z 64
_cell_length_a 8.897119
_cell_length_b 18.195715
_cell_length_c 20.589515
_cell_angle_alpha 90.000000
_cell_angle_beta 90.000000
_cell_angle_gamma 90.000000
_cell_volume 3333.225087
_symmetry_space_group_name_H-M "I M A 2"
_symmetry_group_IT_number 46
_symmetry_cell_setting 'orthorhombic'
loop_
_space_group_symop_operation_xyz
x,y,z
-x,-y,z
1/2-x,y,z
1/2+x,-y,z
1/2+x,1/2+y,1/2+z
1/2-x,1/2-y,1/2+z
-x,1/2+y,1/2+z
x,1/2-y,1/2+z
loop_
_atom_site_type_symbol
_atom_site_label
_atom_site_fract_x
_atom_site_fract_y
_atom_site_fract_z
Si Si1 0.424437 0.686762 0.566900
Si Si2 0.919414 0.852649 0.699272
Si Si3 0.927258 0.353820 0.931992
Si Si4 0.423449 0.179277 0.195247
Si Si5 0.576347 0.659817 0.056939
Si Si6 0.573748 0.076426 0.297308
Si Si7 0.427266 0.922466 0.817144
Si Si8 0.073809 0.812240 0.924631
O O1 0.250000 0.678227 0.584603
O O2 0.520660 0.649921 0.624698
O O3 0.464383 0.771836 0.560148
O O4 0.461402 0.652295 0.495801
O O5 0.750000 0.867644 0.723673
O O6 0.953696 0.765921 0.700472
O O7 0.939491 0.883177 0.625474
O O8 0.033763 0.895972 0.744748
O O9 0.750000 0.354491 0.946239
O O10 0.969605 0.404546 0.871197
O O11 0.988366 0.270975 0.917997
O O12 0.017748 0.386622 0.994611
O O13 0.250000 0.158803 0.202453
O O14 0.515933 0.141162 0.251757
O O15 0.750000 0.684708 0.048066
O O16 0.750000 0.069803 0.287894
O O17 0.500000 0.000000 0.276706
O O18 0.250000 0.930314 0.823413
O O19 0.495681 0.864183 0.868928
O O20 0.500000 0.000000 0.833107
O O21 0.250000 0.807530 0.913198
#
# Coordination Sequence:
#
# PCOD8192496 Si02
#       8
#     8   8   8   8   8   8   8   8
#     4   9  16  30  53  79 107 137 173 217 264 314
#     4   9  19  35  54  79 108 137 173 216 260 311
#     4   9  18  34  56  80 104 134 176 218 261 318
#     4  10  20  35  56  83 111 138 175 220 265 317
#     4   9  17  30  51  80 110 135 167 216 268 315
#     4  11  23  38  55  77 108 145 183 222 267 319
#     4  11  22  36  53  74 104 140 178 218 262 311
#     4   8  16  32  54  78 102 132 172 215 257 309
#
# _framework density 19.200623
#
# number of rings (size 3 to 8) (size 9 to 14) (size 15 to 20)
#    0.000    2.500    0.000    4.125    0.000    5.000 
#    0.000    8.750    0.000    3.000    0.000    0.000 
#    0.000    0.000    0.000    0.000    0.000    0.000 
#
# Total GULP energy -396662.417260 kJ/mol
# GULP energy per Si atom -12395.700539 kJ/mol
# Density = 1.915692 g / cm^3
# Si number density = 19.200623 Si / 1000 Ang^3
#
#
#
# Elastic Constant Matrix: (Units=GPa)
#
#
# Indices 1 2 3 4 5 6 
#
# 1 62.1752 17.8012 36.6042 0.0000 0.0000 0.0000
# 2 17.8012 34.0458 6.3804 0.0000 0.0000 0.0000
# 3 36.6042 6.3804 89.6561 0.0000 0.0000 0.0000
# 4 0.0000 0.0000 0.0000 6.3852 0.0000 0.0000
# 5 0.0000 0.0000 0.0000 0.0000 32.1745 0.0000
# 6 0.0000 0.0000 0.0000 0.0000 0.0000 24.0574
#
#
#
# Elastic Compliance Matrix: (Units=1/GPa)
#
#
# Indices 1 2 3 4 5 6 
#
# 1 0.024779 -0.011210 -0.009319 0.000000 0.000000 0.000000
# 2 -0.011210 0.034840 0.002097 0.000000 0.000000 0.000000
# 3 -0.009319 0.002097 0.014809 0.000000 0.000000 0.000000
# 4 0.000000 0.000000 0.000000 0.156611 0.000000 0.000000
# 5 0.000000 0.000000 0.000000 0.000000 0.031080 0.000000
# 6 0.000000 0.000000 0.000000 0.000000 0.000000 0.041567
#
#
# Mechanical properties :
#
#
# Convention : Reuss Voigt Hill
#
# Bulk Modulus (GPa) = 26.61994 34.16096 30.39045
# Shear Modulus (GPa) = 14.16139 20.86284 17.51211
#
# Velocity S-wave (km/s) = 2.71873 3.29989 3.02331
# Velocity P-wave (km/s) = 4.87335 5.68764 5.29617
#
# Compressibility (1/GPa) = 0.03756583
#
# Stress axis : x y z
#
# Youngs Moduli (GPa) = 40.35617 28.70235 67.52563
#
# Poissons Ratio (x) = 0.32175 0.62927
# Poissons Ratio (y) = 0.45238 -0.14161
# Poissons Ratio (z) = 0.37608 -0.06019
#
# Static dielectric constant tensor:
#      x y z
#    x 3.421780 0.000000 0.000000 
#    y 0.000000 3.176600 0.000000 
#    z 0.000000 0.000000 4.006310 
# 
# 
# High freq. dielectric constant tensor:
#      x y z
#    x 1.743380 0.000000 0.000000 
#    y 0.000000 1.702970 0.000000 
#    z 0.000000 0.000000 1.767960 
# 
# From -- ./inp_files/21313.got.cif
#   From: 2010.03.12/outbox.cif.g09.slc.cpg/sg46_11_cif.got.tgz:21313.got - 2010.04.14 02:56:35.
