data_PCOD8192492
_publ_section_title
;
Structure prediction by ZEFSAII (Michael W. Deem and Ramdas Pophale) SiO2 
 PCOD8192492
Probable space group: I M A 2
;
_chemical_formula_sum "Si O2"
_cell_formula_units_Z 64
_cell_length_a 8.587745
_cell_length_b 19.610429
_cell_length_c 20.415403
_cell_angle_alpha 90.000000
_cell_angle_beta 90.000000
_cell_angle_gamma 90.000000
_cell_volume 3438.145027
_symmetry_space_group_name_H-M "I M A 2"
_symmetry_group_IT_number 46
_symmetry_cell_setting 'orthorhombic'
loop_
_space_group_symop_operation_xyz
x,y,z
-x,-y,z
1/2-x,y,z
1/2+x,-y,z
1/2+x,1/2+y,1/2+z
1/2-x,1/2-y,1/2+z
-x,1/2+y,1/2+z
x,1/2-y,1/2+z
loop_
_atom_site_type_symbol
_atom_site_label
_atom_site_fract_x
_atom_site_fract_y
_atom_site_fract_z
Si Si1 0.069246 0.927726 0.252850
Si Si2 0.432296 0.715835 0.177569
Si Si3 0.930957 0.072418 0.099450
Si Si4 0.066814 0.711035 0.934802
Si Si5 0.066106 0.569357 0.991745
Si Si6 0.431683 0.291320 0.554201
Si Si7 0.432270 0.931332 0.639376
Si Si8 0.931413 0.791363 0.298524
O O1 0.250000 0.925027 0.271816
O O2 0.042485 0.914522 0.176226
O O3 0.978130 0.870431 0.293022
O O4 0.000000 0.000000 0.274380
O O5 0.250000 0.725506 0.161672
O O6 0.528196 0.753386 0.121406
O O7 0.479420 0.635986 0.179894
O O8 0.470509 0.746987 0.247582
O O9 0.750000 0.075321 0.081319
O O10 0.023616 0.129464 0.059554
O O11 0.000000 0.000000 0.078057
O O12 0.250000 0.713054 0.920916
O O13 0.008421 0.634581 0.951246
O O14 0.974537 0.735600 0.870625
O O15 0.029181 0.760482 0.994705
O O16 0.250000 0.566485 0.991895
O O17 0.000000 0.500000 0.959318
O O18 0.000672 0.576600 0.065728
O O19 0.250000 0.283899 0.539492
O O20 0.250000 0.939985 0.637006
O O21 0.500000 0.000000 0.672844
O O22 0.750000 0.781527 0.284475
#
# Coordination Sequence:
#
# PCOD8192492 Si02
#       8
#     8   8   8   8   8   8   8   8
#     4  10  20  35  56  81 114 155 195 235 283 340
#     4  11  21  38  60  84 114 153 194 234 285 343
#     4  10  20  35  58  86 118 151 189 236 287 342
#     4  11  23  41  59  79 114 157 197 237 289 346
#     4   9  18  33  53  79 110 148 189 229 274 331
#     4  12  23  36  59  89 117 149 192 242 290 339
#     4   9  18  33  55  84 114 144 184 231 279 334
#     4  12  25  39  56  84 117 151 195 242 291 345
#
# _framework density 18.614688999999998
#
# number of rings (size 3 to 8) (size 9 to 14) (size 15 to 20)
#    0.000    1.500    2.500    3.750    0.000    3.500 
#    0.000    1.250    0.000    0.750    0.000    3.500 
#    0.000    0.000    0.000    0.000    0.000    0.000 
#
# Total GULP energy -396920.170329 kJ/mol
# GULP energy per Si atom -12403.755323 kJ/mol
# Density = 1.857232 g / cm^3
# Si number density = 18.614689 Si / 1000 Ang^3
#
#
#
# Elastic Constant Matrix: (Units=GPa)
#
#
# Indices 1 2 3 4 5 6 
#
# 1 59.3448 26.7107 6.0252 0.0000 0.0000 0.0000
# 2 26.7107 116.3791 37.3912 0.0000 0.0000 0.0000
# 3 6.0252 37.3912 73.3778 0.0000 0.0000 0.0000
# 4 0.0000 0.0000 0.0000 20.2847 0.0000 0.0000
# 5 0.0000 0.0000 0.0000 0.0000 25.5520 0.0000
# 6 0.0000 0.0000 0.0000 0.0000 0.0000 34.5330
#
#
#
# Elastic Compliance Matrix: (Units=1/GPa)
#
#
# Indices 1 2 3 4 5 6 
#
# 1 0.018830 -0.004574 0.000784 0.000000 0.000000 0.000000
# 2 -0.004574 0.011386 -0.005426 0.000000 0.000000 0.000000
# 3 0.000784 -0.005426 0.016329 0.000000 0.000000 0.000000
# 4 0.000000 0.000000 0.000000 0.049298 0.000000 0.000000
# 5 0.000000 0.000000 0.000000 0.000000 0.039136 0.000000
# 6 0.000000 0.000000 0.000000 0.000000 0.000000 0.028958
#
#
# Mechanical properties :
#
#
# Convention : Reuss Voigt Hill
#
# Bulk Modulus (GPa) = 35.57060 43.26176 39.41618
# Shear Modulus (GPa) = 26.07725 28.00559 27.04142
#
# Velocity S-wave (km/s) = 3.74692 3.88298 3.81556
# Velocity P-wave (km/s) = 6.15382 6.58745 6.37433
#
# Compressibility (1/GPa) = 0.02811311
#
# Stress axis : x y z
#
# Youngs Moduli (GPa) = 53.10782 87.82922 61.24167
#
# Poissons Ratio (x) = 0.40171 -0.04804
# Poissons Ratio (y) = 0.24290 0.33231
# Poissons Ratio (z) = -0.04166 0.47659
#
# Static dielectric constant tensor:
#      x y z
#    x 3.418160 0.000000 0.000000 
#    y 0.000000 3.631160 0.000000 
#    z 0.000000 0.000000 3.214070 
# 
# 
# High freq. dielectric constant tensor:
#      x y z
#    x 1.729700 0.000000 0.000000 
#    y 0.000000 1.729570 0.000000 
#    z 0.000000 0.000000 1.694860 
# 
# From -- ./inp_files/18597.got.cif
#   From: 2010.03.12/outbox.cif.g09.slc.cpg/sg46_10_cif.got.tgz:18597.got - 2010.04.14 02:56:35.
