data_PCOD8192130
_publ_section_title
;
Structure prediction by ZEFSAII (Michael W. Deem and Ramdas Pophale) SiO2 
 PCOD8192130
Probable space group: I M A 2
;
_chemical_formula_sum "Si O2"
_cell_formula_units_Z 64
_cell_length_a 8.467584
_cell_length_b 28.340776
_cell_length_c 14.283471
_cell_angle_alpha 90.000000
_cell_angle_beta 90.000000
_cell_angle_gamma 90.000000
_cell_volume 3427.717395
_symmetry_space_group_name_H-M "I M A 2"
_symmetry_group_IT_number 46
_symmetry_cell_setting 'orthorhombic'
loop_
_space_group_symop_operation_xyz
x,y,z
-x,-y,z
1/2-x,y,z
1/2+x,-y,z
1/2+x,1/2+y,1/2+z
1/2-x,1/2-y,1/2+z
-x,1/2+y,1/2+z
x,1/2-y,1/2+z
loop_
_atom_site_type_symbol
_atom_site_label
_atom_site_fract_x
_atom_site_fract_y
_atom_site_fract_z
Si Si1 0.562816 0.052245 0.943480
Si Si2 0.933032 0.694798 0.937641
Si Si3 0.563681 0.374603 0.295174
Si Si4 0.564282 0.202692 0.942724
Si Si5 0.937088 0.126407 0.090362
Si Si6 0.062882 0.626580 0.085296
Si Si7 0.564437 0.552327 0.946670
Si Si8 0.435750 0.622607 0.800529
O O1 0.750000 0.051722 0.942044
O O2 0.497797 0.080155 0.852272
O O3 0.500000 0.000000 0.943827
O O4 0.502206 0.079701 0.036169
O O5 0.750000 0.684609 0.919972
O O6 0.964185 0.750018 0.941549
O O7 0.031489 0.671828 0.852813
O O8 0.984138 0.671314 0.035233
O O9 0.750000 0.379288 0.289521
O O10 0.519650 0.326560 0.349454
O O11 0.493487 0.374461 0.190641
O O12 0.750000 0.214278 0.945909
O O13 0.510149 0.173158 0.034095
O O14 0.750000 0.125886 0.093258
O O15 0.004751 0.126640 0.195440
O O16 0.250000 0.633251 0.083288
O O17 0.018163 0.577942 0.034253
O O18 0.500000 0.500000 0.938366
O O19 0.750000 0.551790 0.963575
O O20 0.525063 0.579770 0.851093
O O21 0.250000 0.611986 0.801657
#
# Coordination Sequence:
#
# PCOD8192130 Si02
#       8
#     8   8   8   8   8   8   8   8
#     4   9  17  33  52  76 105 133 163 203 248 298
#     4  11  22  35  49  74 107 137 167 211 260 304
#     4   8  17  33  55  77 101 131 170 211 250 296
#     4   9  17  35  57  76  99 135 174 209 247 302
#     4   8  17  33  55  77 101 131 170 211 250 296
#     4  10  19  35  56  78 101 133 172 212 253 302
#     4  11  22  37  54  76 104 137 171 211 256 302
#     4  10  19  35  56  78 101 133 172 212 253 302
#
# _framework density 18.671316000000001
#
# number of rings (size 3 to 8) (size 9 to 14) (size 15 to 20)
#    0.000    2.500    0.000    6.000    0.000    2.000 
#    0.000   15.000    0.000    0.000    0.000    0.000 
#    0.000    0.000    0.000    0.000    0.000    0.000 
#
# Total GULP energy -396753.248909 kJ/mol
# GULP energy per Si atom -12398.539028 kJ/mol
# Density = 1.862882 g / cm^3
# Si number density = 18.671316 Si / 1000 Ang^3
#
#
#
# Elastic Constant Matrix: (Units=GPa)
#
#
# Indices 1 2 3 4 5 6 
#
# 1 40.2748 10.6325 9.6611 0.0001 0.0000 0.0000
# 2 10.6325 145.6399 66.7689 0.0003 0.0000 0.0000
# 3 9.6611 66.7689 175.4719 0.0007 0.0001 0.0001
# 4 0.0001 0.0003 0.0007 16.3160 -0.0001 0.0000
# 5 0.0000 0.0000 0.0001 -0.0001 7.7637 0.0000
# 6 0.0000 0.0000 0.0001 0.0000 0.0000 32.4773
#
#
#
# Elastic Compliance Matrix: (Units=1/GPa)
#
#
# Indices 1 2 3 4 5 6 
#
# 1 0.025419 -0.001471 -0.000840 0.000000 0.000000 0.000000
# 2 -0.001471 0.008402 -0.003116 0.000000 0.000000 0.000000
# 3 -0.000840 -0.003116 0.006931 0.000000 0.000000 0.000000
# 4 0.000000 0.000000 0.000000 0.061290 0.000001 0.000000
# 5 0.000000 0.000000 0.000000 0.000001 0.128804 0.000000
# 6 0.000000 0.000000 0.000000 0.000000 0.000000 0.030791
#
#
# Mechanical properties :
#
#
# Convention : Reuss Voigt Hill
#
# Bulk Modulus (GPa) = 33.44621 59.50129 46.47375
# Shear Modulus (GPa) = 17.70186 29.59968 23.65077
#
# Velocity S-wave (km/s) = 3.08243 3.98590 3.56292
# Velocity P-wave (km/s) = 5.53358 7.28836 6.47073
#
# Compressibility (1/GPa) = 0.02989876
#
# Stress axis : x y z
#
# Youngs Moduli (GPa) = 39.34044 119.01604 144.28152
#
# Poissons Ratio (x) = 0.17503 0.12118
# Poissons Ratio (y) = 0.05786 0.44960
# Poissons Ratio (z) = 0.03304 0.37087
#
# Static dielectric constant tensor:
#      x y z
#    x 3.196160 0.000000 0.000000 
#    y 0.000000 1.926800 0.000000 
#    z 0.000000 0.000000 3.952030 
# 
# 
# High freq. dielectric constant tensor:
#      x y z
#    x 1.706010 0.000000 0.000000 
#    y 0.000000 1.727580 0.000000 
#    z 0.000000 0.000000 1.731330 
# 
# From -- ./inp_files/14759.got.cif
#   From: 2010.03.12/outbox.cif.g09.slc.cpg/sg46_8_cif.got.tgz:14759.got - 2010.04.14 02:56:35.
