data_PCOD8192159
_publ_section_title
;
Structure prediction by ZEFSAII (Michael W. Deem and Ramdas Pophale) SiO2 
 PCOD8192159
Probable space group: I M A 2
;
_chemical_formula_sum "Si O2"
_cell_formula_units_Z 48
_cell_length_a 8.928823
_cell_length_b 27.959353
_cell_length_c 9.973910
_cell_angle_alpha 90.000000
_cell_angle_beta 90.000000
_cell_angle_gamma 90.000000
_cell_volume 2489.927926
_symmetry_space_group_name_H-M "I M A 2"
_symmetry_group_IT_number 46
_symmetry_cell_setting 'orthorhombic'
loop_
_space_group_symop_operation_xyz
x,y,z
-x,-y,z
1/2-x,y,z
1/2+x,-y,z
1/2+x,1/2+y,1/2+z
1/2-x,1/2-y,1/2+z
-x,1/2+y,1/2+z
x,1/2-y,1/2+z
loop_
_atom_site_type_symbol
_atom_site_label
_atom_site_fract_x
_atom_site_fract_y
_atom_site_fract_z
Si Si1 0.576165 0.197980 0.072630
Si Si2 0.573661 0.951657 0.748539
Si Si3 0.575961 0.357377 0.302913
Si Si4 0.576330 0.798663 0.573755
Si Si5 0.574470 0.547882 0.939849
Si Si6 0.923778 0.645779 0.806407
O O1 0.750000 0.210530 0.093865
O O2 0.478076 0.244937 0.093192
O O3 0.525832 0.158724 0.180350
O O4 0.544705 0.177922 0.925603
O O5 0.750000 0.954399 0.768930
O O6 0.508947 0.907067 0.831516
O O7 0.526375 0.944487 0.593760
O O8 0.500000 0.000000 0.805738
O O9 0.750000 0.368469 0.285268
O O10 0.515257 0.333635 0.168560
O O11 0.750000 0.802369 0.613933
O O12 0.550039 0.814848 0.421458
O O13 0.500000 0.500000 0.879936
O O14 0.750000 0.541254 0.929512
O O15 0.521302 0.593825 0.856186
O O16 0.750000 0.644451 0.764257
#
# Coordination Sequence:
#
# PCOD8192159 Si02
#       6
#     8   8   8   8   8   8
#     4  11  25  40  55  83 119 153 193 237 287 344
#     4  10  19  35  59  88 118 148 190 239 287 340
#     4  11  23  39  59  86 119 154 194 238 286 341
#     4  11  22  39  62  86 112 149 197 241 286 342
#     4   9  18  34  56  86 115 142 184 232 280 335
#     4  10  21  39  60  85 115 150 193 235 282 344
#
# _framework density 19.277667000000001
#
# number of rings (size 3 to 8) (size 9 to 14) (size 15 to 20)
#    0.000    1.667    1.667    3.000    0.000    8.000 
#    0.000    0.833    0.000    2.000    0.000    0.000 
#    0.000    0.000    0.000    0.000    0.000    0.000 
#
# Total GULP energy -297727.744905 kJ/mol
# GULP energy per Si atom -12405.322704 kJ/mol
# Density = 1.923379 g / cm^3
# Si number density = 19.277667 Si / 1000 Ang^3
#
#
#
# Elastic Constant Matrix: (Units=GPa)
#
#
# Indices 1 2 3 4 5 6 
#
# 1 68.6239 38.4342 30.3461 -0.0018 0.0002 0.0001
# 2 38.4342 120.3040 7.3336 -0.0029 0.0002 0.0000
# 3 30.3461 7.3336 40.7743 -0.0125 0.0018 0.0002
# 4 -0.0018 -0.0029 -0.0125 13.9540 -0.0007 0.0001
# 5 0.0002 0.0002 0.0018 -0.0007 28.4972 -0.0009
# 6 0.0001 0.0000 0.0002 0.0001 -0.0009 40.9488
#
#
#
# Elastic Compliance Matrix: (Units=1/GPa)
#
#
# Indices 1 2 3 4 5 6 
#
# 1 0.027100 -0.007511 -0.018819 -0.000015 0.000001 0.000000
# 2 -0.007511 0.010486 0.003704 0.000005 0.000000 0.000000
# 3 -0.018819 0.003704 0.037865 0.000032 -0.000002 0.000000
# 4 -0.000015 0.000005 0.000032 0.071664 0.000002 0.000000
# 5 0.000001 0.000000 -0.000002 0.000002 0.035091 0.000001
# 6 0.000000 0.000000 0.000000 0.000000 0.000001 0.024421
#
#
# Mechanical properties :
#
#
# Convention : Reuss Voigt Hill
#
# Bulk Modulus (GPa) = 33.11229 42.43667 37.77448
# Shear Modulus (GPa) = 19.08799 26.91921 23.00360
#
# Velocity S-wave (km/s) = 3.15010 3.74089 3.45813
# Velocity P-wave (km/s) = 5.51766 6.38124 5.96510
#
# Compressibility (1/GPa) = 0.03020027
#
# Stress axis : x y z
#
# Youngs Moduli (GPa) = 36.89973 95.36521 26.40982
#
# Poissons Ratio (x) = 0.71627 0.49699
# Poissons Ratio (y) = 0.27715 -0.09782
# Poissons Ratio (z) = 0.69440 -0.35322
#
# Static dielectric constant tensor:
#      x y z
#    x 3.524380 0.000000 0.000000 
#    y 0.000000 3.738390 0.000000 
#    z 0.000000 0.000000 3.338150 
# 
# 
# High freq. dielectric constant tensor:
#      x y z
#    x 1.756980 0.000000 0.000000 
#    y 0.000000 1.766760 0.000000 
#    z 0.000000 0.000000 1.729110 
# 
# From -- ./inp_files/3904.got.cif
#   From: 2010.03.12/outbox.cif.g09.slc.cpg/sg46_2_cif.got.tgz:3904.got - 2010.04.14 02:56:35.
