data_PCOD8192370
_publ_section_title
;
Structure prediction by ZEFSAII (Michael W. Deem and Ramdas Pophale) SiO2 
 PCOD8192370
Probable space group: I M A 2
;
_chemical_formula_sum "Si O2"
_cell_formula_units_Z 64
_cell_length_a 8.584120
_cell_length_b 23.011525
_cell_length_c 18.911239
_cell_angle_alpha 90.000000
_cell_angle_beta 90.000000
_cell_angle_gamma 90.000000
_cell_volume 3735.606860
_symmetry_space_group_name_H-M "I M A 2"
_symmetry_group_IT_number 46
_symmetry_cell_setting 'orthorhombic'
loop_
_space_group_symop_operation_xyz
x,y,z
-x,-y,z
1/2-x,y,z
1/2+x,-y,z
1/2+x,1/2+y,1/2+z
1/2-x,1/2-y,1/2+z
-x,1/2+y,1/2+z
x,1/2-y,1/2+z
loop_
_atom_site_type_symbol
_atom_site_label
_atom_site_fract_x
_atom_site_fract_y
_atom_site_fract_z
Si Si1 0.930467 0.251553 0.564780
Si Si2 0.929980 0.657068 0.342451
Si Si3 0.430309 0.224616 0.420387
Si Si4 0.068011 0.937651 0.931872
Si Si5 0.928303 0.328619 0.791477
Si Si6 0.432321 0.121454 0.068939
Si Si7 0.430014 0.226186 0.707015
Si Si8 0.069316 0.560883 0.703115
O O1 0.750000 0.247611 0.547183
O O2 0.022213 0.219838 0.501885
O O3 0.976064 0.318443 0.574462
O O4 0.968203 0.217035 0.636816
O O5 0.750000 0.639294 0.350590
O O6 0.969724 0.710625 0.393991
O O7 0.968774 0.674414 0.261699
O O8 0.038760 0.603455 0.364106
O O9 0.250000 0.210195 0.411025
O O10 0.524983 0.177817 0.373697
O O11 0.250000 0.941509 0.949150
O O12 0.000000 0.000000 0.912394
O O13 0.976125 0.912346 0.998295
O O14 0.750000 0.309492 0.780226
O O15 0.954719 0.394860 0.768009
O O16 0.035615 0.287903 0.743234
O O17 0.250000 0.135518 0.068225
O O18 0.475061 0.081072 0.134535
O O19 0.250000 0.226083 0.685392
O O20 0.250000 0.554945 0.682415
O O21 0.000000 0.500000 0.729250
#
# Coordination Sequence:
#
# PCOD8192370 Si02
#       8
#     8   8   8   8   8   8   8   8
#     4  12  22  33  52  79 108 139 176 214 260 313
#     4   9  19  35  53  75 102 134 174 215 257 308
#     4  10  20  34  54  76 104 137 172 213 264 315
#     4  12  24  37  54  74 103 140 180 219 260 305
#     4  10  20  34  52  75 104 135 175 220 260 306
#     4  12  23  36  52  72 105 141 180 219 257 306
#     4  10  20  34  54  76 104 138 172 212 263 314
#     4  11  23  37  53  75 104 140 181 219 259 305
#
# _framework density 17.132424
#
# number of rings (size 3 to 8) (size 9 to 14) (size 15 to 20)
#    0.000    1.250    2.500    6.000    0.000    4.000 
#    0.000    0.000    0.000    0.000    0.000    0.875 
#    0.000    2.000    0.000    0.000    0.000    0.000 
#
# Total GULP energy -396960.306907 kJ/mol
# GULP energy per Si atom -12405.009591 kJ/mol
# Density = 1.709343 g / cm^3
# Si number density = 17.132424 Si / 1000 Ang^3
#
#
#
# Elastic Constant Matrix: (Units=GPa)
#
#
# Indices 1 2 3 4 5 6 
#
# 1 67.7901 25.3210 16.9330 0.0000 0.0000 0.0000
# 2 25.3210 71.8153 42.3217 0.0000 0.0000 0.0000
# 3 16.9330 42.3217 100.7644 0.0001 0.0000 0.0000
# 4 0.0000 0.0000 0.0001 14.3597 0.0000 0.0000
# 5 0.0000 0.0000 0.0000 0.0000 30.7255 0.0000
# 6 0.0000 0.0000 0.0000 0.0000 0.0000 25.6113
#
#
#
# Elastic Compliance Matrix: (Units=1/GPa)
#
#
# Indices 1 2 3 4 5 6 
#
# 1 0.017004 -0.005730 -0.000451 0.000000 0.000000 0.000000
# 2 -0.005730 0.020435 -0.007620 0.000000 0.000000 0.000000
# 3 -0.000451 -0.007620 0.013200 0.000000 0.000000 0.000000
# 4 0.000000 0.000000 0.000000 0.069639 0.000000 0.000000
# 5 0.000000 0.000000 0.000000 0.000000 0.032546 0.000000
# 6 0.000000 0.000000 0.000000 0.000000 0.000000 0.039045
#
#
# Mechanical properties :
#
#
# Convention : Reuss Voigt Hill
#
# Bulk Modulus (GPa) = 43.40563 45.50233 44.45398
# Shear Modulus (GPa) = 22.01168 24.52558 23.26863
#
# Velocity S-wave (km/s) = 3.58829 3.78766 3.68933
# Velocity P-wave (km/s) = 6.52366 6.76353 6.64468
#
# Compressibility (1/GPa) = 0.02303849
#
# Stress axis : x y z
#
# Youngs Moduli (GPa) = 58.80896 48.93452 75.75499
#
# Poissons Ratio (x) = 0.28038 0.03416
# Poissons Ratio (y) = 0.33696 0.57727
# Poissons Ratio (z) = 0.02652 0.37289
#
# Static dielectric constant tensor:
#      x y z
#    x 3.341420 0.000000 0.000000 
#    y 0.000000 3.058410 0.000000 
#    z 0.000000 0.000000 3.311630 
# 
# 
# High freq. dielectric constant tensor:
#      x y z
#    x 1.679190 0.000000 0.000000 
#    y 0.000000 1.629130 0.000000 
#    z 0.000000 0.000000 1.658700 
# 
# From -- ./inp_files/18552.got.cif
#   From: 2010.03.12/outbox.cif.g09.slc.cpg/sg46_10_cif.got.tgz:18552.got - 2010.04.14 02:56:35.
