data_PCOD8192448
_publ_section_title
;
Structure prediction by ZEFSAII (Michael W. Deem and Ramdas Pophale) SiO2 
 PCOD8192448
Probable space group: I M A 2
;
_chemical_formula_sum "Si O2"
_cell_formula_units_Z 48
_cell_length_a 8.762975
_cell_length_b 30.349251
_cell_length_c 9.954994
_cell_angle_alpha 90.000000
_cell_angle_beta 90.000000
_cell_angle_gamma 90.000000
_cell_volume 2647.527944
_symmetry_space_group_name_H-M "I M A 2"
_symmetry_group_IT_number 46
_symmetry_cell_setting 'orthorhombic'
loop_
_space_group_symop_operation_xyz
x,y,z
-x,-y,z
1/2-x,y,z
1/2+x,-y,z
1/2+x,1/2+y,1/2+z
1/2-x,1/2-y,1/2+z
-x,1/2+y,1/2+z
x,1/2-y,1/2+z
loop_
_atom_site_type_symbol
_atom_site_label
_atom_site_fract_x
_atom_site_fract_y
_atom_site_fract_z
Si Si1 0.429060 0.045384 0.498030
Si Si2 0.570224 0.211499 0.691523
Si Si3 0.427859 0.714715 0.495217
Si Si4 0.930524 0.618213 0.208232
Si Si5 0.930479 0.546093 0.691978
Si Si6 0.568264 0.383864 0.492654
O O1 0.250000 0.039778 0.505404
O O2 0.485315 0.084923 0.592297
O O3 0.480918 0.055206 0.345366
O O4 0.500000 0.000000 0.551283
O O5 0.750000 0.203199 0.669769
O O6 0.499535 0.248646 0.593140
O O7 0.483699 0.166287 0.661333
O O8 0.536514 0.227977 0.842215
O O9 0.250000 0.714276 0.524910
O O10 0.490839 0.665710 0.525039
O O11 0.750000 0.617620 0.228617
O O12 0.009689 0.602579 0.345606
O O13 0.750000 0.544527 0.674137
O O14 0.000000 0.500000 0.641382
O O15 0.998783 0.584970 0.604236
O O16 0.750000 0.386753 0.493036
#
# Coordination Sequence:
#
# PCOD8192448 Si02
#       6
#     8   8   8   8   8   8
#     4   9  20  36  54  75 102 133 169 210 255 304
#     4   9  17  32  51  72  98 132 171 212 253 301
#     4   8  16  30  49  71  97 127 165 208 250 295
#     4  10  20  35  52  75 106 138 170 212 259 305
#     4  10  20  36  55  77 104 135 170 213 259 308
#     4  10  20  35  54  78 105 137 174 213 256 307
#
# _framework density 18.130120000000002
#
# number of rings (size 3 to 8) (size 9 to 14) (size 15 to 20)
#    0.000    2.667    0.000    2.500    0.000    4.000 
#    0.000    7.500    0.000    0.000    0.000    0.000 
#    0.000    0.000    0.000    0.000    0.000    0.000 
#
# Total GULP energy -297590.326723 kJ/mol
# GULP energy per Si atom -12399.596947 kJ/mol
# Density = 1.808886 g / cm^3
# Si number density = 18.130120 Si / 1000 Ang^3
#
#
#
# Elastic Constant Matrix: (Units=GPa)
#
#
# Indices 1 2 3 4 5 6 
#
# 1 53.1569 37.5894 34.9056 -0.0018 0.0000 0.0002
# 2 37.5894 128.2054 92.3264 -0.0058 -0.0001 0.0010
# 3 34.9056 92.3264 113.9263 -0.0049 0.0005 0.0012
# 4 -0.0018 -0.0058 -0.0049 44.5968 0.0002 0.0008
# 5 0.0000 -0.0001 0.0005 0.0002 23.6531 -0.0010
# 6 0.0002 0.0010 0.0012 0.0008 -0.0010 30.1521
#
#
#
# Elastic Compliance Matrix: (Units=1/GPa)
#
#
# Indices 1 2 3 4 5 6 
#
# 1 0.024485 -0.004266 -0.004044 0.000000 0.000000 0.000000
# 2 -0.004266 0.019476 -0.014476 0.000001 0.000000 0.000000
# 3 -0.004044 -0.014476 0.021748 0.000000 0.000000 0.000000
# 4 0.000000 0.000001 0.000000 0.022423 0.000000 -0.000001
# 5 0.000000 0.000000 0.000000 0.000000 0.042278 0.000001
# 6 0.000000 0.000000 0.000000 -0.000001 0.000001 0.033165
#
#
# Mechanical properties :
#
#
# Convention : Reuss Voigt Hill
#
# Bulk Modulus (GPa) = 49.66419 69.43685 59.55052
# Shear Modulus (GPa) = 23.16314 28.37821 25.77067
#
# Velocity S-wave (km/s) = 3.57824 3.96062 3.77427
# Velocity P-wave (km/s) = 6.67266 7.70050 7.20493
#
# Compressibility (1/GPa) = 0.02013523
#
# Stress axis : x y z
#
# Youngs Moduli (GPa) = 40.84147 51.34603 45.98077
#
# Poissons Ratio (x) = 0.21906 0.18597
# Poissons Ratio (y) = 0.17424 0.66562
# Poissons Ratio (z) = 0.16518 0.74329
#
# Static dielectric constant tensor:
#      x y z
#    x 3.214240 0.000000 0.000000 
#    y 0.000000 3.515660 0.000000 
#    z 0.000000 0.000000 3.503470 
# 
# 
# High freq. dielectric constant tensor:
#      x y z
#    x 1.691250 0.000000 0.000000 
#    y 0.000000 1.708520 0.000000 
#    z 0.000000 0.000000 1.704670 
# 
# From -- ./inp_files/3917.got.cif
#   From: 2010.03.12/outbox.cif.g09.slc.cpg/sg46_2_cif.got.tgz:3917.got - 2010.04.14 02:56:35.
