data_PCOD8192798
_publ_section_title
;
Structure prediction by ZEFSAII (Michael W. Deem and Ramdas Pophale) SiO2 
 PCOD8192798
Probable space group: I M A 2
;
_chemical_formula_sum "Si O2"
_cell_formula_units_Z 44
_cell_length_a 14.229581
_cell_length_b 11.637905
_cell_length_c 13.772719
_cell_angle_alpha 90.000000
_cell_angle_beta 90.000000
_cell_angle_gamma 90.000000
_cell_volume 2280.796862
_symmetry_space_group_name_H-M "I M A 2"
_symmetry_group_IT_number 46
_symmetry_cell_setting 'orthorhombic'
loop_
_space_group_symop_operation_xyz
x,y,z
-x,-y,z
1/2-x,y,z
1/2+x,-y,z
1/2+x,1/2+y,1/2+z
1/2-x,1/2-y,1/2+z
-x,1/2+y,1/2+z
x,1/2-y,1/2+z
loop_
_atom_site_type_symbol
_atom_site_label
_atom_site_fract_x
_atom_site_fract_y
_atom_site_fract_z
Si Si1 0.489102 0.236344 0.254870
Si Si2 0.857586 0.249539 0.410521
Si Si3 0.500000 0.000000 0.172880
Si Si4 0.861117 0.778300 0.928081
Si Si5 0.354998 0.979182 0.017470
Si Si6 0.999906 0.636499 0.051429
O O1 0.589502 0.233980 0.308791
O O2 0.405020 0.284805 0.320869
O O3 0.496738 0.312639 0.159188
O O4 0.459805 0.104211 0.236007
O O5 0.750000 0.207847 0.399951
O O6 0.863239 0.384642 0.433789
O O7 0.905894 0.176796 0.496430
O O8 0.418628 0.943501 0.107780
O O9 0.750000 0.757737 0.921576
O O10 0.908263 0.677652 0.991561
O O11 0.888702 0.898852 0.976634
O O12 0.250000 0.988171 0.057623
O O13 0.000000 0.500000 0.058286
#
# Coordination Sequence:
#
# PCOD8192798 Si02
#       6
#     8   8   4   8   8   8
#     4  11  24  37  64  89 120 154 204 243 300 347
#     4  10  23  42  62  88 121 158 199 245 294 351
#     4  12  20  40  62  86 116 156 198 254 294 342
#     4  10  23  42  62  88 121 158 199 245 294 351
#     4  10  20  40  66  85 112 158 204 245 292 345
#     4  11  24  41  61  87 123 162 195 239 301 357
#
# _framework density 19.291502999999999
#
# number of rings (size 3 to 8) (size 9 to 14) (size 15 to 20)
#    0.000    1.455    3.636    1.091    7.636    3.636 
#    0.000    0.000    0.000    0.000    0.000    0.000 
#    0.000    0.000    0.000    0.000    0.000    0.000 
#
# Total GULP energy -272855.197236 kJ/mol
# GULP energy per Si atom -12402.508965 kJ/mol
# Density = 1.924759 g / cm^3
# Si number density = 19.291503 Si / 1000 Ang^3
#
#
#
# Elastic Constant Matrix: (Units=GPa)
#
#
# Indices 1 2 3 4 5 6 
#
# 1 130.2210 28.1906 59.8906 0.0000 0.0000 0.0000
# 2 28.1906 117.8140 31.3938 0.0000 0.0000 0.0000
# 3 59.8906 31.3938 121.0176 0.0000 0.0000 0.0000
# 4 0.0000 0.0000 0.0000 4.8305 0.0000 0.0000
# 5 0.0000 0.0000 0.0000 0.0000 0.3341 0.0000
# 6 0.0000 0.0000 0.0000 0.0000 0.0000 28.4533
#
#
#
# Elastic Compliance Matrix: (Units=1/GPa)
#
#
# Indices 1 2 3 4 5 6 
#
# 1 0.010089 -0.001164 -0.004691 0.000000 0.000000 0.000000
# 2 -0.001164 0.009253 -0.001824 0.000000 0.000000 0.000000
# 3 -0.004691 -0.001824 0.011058 0.000000 0.000000 0.000000
# 4 0.000000 0.000000 0.000000 0.207019 0.000000 0.000000
# 5 0.000000 0.000000 0.000000 0.000000 2.992774 0.000000
# 6 0.000000 0.000000 0.000000 0.000000 0.000000 0.035145
#
#
# Mechanical properties :
#
#
# Convention : Reuss Voigt Hill
#
# Bulk Modulus (GPa) = 66.48474 67.55586 67.02030
# Shear Modulus (GPa) = 1.52174 23.36208 12.44191
#
# Velocity S-wave (km/s) = 0.88912 3.48372 2.54233
# Velocity P-wave (km/s) = 5.96591 7.16074 6.59046
#
# Compressibility (1/GPa) = 0.01504105
#
# Stress axis : x y z
#
# Youngs Moduli (GPa) = 99.12155 108.07799 90.43288
#
# Poissons Ratio (x) = 0.12581 0.42420
# Poissons Ratio (y) = 0.11538 0.16497
# Poissons Ratio (z) = 0.46496 0.19715
#
# Static dielectric constant tensor:
#      x y z
#    x 3.600570 0.000000 0.000000 
#    y 0.000000 3.574900 0.000000 
#    z 0.000000 0.000000 3.502840 
# 
# 
# High freq. dielectric constant tensor:
#      x y z
#    x 1.756530 0.000000 0.000000 
#    y 0.000000 1.758660 0.000000 
#    z 0.000000 0.000000 1.752150 
# 
# From -- ./inp_files/15796.got.cif
#   From: 2010.03.12/outbox.cif.g09.slc.cpg/sg46_8_cif.got.tgz:15796.got - 2010.04.14 02:56:35.
