data_PCOD8192556
_publ_section_title
;
Structure prediction by ZEFSAII (Michael W. Deem and Ramdas Pophale) SiO2 
 PCOD8192556
Probable space group: I M A 2
;
_chemical_formula_sum "Si O2"
_cell_formula_units_Z 64
_cell_length_a 9.249610
_cell_length_b 24.787726
_cell_length_c 14.921595
_cell_angle_alpha 90.000000
_cell_angle_beta 90.000000
_cell_angle_gamma 90.000000
_cell_volume 3421.175527
_symmetry_space_group_name_H-M "I M A 2"
_symmetry_group_IT_number 46
_symmetry_cell_setting 'orthorhombic'
loop_
_space_group_symop_operation_xyz
x,y,z
-x,-y,z
1/2-x,y,z
1/2+x,-y,z
1/2+x,1/2+y,1/2+z
1/2-x,1/2-y,1/2+z
-x,1/2+y,1/2+z
x,1/2-y,1/2+z
loop_
_atom_site_type_symbol
_atom_site_label
_atom_site_fract_x
_atom_site_fract_y
_atom_site_fract_z
Si Si1 0.581991 0.347292 0.316490
Si Si2 0.415071 0.243352 0.287496
Si Si3 0.579813 0.637981 0.683826
Si Si4 0.921133 0.445567 0.191230
Si Si5 0.585382 0.725796 0.992653
Si Si6 0.082151 0.104691 0.527466
Si Si7 0.080612 0.055909 0.336493
Si Si8 0.420155 0.830760 0.018964
O O1 0.750000 0.335270 0.308491
O O2 0.504701 0.297261 0.268400
O O3 0.538198 0.402021 0.266819
O O4 0.535341 0.351961 0.420447
O O5 0.250000 0.258973 0.270328
O O6 0.465373 0.196689 0.220544
O O7 0.438517 0.220292 0.386754
O O8 0.750000 0.634178 0.666700
O O9 0.529091 0.592831 0.753924
O O10 0.494875 0.629334 0.590588
O O11 0.750000 0.454873 0.183663
O O12 0.000000 0.500000 0.221645
O O13 0.980411 0.427255 0.095232
O O14 0.750000 0.743335 0.013900
O O15 0.550475 0.668286 0.037070
O O16 0.478791 0.770116 0.033848
O O17 0.250000 0.092015 0.548080
O O18 0.039530 0.085665 0.428344
O O19 0.250000 0.045011 0.331573
O O20 0.000000 0.000000 0.328908
O O21 0.250000 0.831048 0.033886
#
# Coordination Sequence:
#
# PCOD8192556 Si02
#       8
#     8   8   8   8   8   8   8   8
#     4   9  21  40  57  78 112 146 181 232 285 330
#     4   9  17  32  56  82 109 145 184 221 267 327
#     4  10  20  36  56  82 114 149 188 231 274 327
#     4  11  24  41  59  81 110 145 189 237 283 333
#     4   9  17  33  55  81 113 150 186 220 267 329
#     4  10  20  36  58  84 115 150 185 225 274 332
#     4  10  21  38  58  81 114 151 189 231 277 329
#     4  10  21  36  55  81 115 150 184 231 284 332
#
# _framework density 18.707021000000001
#
# number of rings (size 3 to 8) (size 9 to 14) (size 15 to 20)
#    0.000    2.250    1.250    1.125    1.750    4.500 
#    0.000    0.625    0.000    3.000    0.000    0.000 
#    0.000    0.000    0.000    0.000    0.000    0.000 
#
# Total GULP energy -396875.756644 kJ/mol
# GULP energy per Si atom -12402.367395 kJ/mol
# Density = 1.866444 g / cm^3
# Si number density = 18.707021 Si / 1000 Ang^3
#
#
#
# Elastic Constant Matrix: (Units=GPa)
#
#
# Indices 1 2 3 4 5 6 
#
# 1 62.5184 52.6292 42.4769 0.0000 -0.0001 0.0000
# 2 52.6292 115.3991 51.1596 -0.0003 0.0001 0.0001
# 3 42.4769 51.1596 91.6642 -0.0011 0.0003 0.0002
# 4 0.0000 -0.0003 -0.0011 29.4103 0.0001 0.0001
# 5 -0.0001 0.0001 0.0003 0.0001 26.2758 -0.0001
# 6 0.0000 0.0001 0.0002 0.0001 -0.0001 33.8708
#
#
#
# Elastic Compliance Matrix: (Units=1/GPa)
#
#
# Indices 1 2 3 4 5 6 
#
# 1 0.030118 -0.010030 -0.008359 0.000000 0.000000 0.000000
# 2 -0.010030 0.014855 -0.003643 0.000000 0.000000 0.000000
# 3 -0.008359 -0.003643 0.016816 0.000001 0.000000 0.000000
# 4 0.000000 0.000000 0.000001 0.034002 0.000000 0.000000
# 5 0.000000 0.000000 0.000000 0.000000 0.038058 0.000000
# 6 0.000000 0.000000 0.000000 0.000000 0.000000 0.029524
#
#
# Mechanical properties :
#
#
# Convention : Reuss Voigt Hill
#
# Bulk Modulus (GPa) = 56.41555 62.45701 59.43628
# Shear Modulus (GPa) = 23.43635 26.13243 24.78439
#
# Velocity S-wave (km/s) = 3.54335 3.74161 3.64383
# Velocity P-wave (km/s) = 6.85298 7.21981 7.03878
#
# Compressibility (1/GPa) = 0.01772561
#
# Stress axis : x y z
#
# Youngs Moduli (GPa) = 33.20290 67.31785 59.46753
#
# Poissons Ratio (x) = 0.67520 0.49706
# Poissons Ratio (y) = 0.33303 0.21664
# Poissons Ratio (z) = 0.27753 0.24523
#
# Static dielectric constant tensor:
#      x y z
#    x 3.349440 0.000000 0.000000 
#    y 0.000000 3.455000 0.000000 
#    z 0.000000 0.000000 3.542330 
# 
# 
# High freq. dielectric constant tensor:
#      x y z
#    x 1.720050 0.000000 0.000000 
#    y 0.000000 1.719450 0.000000 
#    z 0.000000 0.000000 1.732200 
# 
# From -- ./inp_files/14441.got.cif
#   From: 2010.03.12/outbox.cif.g09.slc.cpg/sg46_8_cif.got.tgz:14441.got - 2010.04.14 02:56:35.
