data_PCOD8192570
_publ_section_title
;
Structure prediction by ZEFSAII (Michael W. Deem and Ramdas Pophale) SiO2 
 PCOD8192570
Probable space group: I M A 2
;
_chemical_formula_sum "Si O2"
_cell_formula_units_Z 60
_cell_length_a 9.479744
_cell_length_b 25.502706
_cell_length_c 11.780238
_cell_angle_alpha 90.000000
_cell_angle_beta 90.000000
_cell_angle_gamma 90.000000
_cell_volume 2847.980022
_symmetry_space_group_name_H-M "I M A 2"
_symmetry_group_IT_number 46
_symmetry_cell_setting 'orthorhombic'
loop_
_space_group_symop_operation_xyz
x,y,z
-x,-y,z
1/2-x,y,z
1/2+x,-y,z
1/2+x,1/2+y,1/2+z
1/2-x,1/2-y,1/2+z
-x,1/2+y,1/2+z
x,1/2-y,1/2+z
loop_
_atom_site_type_symbol
_atom_site_label
_atom_site_fract_x
_atom_site_fract_y
_atom_site_fract_z
Si Si1 0.000000 0.000000 0.691121
Si Si2 0.909629 0.283395 0.481104
Si Si3 0.579361 0.949349 0.270600
Si Si4 0.407950 0.676714 0.096155
Si Si5 0.405729 0.930523 0.487553
Si Si6 0.100758 0.434335 0.397283
Si Si7 0.097155 0.177421 0.800542
Si Si8 0.913279 0.397787 0.584354
O O1 0.084806 0.960308 0.608997
O O2 0.909756 0.964781 0.777844
O O3 0.750000 0.276235 0.439151
O O4 0.956373 0.233790 0.554930
O O5 0.926692 0.337092 0.550375
O O6 0.006003 0.280319 0.369422
O O7 0.750000 0.950976 0.263195
O O8 0.531711 0.946255 0.402696
O O9 0.512396 0.902338 0.196148
O O10 0.500000 0.000000 0.218226
O O11 0.250000 0.679359 0.146940
O O12 0.415715 0.632220 0.000070
O O13 0.517265 0.658614 0.189623
O O14 0.250000 0.944448 0.436713
O O15 0.250000 0.452681 0.453505
O O16 0.115241 0.373043 0.377260
O O17 0.970374 0.438611 0.486219
O O18 0.250000 0.201840 0.770853
O O19 0.750000 0.412405 0.608552
#
# Coordination Sequence:
#
# PCOD8192570 Si02
#       8
#     4   8   8   8   8   8   8   8
#     4  12  22  38  64  92 126 160 202 250 300 368
#     4   9  20  39  63  88 118 160 205 252 304 363
#     4  12  26  44  66  90 125 167 209 259 311 370
#     4  10  21  39  62  89 121 159 205 252 302 367
#     4  11  24  41  64  93 125 165 209 254 307 368
#     4  10  22  38  59  90 126 161 200 249 305 362
#     4  10  20  36  57  85 121 157 196 251 307 359
#     4  10  22  42  66  92 122 162 211 257 307 365
#
# _framework density 21.067564000000001
#
# number of rings (size 3 to 8) (size 9 to 14) (size 15 to 20)
#    0.000    1.600    2.000    2.400    0.933    4.800 
#    0.000    5.333    0.000    0.000    0.000    0.000 
#    0.000    0.000    0.000    0.000    0.000    0.000 
#
# Total GULP energy -371718.375000 kJ/mol
# GULP energy per Si atom -12390.612500 kJ/mol
# Density = 2.101961 g / cm^3
# Si number density = 21.067564 Si / 1000 Ang^3
#
#
#
# Elastic Constant Matrix: (Units=GPa)
#
#
# Indices 1 2 3 4 5 6 
#
# 1 164.6092 36.5379 48.4509 0.0003 -0.0015 -0.0004
# 2 36.5379 71.9638 20.8738 -0.0013 -0.0013 -0.0001
# 3 48.4509 20.8738 83.1439 -0.0047 -0.0057 -0.0006
# 4 0.0003 -0.0013 -0.0047 17.4588 0.0013 0.0010
# 5 -0.0015 -0.0013 -0.0057 0.0013 32.6254 -0.0011
# 6 -0.0004 -0.0001 -0.0006 0.0010 -0.0011 17.7816
#
#
#
# Elastic Compliance Matrix: (Units=1/GPa)
#
#
# Indices 1 2 3 4 5 6 
#
# 1 0.007845 -0.002866 -0.003852 -0.000001 0.000000 0.000000
# 2 -0.002866 0.016034 -0.002355 0.000001 0.000000 0.000000
# 3 -0.003852 -0.002355 0.014863 0.000004 0.000002 0.000000
# 4 -0.000001 0.000001 0.000004 0.057278 -0.000002 -0.000003
# 5 0.000000 0.000000 0.000002 -0.000002 0.030651 0.000002
# 6 0.000000 0.000000 0.000000 -0.000003 0.000002 0.056238
#
#
# Mechanical properties :
#
#
# Convention : Reuss Voigt Hill
#
# Bulk Modulus (GPa) = 48.55340 59.04913 53.80126
# Shear Modulus (GPa) = 24.04761 27.83011 25.93886
#
# Velocity S-wave (km/s) = 3.38220 3.63849 3.51268
# Velocity P-wave (km/s) = 6.19265 6.76319 6.48420
#
# Compressibility (1/GPa) = 0.02059588
#
# Stress axis : x y z
#
# Youngs Moduli (GPa) = 127.47139 62.36703 67.27930
#
# Poissons Ratio (x) = 0.17873 0.25916
# Poissons Ratio (y) = 0.36530 0.15848
# Poissons Ratio (z) = 0.49102 0.14691
#
# Static dielectric constant tensor:
#      x y z
#    x 4.191000 0.000000 0.000000 
#    y 0.000000 3.856400 0.000000 
#    z 0.000000 0.000000 3.588830 
# 
# 
# High freq. dielectric constant tensor:
#      x y z
#    x 1.834430 0.000000 0.000000 
#    y 0.000000 1.823110 0.000000 
#    z 0.000000 0.000000 1.813130 
# 
# From -- ./inp_files/9539.got.cif
#   From: 2010.03.12/outbox.cif.g09.slc.cpg/sg46_5_cif.got.tgz:9539.got - 2010.04.14 02:56:35.
