data_PCOD8192386
_publ_section_title
;
Structure prediction by ZEFSAII (Michael W. Deem and Ramdas Pophale) SiO2 
 PCOD8192386
Probable space group: I M A 2
;
_chemical_formula_sum "Si O2"
_cell_formula_units_Z 40
_cell_length_a 8.961471
_cell_length_b 13.425812
_cell_length_c 18.677588
_cell_angle_alpha 90.000000
_cell_angle_beta 90.000000
_cell_angle_gamma 90.000000
_cell_volume 2247.194465
_symmetry_space_group_name_H-M "I M A 2"
_symmetry_group_IT_number 46
_symmetry_cell_setting 'orthorhombic'
loop_
_space_group_symop_operation_xyz
x,y,z
-x,-y,z
1/2-x,y,z
1/2+x,-y,z
1/2+x,1/2+y,1/2+z
1/2-x,1/2-y,1/2+z
-x,1/2+y,1/2+z
x,1/2-y,1/2+z
loop_
_atom_site_type_symbol
_atom_site_label
_atom_site_fract_x
_atom_site_fract_y
_atom_site_fract_z
Si Si1 0.078095 0.399093 0.156320
Si Si2 0.925650 0.714560 0.015959
Si Si3 0.424929 0.393756 0.872796
Si Si4 0.574873 0.694127 0.721667
Si Si5 0.072579 0.897040 0.086638
O O1 0.250000 0.423383 0.160694
O O2 0.032719 0.367385 0.075886
O O3 0.034499 0.310252 0.210717
O O4 0.000000 0.500000 0.180561
O O5 0.750000 0.739826 0.019164
O O6 0.018217 0.814294 0.030418
O O7 0.977400 0.672624 0.939633
O O8 0.500000 0.500000 0.875892
O O9 0.250000 0.411694 0.875903
O O10 0.472925 0.335799 0.801315
O O11 0.750000 0.675847 0.706553
O O12 0.482064 0.626977 0.666848
O O13 0.250000 0.904779 0.085738
O O14 0.000000 0.000000 0.061211
#
# Coordination Sequence:
#
# PCOD8192386 Si02
#       5
#     8   8   8   8   8
#     4   9  17  30  49  71  98 130 166 207 250 294
#     4   9  19  35  52  74 103 133 167 210 256 306
#     4  10  20  34  54  77 105 137 168 207 257 306
#     4   9  19  35  52  75 106 138 171 210 254 302
#     4  11  21  34  54  77 101 134 173 214 255 300
#
# _framework density 17.799973999999999
#
# number of rings (size 3 to 8) (size 9 to 14) (size 15 to 20)
#    0.000    2.400    0.000    4.200    0.000    6.400 
#    0.000    1.000    0.000    2.400    0.000    0.000 
#    0.000    0.000    0.000    0.000    0.000    0.000 
#
# Total GULP energy -248026.432386 kJ/mol
# GULP energy per Si atom -12401.321619 kJ/mol
# Density = 1.775946 g / cm^3
# Si number density = 17.799974 Si / 1000 Ang^3
#
#
#
# Elastic Constant Matrix: (Units=GPa)
#
#
# Indices 1 2 3 4 5 6 
#
# 1 72.5836 63.6675 42.5303 0.0000 0.0000 0.0000
# 2 63.6675 149.9078 74.9264 0.0000 0.0000 0.0000
# 3 42.5303 74.9264 145.0775 0.0000 0.0000 0.0000
# 4 0.0000 0.0000 0.0000 17.5159 0.0000 0.0000
# 5 0.0000 0.0000 0.0000 0.0000 21.8966 0.0000
# 6 0.0000 0.0000 0.0000 0.0000 0.0000 36.8315
#
#
#
# Elastic Compliance Matrix: (Units=1/GPa)
#
#
# Indices 1 2 3 4 5 6 
#
# 1 0.022483 -0.008431 -0.002237 0.000000 0.000000 0.000000
# 2 -0.008431 0.012153 -0.003805 0.000000 0.000000 0.000000
# 3 -0.002237 -0.003805 0.009514 0.000000 0.000000 0.000000
# 4 0.000000 0.000000 0.000000 0.057091 0.000000 0.000000
# 5 0.000000 0.000000 0.000000 0.000000 0.045669 0.000000
# 6 0.000000 0.000000 0.000000 0.000000 0.000000 0.027151
#
#
# Mechanical properties :
#
#
# Convention : Reuss Voigt Hill
#
# Bulk Modulus (GPa) = 65.76971 81.09081 73.43026
# Shear Modulus (GPa) = 24.02981 27.67844 25.85412
#
# Velocity S-wave (km/s) = 3.67821 3.94759 3.81528
# Velocity P-wave (km/s) = 7.42082 8.15068 7.79429
#
# Compressibility (1/GPa) = 0.01520457
#
# Stress axis : x y z
#
# Youngs Moduli (GPa) = 44.47794 82.28238 105.11032
#
# Poissons Ratio (x) = 0.69370 0.23512
# Poissons Ratio (y) = 0.37498 0.39996
# Poissons Ratio (z) = 0.09949 0.31310
#
# Static dielectric constant tensor:
#      x y z
#    x 3.193850 0.000000 0.000000 
#    y 0.000000 3.476030 0.000000 
#    z 0.000000 0.000000 3.364940 
# 
# 
# High freq. dielectric constant tensor:
#      x y z
#    x 1.682900 0.000000 0.000000 
#    y 0.000000 1.696390 0.000000 
#    z 0.000000 0.000000 1.680030 
# 
# From -- ./inp_files/17963.got.cif
#   From: 2010.03.12/outbox.cif.g09.slc.cpg/sg46_9_cif.got.tgz:17963.got - 2010.04.14 02:56:35.
