data_PCOD8192057
_publ_section_title
;
Structure prediction by ZEFSAII (Michael W. Deem and Ramdas Pophale) SiO2 
 PCOD8192057
Probable space group: I M A 2
;
_chemical_formula_sum "Si O2"
_cell_formula_units_Z 60
_cell_length_a 13.765211
_cell_length_b 20.169250
_cell_length_c 11.467022
_cell_angle_alpha 90.000000
_cell_angle_beta 90.000000
_cell_angle_gamma 90.000000
_cell_volume 3183.634979
_symmetry_space_group_name_H-M "I M A 2"
_symmetry_group_IT_number 46
_symmetry_cell_setting 'orthorhombic'
loop_
_space_group_symop_operation_xyz
x,y,z
-x,-y,z
1/2-x,y,z
1/2+x,-y,z
1/2+x,1/2+y,1/2+z
1/2-x,1/2-y,1/2+z
-x,1/2+y,1/2+z
x,1/2-y,1/2+z
loop_
_atom_site_type_symbol
_atom_site_label
_atom_site_fract_x
_atom_site_fract_y
_atom_site_fract_z
Si Si1 0.859031 0.474068 0.625000
Si Si2 0.640170 0.629177 0.602513
Si Si3 0.000000 0.000000 0.309478
Si Si4 0.362169 0.582631 0.371965
Si Si5 0.959288 0.663889 0.378206
Si Si6 0.640080 0.796551 0.338557
Si Si7 0.864556 0.952627 0.738666
Si Si8 0.362813 0.419808 0.979211
O O1 0.750000 0.459980 0.668885
O O2 0.876362 0.551124 0.600297
O O3 0.934358 0.451903 0.726082
O O4 0.879816 0.436381 0.505671
O O5 0.750000 0.646750 0.563695
O O6 0.565519 0.664775 0.515280
O O7 0.619376 0.654957 0.731473
O O8 0.927290 0.958270 0.387012
O O9 0.250000 0.599799 0.346022
O O10 0.427574 0.647955 0.350871
O O11 0.401997 0.523738 0.287551
O O12 0.935237 0.736272 0.328785
O O13 0.894430 0.606992 0.321266
O O14 0.750000 0.768263 0.335533
O O15 0.625072 0.840816 0.455785
O O16 0.750000 0.955652 0.742294
O O17 0.901330 0.938623 0.607605
O O18 0.250000 0.440248 0.961814
#
# Coordination Sequence:
#
# PCOD8192057 Si02
#       8
#     8   8   4   8   8   8   8   8
#     4  10  19  34  56  85 115 144 184 241 292 332
#     4  10  19  34  55  83 116 146 181 233 288 341
#     4  12  20  32  58  82 112 154 194 228 280 340
#     4  10  22  38  58  85 117 148 195 251 292 324
#     4  12  22  34  60  84 114 152 199 228 285 345
#     4  10  22  38  55  84 120 153 186 230 287 351
#     4  10  21  37  56  84 117 149 185 237 293 345
#     4  10  23  39  55  82 122 154 186 231 284 345
#
# _framework density 18.846382999999999
#
# number of rings (size 3 to 8) (size 9 to 14) (size 15 to 20)
#    0.000    1.600    2.667    2.800    3.733    0.000 
#    0.000    0.000    0.000    2.400    0.000    0.000 
#    0.000    0.000    0.000    0.000    0.000    0.000 
#
# Total GULP energy -371954.074706 kJ/mol
# GULP energy per Si atom -12398.469157 kJ/mol
# Density = 1.880349 g / cm^3
# Si number density = 18.846383 Si / 1000 Ang^3
#
#
#
# Elastic Constant Matrix: (Units=GPa)
#
#
# Indices 1 2 3 4 5 6 
#
# 1 70.8160 35.0426 32.4828 0.0000 0.0000 0.0000
# 2 35.0426 68.5364 9.4528 0.0000 0.0000 0.0000
# 3 32.4828 9.4528 70.3149 0.0002 0.0000 -0.0001
# 4 0.0000 0.0000 0.0002 11.9642 0.0000 0.0000
# 5 0.0000 0.0000 0.0000 0.0000 28.1279 0.0000
# 6 0.0000 0.0000 -0.0001 0.0000 0.0000 32.4176
#
#
#
# Elastic Compliance Matrix: (Units=1/GPa)
#
#
# Indices 1 2 3 4 5 6 
#
# 1 0.023912 -0.010905 -0.009580 0.000000 0.000000 0.000000
# 2 -0.010905 0.019839 0.002370 0.000000 0.000000 0.000000
# 3 -0.009580 0.002370 0.018329 0.000000 0.000000 0.000000
# 4 0.000000 0.000000 0.000000 0.083583 0.000000 0.000000
# 5 0.000000 0.000000 0.000000 0.000000 0.035552 0.000000
# 6 0.000000 0.000000 0.000000 0.000000 0.000000 0.030847
#
#
# Mechanical properties :
#
#
# Convention : Reuss Voigt Hill
#
# Bulk Modulus (GPa) = 38.68357 40.40263 39.54310
# Shear Modulus (GPa) = 19.46224 23.34787 21.40506
#
# Velocity S-wave (km/s) = 3.21702 3.52355 3.37377
# Velocity P-wave (km/s) = 5.86253 6.16752 6.01696
#
# Compressibility (1/GPa) = 0.02585077
#
# Stress axis : x y z
#
# Youngs Moduli (GPa) = 41.82084 50.40483 54.55903
#
# Poissons Ratio (x) = 0.54964 0.52269
# Poissons Ratio (y) = 0.45604 -0.12933
# Poissons Ratio (z) = 0.40065 -0.11948
#
# Static dielectric constant tensor:
#      x y z
#    x 3.574450 0.000000 0.000000 
#    y 0.000000 3.217000 0.000000 
#    z 0.000000 0.000000 3.783470 
# 
# 
# High freq. dielectric constant tensor:
#      x y z
#    x 1.733290 0.000000 0.000000 
#    y 0.000000 1.698670 0.000000 
#    z 0.000000 0.000000 1.741010 
# 
# From -- ./inp_files/11276.got.cif
#   From: 2010.03.12/outbox.cif.g09.slc.cpg/sg46_6_cif.got.tgz:11276.got - 2010.04.14 02:56:35.
