data_PCOD8192263
_publ_section_title
;
Structure prediction by ZEFSAII (Michael W. Deem and Ramdas Pophale) SiO2 
 PCOD8192263
Probable space group: I M A 2
;
_chemical_formula_sum "Si O2"
_cell_formula_units_Z 48
_cell_length_a 22.168420
_cell_length_b 24.293363
_cell_length_c 4.903119
_cell_angle_alpha 90.000000
_cell_angle_beta 90.000000
_cell_angle_gamma 90.000000
_cell_volume 2640.552547
_symmetry_space_group_name_H-M "I M A 2"
_symmetry_group_IT_number 46
_symmetry_cell_setting 'orthorhombic'
loop_
_space_group_symop_operation_xyz
x,y,z
-x,-y,z
1/2-x,y,z
1/2+x,-y,z
1/2+x,1/2+y,1/2+z
1/2-x,1/2-y,1/2+z
-x,1/2+y,1/2+z
x,1/2-y,1/2+z
loop_
_atom_site_type_symbol
_atom_site_label
_atom_site_fract_x
_atom_site_fract_y
_atom_site_fract_z
Si Si1 0.489267 0.214818 0.103700
Si Si2 0.055789 0.962217 0.757789
Si Si3 0.652323 0.714016 0.605799
Si Si4 0.015980 0.903094 0.285402
Si Si5 0.885540 0.557751 0.986958
Si Si6 0.182447 0.405354 0.491907
O O1 0.508445 0.263792 0.307674
O O2 0.523174 0.157994 0.168565
O O3 0.418779 0.202877 0.122374
O O4 0.053168 0.907699 0.567797
O O5 0.111876 0.999955 0.658872
O O6 0.048946 0.945509 0.073929
O O7 0.000000 0.000000 0.670364
O O8 0.674111 0.753431 0.843609
O O9 0.684377 0.655235 0.623611
O O10 0.946855 0.918549 0.352499
O O11 0.841573 0.552591 0.725961
O O12 0.859137 0.598466 0.219660
O O13 0.250000 0.424079 0.412206
#
# Coordination Sequence:
#
# PCOD8192263 Si02
#       6
#     8   8   8   8   8   8
#     4  10  20  30  47  71  97 131 163 200 255 302
#     4  10  20  31  52  75  92 121 157 205 264 302
#     4  10  21  34  50  65  91 131 178 227 270 295
#     4  11  19  33  52  73  97 124 163 205 253 304
#     4  11  22  37  53  72 103 125 166 226 260 312
#     4  12  24  37  53  71  96 137 178 222 276 306
#
# _framework density 18.178011999999999
#
# number of rings (size 3 to 8) (size 9 to 14) (size 15 to 20)
#    0.000    1.333    1.667    7.000    4.667    0.667 
#    0.000    0.000    0.000    0.000    0.000    0.000 
#    0.000    0.000    0.000    0.000    0.000  210.000 
#
# Total GULP energy -297388.309179 kJ/mol
# GULP energy per Si atom -12391.179549 kJ/mol
# Density = 1.813664 g / cm^3
# Si number density = 18.178012 Si / 1000 Ang^3
#
#
#
# Elastic Constant Matrix: (Units=GPa)
#
#
# Indices 1 2 3 4 5 6 
#
# 1 31.6452 19.9693 18.7504 0.0000 0.0000 0.0000
# 2 19.9693 59.6252 11.8997 0.0000 0.0000 0.0000
# 3 18.7504 11.8997 116.8169 0.0000 0.0000 0.0000
# 4 0.0000 0.0000 0.0000 26.0823 0.0000 0.0000
# 5 0.0000 0.0000 0.0000 0.0000 18.5300 0.0000
# 6 0.0000 0.0000 0.0000 0.0000 0.0000 10.6197
#
#
#
# Elastic Compliance Matrix: (Units=1/GPa)
#
#
# Indices 1 2 3 4 5 6 
#
# 1 0.043380 -0.013411 -0.005597 0.000000 0.000000 0.000000
# 2 -0.013411 0.021266 -0.000014 0.000000 0.000000 0.000000
# 3 -0.005597 -0.000014 0.009460 0.000000 0.000000 0.000000
# 4 0.000000 0.000000 0.000000 0.038340 0.000000 0.000000
# 5 0.000000 0.000000 0.000000 0.000000 0.053966 0.000000
# 6 0.000000 0.000000 0.000000 0.000000 0.000000 0.094164
#
#
# Mechanical properties :
#
#
# Convention : Reuss Voigt Hill
#
# Bulk Modulus (GPa) = 27.72999 34.36956 31.04978
# Shear Modulus (GPa) = 16.09575 21.54427 18.82001
#
# Velocity S-wave (km/s) = 2.97888 3.44638 3.22113
# Velocity P-wave (km/s) = 5.20763 5.89788 5.56347
#
# Compressibility (1/GPa) = 0.03606204
#
# Stress axis : x y z
#
# Youngs Moduli (GPa) = 23.05228 47.02383 105.70684
#
# Poissons Ratio (x) = 0.63066 0.59161
# Poissons Ratio (y) = 0.30916 0.00144
# Poissons Ratio (z) = 0.12902 0.00064
#
# Static dielectric constant tensor:
#      x y z
#    x 2.990140 0.000000 0.000000 
#    y 0.000000 3.386640 0.000000 
#    z 0.000000 0.000000 3.608840 
# 
# 
# High freq. dielectric constant tensor:
#      x y z
#    x 1.633940 0.000000 0.000000 
#    y 0.000000 1.693700 0.000000 
#    z 0.000000 0.000000 1.735250 
# 
# From -- ./inp_files/2116.got.cif
#   From: 2010.03.12/outbox.cif.g09.slc.cpg/sg46_2_cif.got.tgz:2116.got - 2010.04.14 02:56:35.
