data_PCOD8192891
_publ_section_title
;
Structure prediction by ZEFSAII (Michael W. Deem and Ramdas Pophale) SiO2 
 PCOD8192891
Probable space group: I M A 2
;
_chemical_formula_sum "Si O2"
_cell_formula_units_Z 64
_cell_length_a 8.847884
_cell_length_b 27.096418
_cell_length_c 13.056163
_cell_angle_alpha 90.000000
_cell_angle_beta 90.000000
_cell_angle_gamma 90.000000
_cell_volume 3130.162375
_symmetry_space_group_name_H-M "I M A 2"
_symmetry_group_IT_number 46
_symmetry_cell_setting 'orthorhombic'
loop_
_space_group_symop_operation_xyz
x,y,z
-x,-y,z
1/2-x,y,z
1/2+x,-y,z
1/2+x,1/2+y,1/2+z
1/2-x,1/2-y,1/2+z
-x,1/2+y,1/2+z
x,1/2-y,1/2+z
loop_
_atom_site_type_symbol
_atom_site_label
_atom_site_fract_x
_atom_site_fract_y
_atom_site_fract_z
Si Si1 0.928417 0.378402 0.969620
Si Si2 0.073075 0.098477 0.080329
Si Si3 0.581765 0.724087 0.954994
Si Si4 0.070423 0.947007 0.880232
Si Si5 0.571176 0.123625 0.699499
Si Si6 0.582012 0.706039 0.638253
Si Si7 0.571696 0.946932 0.298528
Si Si8 0.426235 0.727242 0.283432
O O1 0.750000 0.385479 0.957002
O O2 0.968749 0.321734 0.948216
O O3 0.013680 0.412400 0.889320
O O4 0.983320 0.392093 0.085553
O O5 0.250000 0.090466 0.058512
O O6 0.027595 0.156115 0.083215
O O7 0.024015 0.074348 0.188052
O O8 0.979395 0.073939 0.989615
O O9 0.750000 0.708167 0.919303
O O10 0.517206 0.769587 0.888907
O O11 0.588016 0.746286 0.067238
O O12 0.250000 0.950747 0.879515
O O13 0.008941 0.913119 0.786911
O O14 0.000000 0.000000 0.861574
O O15 0.750000 0.123301 0.701535
O O16 0.514215 0.179015 0.723576
O O17 0.750000 0.696236 0.684616
O O18 0.464447 0.721224 0.726084
O O19 0.750000 0.951190 0.307980
O O20 0.500000 0.000000 0.313690
O O21 0.250000 0.723871 0.306019
#
# Coordination Sequence:
#
# PCOD8192891 Si02
#       8
#     8   8   8   8   8   8   8   8
#     4  11  22  41  65  90 125 165 210 260 311 369
#     4  10  22  41  63  90 125 160 201 255 309 370
#     4  11  22  36  56  87 125 163 203 246 300 363
#     4  11  23  41  64  90 121 158 204 257 313 370
#     4   9  21  40  61  89 125 161 203 257 306 365
#     4  10  21  37  58  87 123 159 196 242 297 360
#     4  11  24  42  64  91 124 162 209 264 322 378
#     4  11  21  36  59  86 119 160 204 249 301 358
#
# _framework density 20.446224000000001
#
# number of rings (size 3 to 8) (size 9 to 14) (size 15 to 20)
#    0.000    1.500    1.250    3.750    0.000    4.500 
#    0.000    5.625    0.000    0.000    0.000    0.000 
#    0.000    0.000    0.000    0.000    0.000    0.000 
#
# Total GULP energy -396785.917438 kJ/mol
# GULP energy per Si atom -12399.559920 kJ/mol
# Density = 2.039969 g / cm^3
# Si number density = 20.446224 Si / 1000 Ang^3
#
#
#
# Elastic Constant Matrix: (Units=GPa)
#
#
# Indices 1 2 3 4 5 6 
#
# 1 65.4042 20.3950 35.2306 0.0004 0.0000 0.0000
# 2 20.3950 106.1107 40.4565 0.0007 -0.0001 0.0000
# 3 35.2306 40.4565 130.9987 0.0022 -0.0006 -0.0002
# 4 0.0004 0.0007 0.0022 27.8147 -0.0004 -0.0002
# 5 0.0000 -0.0001 -0.0006 -0.0004 27.4456 0.0002
# 6 0.0000 0.0000 -0.0002 -0.0002 0.0002 31.0901
#
#
#
# Elastic Compliance Matrix: (Units=1/GPa)
#
#
# Indices 1 2 3 4 5 6 
#
# 1 0.018194 -0.001849 -0.004322 0.000000 0.000000 0.000000
# 2 -0.001849 0.010870 -0.002860 0.000000 0.000000 0.000000
# 3 -0.004322 -0.002860 0.009679 -0.000001 0.000000 0.000000
# 4 0.000000 0.000000 -0.000001 0.035952 0.000001 0.000000
# 5 0.000000 0.000000 0.000000 0.000001 0.036436 0.000000
# 6 0.000000 0.000000 0.000000 0.000000 0.000000 0.032165
#
#
# Mechanical properties :
#
#
# Convention : Reuss Voigt Hill
#
# Bulk Modulus (GPa) = 48.35223 54.96420 51.65822
# Shear Modulus (GPa) = 29.71744 31.03218 30.37481
#
# Velocity S-wave (km/s) = 3.81654 3.90005 3.85852
# Velocity P-wave (km/s) = 6.56667 6.87177 6.72095
#
# Compressibility (1/GPa) = 0.02068157
#
# Stress axis : x y z
#
# Youngs Moduli (GPa) = 54.96227 91.99782 103.31458
#
# Poissons Ratio (x) = 0.17012 0.44653
# Poissons Ratio (y) = 0.10163 0.29544
# Poissons Ratio (z) = 0.23755 0.26308
#
# Static dielectric constant tensor:
#      x y z
#    x 3.616910 0.000000 0.000000 
#    y 0.000000 3.898180 0.000000 
#    z 0.000000 0.000000 3.940670 
# 
# 
# High freq. dielectric constant tensor:
#      x y z
#    x 1.790680 0.000000 0.000000 
#    y 0.000000 1.802750 0.000000 
#    z 0.000000 0.000000 1.812880 
# 
# From -- ./inp_files/9707.got.cif
#   From: 2010.03.12/outbox.cif.g09.slc.cpg/sg46_5_cif.got.tgz:9707.got - 2010.04.14 02:56:35.
