data_PCOD8192858
_publ_section_title
;
Structure prediction by ZEFSAII (Michael W. Deem and Ramdas Pophale) SiO2 
 PCOD8192858
Probable space group: I M A 2
;
_chemical_formula_sum "Si O2"
_cell_formula_units_Z 64
_cell_length_a 8.932644
_cell_length_b 24.654335
_cell_length_c 15.166709
_cell_angle_alpha 90.000000
_cell_angle_beta 90.000000
_cell_angle_gamma 90.000000
_cell_volume 3340.140020
_symmetry_space_group_name_H-M "I M A 2"
_symmetry_group_IT_number 46
_symmetry_cell_setting 'orthorhombic'
loop_
_space_group_symop_operation_xyz
x,y,z
-x,-y,z
1/2-x,y,z
1/2+x,-y,z
1/2+x,1/2+y,1/2+z
1/2-x,1/2-y,1/2+z
-x,1/2+y,1/2+z
x,1/2-y,1/2+z
loop_
_atom_site_type_symbol
_atom_site_label
_atom_site_fract_x
_atom_site_fract_y
_atom_site_fract_z
Si Si1 0.073387 0.645553 0.042400
Si Si2 0.572556 0.444190 0.902748
Si Si3 0.424803 0.637786 0.398645
Si Si4 0.925101 0.840840 0.724946
Si Si5 0.420686 0.220849 0.188950
Si Si6 0.927129 0.058290 0.058088
Si Si7 0.926099 0.234915 0.011914
Si Si8 0.575856 0.603447 0.732595
O O1 0.250000 0.645328 0.058323
O O2 0.995093 0.635156 0.135721
O O3 0.022022 0.599951 0.974292
O O4 0.019795 0.703023 0.000671
O O5 0.500000 0.500000 0.934795
O O6 0.750000 0.449558 0.896502
O O7 0.509777 0.429131 0.807487
O O8 0.250000 0.639775 0.377629
O O9 0.510056 0.625866 0.307524
O O10 0.462198 0.591448 0.469245
O O11 0.485163 0.696134 0.434065
O O12 0.750000 0.850727 0.720593
O O13 0.967647 0.776925 0.736690
O O14 0.250000 0.225575 0.156930
O O15 0.443323 0.168160 0.250951
O O16 0.520024 0.210526 0.103751
O O17 0.750000 0.053618 0.075435
O O18 0.004238 0.088383 0.139464
O O19 0.000000 0.000000 0.045142
O O20 0.750000 0.230717 0.013882
O O21 0.750000 0.586629 0.732994
#
# Coordination Sequence:
#
# PCOD8192858 Si02
#       8
#     8   8   8   8   8   8   8   8
#     4   9  20  39  61  84 112 148 192 239 289 342
#     4  11  24  41  61  85 113 149 195 242 288 340
#     4  10  21  36  57  85 117 152 192 236 284 340
#     4  10  21  36  57  86 120 154 189 233 288 344
#     4   9  19  34  52  82 119 153 186 224 278 338
#     4  11  23  40  60  84 115 153 196 239 285 338
#     4   9  17  33  56  83 112 146 186 230 280 335
#     4  11  22  37  58  85 119 156 191 232 283 341
#
# _framework density 19.160874
#
# number of rings (size 3 to 8) (size 9 to 14) (size 15 to 20)
#    0.000    2.000    1.250    1.875    1.750    3.500 
#    0.000    0.625    0.000    0.000    0.000    0.000 
#    0.000    0.000    0.000    0.000    0.000    0.000 
#
# Total GULP energy -396790.844770 kJ/mol
# GULP energy per Si atom -12399.713899 kJ/mol
# Density = 1.911726 g / cm^3
# Si number density = 19.160874 Si / 1000 Ang^3
#
#
#
# Elastic Constant Matrix: (Units=GPa)
#
#
# Indices 1 2 3 4 5 6 
#
# 1 47.1437 41.6262 35.2260 -0.0001 0.0001 0.0000
# 2 41.6262 105.5731 47.9864 -0.0002 0.0000 0.0000
# 3 35.2260 47.9864 98.1601 -0.0008 0.0003 0.0001
# 4 -0.0001 -0.0002 -0.0008 27.4511 0.0000 0.0000
# 5 0.0001 0.0000 0.0003 0.0000 22.3381 -0.0001
# 6 0.0000 0.0000 0.0001 0.0000 -0.0001 27.6591
#
#
#
# Elastic Compliance Matrix: (Units=1/GPa)
#
#
# Indices 1 2 3 4 5 6 
#
# 1 0.036699 -0.010907 -0.007838 0.000000 0.000000 0.000000
# 2 -0.010907 0.015420 -0.003624 0.000000 0.000000 0.000000
# 3 -0.007838 -0.003624 0.014772 0.000000 0.000000 0.000000
# 4 0.000000 0.000000 0.000000 0.036428 0.000000 0.000000
# 5 0.000000 0.000000 0.000000 0.000000 0.044766 0.000000
# 6 0.000000 0.000000 0.000000 0.000000 0.000000 0.036154
#
#
# Mechanical properties :
#
#
# Convention : Reuss Voigt Hill
#
# Bulk Modulus (GPa) = 45.14165 55.61714 50.37939
# Shear Modulus (GPa) = 21.15397 23.89223 22.52310
#
# Velocity S-wave (km/s) = 3.32628 3.53502 3.43224
# Velocity P-wave (km/s) = 6.19376 6.76396 6.48513
#
# Compressibility (1/GPa) = 0.02215249
#
# Stress axis : x y z
#
# Youngs Moduli (GPa) = 27.24871 64.85100 67.69713
#
# Poissons Ratio (x) = 0.70736 0.53059
# Poissons Ratio (y) = 0.29721 0.24533
# Poissons Ratio (z) = 0.21357 0.23501
#
# Static dielectric constant tensor:
#      x y z
#    x 3.498810 0.000000 0.000000 
#    y 0.000000 3.677260 0.000000 
#    z 0.000000 0.000000 3.410040 
# 
# 
# High freq. dielectric constant tensor:
#      x y z
#    x 1.748550 0.000000 0.000000 
#    y 0.000000 1.745520 0.000000 
#    z 0.000000 0.000000 1.738180 
# 
# From -- ./inp_files/14458.got.cif
#   From: 2010.03.12/outbox.cif.g09.slc.cpg/sg46_8_cif.got.tgz:14458.got - 2010.04.14 02:56:35.
