data_PCOD8192664
_publ_section_title
;
Structure prediction by ZEFSAII (Michael W. Deem and Ramdas Pophale) SiO2 
 PCOD8192664
Probable space group: I M A 2
;
_chemical_formula_sum "Si O2"
_cell_formula_units_Z 64
_cell_length_a 17.840696
_cell_length_b 10.139385
_cell_length_c 16.886328
_cell_angle_alpha 90.000000
_cell_angle_beta 90.000000
_cell_angle_gamma 90.000000
_cell_volume 3054.630105
_symmetry_space_group_name_H-M "I M A 2"
_symmetry_group_IT_number 46
_symmetry_cell_setting 'orthorhombic'
loop_
_space_group_symop_operation_xyz
x,y,z
-x,-y,z
1/2-x,y,z
1/2+x,-y,z
1/2+x,1/2+y,1/2+z
1/2-x,1/2-y,1/2+z
-x,1/2+y,1/2+z
x,1/2-y,1/2+z
loop_
_atom_site_type_symbol
_atom_site_label
_atom_site_fract_x
_atom_site_fract_y
_atom_site_fract_z
Si Si1 0.077576 0.771586 0.997560
Si Si2 0.833931 0.085585 0.742898
Si Si3 0.529710 0.139372 0.835874
Si Si4 0.164226 0.024712 0.280967
Si Si5 0.450038 0.383980 0.074257
Si Si6 0.398918 0.207223 0.733320
Si Si7 0.838324 0.021994 0.456963
Si Si8 0.664125 0.330839 0.645013
O O1 0.043837 0.863342 0.929189
O O2 0.144514 0.676254 0.969057
O O3 0.110381 0.858781 0.069734
O O4 0.004439 0.687593 0.014577
O O5 0.750000 0.093096 0.777489
O O6 0.888221 0.165899 0.800767
O O7 0.838829 0.171765 0.661770
O O8 0.855994 0.932988 0.735283
O O9 0.465636 0.233054 0.797847
O O10 0.500000 0.000000 0.806614
O O11 0.250000 0.986486 0.291014
O O12 0.157675 0.173209 0.247953
O O13 0.129180 0.013638 0.369265
O O14 0.131087 0.918776 0.217784
O O15 0.500000 0.500000 0.114487
O O16 0.428582 0.282477 0.143666
O O17 0.378622 0.434164 0.024346
O O18 0.750000 0.994430 0.465306
O O19 0.750000 0.373022 0.626197
#
# Coordination Sequence:
#
# PCOD8192664 Si02
#       8
#     8   8   8   8   8   8   8   8
#     4  11  21  36  57  83 115 156 200 242 293 357
#     4  10  20  37  61  84 108 146 194 240 292 355
#     4  10  22  37  55  81 115 152 194 243 295 354
#     4  10  22  39  59  88 125 159 196 246 304 361
#     4  10  21  36  57  86 116 148 196 248 293 353
#     4  11  21  38  60  85 117 156 196 241 298 360
#     4  10  21  38  61  88 119 157 200 248 301 358
#     4  10  21  37  59  89 120 152 198 252 300 354
#
# _framework density 20.951801
#
# number of rings (size 3 to 8) (size 9 to 14) (size 15 to 20)
#    0.000    1.750    0.000    5.625    0.000    5.000 
#    0.000    4.375    0.000    3.000    0.000    0.000 
#    0.000    0.000    0.000    0.000    0.000    0.000 
#
# Total GULP energy -396530.330129 kJ/mol
# GULP energy per Si atom -12391.572817 kJ/mol
# Density = 2.090411 g / cm^3
# Si number density = 20.951801 Si / 1000 Ang^3
#
#
#
# Elastic Constant Matrix: (Units=GPa)
#
#
# Indices 1 2 3 4 5 6 
#
# 1 97.3689 11.8018 39.0145 0.0000 0.0000 0.0000
# 2 11.8018 60.3482 26.7146 0.0000 0.0000 0.0000
# 3 39.0145 26.7146 131.5240 0.0000 0.0000 0.0000
# 4 0.0000 0.0000 0.0000 31.0021 0.0000 0.0000
# 5 0.0000 0.0000 0.0000 0.0000 29.1853 0.0000
# 6 0.0000 0.0000 0.0000 0.0000 0.0000 20.2625
#
#
#
# Elastic Compliance Matrix: (Units=1/GPa)
#
#
# Indices 1 2 3 4 5 6 
#
# 1 0.011693 -0.000825 -0.003301 0.000000 0.000000 0.000000
# 2 -0.000825 0.018266 -0.003465 0.000000 0.000000 0.000000
# 3 -0.003301 -0.003465 0.009286 0.000000 0.000000 0.000000
# 4 0.000000 0.000000 0.000000 0.032256 0.000000 0.000000
# 5 0.000000 0.000000 0.000000 0.000000 0.034264 0.000000
# 6 0.000000 0.000000 0.000000 0.000000 0.000000 0.049352
#
#
# Mechanical properties :
#
#
# Convention : Reuss Voigt Hill
#
# Bulk Modulus (GPa) = 41.55960 49.36699 45.46330
# Shear Modulus (GPa) = 28.03939 30.20400 29.12170
#
# Velocity S-wave (km/s) = 3.66222 3.80095 3.73223
# Velocity P-wave (km/s) = 6.14503 6.54800 6.34971
#
# Compressibility (1/GPa) = 0.02406183
#
# Stress axis : x y z
#
# Youngs Moduli (GPa) = 85.52214 54.74687 107.68717
#
# Poissons Ratio (x) = 0.04519 0.35546
# Poissons Ratio (y) = 0.07060 0.37316
# Poissons Ratio (z) = 0.28229 0.18971
#
# Static dielectric constant tensor:
#      x y z
#    x 3.836790 0.000000 0.000000 
#    y 0.000000 3.578620 0.000000 
#    z 0.000000 0.000000 3.828570 
# 
# 
# High freq. dielectric constant tensor:
#      x y z
#    x 1.825020 0.000000 0.000000 
#    y 0.000000 1.798400 0.000000 
#    z 0.000000 0.000000 1.825120 
# 
# From -- ./inp_files/16748.got.cif
#   From: 2010.03.12/outbox.cif.g09.slc.cpg/sg46_9_cif.got.tgz:16748.got - 2010.04.14 02:56:35.
