data_PCOD8192247
_publ_section_title
;
Structure prediction by ZEFSAII (Michael W. Deem and Ramdas Pophale) SiO2 
 PCOD8192247
Probable space group: I M A 2
;
_chemical_formula_sum "Si O2"
_cell_formula_units_Z 64
_cell_length_a 19.334279
_cell_length_b 17.995776
_cell_length_c 9.394368
_cell_angle_alpha 90.000000
_cell_angle_beta 90.000000
_cell_angle_gamma 90.000000
_cell_volume 3268.632756
_symmetry_space_group_name_H-M "I M A 2"
_symmetry_group_IT_number 46
_symmetry_cell_setting 'orthorhombic'
loop_
_space_group_symop_operation_xyz
x,y,z
-x,-y,z
1/2-x,y,z
1/2+x,-y,z
1/2+x,1/2+y,1/2+z
1/2-x,1/2-y,1/2+z
-x,1/2+y,1/2+z
x,1/2-y,1/2+z
loop_
_atom_site_type_symbol
_atom_site_label
_atom_site_fract_x
_atom_site_fract_y
_atom_site_fract_z
Si Si1 0.928934 0.473470 0.097640
Si Si2 0.420518 0.973450 0.109799
Si Si3 0.326816 0.314080 0.867028
Si Si4 0.593549 0.928254 0.864457
Si Si5 0.876654 0.809811 0.680260
Si Si6 0.965944 0.186598 0.649172
Si Si7 0.669956 0.515340 0.862951
Si Si8 0.462786 0.667816 0.458729
O O1 0.932467 0.505961 0.258824
O O2 0.924344 0.383914 0.087879
O O3 0.000000 0.500000 0.020159
O O4 0.860634 0.504163 0.020376
O O5 0.377317 0.968368 0.254957
O O6 0.500000 0.000000 0.134353
O O7 0.415527 0.892671 0.037625
O O8 0.379508 0.030393 0.005436
O O9 0.250000 0.287207 0.827520
O O10 0.378808 0.266664 0.769727
O O11 0.337944 0.398630 0.823614
O O12 0.334824 0.300853 0.035558
O O13 0.651349 0.876957 0.783692
O O14 0.535742 0.870382 0.922069
O O15 0.953767 0.837536 0.645902
O O16 0.962546 0.261469 0.560709
O O17 0.934684 0.198602 0.807675
O O18 0.750000 0.489787 0.858967
#
# Coordination Sequence:
#
# PCOD8192247 Si02
#       8
#     8   8   8   8   8   8   8   8
#     4  12  19  40  66  91 120 166 211 264 320 380
#     4  10  21  39  64  89 121 158 205 257 321 375
#     4  11  24  39  53  80 123 173 211 241 291 369
#     4  10  19  38  61  88 124 161 202 259 312 375
#     4  11  21  36  57  82 122 157 203 251 300 356
#     4  11  22  34  61  95 124 148 203 258 329 371
#     4  11  26  42  59  88 127 166 216 260 308 381
#     4  10  21  35  57  95 125 151 190 259 322 380
#
# _framework density 19.580052999999999
#
# number of rings (size 3 to 8) (size 9 to 14) (size 15 to 20)
#    0.000    1.250    5.000    2.625    7.000    0.000 
#    0.000    1.250    0.000    0.750    0.000    0.000 
#    0.000    0.000    0.000    0.000    0.000    0.000 
#
# Total GULP energy -396490.412108 kJ/mol
# GULP energy per Si atom -12390.325378 kJ/mol
# Density = 1.953549 g / cm^3
# Si number density = 19.580053 Si / 1000 Ang^3
#
#
#
# Elastic Constant Matrix: (Units=GPa)
#
#
# Indices 1 2 3 4 5 6 
#
# 1 59.0156 16.9380 24.9143 0.0000 0.0000 0.0000
# 2 16.9380 110.7271 38.4839 0.0000 0.0000 0.0000
# 3 24.9143 38.4839 96.4459 0.0000 0.0000 0.0000
# 4 0.0000 0.0000 0.0000 50.8554 0.0000 0.0000
# 5 0.0000 0.0000 0.0000 0.0000 16.3747 0.0000
# 6 0.0000 0.0000 0.0000 0.0000 0.0000 18.0295
#
#
#
# Elastic Compliance Matrix: (Units=1/GPa)
#
#
# Indices 1 2 3 4 5 6 
#
# 1 0.019206 -0.001409 -0.004399 0.000000 0.000000 0.000000
# 2 -0.001409 0.010589 -0.003861 0.000000 0.000000 0.000000
# 3 -0.004399 -0.003861 0.013046 0.000000 0.000000 0.000000
# 4 0.000000 0.000000 0.000000 0.019664 0.000000 0.000000
# 5 0.000000 0.000000 0.000000 0.000000 0.061070 0.000000
# 6 0.000000 0.000000 0.000000 0.000000 0.000000 0.055465
#
#
# Mechanical properties :
#
#
# Convention : Reuss Voigt Hill
#
# Bulk Modulus (GPa) = 42.54985 47.42901 44.98943
# Shear Modulus (GPa) = 24.24696 29.44206 26.84451
#
# Velocity S-wave (km/s) = 3.52284 3.88193 3.70674
# Velocity P-wave (km/s) = 6.19077 6.66095 6.43016
#
# Compressibility (1/GPa) = 0.02350185
#
# Stress axis : x y z
#
# Youngs Moduli (GPa) = 52.06633 94.44019 76.65415
#
# Poissons Ratio (x) = 0.13307 0.33722
# Poissons Ratio (y) = 0.07336 0.29597
# Poissons Ratio (z) = 0.22905 0.36465
#
# Static dielectric constant tensor:
#      x y z
#    x 3.122380 0.000000 0.000000 
#    y 0.000000 3.716200 0.000000 
#    z 0.000000 0.000000 3.783990 
# 
# 
# High freq. dielectric constant tensor:
#      x y z
#    x 1.701600 0.000000 0.000000 
#    y 0.000000 1.773520 0.000000 
#    z 0.000000 0.000000 1.778870 
# 
# From -- ./inp_files/7557.got.cif
#   From: 2010.03.12/outbox.cif.g09.slc.cpg/sg46_4_cif.got.tgz:7557.got - 2010.04.14 02:56:35.
