data_PCOD8192621
_publ_section_title
;
Structure prediction by ZEFSAII (Michael W. Deem and Ramdas Pophale) SiO2 
 PCOD8192621
Probable space group: I M A 2
;
_chemical_formula_sum "Si O2"
_cell_formula_units_Z 64
_cell_length_a 13.952145
_cell_length_b 12.349106
_cell_length_c 18.151831
_cell_angle_alpha 90.000000
_cell_angle_beta 90.000000
_cell_angle_gamma 90.000000
_cell_volume 3127.497268
_symmetry_space_group_name_H-M "I M A 2"
_symmetry_group_IT_number 46
_symmetry_cell_setting 'orthorhombic'
loop_
_space_group_symop_operation_xyz
x,y,z
-x,-y,z
1/2-x,y,z
1/2+x,-y,z
1/2+x,1/2+y,1/2+z
1/2-x,1/2-y,1/2+z
-x,1/2+y,1/2+z
x,1/2-y,1/2+z
loop_
_atom_site_type_symbol
_atom_site_label
_atom_site_fract_x
_atom_site_fract_y
_atom_site_fract_z
Si Si1 0.557193 0.856175 0.461740
Si Si2 0.976184 0.880280 0.754979
Si Si3 0.642497 0.281606 0.780233
Si Si4 0.446275 0.259891 0.107593
Si Si5 0.357023 0.348686 0.394474
Si Si6 0.859588 0.073510 0.418742
Si Si7 0.352537 0.673213 0.616312
Si Si8 0.104719 0.458914 0.541486
O O1 0.594811 0.842363 0.545834
O O2 0.571454 0.746814 0.416643
O O3 0.442951 0.877540 0.470050
O O4 0.619676 0.945197 0.418434
O O5 0.930046 0.809428 0.688508
O O6 0.899329 0.899146 0.819713
O O7 0.070268 0.819780 0.786408
O O8 0.000000 0.000000 0.724204
O O9 0.750000 0.234565 0.790782
O O10 0.621801 0.375962 0.838724
O O11 0.629885 0.343002 0.703142
O O12 0.559002 0.243435 0.086646
O O13 0.393175 0.144310 0.097293
O O14 0.250000 0.306207 0.378163
O O15 0.350189 0.433912 0.461657
O O16 0.750000 0.096643 0.445821
O O17 0.250000 0.733866 0.602562
O O18 0.339239 0.555401 0.580477
O O19 0.000000 0.500000 0.524371
#
# Coordination Sequence:
#
# PCOD8192621 Si02
#       8
#     8   8   8   8   8   8   8   8
#     4  10  21  38  60  86 120 154 188 243 296 349
#     4  11  23  39  59  82 114 160 197 239 287 352
#     4   9  19  38  61  89 118 144 188 245 297 343
#     4   9  21  37  57  82 120 156 193 234 294 351
#     4  11  22  38  57  83 117 154 196 240 289 349
#     4  10  20  36  61  90 115 150 193 237 293 349
#     4   9  17  33  60  91 117 147 191 244 291 342
#     4   9  18  36  58  85 115 152 195 241 296 344
#
# _framework density 20.463647000000002
#
# number of rings (size 3 to 8) (size 9 to 14) (size 15 to 20)
#    0.000    2.250    1.250    1.125    1.750    2.000 
#    4.500    5.000    0.000    0.000    0.000    0.000 
#    0.000    0.000    0.000    0.000    0.000    0.000 
#
# Total GULP energy -396516.535152 kJ/mol
# GULP energy per Si atom -12391.141723 kJ/mol
# Density = 2.041707 g / cm^3
# Si number density = 20.463647 Si / 1000 Ang^3
#
#
#
# Elastic Constant Matrix: (Units=GPa)
#
#
# Indices 1 2 3 4 5 6 
#
# 1 86.4892 18.2884 17.3127 0.0000 0.0000 0.0000
# 2 18.2884 90.9599 47.6135 0.0000 0.0000 0.0000
# 3 17.3127 47.6135 99.4766 0.0000 0.0000 0.0000
# 4 0.0000 0.0000 0.0000 31.1653 0.0000 0.0000
# 5 0.0000 0.0000 0.0000 0.0000 11.5163 0.0000
# 6 0.0000 0.0000 0.0000 0.0000 0.0000 12.8003
#
#
#
# Elastic Compliance Matrix: (Units=1/GPa)
#
#
# Indices 1 2 3 4 5 6 
#
# 1 0.012194 -0.001789 -0.001266 0.000000 0.000000 0.000000
# 2 -0.001789 0.014932 -0.006836 0.000000 0.000000 0.000000
# 3 -0.001266 -0.006836 0.013545 0.000000 0.000000 0.000000
# 4 0.000000 0.000000 0.000000 0.032087 0.000000 0.000000
# 5 0.000000 0.000000 0.000000 0.000000 0.086833 0.000000
# 6 0.000000 0.000000 0.000000 0.000000 0.000000 0.078123
#
#
# Mechanical properties :
#
#
# Convention : Reuss Voigt Hill
#
# Bulk Modulus (GPa) = 47.87150 49.26164 48.56657
# Shear Modulus (GPa) = 18.90663 24.01045 21.45854
#
# Velocity S-wave (km/s) = 3.04289 3.42910 3.24175
# Velocity P-wave (km/s) = 5.98246 6.30898 6.14789
#
# Compressibility (1/GPa) = 0.02088926
#
# Stress axis : x y z
#
# Youngs Moduli (GPa) = 82.00870 66.97174 73.82966
#
# Poissons Ratio (x) = 0.11982 0.09346
# Poissons Ratio (y) = 0.14672 0.50467
# Poissons Ratio (z) = 0.10381 0.45779
#
# Static dielectric constant tensor:
#      x y z
#    x 3.797390 0.000000 0.000000 
#    y 0.000000 3.614230 0.000000 
#    z 0.000000 0.000000 3.646820 
# 
# 
# High freq. dielectric constant tensor:
#      x y z
#    x 1.801260 0.000000 0.000000 
#    y 0.000000 1.787930 0.000000 
#    z 0.000000 0.000000 1.794870 
# 
# From -- ./inp_files/19643.got.cif
#   From: 2010.03.12/outbox.cif.g09.slc.cpg/sg46_10_cif.got.tgz:19643.got - 2010.04.14 02:56:35.
