data_PCOD8192565
_publ_section_title
;
Structure prediction by ZEFSAII (Michael W. Deem and Ramdas Pophale) SiO2 
 PCOD8192565
Probable space group: I M A 2
;
_chemical_formula_sum "Si O2"
_cell_formula_units_Z 60
_cell_length_a 19.292988
_cell_length_b 5.186762
_cell_length_c 30.230784
_cell_angle_alpha 90.000000
_cell_angle_beta 90.000000
_cell_angle_gamma 90.000000
_cell_volume 3025.138236
_symmetry_space_group_name_H-M "I M A 2"
_symmetry_group_IT_number 46
_symmetry_cell_setting 'orthorhombic'
loop_
_space_group_symop_operation_xyz
x,y,z
-x,-y,z
1/2-x,y,z
1/2+x,-y,z
1/2+x,1/2+y,1/2+z
1/2-x,1/2-y,1/2+z
-x,1/2+y,1/2+z
x,1/2-y,1/2+z
loop_
_atom_site_type_symbol
_atom_site_label
_atom_site_fract_x
_atom_site_fract_y
_atom_site_fract_z
Si Si1 0.617774 0.926945 0.156400
Si Si2 0.575303 0.115542 0.541716
Si Si3 0.581630 0.486797 0.942557
Si Si4 0.828538 0.038065 0.806296
Si Si5 0.827531 0.050577 0.615767
Si Si6 0.417134 0.007600 0.891796
Si Si7 0.500000 0.500000 0.596760
Si Si8 0.670870 0.969026 0.249676
O O1 0.673344 0.701674 0.146876
O O2 0.616157 0.962173 0.209352
O O3 0.636457 0.208740 0.138823
O O4 0.545620 0.832704 0.132502
O O5 0.633012 0.972571 0.570644
O O6 0.559820 0.394326 0.563279
O O7 0.500000 0.000000 0.547589
O O8 0.604133 0.093901 0.492031
O O9 0.500000 0.500000 0.941148
O O10 0.610376 0.261353 0.911447
O O11 0.608369 0.763195 0.924878
O O12 0.750000 0.065015 0.824802
O O13 0.881155 0.959970 0.844883
O O14 0.852111 0.305805 0.783592
O O15 0.832898 0.809126 0.771547
O O16 0.750000 0.129264 0.603521
O O17 0.500000 0.000000 0.885937
O O18 0.750000 0.026879 0.233411
#
# Coordination Sequence:
#
# PCOD8192565 Si02
#       8
#     8   8   8   8   8   8   4   8
#     4  11  22  38  57  84 117 150 197 239 281 342
#     4  10  20  36  57  82 114 152 193 234 280 343
#     4   9  20  32  59  82 109 142 186 226 273 333
#     4  10  21  38  59  81 110 146 185 226 281 342
#     4  11  22  36  57  82 115 154 190 239 287 334
#     4  10  20  38  55  84 108 139 182 230 279 333
#     4  10  22  36  58  86 118 154 196 236 294 330
#     4  10  20  36  58  82 108 148 189 226 274 342
#
# _framework density 19.833805999999999
#
# number of rings (size 3 to 8) (size 9 to 14) (size 15 to 20)
#    0.000    1.867    1.333    2.800    4.667    1.067 
#    2.400    1.333    0.000    0.000    0.000    0.000 
#    0.000    0.000    0.000    0.000    0.000    0.000 
#
# Total GULP energy -371649.688777 kJ/mol
# GULP energy per Si atom -12388.322959 kJ/mol
# Density = 1.978866 g / cm^3
# Si number density = 19.833806 Si / 1000 Ang^3
#
#
#
# Elastic Constant Matrix: (Units=GPa)
#
#
# Indices 1 2 3 4 5 6 
#
# 1 50.8166 6.9920 41.1443 0.0000 0.0000 0.0000
# 2 6.9920 99.0319 31.3146 0.0000 0.0000 0.0000
# 3 41.1443 31.3146 127.8919 0.0000 0.0000 0.0000
# 4 0.0000 0.0000 0.0000 35.4463 0.0000 0.0000
# 5 0.0000 0.0000 0.0000 0.0000 16.2206 0.0000
# 6 0.0000 0.0000 0.0000 0.0000 0.0000 15.2892
#
#
#
# Elastic Compliance Matrix: (Units=1/GPa)
#
#
# Indices 1 2 3 4 5 6 
#
# 1 0.026684 0.000900 -0.008805 0.000000 0.000000 0.000000
# 2 0.000900 0.010976 -0.002977 0.000000 0.000000 0.000000
# 3 -0.008805 -0.002977 0.011381 0.000000 0.000000 0.000000
# 4 0.000000 0.000000 0.000000 0.028212 0.000000 0.000000
# 5 0.000000 0.000000 0.000000 0.000000 0.061650 0.000000
# 6 0.000000 0.000000 0.000000 0.000000 0.000000 0.065406
#
#
# Mechanical properties :
#
#
# Convention : Reuss Voigt Hill
#
# Bulk Modulus (GPa) = 36.66147 48.51579 42.58863
# Shear Modulus (GPa) = 21.26189 26.61053 23.93621
#
# Velocity S-wave (km/s) = 3.27770 3.66686 3.47773
# Velocity P-wave (km/s) = 5.73139 6.51476 6.13559
#
# Compressibility (1/GPa) = 0.02727659
#
# Stress axis : x y z
#
# Youngs Moduli (GPa) = 37.47602 91.11164 87.86839
#
# Poissons Ratio (x) = -0.08202 0.77367
# Poissons Ratio (y) = -0.03374 0.26158
# Poissons Ratio (z) = 0.32997 0.27124
#
# Static dielectric constant tensor:
#      x y z
#    x 3.511640 0.000000 0.000000 
#    y 0.000000 3.607630 0.000000 
#    z 0.000000 0.000000 3.669770 
# 
# 
# High freq. dielectric constant tensor:
#      x y z
#    x 1.744270 0.000000 0.000000 
#    y 0.000000 1.784170 0.000000 
#    z 0.000000 0.000000 1.775710 
# 
# From -- ./inp_files/24706.got.cif
#   From: 2010.03.12/outbox.cif.g09.slc.cpg/sg46_13_cif.got.tgz:24706.got - 2010.04.14 02:56:35.
