data_PCOD8192224
_publ_section_title
;
Structure prediction by ZEFSAII (Michael W. Deem and Ramdas Pophale) SiO2 
 PCOD8192224
Probable space group: I M A 2
;
_chemical_formula_sum "Si O2"
_cell_formula_units_Z 64
_cell_length_a 8.684151
_cell_length_b 24.815803
_cell_length_c 14.944288
_cell_angle_alpha 90.000000
_cell_angle_beta 90.000000
_cell_angle_gamma 90.000000
_cell_volume 3220.556538
_symmetry_space_group_name_H-M "I M A 2"
_symmetry_group_IT_number 46
_symmetry_cell_setting 'orthorhombic'
loop_
_space_group_symop_operation_xyz
x,y,z
-x,-y,z
1/2-x,y,z
1/2+x,-y,z
1/2+x,1/2+y,1/2+z
1/2-x,1/2-y,1/2+z
-x,1/2+y,1/2+z
x,1/2-y,1/2+z
loop_
_atom_site_type_symbol
_atom_site_label
_atom_site_fract_x
_atom_site_fract_y
_atom_site_fract_z
Si Si1 0.432443 0.220254 0.904850
Si Si2 0.569459 0.332935 0.890415
Si Si3 0.568018 0.389833 0.382687
Si Si4 0.068682 0.148836 0.579756
Si Si5 0.930684 0.941014 0.056481
Si Si6 0.930702 0.634640 0.718884
Si Si7 0.932559 0.943779 0.714578
Si Si8 0.569025 0.732619 0.605519
O O1 0.250000 0.215751 0.893494
O O2 0.487263 0.276727 0.863728
O O3 0.510365 0.169811 0.854876
O O4 0.491805 0.218717 0.006827
O O5 0.750000 0.324329 0.893810
O O6 0.520988 0.374693 0.812016
O O7 0.514611 0.356993 0.984722
O O8 0.750000 0.392872 0.381283
O O9 0.506344 0.404410 0.480501
O O10 0.501750 0.432202 0.311850
O O11 0.250000 0.146949 0.560741
O O12 0.012723 0.101329 0.644113
O O13 0.024673 0.205532 0.628059
O O14 0.750000 0.943427 0.037343
O O15 0.966750 0.914723 0.152610
O O16 0.000000 0.000000 0.055050
O O17 0.750000 0.638749 0.738849
O O18 0.998945 0.690148 0.675974
O O19 0.750000 0.946281 0.721565
O O20 0.000000 0.000000 0.679261
O O21 0.750000 0.724248 0.604178
#
# Coordination Sequence:
#
# PCOD8192224 Si02
#       8
#     8   8   8   8   8   8   8   8
#     4  10  19  37  60  85 120 162 204 239 288 358
#     4  11  23  37  57  91 128 158 194 248 309 359
#     4  12  24  38  59  91 127 159 197 248 304 359
#     4   9  20  40  64  87 113 155 205 248 301 361
#     4  11  23  41  63  88 120 162 207 250 300 356
#     4  10  20  37  61  87 118 160 206 246 295 358
#     4  11  24  42  64  89 118 157 206 253 302 359
#     4   8  15  32  58  86 111 146 195 241 286 347
#
# _framework density 19.872340000000001
#
# number of rings (size 3 to 8) (size 9 to 14) (size 15 to 20)
#    0.000    1.750    1.250    4.500    1.750    2.000 
#    0.000    1.250    0.000    0.000    0.000    0.000 
#    0.000    0.000    0.000    0.000    0.000    0.000 
#
# Total GULP energy -396845.420246 kJ/mol
# GULP energy per Si atom -12401.419383 kJ/mol
# Density = 1.982711 g / cm^3
# Si number density = 19.872340 Si / 1000 Ang^3
#
#
#
# Elastic Constant Matrix: (Units=GPa)
#
#
# Indices 1 2 3 4 5 6 
#
# 1 93.8862 37.0374 32.7321 0.0001 -0.0002 0.0000
# 2 37.0374 99.8722 22.2749 -0.0001 -0.0001 0.0000
# 3 32.7321 22.2749 65.2276 0.0004 -0.0005 -0.0001
# 4 0.0001 -0.0001 0.0004 29.9629 -0.0001 0.0000
# 5 -0.0002 -0.0001 -0.0005 -0.0001 22.3874 0.0000
# 6 0.0000 0.0000 -0.0001 0.0000 0.0000 31.5498
#
#
#
# Elastic Compliance Matrix: (Units=1/GPa)
#
#
# Indices 1 2 3 4 5 6 
#
# 1 0.014242 -0.003992 -0.005784 0.000000 0.000000 0.000000
# 2 -0.003992 0.011957 -0.002080 0.000000 0.000000 0.000000
# 3 -0.005784 -0.002080 0.018944 0.000000 0.000000 0.000000
# 4 0.000000 0.000000 0.000000 0.033375 0.000000 0.000000
# 5 0.000000 0.000000 0.000000 0.000000 0.044668 0.000000
# 6 0.000000 0.000000 0.000000 0.000000 0.000000 0.031696
#
#
# Mechanical properties :
#
#
# Convention : Reuss Voigt Hill
#
# Bulk Modulus (GPa) = 46.66002 49.23052 47.94527
# Shear Modulus (GPa) = 26.91977 27.90946 27.41462
#
# Velocity S-wave (km/s) = 3.68453 3.75165 3.71824
# Velocity P-wave (km/s) = 6.45228 6.60255 6.52785
#
# Compressibility (1/GPa) = 0.02143163
#
# Stress axis : x y z
#
# Youngs Moduli (GPa) = 70.21308 83.63250 52.78791
#
# Poissons Ratio (x) = 0.33384 0.30532
# Poissons Ratio (y) = 0.28027 0.10981
# Poissons Ratio (z) = 0.40610 0.17397
#
# Static dielectric constant tensor:
#      x y z
#    x 3.432490 0.000000 0.000000 
#    y 0.000000 3.714310 0.000000 
#    z 0.000000 0.000000 3.644850 
# 
# 
# High freq. dielectric constant tensor:
#      x y z
#    x 1.764420 0.000000 0.000000 
#    y 0.000000 1.771770 0.000000 
#    z 0.000000 0.000000 1.775790 
# 
# From -- ./inp_files/14444.got.cif
#   From: 2010.03.12/outbox.cif.g09.slc.cpg/sg46_8_cif.got.tgz:14444.got - 2010.04.14 02:56:35.
