data_PCOD8192205
_publ_section_title
;
Structure prediction by ZEFSAII (Michael W. Deem and Ramdas Pophale) SiO2 
 PCOD8192205
Probable space group: I M A 2
;
_chemical_formula_sum "Si O2"
_cell_formula_units_Z 60
_cell_length_a 13.506704
_cell_length_b 8.637509
_cell_length_c 26.199718
_cell_angle_alpha 90.000000
_cell_angle_beta 90.000000
_cell_angle_gamma 90.000000
_cell_volume 3056.571168
_symmetry_space_group_name_H-M "I M A 2"
_symmetry_group_IT_number 46
_symmetry_cell_setting 'orthorhombic'
loop_
_space_group_symop_operation_xyz
x,y,z
-x,-y,z
1/2-x,y,z
1/2+x,-y,z
1/2+x,1/2+y,1/2+z
1/2-x,1/2-y,1/2+z
-x,1/2+y,1/2+z
x,1/2-y,1/2+z
loop_
_atom_site_type_symbol
_atom_site_label
_atom_site_fract_x
_atom_site_fract_y
_atom_site_fract_z
Si Si1 0.971729 0.326486 0.436740
Si Si2 0.135654 0.633274 0.537365
Si Si3 0.000000 0.500000 0.259744
Si Si4 0.975451 0.675157 0.097577
Si Si5 0.360111 0.424317 0.791769
Si Si6 0.952373 0.271810 0.827163
Si Si7 0.363105 0.216493 0.009408
Si Si8 0.864946 0.725313 0.197354
O O1 0.888322 0.307726 0.480255
O O2 0.927137 0.242954 0.387004
O O3 0.000000 0.500000 0.421119
O O4 0.073545 0.252453 0.458360
O O5 0.250000 0.665025 0.550426
O O6 0.111863 0.449682 0.535830
O O7 0.070384 0.723478 0.579587
O O8 0.937883 0.385375 0.296020
O O9 0.916967 0.582249 0.225750
O O10 0.895575 0.659653 0.051888
O O11 0.923473 0.760373 0.145234
O O12 0.000000 0.500000 0.113744
O O13 0.250000 0.385755 0.810536
O O14 0.432927 0.322549 0.826086
O O15 0.382195 0.605114 0.799139
O O16 0.373183 0.379666 0.732093
O O17 0.250000 0.234734 0.993776
O O18 0.750000 0.683752 0.186364
#
# Coordination Sequence:
#
# PCOD8192205 Si02
#       8
#     8   8   4   8   8   8   8   8
#     4   9  17  33  59  87 114 152 193 238 286 339
#     4   9  20  39  59  85 117 152 197 241 280 344
#     4  10  20  38  58  88 112 148 188 244 294 332
#     4  11  21  37  60  87 118 152 188 236 301 347
#     4   9  21  39  56  79 115 154 191 234 283 342
#     4  10  19  36  61  83 116 149 192 238 288 339
#     4   9  19  38  60  84 115 153 196 238 283 347
#     4  10  21  40  59  81 115 153 193 237 289 348
#
# _framework density 19.629839
#
# number of rings (size 3 to 8) (size 9 to 14) (size 15 to 20)
#    0.000    2.400    1.333    1.600    0.000    2.667 
#   19.200    0.000    0.000    0.000    0.000    0.000 
#    0.000    0.000    0.000    0.000    0.000    0.000 
#
# Total GULP energy -371877.436178 kJ/mol
# GULP energy per Si atom -12395.914539 kJ/mol
# Density = 1.958516 g / cm^3
# Si number density = 19.629839 Si / 1000 Ang^3
#
#
#
# Elastic Constant Matrix: (Units=GPa)
#
#
# Indices 1 2 3 4 5 6 
#
# 1 98.3517 19.4370 42.1901 0.0000 0.0000 0.0000
# 2 19.4370 62.7439 36.1507 0.0000 0.0000 0.0000
# 3 42.1901 36.1507 127.8233 0.0000 0.0000 0.0000
# 4 0.0000 0.0000 0.0000 25.5729 0.0000 0.0000
# 5 0.0000 0.0000 0.0000 0.0000 22.0064 0.0000
# 6 0.0000 0.0000 0.0000 0.0000 0.0000 21.7417
#
#
#
# Elastic Compliance Matrix: (Units=1/GPa)
#
#
# Indices 1 2 3 4 5 6 
#
# 1 0.011997 -0.001714 -0.003475 0.000000 0.000000 0.000000
# 2 -0.001714 0.019285 -0.004888 0.000000 0.000000 0.000000
# 3 -0.003475 -0.004888 0.010353 0.000000 0.000000 0.000000
# 4 0.000000 0.000000 0.000000 0.039104 0.000000 0.000000
# 5 0.000000 0.000000 0.000000 0.000000 0.045441 0.000000
# 6 0.000000 0.000000 0.000000 0.000000 0.000000 0.045995
#
#
# Mechanical properties :
#
#
# Convention : Reuss Voigt Hill
#
# Bulk Modulus (GPa) = 46.55534 53.83049 50.19291
# Shear Modulus (GPa) = 25.06387 26.60694 25.83540
#
# Velocity S-wave (km/s) = 3.57715 3.68562 3.63179
# Velocity P-wave (km/s) = 6.38979 6.75233 6.57356
#
# Compressibility (1/GPa) = 0.02147981
#
# Stress axis : x y z
#
# Youngs Moduli (GPa) = 83.35371 51.85277 96.59223
#
# Poissons Ratio (x) = 0.08889 0.33566
# Poissons Ratio (y) = 0.14290 0.47218
# Poissons Ratio (z) = 0.28965 0.25348
#
# Static dielectric constant tensor:
#      x y z
#    x 3.602230 0.000000 0.000000 
#    y 0.000000 3.466200 0.000000 
#    z 0.000000 0.000000 3.508680 
# 
# 
# High freq. dielectric constant tensor:
#      x y z
#    x 1.764490 0.000000 0.000000 
#    y 0.000000 1.749890 0.000000 
#    z 0.000000 0.000000 1.763280 
# 
# From -- ./inp_files/23617.got.cif
#   From: 2010.03.12/outbox.cif.g09.slc.cpg/sg46_12_cif.got.tgz:23617.got - 2010.04.14 02:56:35.
