data_PCOD8192744
_publ_section_title
;
Structure prediction by ZEFSAII (Michael W. Deem and Ramdas Pophale) SiO2 
 PCOD8192744
Probable space group: I M A 2
;
_chemical_formula_sum "Si O2"
_cell_formula_units_Z 48
_cell_length_a 8.367242
_cell_length_b 23.223614
_cell_length_c 11.844814
_cell_angle_alpha 90.000000
_cell_angle_beta 90.000000
_cell_angle_gamma 90.000000
_cell_volume 2301.655811
_symmetry_space_group_name_H-M "I M A 2"
_symmetry_group_IT_number 46
_symmetry_cell_setting 'orthorhombic'
loop_
_space_group_symop_operation_xyz
x,y,z
-x,-y,z
1/2-x,y,z
1/2+x,-y,z
1/2+x,1/2+y,1/2+z
1/2-x,1/2-y,1/2+z
-x,1/2+y,1/2+z
x,1/2-y,1/2+z
loop_
_atom_site_type_symbol
_atom_site_label
_atom_site_fract_x
_atom_site_fract_y
_atom_site_fract_z
Si Si1 0.437353 0.270043 0.177780
Si Si2 0.941154 0.855276 0.123890
Si Si3 0.565242 0.850222 0.872229
Si Si4 0.437816 0.934556 0.309861
Si Si5 0.567729 0.061161 0.717658
Si Si6 0.936049 0.870034 0.520695
O O1 0.250000 0.268240 0.197839
O O2 0.502041 0.204982 0.177518
O O3 0.514483 0.303458 0.285911
O O4 0.469544 0.303183 0.057477
O O5 0.750000 0.862173 0.127839
O O6 0.019952 0.910067 0.185940
O O7 0.010119 0.852176 0.996578
O O8 0.750000 0.836000 0.886128
O O9 0.539294 0.912350 0.816986
O O10 0.250000 0.935410 0.330281
O O11 0.520064 0.887739 0.393330
O O12 0.500000 0.000000 0.325144
O O13 0.750000 0.060289 0.757234
O O14 0.551154 0.093645 0.599931
O O15 0.500000 0.000000 0.690422
O O16 0.750000 0.884471 0.542734
#
# Coordination Sequence:
#
# PCOD8192744 Si02
#       6
#     8   8   8   8   8   8
#     4   8  17  34  62  93 119 151 197 245 295 357
#     4  10  21  38  63  90 119 159 203 249 298 359
#     4   9  19  36  57  86 119 152 198 245 291 352
#     4  12  26  43  61  87 123 165 209 255 307 368
#     4  11  21  35  57  84 117 154 195 243 298 353
#     4  10  20  38  64  92 121 155 199 249 297 357
#
# _framework density 20.854552999999999
#
# number of rings (size 3 to 8) (size 9 to 14) (size 15 to 20)
#    0.000    2.000    0.000    5.000    2.333    1.333 
#    0.000    4.167    0.000    0.000    0.000    0.000 
#    0.000    0.000    0.000    0.000    0.000    0.000 
#
# Total GULP energy -297418.311751 kJ/mol
# GULP energy per Si atom -12392.429656 kJ/mol
# Density = 2.080709 g / cm^3
# Si number density = 20.854553 Si / 1000 Ang^3
#
#
#
# Elastic Constant Matrix: (Units=GPa)
#
#
# Indices 1 2 3 4 5 6 
#
# 1 47.8551 21.6602 17.9963 0.0000 0.0000 0.0000
# 2 21.6602 86.4728 21.7557 0.0002 0.0000 0.0000
# 3 17.9963 21.7557 112.1662 0.0009 -0.0003 -0.0005
# 4 0.0000 0.0002 0.0009 34.7486 -0.0001 0.0000
# 5 0.0000 0.0000 -0.0003 -0.0001 25.8892 0.0001
# 6 0.0000 0.0000 -0.0005 0.0000 0.0001 19.8655
#
#
#
# Elastic Compliance Matrix: (Units=1/GPa)
#
#
# Indices 1 2 3 4 5 6 
#
# 1 0.024418 -0.005394 -0.002871 0.000000 0.000000 0.000000
# 2 -0.005394 0.013349 -0.001724 0.000000 0.000000 0.000000
# 3 -0.002871 -0.001724 0.009710 0.000000 0.000000 0.000000
# 4 0.000000 0.000000 0.000000 0.028778 0.000000 0.000000
# 5 0.000000 0.000000 0.000000 0.000000 0.038626 0.000000
# 6 0.000000 0.000000 0.000000 0.000000 0.000000 0.050339
#
#
# Mechanical properties :
#
#
# Convention : Reuss Voigt Hill
#
# Bulk Modulus (GPa) = 36.36501 41.03540 38.70021
# Shear Modulus (GPa) = 25.72485 28.43943 27.08214
#
# Velocity S-wave (km/s) = 3.51598 3.69684 3.60755
# Velocity P-wave (km/s) = 5.82736 6.15970 5.99583
#
# Compressibility (1/GPa) = 0.02749896
#
# Stress axis : x y z
#
# Youngs Moduli (GPa) = 40.95401 74.91141 102.98241
#
# Poissons Ratio (x) = 0.40406 0.29571
# Poissons Ratio (y) = 0.22090 0.17752
# Poissons Ratio (z) = 0.11760 0.12913
#
# Static dielectric constant tensor:
#      x y z
#    x 3.462020 0.000000 0.000000 
#    y 0.000000 3.922800 0.000000 
#    z 0.000000 0.000000 3.983730 
# 
# 
# High freq. dielectric constant tensor:
#      x y z
#    x 1.788830 0.000000 0.000000 
#    y 0.000000 1.818970 0.000000 
#    z 0.000000 0.000000 1.819510 
# 
# From -- ./inp_files/9307.got.cif
#   From: 2010.03.12/outbox.cif.g09.slc.cpg/sg46_5_cif.got.tgz:9307.got - 2010.04.14 02:56:35.
