data_PCOD8192541
_publ_section_title
;
Structure prediction by ZEFSAII (Michael W. Deem and Ramdas Pophale) SiO2 
 PCOD8192541
Probable space group: I M A 2
;
_chemical_formula_sum "Si O2"
_cell_formula_units_Z 40
_cell_length_a 20.394968
_cell_length_b 8.779835
_cell_length_c 10.309806
_cell_angle_alpha 90.000000
_cell_angle_beta 90.000000
_cell_angle_gamma 90.000000
_cell_volume 1846.119781
_symmetry_space_group_name_H-M "I M A 2"
_symmetry_group_IT_number 46
_symmetry_cell_setting 'orthorhombic'
loop_
_space_group_symop_operation_xyz
x,y,z
-x,-y,z
1/2-x,y,z
1/2+x,-y,z
1/2+x,1/2+y,1/2+z
1/2-x,1/2-y,1/2+z
-x,1/2+y,1/2+z
x,1/2-y,1/2+z
loop_
_atom_site_type_symbol
_atom_site_label
_atom_site_fract_x
_atom_site_fract_y
_atom_site_fract_z
Si Si1 0.671879 0.065541 0.618340
Si Si2 0.677609 0.923709 0.357056
Si Si3 0.323981 0.587741 0.605264
Si Si4 0.944143 0.613896 0.534097
Si Si5 0.088889 0.166274 0.754809
O O1 0.750000 0.050470 0.649226
O O2 0.653591 0.238861 0.585521
O O3 0.647318 0.969972 0.494071
O O4 0.624971 0.996181 0.729817
O O5 0.750000 0.868116 0.386257
O O6 0.644734 0.783377 0.289307
O O7 0.675466 0.067178 0.260535
O O8 0.250000 0.559816 0.550343
O O9 0.373217 0.469223 0.537229
O O10 0.948136 0.763116 0.628128
O O11 0.957911 0.654538 0.382095
O O12 0.000000 0.500000 0.585027
#
# Coordination Sequence:
#
# PCOD8192541 Si02
#       5
#     8   8   8   8   8
#     4  10  20  35  63  99 131 170 213 262 321 380
#     4   9  18  35  58  92 130 164 208 263 314 374
#     4   9  21  39  64  95 133 169 211 264 319 378
#     4  11  26  46  67  94 128 170 217 265 323 385
#     4  11  22  43  64  90 126 169 219 258 324 379
#
# _framework density 21.667066999999999
#
# number of rings (size 3 to 8) (size 9 to 14) (size 15 to 20)
#    0.000    2.000    2.000    0.600    2.800    4.000 
#    3.600    1.000    0.000    0.000    0.000    0.000 
#    0.000    0.000    0.000    0.000    0.000    0.000 
#
# Total GULP energy -247829.962087 kJ/mol
# GULP energy per Si atom -12391.498104 kJ/mol
# Density = 2.161775 g / cm^3
# Si number density = 21.667067 Si / 1000 Ang^3
#
#
#
# Elastic Constant Matrix: (Units=GPa)
#
#
# Indices 1 2 3 4 5 6 
#
# 1 55.4505 17.9262 11.2388 0.0000 0.0000 0.0000
# 2 17.9262 64.7940 1.1325 0.0000 0.0000 0.0000
# 3 11.2388 1.1325 85.5674 0.0000 0.0000 0.0000
# 4 0.0000 0.0000 0.0000 27.6064 0.0000 0.0000
# 5 0.0000 0.0000 0.0000 0.0000 17.7239 0.0000
# 6 0.0000 0.0000 0.0000 0.0000 0.0000 32.0007
#
#
#
# Elastic Compliance Matrix: (Units=1/GPa)
#
#
# Indices 1 2 3 4 5 6 
#
# 1 0.020368 -0.005590 -0.002601 0.000000 0.000000 0.000000
# 2 -0.005590 0.016971 0.000510 0.000000 0.000000 0.000000
# 3 -0.002601 0.000510 0.012022 0.000000 0.000000 0.000000
# 4 0.000000 0.000000 0.000000 0.036223 0.000000 0.000000
# 5 0.000000 0.000000 0.000000 0.000000 0.056421 0.000000
# 6 0.000000 0.000000 0.000000 0.000000 0.000000 0.031249
#
#
# Mechanical properties :
#
#
# Convention : Reuss Voigt Hill
#
# Bulk Modulus (GPa) = 29.41334 29.60077 29.50706
# Shear Modulus (GPa) = 25.00618 27.16717 26.08667
#
# Velocity S-wave (km/s) = 3.40090 3.54481 3.47360
# Velocity P-wave (km/s) = 5.38759 5.51775 5.45306
#
# Compressibility (1/GPa) = 0.03399817
#
# Stress axis : x y z
#
# Youngs Moduli (GPa) = 49.09566 58.92367 83.18354
#
# Poissons Ratio (x) = 0.32937 0.21638
# Poissons Ratio (y) = 0.27443 -0.04239
# Poissons Ratio (z) = 0.12771 -0.03003
#
# Static dielectric constant tensor:
#      x y z
#    x 3.574290 0.000000 0.000000 
#    y 0.000000 4.013050 0.000000 
#    z 0.000000 0.000000 4.189740 
# 
# 
# High freq. dielectric constant tensor:
#      x y z
#    x 1.822310 0.000000 0.000000 
#    y 0.000000 1.852040 0.000000 
#    z 0.000000 0.000000 1.857580 
# 
# From -- ./inp_files/7699.got.cif
#   From: 2010.03.12/outbox.cif.g09.slc.cpg/sg46_4_cif.got.tgz:7699.got - 2010.04.14 02:56:35.
