data_PCOD8192670
_publ_section_title
;
Structure prediction by ZEFSAII (Michael W. Deem and Ramdas Pophale) SiO2 
 PCOD8192670
Probable space group: I M A 2
;
_chemical_formula_sum "Si O2"
_cell_formula_units_Z 60
_cell_length_a 9.466547
_cell_length_b 26.334562
_cell_length_c 12.079138
_cell_angle_alpha 90.000000
_cell_angle_beta 90.000000
_cell_angle_gamma 90.000000
_cell_volume 3011.297322
_symmetry_space_group_name_H-M "I M A 2"
_symmetry_group_IT_number 46
_symmetry_cell_setting 'orthorhombic'
loop_
_space_group_symop_operation_xyz
x,y,z
-x,-y,z
1/2-x,y,z
1/2+x,-y,z
1/2+x,1/2+y,1/2+z
1/2-x,1/2-y,1/2+z
-x,1/2+y,1/2+z
x,1/2-y,1/2+z
loop_
_atom_site_type_symbol
_atom_site_label
_atom_site_fract_x
_atom_site_fract_y
_atom_site_fract_z
Si Si1 0.086961 0.919162 0.593280
Si Si2 0.406525 0.691096 0.039331
Si Si3 0.595102 0.920563 0.253116
Si Si4 0.404860 0.831142 0.292785
Si Si5 0.912974 0.784436 0.112607
Si Si6 0.500000 0.500000 0.912007
Si Si7 0.419444 0.950026 0.835597
Si Si8 0.089836 0.392833 0.510402
O O1 0.250000 0.908980 0.607425
O O2 0.022095 0.863281 0.571411
O O3 0.028247 0.940241 0.709666
O O4 0.067840 0.958214 0.492375
O O5 0.250000 0.699540 0.094765
O O6 0.517856 0.734289 0.064895
O O7 0.382960 0.694129 0.909719
O O8 0.750000 0.894060 0.259699
O O9 0.473804 0.886603 0.307724
O O10 0.560876 0.926458 0.121744
O O11 0.605697 0.972327 0.325235
O O12 0.250000 0.836728 0.235321
O O13 0.509377 0.794912 0.227165
O O14 0.750000 0.773072 0.135793
O O15 0.933121 0.833141 0.033806
O O16 0.250000 0.955409 0.845566
O O17 0.500000 0.000000 0.877456
O O18 0.475809 0.905799 0.916005
O O19 0.250000 0.402729 0.468245
#
# Coordination Sequence:
#
# PCOD8192670 Si02
#       8
#     8   8   8   8   8   4   8   8
#     4  10  22  40  59  87 125 161 203 250 297 361
#     4  10  21  39  61  88 121 158 202 249 301 366
#     4  10  22  37  60  91 122 157 201 254 304 361
#     4  10  20  37  61  86 119 159 197 246 304 365
#     4  10  22  40  62  89 122 156 200 256 308 361
#     4  12  20  38  62  90 126 162 202 242 314 364
#     4  11  23  40  62  88 121 162 205 250 298 356
#     4   9  21  42  60  86 123 157 201 253 301 357
#
# _framework density 19.924966999999999
#
# number of rings (size 3 to 8) (size 9 to 14) (size 15 to 20)
#    0.000    1.867    2.000    2.400    0.933    5.333 
#    0.000    5.333    0.000    0.000    0.000    0.000 
#    0.000    0.000    0.000    0.000    0.000    0.000 
#
# Total GULP energy -371741.024758 kJ/mol
# GULP energy per Si atom -12391.367492 kJ/mol
# Density = 1.987962 g / cm^3
# Si number density = 19.924967 Si / 1000 Ang^3
#
#
#
# Elastic Constant Matrix: (Units=GPa)
#
#
# Indices 1 2 3 4 5 6 
#
# 1 125.6376 55.3919 44.8176 0.0008 -0.0001 -0.0002
# 2 55.3919 114.4335 52.7863 0.0008 -0.0002 -0.0001
# 3 44.8176 52.7863 93.9131 0.0035 -0.0008 -0.0008
# 4 0.0008 0.0008 0.0035 29.5735 0.0002 -0.0002
# 5 -0.0001 -0.0002 -0.0008 0.0002 22.9851 0.0002
# 6 -0.0002 -0.0001 -0.0008 -0.0002 0.0002 34.2655
#
#
#
# Elastic Compliance Matrix: (Units=1/GPa)
#
#
# Indices 1 2 3 4 5 6 
#
# 1 0.010696 -0.003811 -0.002962 0.000000 0.000000 0.000000
# 2 -0.003811 0.013155 -0.005576 0.000000 0.000000 0.000000
# 3 -0.002962 -0.005576 0.015196 -0.000002 0.000000 0.000000
# 4 0.000000 0.000000 -0.000002 0.033814 0.000000 0.000000
# 5 0.000000 0.000000 0.000000 0.000000 0.043506 0.000000
# 6 0.000000 0.000000 0.000000 0.000000 0.000000 0.029184
#
#
# Mechanical properties :
#
#
# Convention : Reuss Voigt Hill
#
# Bulk Modulus (GPa) = 69.68968 71.10844 70.39906
# Shear Modulus (GPa) = 28.56597 29.43072 28.99834
#
# Velocity S-wave (km/s) = 3.79050 3.84745 3.81908
# Velocity P-wave (km/s) = 7.36269 7.45001 7.40648
#
# Compressibility (1/GPa) = 0.01434933
#
# Stress axis : x y z
#
# Youngs Moduli (GPa) = 93.48906 76.01433 65.80765
#
# Poissons Ratio (x) = 0.28970 0.19495
# Poissons Ratio (y) = 0.35630 0.36692
# Poissons Ratio (z) = 0.27696 0.42382
#
# Static dielectric constant tensor:
#      x y z
#    x 3.769570 0.000000 0.000000 
#    y 0.000000 3.654050 0.000000 
#    z 0.000000 0.000000 3.656350 
# 
# 
# High freq. dielectric constant tensor:
#      x y z
#    x 1.776680 0.000000 0.000000 
#    y 0.000000 1.773870 0.000000 
#    z 0.000000 0.000000 1.775500 
# 
# From -- ./inp_files/9536.got.cif
#   From: 2010.03.12/outbox.cif.g09.slc.cpg/sg46_5_cif.got.tgz:9536.got - 2010.04.14 02:56:35.
