data_PCOD8192147
_publ_section_title
;
Structure prediction by ZEFSAII (Michael W. Deem and Ramdas Pophale) SiO2 
 PCOD8192147
Probable space group: I M A 2
;
_chemical_formula_sum "Si O2"
_cell_formula_units_Z 64
_cell_length_a 8.877048
_cell_length_b 28.643198
_cell_length_c 12.469689
_cell_angle_alpha 90.000000
_cell_angle_beta 90.000000
_cell_angle_gamma 90.000000
_cell_volume 3170.630956
_symmetry_space_group_name_H-M "I M A 2"
_symmetry_group_IT_number 46
_symmetry_cell_setting 'orthorhombic'
loop_
_space_group_symop_operation_xyz
x,y,z
-x,-y,z
1/2-x,y,z
1/2+x,-y,z
1/2+x,1/2+y,1/2+z
1/2-x,1/2-y,1/2+z
-x,1/2+y,1/2+z
x,1/2-y,1/2+z
loop_
_atom_site_type_symbol
_atom_site_label
_atom_site_fract_x
_atom_site_fract_y
_atom_site_fract_z
Si Si1 0.418841 0.298866 0.810790
Si Si2 0.572121 0.050895 0.580796
Si Si3 0.076439 0.889811 0.785331
Si Si4 0.577229 0.077862 0.137560
Si Si5 0.424402 0.455403 0.442905
Si Si6 0.076369 0.792925 0.877494
Si Si7 0.081630 0.168389 0.076918
Si Si8 0.073291 0.606019 0.870212
O O1 0.250000 0.290095 0.856259
O O2 0.531914 0.256662 0.830505
O O3 0.411183 0.301017 0.683176
O O4 0.481510 0.345848 0.866352
O O5 0.750000 0.044074 0.580908
O O6 0.519691 0.086293 0.675233
O O7 0.518367 0.074876 0.470186
O O8 0.500000 0.000000 0.595361
O O9 0.250000 0.902732 0.804206
O O10 0.051623 0.833777 0.787708
O O11 0.981643 0.908631 0.886022
O O12 0.750000 0.065155 0.114312
O O13 0.544367 0.129374 0.093837
O O14 0.539129 0.075187 0.263881
O O15 0.471165 0.043603 0.068759
O O16 0.500000 0.500000 0.384960
O O17 0.250000 0.460582 0.428831
O O18 0.250000 0.791871 0.913481
O O19 0.969919 0.799513 0.979612
O O20 0.250000 0.147249 0.054154
O O21 0.250000 0.618293 0.877745
#
# Coordination Sequence:
#
# PCOD8192147 Si02
#       8
#     8   8   8   8   8   8   8   8
#     4  10  22  38  58  88 123 158 202 254 308 367
#     4  10  22  41  63  89 122 162 207 257 309 369
#     4  10  22  40  60  85 118 155 201 252 301 361
#     4  10  19  35  58  84 114 149 191 239 296 358
#     4  12  24  37  57  84 116 151 190 241 297 357
#     4  11  22  36  59  87 119 161 205 251 306 368
#     4  10  20  36  57  82 115 154 192 242 301 355
#     4   9  20  39  62  87 120 160 202 249 302 364
#
# _framework density 20.185258000000001
#
# number of rings (size 3 to 8) (size 9 to 14) (size 15 to 20)
#    0.000    1.750    1.250    3.000    0.000    6.000 
#    0.000    2.500    0.000    0.000    0.000    0.000 
#    0.000    0.000    0.000    0.000    0.000    0.000 
#
# Total GULP energy -396757.314108 kJ/mol
# GULP energy per Si atom -12398.666066 kJ/mol
# Density = 2.013931 g / cm^3
# Si number density = 20.185258 Si / 1000 Ang^3
#
#
#
# Elastic Constant Matrix: (Units=GPa)
#
#
# Indices 1 2 3 4 5 6 
#
# 1 85.1362 29.5397 36.1465 -0.0003 -0.0006 -0.0003
# 2 29.5397 87.9164 33.9712 -0.0012 -0.0009 -0.0005
# 3 36.1465 33.9712 107.8117 -0.0013 -0.0019 -0.0011
# 4 -0.0003 -0.0012 -0.0013 25.5821 -0.0007 -0.0003
# 5 -0.0006 -0.0009 -0.0019 -0.0007 24.2473 -0.0002
# 6 -0.0003 -0.0005 -0.0011 -0.0003 -0.0002 33.9169
#
#
#
# Elastic Compliance Matrix: (Units=1/GPa)
#
#
# Indices 1 2 3 4 5 6 
#
# 1 0.014545 -0.003419 -0.003799 0.000000 0.000000 0.000000
# 2 -0.003419 0.013755 -0.003188 0.000000 0.000000 0.000000
# 3 -0.003799 -0.003188 0.011554 0.000000 0.000001 0.000000
# 4 0.000000 0.000000 0.000000 0.039090 0.000001 0.000000
# 5 0.000000 0.000000 0.000001 0.000001 0.041242 0.000000
# 6 0.000000 0.000000 0.000000 0.000000 0.000000 0.029484
#
#
# Mechanical properties :
#
#
# Convention : Reuss Voigt Hill
#
# Bulk Modulus (GPa) = 52.51677 53.35323 52.93500
# Shear Modulus (GPa) = 28.27589 28.82973 28.55281
#
# Velocity S-wave (km/s) = 3.74681 3.78333 3.76511
# Velocity P-wave (km/s) = 6.69268 6.75085 6.72183
#
# Compressibility (1/GPa) = 0.01904154
#
# Stress axis : x y z
#
# Youngs Moduli (GPa) = 68.75080 72.70056 86.55220
#
# Poissons Ratio (x) = 0.24857 0.32884
# Poissons Ratio (y) = 0.23507 0.27591
# Poissons Ratio (z) = 0.26121 0.23176
#
# Static dielectric constant tensor:
#      x y z
#    x 3.653030 0.000000 0.000000 
#    y 0.000000 3.566370 0.000000 
#    z 0.000000 0.000000 3.840610 
# 
# 
# High freq. dielectric constant tensor:
#      x y z
#    x 1.791340 0.000000 0.000000 
#    y 0.000000 1.785440 0.000000 
#    z 0.000000 0.000000 1.787020 
# 
# From -- ./inp_files/9785.got.cif
#   From: 2010.03.12/outbox.cif.g09.slc.cpg/sg46_5_cif.got.tgz:9785.got - 2010.04.14 02:56:35.
