data_PCOD8192054
_publ_section_title
;
Structure prediction by ZEFSAII (Michael W. Deem and Ramdas Pophale) SiO2 
 PCOD8192054
Probable space group: I M A 2
;
_chemical_formula_sum "Si O2"
_cell_formula_units_Z 40
_cell_length_a 8.556658
_cell_length_b 28.137660
_cell_length_c 9.357584
_cell_angle_alpha 90.000000
_cell_angle_beta 90.000000
_cell_angle_gamma 90.000000
_cell_volume 2252.972475
_symmetry_space_group_name_H-M "I M A 2"
_symmetry_group_IT_number 46
_symmetry_cell_setting 'orthorhombic'
loop_
_space_group_symop_operation_xyz
x,y,z
-x,-y,z
1/2-x,y,z
1/2+x,-y,z
1/2+x,1/2+y,1/2+z
1/2-x,1/2-y,1/2+z
-x,1/2+y,1/2+z
x,1/2-y,1/2+z
loop_
_atom_site_type_symbol
_atom_site_label
_atom_site_fract_x
_atom_site_fract_y
_atom_site_fract_z
Si Si1 0.068478 0.714595 0.509260
Si Si2 0.928470 0.857095 0.809718
Si Si3 0.566377 0.367497 0.020071
Si Si4 0.568212 0.704746 0.816472
Si Si5 0.072745 0.050190 0.667394
O O1 0.250000 0.725832 0.487201
O O2 0.025357 0.663064 0.442966
O O3 0.030705 0.714485 0.675474
O O4 0.966715 0.754112 0.429803
O O5 0.750000 0.839056 0.817196
O O6 0.936114 0.915092 0.807088
O O7 0.005135 0.838604 0.660438
O O8 0.750000 0.361305 0.004225
O O9 0.519518 0.423369 0.037459
O O10 0.482558 0.346027 0.881266
O O11 0.750000 0.703533 0.778045
O O12 0.250000 0.042731 0.617457
O O13 0.000000 0.000000 0.708329
#
# Coordination Sequence:
#
# PCOD8192054 Si02
#       5
#     8   8   8   8   8
#     4  12  24  38  56  80 109 145 188 231 277 329
#     4   9  19  35  54  80 111 144 182 224 275 328
#     4  10  19  34  55  81 111 142 183 229 274 324
#     4  12  24  39  56  77 110 149 186 227 279 333
#     4   9  18  32  56  85 114 145 186 230 279 329
#
# _framework density 17.754322999999999
#
# number of rings (size 3 to 8) (size 9 to 14) (size 15 to 20)
#    1.200    0.400    0.000    7.200    0.000    0.000 
#    0.000    0.000    0.000    1.200    0.000    5.600 
#    0.000    0.000    0.000    0.000    0.000    0.000 
#
# Total GULP energy -247894.903976 kJ/mol
# GULP energy per Si atom -12394.745199 kJ/mol
# Density = 1.771391 g / cm^3
# Si number density = 17.754323 Si / 1000 Ang^3
#
#
#
# Elastic Constant Matrix: (Units=GPa)
#
#
# Indices 1 2 3 4 5 6 
#
# 1 107.1698 21.0839 8.4118 0.0004 0.0002 0.0000
# 2 21.0839 86.3632 22.8930 0.0001 0.0001 0.0000
# 3 8.4118 22.8930 71.0543 0.0007 0.0004 0.0000
# 4 0.0004 0.0001 0.0007 21.7915 0.0001 0.0001
# 5 0.0002 0.0001 0.0004 0.0001 30.6424 0.0001
# 6 0.0000 0.0000 0.0000 0.0001 0.0001 31.8751
#
#
#
# Elastic Compliance Matrix: (Units=1/GPa)
#
#
# Indices 1 2 3 4 5 6 
#
# 1 0.009814 -0.002283 -0.000426 0.000000 0.000000 0.000000
# 2 -0.002283 0.013191 -0.003980 0.000000 0.000000 0.000000
# 3 -0.000426 -0.003980 0.015406 0.000000 0.000000 0.000000
# 4 0.000000 0.000000 0.000000 0.045889 0.000000 0.000000
# 5 0.000000 0.000000 0.000000 0.000000 0.032634 0.000000
# 6 0.000000 0.000000 0.000000 0.000000 0.000000 0.031372
#
#
# Mechanical properties :
#
#
# Convention : Reuss Voigt Hill
#
# Bulk Modulus (GPa) = 39.94658 41.04054 40.49356
# Shear Modulus (GPa) = 29.40657 31.00838 30.20747
#
# Velocity S-wave (km/s) = 4.07419 4.18368 4.12930
# Velocity P-wave (km/s) = 6.68435 6.81935 6.75219
#
# Compressibility (1/GPa) = 0.02503343
#
# Stress axis : x y z
#
# Youngs Moduli (GPa) = 101.89990 75.80762 64.90773
#
# Poissons Ratio (x) = 0.17305 0.02767
# Poissons Ratio (y) = 0.23262 0.25832
# Poissons Ratio (z) = 0.04344 0.30170
#
# Static dielectric constant tensor:
#      x y z
#    x 3.366280 0.000000 0.000000 
#    y 0.000000 3.235590 0.000000 
#    z 0.000000 0.000000 3.081380 
# 
# 
# High freq. dielectric constant tensor:
#      x y z
#    x 1.709270 0.000000 0.000000 
#    y 0.000000 1.674960 0.000000 
#    z 0.000000 0.000000 1.658240 
# 
# From -- ./inp_files/3679.got.cif
#   From: 2010.03.12/outbox.cif.g09.slc.cpg/sg46_2_cif.got.tgz:3679.got - 2010.04.14 02:56:35.
