data_PCOD8192342
_publ_section_title
;
Structure prediction by ZEFSAII (Michael W. Deem and Ramdas Pophale) SiO2 
 PCOD8192342
Probable space group: I M A 2
;
_chemical_formula_sum "Si O2"
_cell_formula_units_Z 56
_cell_length_a 9.074229
_cell_length_b 14.085332
_cell_length_c 22.650708
_cell_angle_alpha 90.000000
_cell_angle_beta 90.000000
_cell_angle_gamma 90.000000
_cell_volume 2895.066904
_symmetry_space_group_name_H-M "I M A 2"
_symmetry_group_IT_number 46
_symmetry_cell_setting 'orthorhombic'
loop_
_space_group_symop_operation_xyz
x,y,z
-x,-y,z
1/2-x,y,z
1/2+x,-y,z
1/2+x,1/2+y,1/2+z
1/2-x,1/2-y,1/2+z
-x,1/2+y,1/2+z
x,1/2-y,1/2+z
loop_
_atom_site_type_symbol
_atom_site_label
_atom_site_fract_x
_atom_site_fract_y
_atom_site_fract_z
Si Si1 0.588566 0.648026 0.053840
Si Si2 0.920867 0.089194 0.124525
Si Si3 0.925850 0.601958 0.271853
Si Si4 0.577283 0.200570 0.664281
Si Si5 0.924986 0.796743 0.890649
Si Si6 0.423829 0.092443 0.426745
Si Si7 0.587689 0.638243 0.513515
O O1 0.750000 0.610946 0.075100
O O2 0.471009 0.639250 0.106959
O O3 0.607201 0.755019 0.033995
O O4 0.533193 0.591437 0.996321
O O5 0.750000 0.069585 0.126500
O O6 0.960823 0.188268 0.155796
O O7 0.972986 0.086684 0.056301
O O8 0.000000 0.000000 0.157308
O O9 0.750000 0.591632 0.269439
O O10 0.981440 0.652981 0.331497
O O11 0.000000 0.500000 0.267064
O O12 0.981202 0.667550 0.219091
O O13 0.750000 0.183494 0.675090
O O14 0.750000 0.791371 0.892912
O O15 0.985195 0.688284 0.895158
O O16 0.977138 0.860528 0.946635
O O17 0.250000 0.084475 0.418027
O O18 0.500000 0.000000 0.397523
O O19 0.750000 0.589182 0.516574
#
# Coordination Sequence:
#
# PCOD8192342 Si02
#       7
#     8   8   8   8   8   8   8
#     4   8  15  29  50  74 103 140 174 207 254 308
#     4  10  20  33  52  80 112 143 176 215 260 315
#     4  11  23  40  60  78 100 134 177 222 268 316
#     4  10  21  37  55  78 108 139 178 225 266 309
#     4   8  17  35  56  77 105 141 176 213 259 313
#     4   9  17  31  52  80 111 141 174 209 253 311
#     4   8  14  29  52  75 102 136 173 211 254 304
#
# _framework density 19.343249
#
# number of rings (size 3 to 8) (size 9 to 14) (size 15 to 20)
#    0.000    2.857    0.000    3.000    0.000    3.429 
#    0.000    8.571    0.000    3.429    0.000    0.000 
#    0.000    0.000    0.000    0.000    0.000    0.000 
#
# Total GULP energy -347002.061531 kJ/mol
# GULP energy per Si atom -12392.930769 kJ/mol
# Density = 1.929922 g / cm^3
# Si number density = 19.343249 Si / 1000 Ang^3
#
#
#
# Elastic Constant Matrix: (Units=GPa)
#
#
# Indices 1 2 3 4 5 6 
#
# 1 76.3187 47.1934 43.4226 0.0000 0.0000 0.0000
# 2 47.1934 107.8154 42.7540 0.0000 0.0000 0.0000
# 3 43.4226 42.7540 109.2290 0.0000 0.0000 0.0000
# 4 0.0000 0.0000 0.0000 20.0622 0.0000 0.0000
# 5 0.0000 0.0000 0.0000 0.0000 17.7537 0.0000
# 6 0.0000 0.0000 0.0000 0.0000 0.0000 30.6461
#
#
#
# Elastic Compliance Matrix: (Units=1/GPa)
#
#
# Indices 1 2 3 4 5 6 
#
# 1 0.020389 -0.006760 -0.005460 0.000000 0.000000 0.000000
# 2 -0.006760 0.013220 -0.002487 0.000000 0.000000 0.000000
# 3 -0.005460 -0.002487 0.012299 0.000000 0.000000 0.000000
# 4 0.000000 0.000000 0.000000 0.049845 0.000000 0.000000
# 5 0.000000 0.000000 0.000000 0.000000 0.056326 0.000000
# 6 0.000000 0.000000 0.000000 0.000000 0.000000 0.032631
#
#
# Mechanical properties :
#
#
# Convention : Reuss Voigt Hill
#
# Bulk Modulus (GPa) = 60.62399 62.23368 61.42884
# Shear Modulus (GPa) = 22.76629 24.35862 23.56245
#
# Velocity S-wave (km/s) = 3.43441 3.55249 3.49395
# Velocity P-wave (km/s) = 6.86557 7.00500 6.93564
#
# Compressibility (1/GPa) = 0.01649512
#
# Stress axis : x y z
#
# Youngs Moduli (GPa) = 49.04496 75.64029 81.30692
#
# Poissons Ratio (x) = 0.51132 0.44390
# Poissons Ratio (y) = 0.33154 0.20224
# Poissons Ratio (z) = 0.26777 0.18815
#
# Static dielectric constant tensor:
#      x y z
#    x 3.462320 0.000000 0.000000 
#    y 0.000000 3.686180 0.000000 
#    z 0.000000 0.000000 3.671300 
# 
# 
# High freq. dielectric constant tensor:
#      x y z
#    x 1.739070 0.000000 0.000000 
#    y 0.000000 1.757150 0.000000 
#    z 0.000000 0.000000 1.732780 
# 
# From -- ./inp_files/21110.got.cif
#   From: 2010.03.12/outbox.cif.g09.slc.cpg/sg46_11_cif.got.tgz:21110.got - 2010.04.14 02:56:35.
