data_PCOD8192690
_publ_section_title
;
Structure prediction by ZEFSAII (Michael W. Deem and Ramdas Pophale) SiO2 
 PCOD8192690
Probable space group: I M A 2
;
_chemical_formula_sum "Si O2"
_cell_formula_units_Z 64
_cell_length_a 17.996251
_cell_length_b 18.418612
_cell_length_c 9.728577
_cell_angle_alpha 90.000000
_cell_angle_beta 90.000000
_cell_angle_gamma 90.000000
_cell_volume 3224.692160
_symmetry_space_group_name_H-M "I M A 2"
_symmetry_group_IT_number 46
_symmetry_cell_setting 'orthorhombic'
loop_
_space_group_symop_operation_xyz
x,y,z
-x,-y,z
1/2-x,y,z
1/2+x,-y,z
1/2+x,1/2+y,1/2+z
1/2-x,1/2-y,1/2+z
-x,1/2+y,1/2+z
x,1/2-y,1/2+z
loop_
_atom_site_type_symbol
_atom_site_label
_atom_site_fract_x
_atom_site_fract_y
_atom_site_fract_z
Si Si1 0.902627 0.823981 0.755180
Si Si2 0.079447 0.832415 0.041021
Si Si3 0.580019 0.894583 0.037149
Si Si4 0.336384 0.081330 0.528919
Si Si5 0.838001 0.672588 0.777386
Si Si6 0.568479 0.197575 0.725313
Si Si7 0.665911 0.468350 0.493980
Si Si8 0.664368 0.440421 0.177554
O O1 0.848619 0.855810 0.640430
O O2 0.871107 0.750087 0.820187
O O3 0.982833 0.813343 0.684710
O O4 0.907518 0.881191 0.877166
O O5 0.095732 0.771886 0.155300
O O6 0.148377 0.887598 0.047645
O O7 0.005220 0.878549 0.075524
O O8 0.075662 0.795845 0.890118
O O9 0.633569 0.843343 0.125144
O O10 0.606068 0.977363 0.062741
O O11 0.250000 0.068441 0.515268
O O12 0.367910 0.110493 0.383070
O O13 0.369237 0.002902 0.575652
O O14 0.750000 0.677026 0.780536
O O15 0.615660 0.131780 0.661012
O O16 0.750000 0.488873 0.538660
O O17 0.657595 0.471764 0.330330
O O18 0.750000 0.421158 0.143496
#
# Coordination Sequence:
#
# PCOD8192690 Si02
#       8
#     8   8   8   8   8   8   8   8
#     4  11  21  35  60  82 117 157 197 233 286 348
#     4  10  22  40  61  87 120 152 195 246 291 346
#     4  11  21  37  60  84 119 155 190 237 289 346
#     4  10  21  37  57  85 120 153 195 241 287 345
#     4  11  23  35  54  88 123 153 189 235 291 350
#     4  10  22  38  61  87 116 151 198 243 290 350
#     4  10  20  37  63  90 115 153 201 241 287 346
#     4   9  19  39  63  86 113 151 198 247 290 341
#
# _framework density 19.846855000000001
#
# number of rings (size 3 to 8) (size 9 to 14) (size 15 to 20)
#    0.000    1.750    2.500    1.875    1.750    3.500 
#    2.250    0.000    2.750    0.000    0.000    0.000 
#    0.000    0.000    0.000    0.000    0.000    0.000 
#
# Total GULP energy -396772.899327 kJ/mol
# GULP energy per Si atom -12399.153104 kJ/mol
# Density = 1.980168 g / cm^3
# Si number density = 19.846855 Si / 1000 Ang^3
#
#
#
# Elastic Constant Matrix: (Units=GPa)
#
#
# Indices 1 2 3 4 5 6 
#
# 1 69.7912 45.1052 22.0298 0.0000 0.0000 0.0000
# 2 45.1052 105.5811 26.3497 0.0000 0.0000 0.0000
# 3 22.0298 26.3497 40.5607 0.0000 0.0000 0.0000
# 4 0.0000 0.0000 0.0000 36.9742 0.0000 0.0000
# 5 0.0000 0.0000 0.0000 0.0000 21.8815 0.0000
# 6 0.0000 0.0000 0.0000 0.0000 0.0000 33.2915
#
#
#
# Elastic Compliance Matrix: (Units=1/GPa)
#
#
# Indices 1 2 3 4 5 6 
#
# 1 0.021228 -0.007390 -0.006729 0.000000 0.000000 0.000000
# 2 -0.007390 0.013876 -0.005001 0.000000 0.000000 0.000000
# 3 -0.006729 -0.005001 0.031558 0.000000 0.000000 0.000000
# 4 0.000000 0.000000 0.000000 0.027046 0.000000 0.000000
# 5 0.000000 0.000000 0.000000 0.000000 0.045701 0.000000
# 6 0.000000 0.000000 0.000000 0.000000 0.000000 0.030038
#
#
# Mechanical properties :
#
#
# Convention : Reuss Voigt Hill
#
# Bulk Modulus (GPa) = 35.18268 44.76695 39.97482
# Shear Modulus (GPa) = 23.02434 26.59266 24.80850
#
# Velocity S-wave (km/s) = 3.40972 3.66443 3.53936
# Velocity P-wave (km/s) = 5.76777 6.36468 6.07356
#
# Compressibility (1/GPa) = 0.02842307
#
# Stress axis : x y z
#
# Youngs Moduli (GPa) = 47.10685 72.06494 31.68743
#
# Poissons Ratio (x) = 0.53252 0.21323
# Poissons Ratio (y) = 0.34810 0.15847
# Poissons Ratio (z) = 0.31700 0.36041
#
# Static dielectric constant tensor:
#      x y z
#    x 3.570300 0.000000 0.000000 
#    y 0.000000 3.656260 0.000000 
#    z 0.000000 0.000000 3.579140 
# 
# 
# High freq. dielectric constant tensor:
#      x y z
#    x 1.766900 0.000000 0.000000 
#    y 0.000000 1.779680 0.000000 
#    z 0.000000 0.000000 1.758360 
# 
# From -- ./inp_files/7568.got.cif
#   From: 2010.03.12/outbox.cif.g09.slc.cpg/sg46_4_cif.got.tgz:7568.got - 2010.04.14 02:56:35.
