data_PCOD8192695
_publ_section_title
;
Structure prediction by ZEFSAII (Michael W. Deem and Ramdas Pophale) SiO2 
 PCOD8192695
Probable space group: I M A 2
;
_chemical_formula_sum "Si O2"
_cell_formula_units_Z 64
_cell_length_a 24.161902
_cell_length_b 23.784045
_cell_length_c 4.986981
_cell_angle_alpha 90.000000
_cell_angle_beta 90.000000
_cell_angle_gamma 90.000000
_cell_volume 2865.857223
_symmetry_space_group_name_H-M "I M A 2"
_symmetry_group_IT_number 46
_symmetry_cell_setting 'orthorhombic'
loop_
_space_group_symop_operation_xyz
x,y,z
-x,-y,z
1/2-x,y,z
1/2+x,-y,z
1/2+x,1/2+y,1/2+z
1/2-x,1/2-y,1/2+z
-x,1/2+y,1/2+z
x,1/2-y,1/2+z
loop_
_atom_site_type_symbol
_atom_site_label
_atom_site_fract_x
_atom_site_fract_y
_atom_site_fract_z
Si Si1 0.424894 0.216447 0.753440
Si Si2 0.688851 0.596157 0.802441
Si Si3 0.005451 0.379278 0.029105
Si Si4 0.928760 0.289802 0.780892
Si Si5 0.086354 0.024251 0.354993
Si Si6 0.053915 0.965642 0.840077
Si Si7 0.188832 0.329678 0.304570
Si Si8 0.309342 0.786779 0.374250
O O1 0.446543 0.262061 0.539334
O O2 0.448423 0.154725 0.696632
O O3 0.358030 0.215868 0.738539
O O4 0.750000 0.570451 0.751032
O O5 0.643299 0.549243 0.745581
O O6 0.678600 0.648481 0.604927
O O7 0.683335 0.617522 0.105562
O O8 0.973574 0.338999 0.821095
O O9 0.960635 0.402034 0.248940
O O10 0.037900 0.428015 0.863263
O O11 0.936664 0.238418 0.990737
O O12 0.867140 0.318861 0.810199
O O13 0.098723 0.994111 0.639050
O O14 0.069890 0.973754 0.149637
O O15 0.000000 0.000000 0.764449
O O16 0.250000 0.301850 0.275408
O O17 0.250000 0.819587 0.323078
O O18 0.310117 0.731743 0.183940
#
# Coordination Sequence:
#
# PCOD8192695 Si02
#       8
#     8   8   8   8   8   8   8   8
#     4  12  26  39  58  87 121 167 207 245 306 360
#     4  10  20  37  64  90 114 152 202 255 309 364
#     4  11  24  41  60  86 125 158 193 251 292 362
#     4  10  21  36  55  84 118 156 195 230 284 348
#     4  11  22  39  63  87 114 148 198 249 304 358
#     4  10  23  38  58  88 111 147 194 240 301 357
#     4  10  21  39  59  84 117 159 206 256 305 351
#     4   8  14  27  49  75 104 140 185 229 263 313
#
# _framework density 22.331887999999999
#
# number of rings (size 3 to 8) (size 9 to 14) (size 15 to 20)
#    0.000    1.750    1.250    3.375    1.750    4.500 
#    0.000    0.000    0.000    1.500    0.000    1.750 
#    0.000    0.000    0.000    0.000    0.000    0.250 
#
# Total GULP energy -396562.335338 kJ/mol
# GULP energy per Si atom -12392.572979 kJ/mol
# Density = 2.228106 g / cm^3
# Si number density = 22.331888 Si / 1000 Ang^3
#
#
#
# Elastic Constant Matrix: (Units=GPa)
#
#
# Indices 1 2 3 4 5 6 
#
# 1 100.5364 17.4344 4.9094 0.0000 0.0000 0.0000
# 2 17.4344 45.8137 9.0196 0.0000 0.0000 0.0000
# 3 4.9094 9.0196 78.6831 0.0000 0.0000 0.0000
# 4 0.0000 0.0000 0.0000 21.0136 0.0000 0.0000
# 5 0.0000 0.0000 0.0000 0.0000 17.8929 0.0000
# 6 0.0000 0.0000 0.0000 0.0000 0.0000 29.2331
#
#
#
# Elastic Compliance Matrix: (Units=1/GPa)
#
#
# Indices 1 2 3 4 5 6 
#
# 1 0.010653 -0.004014 -0.000205 0.000000 0.000000 0.000000
# 2 -0.004014 0.023844 -0.002483 0.000000 0.000000 0.000000
# 3 -0.000205 -0.002483 0.013007 0.000000 0.000000 0.000000
# 4 0.000000 0.000000 0.000000 0.047588 0.000000 0.000000
# 5 0.000000 0.000000 0.000000 0.000000 0.055888 0.000000
# 6 0.000000 0.000000 0.000000 0.000000 0.000000 0.034208
#
#
# Mechanical properties :
#
#
# Convention : Reuss Voigt Hill
#
# Bulk Modulus (GPa) = 29.32469 31.97332 30.64901
# Shear Modulus (GPa) = 23.81451 26.53924 25.17688
#
# Velocity S-wave (km/s) = 3.26911 3.45106 3.36131
# Velocity P-wave (km/s) = 5.23538 5.49802 5.36830
#
# Compressibility (1/GPa) = 0.03410096
#
# Stress axis : x y z
#
# Youngs Moduli (GPa) = 93.87338 41.93982 76.88413
#
# Poissons Ratio (x) = 0.16833 0.01573
# Poissons Ratio (y) = 0.37677 0.19089
# Poissons Ratio (z) = 0.01920 0.10413
#
# Static dielectric constant tensor:
#      x y z
#    x 4.482660 0.000000 0.000000 
#    y 0.000000 3.615720 0.000000 
#    z 0.000000 0.000000 4.054090 
# 
# 
# High freq. dielectric constant tensor:
#      x y z
#    x 1.889390 0.000000 0.000000 
#    y 0.000000 1.822270 0.000000 
#    z 0.000000 0.000000 1.897520 
# 
# From -- ./inp_files/2617.got.cif
#   From: 2010.03.12/outbox.cif.g09.slc.cpg/sg46_2_cif.got.tgz:2617.got - 2010.04.14 02:56:35.
