data_PCOD8192058
_publ_section_title
;
Structure prediction by ZEFSAII (Michael W. Deem and Ramdas Pophale) SiO2 
 PCOD8192058
Probable space group: I M A 2
;
_chemical_formula_sum "Si O2"
_cell_formula_units_Z 64
_cell_length_a 8.946393
_cell_length_b 24.886752
_cell_length_c 14.867688
_cell_angle_alpha 90.000000
_cell_angle_beta 90.000000
_cell_angle_gamma 90.000000
_cell_volume 3310.241133
_symmetry_space_group_name_H-M "I M A 2"
_symmetry_group_IT_number 46
_symmetry_cell_setting 'orthorhombic'
loop_
_space_group_symop_operation_xyz
x,y,z
-x,-y,z
1/2-x,y,z
1/2+x,-y,z
1/2+x,1/2+y,1/2+z
1/2-x,1/2-y,1/2+z
-x,1/2+y,1/2+z
x,1/2-y,1/2+z
loop_
_atom_site_type_symbol
_atom_site_label
_atom_site_fract_x
_atom_site_fract_y
_atom_site_fract_z
Si Si1 0.576547 0.385216 0.426800
Si Si2 0.573079 0.442540 0.242512
Si Si3 0.577454 0.777390 0.906927
Si Si4 0.921378 0.761796 0.699476
Si Si5 0.572497 0.868041 0.598503
Si Si6 0.575660 0.055742 0.106019
Si Si7 0.074093 0.654076 0.724080
Si Si8 0.573416 0.331577 0.928455
O O1 0.750000 0.368890 0.428811
O O2 0.529774 0.408705 0.330664
O O3 0.480271 0.332645 0.449547
O O4 0.539932 0.429152 0.502920
O O5 0.500000 0.500000 0.254328
O O6 0.750000 0.448126 0.231144
O O7 0.503810 0.414949 0.155104
O O8 0.750000 0.768497 0.932627
O O9 0.551242 0.780843 0.800777
O O10 0.482945 0.728666 0.948186
O O11 0.750000 0.748684 0.680506
O O12 0.977819 0.810238 0.637157
O O13 0.010681 0.707663 0.677269
O O14 0.750000 0.875928 0.600793
O O15 0.509332 0.871869 0.497133
O O16 0.750000 0.048542 0.122235
O O17 0.511993 0.101948 0.172221
O O18 0.500000 0.000000 0.131689
O O19 0.250000 0.658092 0.714355
O O20 0.025092 0.650485 0.828296
O O21 0.750000 0.334644 0.942586
#
# Coordination Sequence:
#
# PCOD8192058 Si02
#       8
#     8   8   8   8   8   8   8   8
#     4  10  21  36  56  85 119 154 193 234 286 348
#     4  11  23  39  60  85 117 158 199 243 294 350
#     4  10  19  34  55  83 118 155 191 232 283 342
#     4   9  19  34  54  82 115 148 186 231 283 341
#     4  11  22  38  58  86 119 153 196 244 292 350
#     4  10  22  40  59  84 113 148 193 241 287 341
#     4   9  20  38  59  82 113 150 193 240 289 343
#     4  10  21  37  57  83 117 156 194 241 294 348
#
# _framework density 19.333939999999998
#
# number of rings (size 3 to 8) (size 9 to 14) (size 15 to 20)
#    0.000    2.000    1.250    1.875    1.750    3.500 
#    0.000    0.625    0.000    1.500    0.000    0.000 
#    0.000    0.000    0.000    0.000    0.000    0.000 
#
# Total GULP energy -396913.359243 kJ/mol
# GULP energy per Si atom -12403.542476 kJ/mol
# Density = 1.928994 g / cm^3
# Si number density = 19.333940 Si / 1000 Ang^3
#
#
#
# Elastic Constant Matrix: (Units=GPa)
#
#
# Indices 1 2 3 4 5 6 
#
# 1 63.4221 35.3588 26.9686 0.0001 0.0000 0.0000
# 2 35.3588 90.2026 18.5740 0.0000 0.0000 0.0000
# 3 26.9686 18.5740 57.0192 -0.0003 0.0000 0.0000
# 4 0.0001 0.0000 -0.0003 27.6462 0.0000 0.0000
# 5 0.0000 0.0000 0.0000 0.0000 25.0251 0.0000
# 6 0.0000 0.0000 0.0000 0.0000 0.0000 37.9289
#
#
#
# Elastic Compliance Matrix: (Units=1/GPa)
#
#
# Indices 1 2 3 4 5 6 
#
# 1 0.023655 -0.007470 -0.008755 0.000000 0.000000 0.000000
# 2 -0.007470 0.014242 -0.001106 0.000000 0.000000 0.000000
# 3 -0.008755 -0.001106 0.022039 0.000000 0.000000 0.000000
# 4 0.000000 0.000000 0.000000 0.036171 0.000000 0.000000
# 5 0.000000 0.000000 0.000000 0.000000 0.039960 0.000000
# 6 0.000000 0.000000 0.000000 0.000000 0.000000 0.026365
#
#
# Mechanical properties :
#
#
# Convention : Reuss Voigt Hill
#
# Bulk Modulus (GPa) = 39.56619 41.38298 40.47458
# Shear Modulus (GPa) = 24.32874 26.76957 25.54915
#
# Velocity S-wave (km/s) = 3.55116 3.72504 3.63914
# Velocity P-wave (km/s) = 6.10929 6.32076 6.21592
#
# Compressibility (1/GPa) = 0.02527411
#
# Stress axis : x y z
#
# Youngs Moduli (GPa) = 42.27514 70.21465 45.37383
#
# Poissons Ratio (x) = 0.52448 0.39724
# Poissons Ratio (y) = 0.31578 0.05020
# Poissons Ratio (z) = 0.37011 0.07768
#
# Static dielectric constant tensor:
#      x y z
#    x 3.460230 0.000000 0.000000 
#    y 0.000000 3.565530 0.000000 
#    z 0.000000 0.000000 3.675870 
# 
# 
# High freq. dielectric constant tensor:
#      x y z
#    x 1.752040 0.000000 0.000000 
#    y 0.000000 1.744240 0.000000 
#    z 0.000000 0.000000 1.757240 
# 
# From -- ./inp_files/14443.got.cif
#   From: 2010.03.12/outbox.cif.g09.slc.cpg/sg46_8_cif.got.tgz:14443.got - 2010.04.14 02:56:35.
