data_PCOD8192525
_publ_section_title
;
Structure prediction by ZEFSAII (Michael W. Deem and Ramdas Pophale) SiO2 
 PCOD8192525
Probable space group: I M A 2
;
_chemical_formula_sum "Si O2"
_cell_formula_units_Z 56
_cell_length_a 14.153654
_cell_length_b 13.913491
_cell_length_c 13.861331
_cell_angle_alpha 90.000000
_cell_angle_beta 90.000000
_cell_angle_gamma 90.000000
_cell_volume 2729.666692
_symmetry_space_group_name_H-M "I M A 2"
_symmetry_group_IT_number 46
_symmetry_cell_setting 'orthorhombic'
loop_
_space_group_symop_operation_xyz
x,y,z
-x,-y,z
1/2-x,y,z
1/2+x,-y,z
1/2+x,1/2+y,1/2+z
1/2-x,1/2-y,1/2+z
-x,1/2+y,1/2+z
x,1/2-y,1/2+z
loop_
_atom_site_type_symbol
_atom_site_label
_atom_site_fract_x
_atom_site_fract_y
_atom_site_fract_z
Si Si1 0.145470 0.266728 0.186270
Si Si2 0.549953 0.292956 0.739719
Si Si3 0.857373 0.583687 0.344707
Si Si4 0.142525 0.238407 0.461113
Si Si5 0.641325 0.127791 0.853484
Si Si6 0.857726 0.252594 0.542193
Si Si7 0.022389 0.609453 0.923725
O O1 0.250000 0.223283 0.209315
O O2 0.134577 0.370237 0.238020
O O3 0.133395 0.280072 0.073348
O O4 0.062480 0.197191 0.221781
O O5 0.575760 0.188773 0.782300
O O6 0.605855 0.303797 0.639733
O O7 0.576797 0.374366 0.820368
O O8 0.750000 0.562910 0.373654
O O9 0.897403 0.657412 0.426323
O O10 0.905151 0.478642 0.348674
O O11 0.250000 0.226434 0.423889
O O12 0.078724 0.159786 0.409148
O O13 0.750000 0.132648 0.816957
O O14 0.633483 0.165644 0.962018
O O15 0.750000 0.218360 0.556083
O O16 0.918629 0.158561 0.511177
O O17 0.000000 0.500000 0.948483
#
# Coordination Sequence:
#
# PCOD8192525 Si02
#       7
#     8   8   8   8   8   8   8
#     4  10  20  35  58  86 119 153 192 241 298 354
#     4  11  21  39  61  88 121 161 199 248 305 360
#     4   9  18  36  60  88 118 149 190 242 297 351
#     4  10  20  38  61  86 118 154 194 246 302 358
#     4   9  20  38  62  90 118 151 197 247 299 359
#     4  10  22  43  64  87 121 162 206 254 302 360
#     4  11  24  41  60  90 123 163 209 252 307 370
#
# _framework density 20.515325000000001
#
# number of rings (size 3 to 8) (size 9 to 14) (size 15 to 20)
#    0.000    2.000    2.857    0.429    0.000    2.857 
#    2.571    1.429    0.000    0.000    0.000    0.000 
#    0.000    0.000    0.000    0.000    0.000    0.000 
#
# Total GULP energy -346979.149736 kJ/mol
# GULP energy per Si atom -12392.112491 kJ/mol
# Density = 2.046863 g / cm^3
# Si number density = 20.515325 Si / 1000 Ang^3
#
#
#
# Elastic Constant Matrix: (Units=GPa)
#
#
# Indices 1 2 3 4 5 6 
#
# 1 94.8466 7.7088 19.3936 0.0000 0.0000 0.0000
# 2 7.7088 87.4868 23.1518 0.0000 0.0000 0.0000
# 3 19.3936 23.1518 126.4933 0.0000 0.0000 0.0000
# 4 0.0000 0.0000 0.0000 14.8761 0.0000 0.0000
# 5 0.0000 0.0000 0.0000 0.0000 -8.7253 0.0000
# 6 0.0000 0.0000 0.0000 0.0000 0.0000 22.2125
#
#
#
# Elastic Compliance Matrix: (Units=1/GPa)
#
#
# Indices 1 2 3 4 5 6 
#
# 1 0.010909 -0.000545 -0.001573 0.000000 0.000000 0.000000
# 2 -0.000545 0.012039 -0.002120 0.000000 0.000000 0.000000
# 3 -0.001573 -0.002120 0.008535 0.000000 0.000000 0.000000
# 4 0.000000 0.000000 0.000000 0.067222 0.000000 0.000000
# 5 0.000000 0.000000 0.000000 0.000000 -0.114609 0.000000
# 6 0.000000 0.000000 0.000000 0.000000 0.000000 0.045020
#
#
# Mechanical properties :
#
#
# Convention : Reuss Voigt Hill
#
# Bulk Modulus (GPa) = 43.46384 45.48168 44.47276
# Shear Modulus (GPa) = 110.46980 22.91081 66.69031
#
# Velocity S-wave (km/s) = 7.34604 3.34543 5.70773
# Velocity P-wave (km/s) = 9.65321 6.09428 8.07232
#
# Compressibility (1/GPa) = 0.02300763
#
# Stress axis : x y z
#
# Youngs Moduli (GPa) = 91.66543 83.06105 117.16856
#
# Poissons Ratio (x) = 0.04527 0.18428
# Poissons Ratio (y) = 0.04996 0.24839
# Poissons Ratio (z) = 0.14417 0.17609
#
# Static dielectric constant tensor:
#      x y z
#    x 4.043230 0.000000 0.000000 
#    y 0.000000 3.513760 0.000000 
#    z 0.000000 0.000000 3.879070 
# 
# 
# High freq. dielectric constant tensor:
#      x y z
#    x 1.816900 0.000000 0.000000 
#    y 0.000000 1.762990 0.000000 
#    z 0.000000 0.000000 1.812860 
# 
# From -- ./inp_files/15940.got.cif
#   From: 2010.03.12/outbox.cif.g09.slc.cpg/sg46_8_cif.got.tgz:15940.got - 2010.04.14 02:56:35.
