data_PCOD8192802
_publ_section_title
;
Structure prediction by ZEFSAII (Michael W. Deem and Ramdas Pophale) SiO2 
 PCOD8192802
Probable space group: I M A 2
;
_chemical_formula_sum "Si O2"
_cell_formula_units_Z 64
_cell_length_a 17.564105
_cell_length_b 12.208925
_cell_length_c 14.603108
_cell_angle_alpha 90.000000
_cell_angle_beta 90.000000
_cell_angle_gamma 90.000000
_cell_volume 3131.473549
_symmetry_space_group_name_H-M "I M A 2"
_symmetry_group_IT_number 46
_symmetry_cell_setting 'orthorhombic'
loop_
_space_group_symop_operation_xyz
x,y,z
-x,-y,z
1/2-x,y,z
1/2+x,-y,z
1/2+x,1/2+y,1/2+z
1/2-x,1/2-y,1/2+z
-x,1/2+y,1/2+z
x,1/2-y,1/2+z
loop_
_atom_site_type_symbol
_atom_site_label
_atom_site_fract_x
_atom_site_fract_y
_atom_site_fract_z
Si Si1 0.583195 0.031135 0.233560
Si Si2 0.423837 0.260246 0.483319
Si Si3 0.962444 0.240395 0.653350
Si Si4 0.337961 0.451119 0.912025
Si Si5 0.482241 0.624122 0.328134
Si Si6 0.837320 0.945916 0.065579
Si Si7 0.336235 0.858205 0.931171
Si Si8 0.834519 0.143735 0.549065
O O1 0.580516 0.148354 0.183453
O O2 0.500000 0.000000 0.268509
O O3 0.637292 0.020161 0.322066
O O4 0.611728 0.945561 0.157140
O O5 0.478746 0.242676 0.569727
O O6 0.393105 0.151499 0.433168
O O7 0.471640 0.332944 0.414113
O O8 0.351107 0.331213 0.514379
O O9 0.007685 0.194329 0.740461
O O10 0.895663 0.154204 0.629468
O O11 0.250000 0.413933 0.899211
O O12 0.346524 0.529097 0.998883
O O13 0.500000 0.500000 0.307370
O O14 0.391737 0.637553 0.344367
O O15 0.750000 0.955575 0.094953
O O16 0.861067 0.047309 0.001811
O O17 0.250000 0.876316 0.896738
O O18 0.347248 0.741387 0.977683
O O19 0.750000 0.150489 0.591576
#
# Coordination Sequence:
#
# PCOD8192802 Si02
#       8
#     8   8   8   8   8   8   8   8
#     4  12  23  41  69 104 132 170 236 293 337 400
#     4  12  25  45  70  97 139 182 224 278 337 419
#     4  12  26  40  68 102 133 177 226 287 347 398
#     4  11  27  46  67  98 142 187 227 278 347 417
#     4  12  25  43  65 100 134 174 227 281 336 402
#     4  11  22  40  69  98 130 177 227 281 339 400
#     4  10  20  40  67  95 128 171 221 276 340 398
#     4  10  22  41  65  94 132 177 219 270 341 408
#
# _framework density 20.437663000000001
#
# number of rings (size 3 to 8) (size 9 to 14) (size 15 to 20)
#    0.000    0.750    5.000    2.250    3.500    1.000 
#    0.000    0.000    0.000    0.000    0.000    0.000 
#    0.000    0.000    0.000    0.000    0.000    0.000 
#
# Total GULP energy -396818.210318 kJ/mol
# GULP energy per Si atom -12400.569072 kJ/mol
# Density = 2.039115 g / cm^3
# Si number density = 20.437663 Si / 1000 Ang^3
#
#
#
# Elastic Constant Matrix: (Units=GPa)
#
#
# Indices 1 2 3 4 5 6 
#
# 1 81.3544 27.4741 32.9490 0.0000 0.0000 0.0000
# 2 27.4741 77.1948 18.3928 0.0000 0.0000 0.0000
# 3 32.9490 18.3928 93.5574 0.0000 0.0000 0.0000
# 4 0.0000 0.0000 0.0000 -22.1447 0.0000 0.0000
# 5 0.0000 0.0000 0.0000 0.0000 18.7218 0.0000
# 6 0.0000 0.0000 0.0000 0.0000 0.0000 25.3011
#
#
#
# Elastic Compliance Matrix: (Units=1/GPa)
#
#
# Indices 1 2 3 4 5 6 
#
# 1 0.015684 -0.004476 -0.004644 0.000000 0.000000 0.000000
# 2 -0.004476 0.014868 -0.001347 0.000000 0.000000 0.000000
# 3 -0.004644 -0.001347 0.012589 0.000000 0.000000 0.000000
# 4 0.000000 0.000000 0.000000 -0.045158 0.000000 0.000000
# 5 0.000000 0.000000 0.000000 0.000000 0.053414 0.000000
# 6 0.000000 0.000000 0.000000 0.000000 0.000000 0.039524
#
#
# Mechanical properties :
#
#
# Convention : Reuss Voigt Hill
#
# Bulk Modulus (GPa) = 45.02732 45.52648 45.27690
# Shear Modulus (GPa) = 41.92662 15.92837 28.92749
#
# Velocity S-wave (km/s) = 4.53420 2.79474 3.76626
# Velocity P-wave (km/s) = 7.03500 5.72173 6.41208
#
# Compressibility (1/GPa) = 0.02220874
#
# Stress axis : x y z
#
# Youngs Moduli (GPa) = 63.75886 67.25843 79.43555
#
# Poissons Ratio (x) = 0.30102 0.36888
# Poissons Ratio (y) = 0.28536 0.10698
# Poissons Ratio (z) = 0.29608 0.09058
#
# Static dielectric constant tensor:
#      x y z
#    x 3.913930 0.000000 0.000000 
#    y 0.000000 3.897080 0.000000 
#    z 0.000000 0.000000 3.613230 
# 
# 
# High freq. dielectric constant tensor:
#      x y z
#    x 1.807610 0.000000 0.000000 
#    y 0.000000 1.801180 0.000000 
#    z 0.000000 0.000000 1.795060 
# 
# From -- ./inp_files/16801.got.cif
#   From: 2010.03.12/outbox.cif.g09.slc.cpg/sg46_9_cif.got.tgz:16801.got - 2010.04.14 02:56:35.
