data_PCOD8192417
_publ_section_title
;
Structure prediction by ZEFSAII (Michael W. Deem and Ramdas Pophale) SiO2 
 PCOD8192417
Probable space group: I M A 2
;
_chemical_formula_sum "Si O2"
_cell_formula_units_Z 56
_cell_length_a 8.739085
_cell_length_b 14.469180
_cell_length_c 21.978326
_cell_angle_alpha 90.000000
_cell_angle_beta 90.000000
_cell_angle_gamma 90.000000
_cell_volume 2779.102045
_symmetry_space_group_name_H-M "I M A 2"
_symmetry_group_IT_number 46
_symmetry_cell_setting 'orthorhombic'
loop_
_space_group_symop_operation_xyz
x,y,z
-x,-y,z
1/2-x,y,z
1/2+x,-y,z
1/2+x,1/2+y,1/2+z
1/2-x,1/2-y,1/2+z
-x,1/2+y,1/2+z
x,1/2-y,1/2+z
loop_
_atom_site_type_symbol
_atom_site_label
_atom_site_fract_x
_atom_site_fract_y
_atom_site_fract_z
Si Si1 0.570279 0.292152 0.895360
Si Si2 0.570048 0.093681 0.722859
Si Si3 0.071074 0.403743 0.650619
Si Si4 0.569393 0.601481 0.006511
Si Si5 0.928749 0.093273 0.859366
Si Si6 0.930518 0.219979 0.614195
Si Si7 0.569978 0.596883 0.791873
O O1 0.750000 0.311134 0.904221
O O2 0.533138 0.182520 0.900615
O O3 0.517733 0.323412 0.828388
O O4 0.473519 0.347173 0.944484
O O5 0.750000 0.082269 0.722840
O O6 0.505904 0.110342 0.791026
O O7 0.521405 0.178072 0.679542
O O8 0.500000 0.000000 0.695215
O O9 0.250000 0.405347 0.637759
O O10 0.033328 0.386847 0.721287
O O11 0.000000 0.500000 0.628361
O O12 0.993998 0.323664 0.610754
O O13 0.500000 0.500000 0.006912
O O14 0.750000 0.593195 0.011568
O O15 0.505855 0.659457 0.062207
O O16 0.750000 0.077295 0.855405
O O17 0.000000 0.000000 0.888237
O O18 0.750000 0.220811 0.603794
O O19 0.500000 0.500000 0.814011
O O20 0.750000 0.598215 0.805768
#
# Coordination Sequence:
#
# PCOD8192417 Si02
#       7
#     8   8   8   8   8   8   8
#     4  11  22  38  59  83 113 151 194 239 290 343
#     4   9  18  32  53  83 116 149 183 224 276 333
#     4  10  21  37  58  86 119 154 192 236 287 343
#     4  12  26  44  63  85 114 148 190 237 287 343
#     4   9  19  35  56  83 115 148 183 226 276 331
#     4  11  22  38  60  85 115 152 194 238 286 340
#     4  10  20  34  55  85 119 154 191 234 286 343
#
# _framework density 20.150393999999999
#
# number of rings (size 3 to 8) (size 9 to 14) (size 15 to 20)
#    0.000    1.714    0.000    4.714    0.000    6.286 
#    0.000    3.571    0.000    1.714    0.000    0.000 
#    0.000    0.000    0.000    0.000    0.000    0.000 
#
# Total GULP energy -347279.859220 kJ/mol
# GULP energy per Si atom -12402.852115 kJ/mol
# Density = 2.010453 g / cm^3
# Si number density = 20.150394 Si / 1000 Ang^3
#
#
#
# Elastic Constant Matrix: (Units=GPa)
#
#
# Indices 1 2 3 4 5 6 
#
# 1 89.9093 63.0745 35.6506 0.0000 0.0000 0.0000
# 2 63.0745 175.3103 55.1078 0.0000 0.0000 0.0000
# 3 35.6506 55.1078 62.4504 0.0000 0.0000 0.0000
# 4 0.0000 0.0000 0.0000 35.8450 0.0000 0.0000
# 5 0.0000 0.0000 0.0000 0.0000 30.2796 0.0000
# 6 0.0000 0.0000 0.0000 0.0000 0.0000 38.4831
#
#
#
# Elastic Compliance Matrix: (Units=1/GPa)
#
#
# Indices 1 2 3 4 5 6 
#
# 1 0.016216 -0.004047 -0.005686 0.000000 0.000000 0.000000
# 2 -0.004047 0.008904 -0.005547 0.000000 0.000000 0.000000
# 3 -0.005686 -0.005547 0.024153 0.000000 0.000000 0.000000
# 4 0.000000 0.000000 0.000000 0.027898 0.000000 0.000000
# 5 0.000000 0.000000 0.000000 0.000000 0.033026 0.000000
# 6 0.000000 0.000000 0.000000 0.000000 0.000000 0.025985
#
#
# Mechanical properties :
#
#
# Convention : Reuss Voigt Hill
#
# Bulk Modulus (GPa) = 53.43674 70.59285 62.01480
# Shear Modulus (GPa) = 28.90528 32.51068 30.70798
#
# Velocity S-wave (km/s) = 3.79156 4.02107 3.90800
# Velocity P-wave (km/s) = 6.76346 7.52780 7.15584
#
# Compressibility (1/GPa) = 0.01871371
#
# Stress axis : x y z
#
# Youngs Moduli (GPa) = 61.66752 112.31190 41.40257
#
# Poissons Ratio (x) = 0.45452 0.23541
# Poissons Ratio (y) = 0.24957 0.22965
# Poissons Ratio (z) = 0.35064 0.62295
#
# Static dielectric constant tensor:
#      x y z
#    x 3.652310 0.000000 0.000000 
#    y 0.000000 3.807430 0.000000 
#    z 0.000000 0.000000 3.578770 
# 
# 
# High freq. dielectric constant tensor:
#      x y z
#    x 1.792740 0.000000 0.000000 
#    y 0.000000 1.801950 0.000000 
#    z 0.000000 0.000000 1.766370 
# 
# From -- ./inp_files/21073.got.cif
#   From: 2010.03.12/outbox.cif.g09.slc.cpg/sg46_11_cif.got.tgz:21073.got - 2010.04.14 02:56:35.
