data_PCOD8192135
_publ_section_title
;
Structure prediction by ZEFSAII (Michael W. Deem and Ramdas Pophale) SiO2 
 PCOD8192135
Probable space group: I M A 2
;
_chemical_formula_sum "Si O2"
_cell_formula_units_Z 64
_cell_length_a 8.979717
_cell_length_b 20.698229
_cell_length_c 19.503256
_cell_angle_alpha 90.000000
_cell_angle_beta 90.000000
_cell_angle_gamma 90.000000
_cell_volume 3624.957831
_symmetry_space_group_name_H-M "I M A 2"
_symmetry_group_IT_number 46
_symmetry_cell_setting 'orthorhombic'
loop_
_space_group_symop_operation_xyz
x,y,z
-x,-y,z
1/2-x,y,z
1/2+x,-y,z
1/2+x,1/2+y,1/2+z
1/2-x,1/2-y,1/2+z
-x,1/2+y,1/2+z
x,1/2-y,1/2+z
loop_
_atom_site_type_symbol
_atom_site_label
_atom_site_fract_x
_atom_site_fract_y
_atom_site_fract_z
Si Si1 0.078822 0.259208 0.701960
Si Si2 0.424966 0.878581 0.556167
Si Si3 0.922790 0.266881 0.567762
Si Si4 0.572463 0.433728 0.916066
Si Si5 0.922662 0.814035 0.347621
Si Si6 0.574828 0.376493 0.205777
Si Si7 0.924331 0.435354 0.345118
Si Si8 0.924069 0.193983 0.919523
O O1 0.250000 0.244094 0.687940
O O2 0.056841 0.306598 0.766090
O O3 0.010458 0.293425 0.634166
O O4 0.999568 0.192104 0.719166
O O5 0.250000 0.878631 0.546584
O O6 0.482204 0.805070 0.550392
O O7 0.489795 0.920724 0.493632
O O8 0.471763 0.906007 0.631345
O O9 0.750000 0.265135 0.587603
O O10 0.952796 0.310673 0.501178
O O11 0.500000 0.500000 0.889795
O O12 0.750000 0.438642 0.912183
O O13 0.518531 0.376127 0.867699
O O14 0.750000 0.824004 0.367061
O O15 0.981183 0.751028 0.386683
O O16 0.750000 0.363186 0.208183
O O17 0.527123 0.425431 0.265722
O O18 0.750000 0.444508 0.352943
O O19 0.978781 0.373962 0.388797
O O20 0.000000 0.500000 0.373700
O O21 0.750000 0.207091 0.903778
#
# Coordination Sequence:
#
# PCOD8192135 Si02
#       8
#     8   8   8   8   8   8   8   8
#     4  10  20  32  50  80 111 136 171 221 270 315
#     4   8  15  29  50  74 101 135 175 215 253 305
#     4   9  17  32  54  78 104 135 177 221 264 319
#     4  11  22  37  54  76 109 145 184 225 267 318
#     4  11  22  35  54  81 110 140 177 223 271 321
#     4   9  17  32  52  73 102 144 184 214 254 311
#     4  10  21  34  52  76 107 144 181 220 265 316
#     4  10  19  35  57  80 104 140 184 223 265 318
#
# _framework density 17.655377000000001
#
# number of rings (size 3 to 8) (size 9 to 14) (size 15 to 20)
#    0.000    2.250    2.500    1.875    0.000    3.500 
#    0.000    0.625    0.000    0.750    0.000    3.500 
#    0.000    0.000    0.000    0.000    0.000    0.000 
#
# Total GULP energy -396706.281076 kJ/mol
# GULP energy per Si atom -12397.071284 kJ/mol
# Density = 1.761519 g / cm^3
# Si number density = 17.655377 Si / 1000 Ang^3
#
#
#
# Elastic Constant Matrix: (Units=GPa)
#
#
# Indices 1 2 3 4 5 6 
#
# 1 61.8447 38.8003 38.5324 0.0000 0.0000 0.0000
# 2 38.8003 108.1034 49.0663 0.0000 0.0000 0.0000
# 3 38.5324 49.0663 95.4460 0.0000 0.0000 0.0000
# 4 0.0000 0.0000 0.0000 20.1897 0.0000 0.0000
# 5 0.0000 0.0000 0.0000 0.0000 23.8738 0.0000
# 6 0.0000 0.0000 0.0000 0.0000 0.0000 26.2505
#
#
#
# Elastic Compliance Matrix: (Units=1/GPa)
#
#
# Indices 1 2 3 4 5 6 
#
# 1 0.023845 -0.005464 -0.006818 0.000000 0.000000 0.000000
# 2 -0.005464 0.013318 -0.004640 0.000000 0.000000 0.000000
# 3 -0.006818 -0.004640 0.015615 0.000000 0.000000 0.000000
# 4 0.000000 0.000000 0.000000 0.049530 0.000000 0.000000
# 5 0.000000 0.000000 0.000000 0.000000 0.041887 0.000000
# 6 0.000000 0.000000 0.000000 0.000000 0.000000 0.038094
#
#
# Mechanical properties :
#
#
# Convention : Reuss Voigt Hill
#
# Bulk Modulus (GPa) = 52.81560 57.57690 55.19625
# Shear Modulus (GPa) = 22.47744 23.32915 22.90329
#
# Velocity S-wave (km/s) = 3.57195 3.63900 3.60563
# Velocity P-wave (km/s) = 6.85503 7.09498 6.97604
#
# Compressibility (1/GPa) = 0.01893380
#
# Stress axis : x y z
#
# Youngs Moduli (GPa) = 41.93691 75.08755 64.04115
#
# Poissons Ratio (x) = 0.41029 0.43661
# Poissons Ratio (y) = 0.22915 0.29718
# Poissons Ratio (z) = 0.28591 0.34844
#
# Static dielectric constant tensor:
#      x y z
#    x 3.177330 0.000000 0.000000 
#    y 0.000000 3.062910 0.000000 
#    z 0.000000 0.000000 3.611010 
# 
# 
# High freq. dielectric constant tensor:
#      x y z
#    x 1.674540 0.000000 0.000000 
#    y 0.000000 1.653750 0.000000 
#    z 0.000000 0.000000 1.690660 
# 
# From -- ./inp_files/21434.got.cif
#   From: 2010.03.12/outbox.cif.g09.slc.cpg/sg46_11_cif.got.tgz:21434.got - 2010.04.14 02:56:35.
