data_PCOD8192064
_publ_section_title
;
Structure prediction by ZEFSAII (Michael W. Deem and Ramdas Pophale) SiO2 
 PCOD8192064
Probable space group: I M A 2
;
_chemical_formula_sum "Si O2"
_cell_formula_units_Z 48
_cell_length_a 8.692529
_cell_length_b 9.611038
_cell_length_c 31.021647
_cell_angle_alpha 90.000000
_cell_angle_beta 90.000000
_cell_angle_gamma 90.000000
_cell_volume 2591.679504
_symmetry_space_group_name_H-M "I M A 2"
_symmetry_group_IT_number 46
_symmetry_cell_setting 'orthorhombic'
loop_
_space_group_symop_operation_xyz
x,y,z
-x,-y,z
1/2-x,y,z
1/2+x,-y,z
1/2+x,1/2+y,1/2+z
1/2-x,1/2-y,1/2+z
-x,1/2+y,1/2+z
x,1/2-y,1/2+z
loop_
_atom_site_type_symbol
_atom_site_label
_atom_site_fract_x
_atom_site_fract_y
_atom_site_fract_z
Si Si1 0.571282 0.350920 0.270880
Si Si2 0.067824 0.648757 0.508093
Si Si3 0.932655 0.154932 0.864618
Si Si4 0.068952 0.644870 0.606235
Si Si5 0.568276 0.348180 0.178293
Si Si6 0.067386 0.346124 0.938075
O O1 0.500000 0.500000 0.270524
O O2 0.750000 0.376109 0.270601
O O3 0.527238 0.280689 0.316775
O O4 0.523622 0.277897 0.225291
O O5 0.250000 0.645369 0.500915
O O6 0.021117 0.681275 0.557389
O O7 0.000000 0.500000 0.493308
O O8 0.993452 0.772271 0.481030
O O9 0.750000 0.149967 0.873321
O O10 0.013428 0.258922 0.897084
O O11 0.000000 0.000000 0.870399
O O12 0.250000 0.634752 0.610399
O O13 0.999355 0.757439 0.639323
O O14 0.000000 0.500000 0.621051
O O15 0.500000 0.500000 0.173847
O O16 0.750000 0.359305 0.173450
O O17 0.250000 0.354241 0.939254
O O18 0.000000 0.500000 0.935342
#
# Coordination Sequence:
#
# PCOD8192064 Si02
#       6
#     8   8   8   8   8   8
#     4   8  15  28  49  74 103 135 171 212 252 294
#     4  10  20  37  58  80 104 136 176 217 257 306
#     4  10  19  34  56  81 106 138 177 217 257 305
#     4   9  19  34  53  76 105 137 172 211 253 300
#     4   9  17  31  50  76 106 137 172 212 254 300
#     4  12  25  40  56  77 105 137 170 213 264 315
#
# _framework density 18.520810000000001
#
# number of rings (size 3 to 8) (size 9 to 14) (size 15 to 20)
#    0.000    2.333    0.000    3.000    0.000    2.667 
#    0.000    2.500    0.000    2.000    0.000    0.000 
#    0.000    0.000    0.000    0.000    0.000    0.000 
#
# Total GULP energy -297357.168676 kJ/mol
# GULP energy per Si atom -12389.882028 kJ/mol
# Density = 1.847866 g / cm^3
# Si number density = 18.520810 Si / 1000 Ang^3
#
#
#
# Elastic Constant Matrix: (Units=GPa)
#
#
# Indices 1 2 3 4 5 6 
#
# 1 68.8250 42.7027 45.1700 0.0000 0.0000 0.0000
# 2 42.7027 116.9564 86.2816 0.0000 0.0000 0.0000
# 3 45.1700 86.2816 159.4697 0.0000 0.0000 0.0000
# 4 0.0000 0.0000 0.0000 32.6815 0.0000 0.0000
# 5 0.0000 0.0000 0.0000 0.0000 15.0963 0.0000
# 6 0.0000 0.0000 0.0000 0.0000 0.0000 29.6795
#
#
#
# Elastic Compliance Matrix: (Units=1/GPa)
#
#
# Indices 1 2 3 4 5 6 
#
# 1 0.019499 -0.005068 -0.002781 0.000000 0.000000 0.000000
# 2 -0.005068 0.015547 -0.006976 0.000000 0.000000 0.000000
# 3 -0.002781 -0.006976 0.010833 0.000000 0.000000 0.000000
# 4 0.000000 0.000000 0.000000 0.030598 0.000000 0.000000
# 5 0.000000 0.000000 0.000000 0.000000 0.066241 0.000000
# 6 0.000000 0.000000 0.000000 0.000000 0.000000 0.033693
#
#
# Mechanical properties :
#
#
# Convention : Reuss Voigt Hill
#
# Bulk Modulus (GPa) = 61.61875 77.06218 69.34047
# Shear Modulus (GPa) = 23.64367 26.89790 25.27079
#
# Velocity S-wave (km/s) = 3.57683 3.81505 3.69786
# Velocity P-wave (km/s) = 7.09933 7.81696 7.46677
#
# Compressibility (1/GPa) = 0.01622883
#
# Stress axis : x y z
#
# Youngs Moduli (GPa) = 51.28407 64.32050 92.30877
#
# Poissons Ratio (x) = 0.32595 0.25674
# Poissons Ratio (y) = 0.25989 0.64398
# Poissons Ratio (z) = 0.14264 0.44873
#
# Static dielectric constant tensor:
#      x y z
#    x 3.470160 0.000000 0.000000 
#    y 0.000000 3.195190 0.000000 
#    z 0.000000 0.000000 4.265700 
# 
# 
# High freq. dielectric constant tensor:
#      x y z
#    x 1.723780 0.000000 0.000000 
#    y 0.000000 1.688430 0.000000 
#    z 0.000000 0.000000 1.747190 
# 
# From -- ./inp_files/24976.got.cif
#   From: 2010.03.12/outbox.cif.g09.slc.cpg/sg46_13_cif.got.tgz:24976.got - 2010.04.14 02:56:35.
