data_PCOD8192001
_publ_section_title
;
Structure prediction by ZEFSAII (Michael W. Deem and Ramdas Pophale) SiO2 
 PCOD8192001
Probable space group: I M A 2
;
_chemical_formula_sum "Si O2"
_cell_formula_units_Z 56
_cell_length_a 8.667276
_cell_length_b 15.658811
_cell_length_c 19.699361
_cell_angle_alpha 90.000000
_cell_angle_beta 90.000000
_cell_angle_gamma 90.000000
_cell_volume 2673.582240
_symmetry_space_group_name_H-M "I M A 2"
_symmetry_group_IT_number 46
_symmetry_cell_setting 'orthorhombic'
loop_
_space_group_symop_operation_xyz
x,y,z
-x,-y,z
1/2-x,y,z
1/2+x,-y,z
1/2+x,1/2+y,1/2+z
1/2-x,1/2-y,1/2+z
-x,1/2+y,1/2+z
x,1/2-y,1/2+z
loop_
_atom_site_type_symbol
_atom_site_label
_atom_site_fract_x
_atom_site_fract_y
_atom_site_fract_z
Si Si1 0.429498 0.750837 0.394080
Si Si2 0.077337 0.916691 0.064698
Si Si3 0.426205 0.243717 0.536357
Si Si4 0.078420 0.879701 0.215056
Si Si5 0.567290 0.800159 0.684305
Si Si6 0.575034 0.582295 0.840937
Si Si7 0.565547 0.406667 0.302541
O O1 0.250000 0.748189 0.388211
O O2 0.472701 0.776237 0.470778
O O3 0.491904 0.828313 0.350597
O O4 0.489368 0.660627 0.361837
O O5 0.250000 0.900145 0.033652
O O6 0.090539 0.929556 0.144734
O O7 0.957388 0.841855 0.052236
O O8 0.000000 0.000000 0.030954
O O9 0.250000 0.230883 0.515221
O O10 0.465382 0.185769 0.602962
O O11 0.250000 0.880071 0.249132
O O12 0.027842 0.781846 0.206669
O O13 0.951648 0.929851 0.260308
O O14 0.750000 0.786494 0.695785
O O15 0.505846 0.879155 0.729393
O O16 0.500000 0.500000 0.879127
O O17 0.750000 0.587774 0.863843
O O18 0.500000 0.500000 0.321780
O O19 0.750000 0.410778 0.296630
#
# Coordination Sequence:
#
# PCOD8192001 Si02
#       7
#     8   8   8   8   8   8   8
#     4  11  24  43  64  91 127 167 212 263 320 385
#     4  10  20  33  52  80 116 155 197 246 299 362
#     4  10  22  39  61  87 119 163 209 256 318 384
#     4  10  19  33  55  85 120 155 194 241 297 359
#     4  10  20  37  62  91 123 161 207 257 312 373
#     4  12  24  38  60  88 121 159 199 249 307 369
#     4  11  24  41  66  96 130 170 219 272 327 388
#
# _framework density 20.945682000000001
#
# number of rings (size 3 to 8) (size 9 to 14) (size 15 to 20)
#    0.000    1.429    1.429    4.286    0.000    6.857 
#    0.000    2.143    0.000    3.429    0.000    0.000 
#    0.000    0.000    0.000    0.000    0.000    0.000 
#
# Total GULP energy -346957.717207 kJ/mol
# GULP energy per Si atom -12391.347043 kJ/mol
# Density = 2.089801 g / cm^3
# Si number density = 20.945682 Si / 1000 Ang^3
#
#
#
# Elastic Constant Matrix: (Units=GPa)
#
#
# Indices 1 2 3 4 5 6 
#
# 1 60.6307 24.9464 38.4532 0.0000 0.0000 0.0000
# 2 24.9464 92.4311 22.5101 0.0000 0.0000 0.0000
# 3 38.4532 22.5101 78.0695 0.0000 0.0000 0.0000
# 4 0.0000 0.0000 0.0000 13.7315 0.0000 0.0000
# 5 0.0000 0.0000 0.0000 0.0000 27.2893 0.0000
# 6 0.0000 0.0000 0.0000 0.0000 0.0000 33.0769
#
#
#
# Elastic Compliance Matrix: (Units=1/GPa)
#
#
# Indices 1 2 3 4 5 6 
#
# 1 0.025345 -0.004087 -0.011305 0.000000 0.000000 0.000000
# 2 -0.004087 0.012295 -0.001532 0.000000 0.000000 0.000000
# 3 -0.011305 -0.001532 0.018819 0.000000 0.000000 0.000000
# 4 0.000000 0.000000 0.000000 0.072825 0.000000 0.000000
# 5 0.000000 0.000000 0.000000 0.000000 0.036644 0.000000
# 6 0.000000 0.000000 0.000000 0.000000 0.000000 0.030233
#
#
# Mechanical properties :
#
#
# Convention : Reuss Voigt Hill
#
# Bulk Modulus (GPa) = 44.22717 44.77231 44.49974
# Shear Modulus (GPa) = 21.04849 24.50101 22.77475
#
# Velocity S-wave (km/s) = 3.17347 3.42386 3.30104
# Velocity P-wave (km/s) = 5.88123 6.08705 5.98503
#
# Compressibility (1/GPa) = 0.02261053
#
# Stress axis : x y z
#
# Youngs Moduli (GPa) = 39.45560 81.33362 53.13729
#
# Poissons Ratio (x) = 0.33243 0.60073
# Poissons Ratio (y) = 0.16126 0.08140
# Poissons Ratio (z) = 0.44605 0.12460
#
# Static dielectric constant tensor:
#      x y z
#    x 3.895800 0.000000 0.000000 
#    y 0.000000 3.776610 0.000000 
#    z 0.000000 0.000000 4.154220 
# 
# 
# High freq. dielectric constant tensor:
#      x y z
#    x 1.830560 0.000000 0.000000 
#    y 0.000000 1.810750 0.000000 
#    z 0.000000 0.000000 1.810340 
# 
# From -- ./inp_files/21053.got.cif
#   From: 2010.03.12/outbox.cif.g09.slc.cpg/sg46_11_cif.got.tgz:21053.got - 2010.04.14 02:56:35.
