data_PCOD8192800
_publ_section_title
;
Structure prediction by ZEFSAII (Michael W. Deem and Ramdas Pophale) SiO2 
 PCOD8192800
Probable space group: I M A 2
;
_chemical_formula_sum "Si O2"
_cell_formula_units_Z 64
_cell_length_a 13.612598
_cell_length_b 24.035712
_cell_length_c 9.437130
_cell_angle_alpha 90.000000
_cell_angle_beta 90.000000
_cell_angle_gamma 90.000000
_cell_volume 3087.720268
_symmetry_space_group_name_H-M "I M A 2"
_symmetry_group_IT_number 46
_symmetry_cell_setting 'orthorhombic'
loop_
_space_group_symop_operation_xyz
x,y,z
-x,-y,z
1/2-x,y,z
1/2+x,-y,z
1/2+x,1/2+y,1/2+z
1/2-x,1/2-y,1/2+z
-x,1/2+y,1/2+z
x,1/2-y,1/2+z
loop_
_atom_site_type_symbol
_atom_site_label
_atom_site_fract_x
_atom_site_fract_y
_atom_site_fract_z
Si Si1 0.004248 0.708778 0.410120
Si Si2 0.989289 0.183961 0.591675
Si Si3 0.362609 0.406570 0.185539
Si Si4 0.365356 0.602489 0.425285
Si Si5 0.479281 0.936860 0.176508
Si Si6 0.860557 0.472518 0.171637
Si Si7 0.139357 0.374166 0.505780
Si Si8 0.359392 0.606482 0.930104
O O1 0.010854 0.770334 0.469019
O O2 0.012372 0.715345 0.241116
O O3 0.086716 0.663110 0.451509
O O4 0.901823 0.687607 0.477080
O O5 0.890630 0.151082 0.549989
O O6 0.080013 0.140371 0.595660
O O7 0.250000 0.402817 0.133008
O O8 0.413206 0.467135 0.159027
O O9 0.370128 0.402870 0.354008
O O10 0.250000 0.611639 0.420342
O O11 0.396678 0.562285 0.553796
O O12 0.407361 0.572771 0.281713
O O13 0.437509 0.898986 0.303925
O O14 0.500000 0.000000 0.224825
O O15 0.579489 0.908545 0.122890
O O16 0.750000 0.483644 0.230518
O O17 0.856359 0.451782 0.011431
O O18 0.250000 0.369909 0.561922
O O19 0.250000 0.621682 0.873063
#
# Coordination Sequence:
#
# PCOD8192800 Si02
#       8
#     8   8   8   8   8   8   8   8
#     4  10  23  40  63  95 125 167 220 270 322 384
#     4  11  24  41  64  90 128 168 220 271 324 400
#     4   9  19  38  67 100 127 162 216 275 331 390
#     4  10  20  40  66  95 127 168 223 270 322 388
#     4  11  24  38  60  97 132 174 209 261 329 397
#     4   9  18  36  65  93 123 164 212 269 327 391
#     4   9  20  41  65  92 128 168 216 270 320 380
#     4  11  25  43  60  89 133 172 212 270 333 387
#
# _framework density 20.727266
#
# number of rings (size 3 to 8) (size 9 to 14) (size 15 to 20)
#    0.000    2.000    1.250    1.125    5.250    3.000 
#    0.000    0.625    0.000    0.000    0.000    0.000 
#    0.000    0.000    0.000    0.000    0.000    0.000 
#
# Total GULP energy -396573.261514 kJ/mol
# GULP energy per Si atom -12392.914422 kJ/mol
# Density = 2.068009 g / cm^3
# Si number density = 20.727266 Si / 1000 Ang^3
#
#
#
# Elastic Constant Matrix: (Units=GPa)
#
#
# Indices 1 2 3 4 5 6 
#
# 1 117.3203 50.7163 44.0302 0.0001 -0.0003 -0.0001
# 2 50.7163 129.7890 44.7330 -0.0008 0.0001 0.0000
# 3 44.0302 44.7330 88.4378 0.0069 -0.0020 0.0007
# 4 0.0001 -0.0008 0.0069 30.9090 -0.0008 0.0004
# 5 -0.0003 0.0001 -0.0020 -0.0008 34.8045 -0.0001
# 6 -0.0001 0.0000 0.0007 0.0004 -0.0001 20.4072
#
#
#
# Elastic Compliance Matrix: (Units=1/GPa)
#
#
# Indices 1 2 3 4 5 6 
#
# 1 0.011383 -0.003022 -0.004139 0.000001 0.000000 0.000000
# 2 -0.003022 0.010134 -0.003621 0.000001 0.000000 0.000000
# 3 -0.004139 -0.003621 0.015200 -0.000003 0.000001 -0.000001
# 4 0.000001 0.000001 -0.000003 0.032353 0.000001 -0.000001
# 5 0.000000 0.000000 0.000001 0.000001 0.028732 0.000000
# 6 0.000000 0.000000 -0.000001 -0.000001 0.000000 0.049002
#
#
# Mechanical properties :
#
#
# Convention : Reuss Voigt Hill
#
# Bulk Modulus (GPa) = 65.99446 68.27844 67.13645
# Shear Modulus (GPa) = 28.83194 30.29532 29.56363
#
# Velocity S-wave (km/s) = 3.73368 3.82726 3.78076
# Velocity P-wave (km/s) = 7.10603 7.24868 7.17771
#
# Compressibility (1/GPa) = 0.01515279
#
# Stress axis : x y z
#
# Youngs Moduli (GPa) = 87.84860 98.68094 65.79040
#
# Poissons Ratio (x) = 0.29817 0.27231
# Poissons Ratio (y) = 0.26544 0.23825
# Poissons Ratio (z) = 0.36360 0.35736
#
# Static dielectric constant tensor:
#      x y z
#    x 4.019890 0.000000 0.000000 
#    y 0.000000 3.679460 0.000000 
#    z 0.000000 0.000000 3.624800 
# 
# 
# High freq. dielectric constant tensor:
#      x y z
#    x 1.813850 0.000000 0.000000 
#    y 0.000000 1.808320 0.000000 
#    z 0.000000 0.000000 1.802920 
# 
# From -- ./inp_files/6096.got.cif
#   From: 2010.03.12/outbox.cif.g09.slc.cpg/sg46_4_cif.got.tgz:6096.got - 2010.04.14 02:56:35.
