data_PCOD8192668
_publ_section_title
;
Structure prediction by ZEFSAII (Michael W. Deem and Ramdas Pophale) SiO2 
 PCOD8192668
Probable space group: I M A 2
;
_chemical_formula_sum "Si O2"
_cell_formula_units_Z 40
_cell_length_a 16.820080
_cell_length_b 5.062182
_cell_length_c 22.699876
_cell_angle_alpha 90.000000
_cell_angle_beta 90.000000
_cell_angle_gamma 90.000000
_cell_volume 1932.810593
_symmetry_space_group_name_H-M "I M A 2"
_symmetry_group_IT_number 46
_symmetry_cell_setting 'orthorhombic'
loop_
_space_group_symop_operation_xyz
x,y,z
-x,-y,z
1/2-x,y,z
1/2+x,-y,z
1/2+x,1/2+y,1/2+z
1/2-x,1/2-y,1/2+z
-x,1/2+y,1/2+z
x,1/2-y,1/2+z
loop_
_atom_site_type_symbol
_atom_site_label
_atom_site_fract_x
_atom_site_fract_y
_atom_site_fract_z
Si Si1 0.155838 0.218278 0.916930
Si Si2 0.844299 0.216596 0.345295
Si Si3 0.052814 0.755054 0.733001
Si Si4 0.342348 0.102055 0.047179
Si Si5 0.588735 0.408085 0.105469
O O1 0.250000 0.219505 0.919831
O O2 0.124324 0.489435 0.889101
O O3 0.125937 0.986404 0.874422
O O4 0.123545 0.182993 0.983054
O O5 0.750000 0.204256 0.336742
O O6 0.882829 0.178555 0.281676
O O7 0.099421 0.839867 0.674137
O O8 0.000000 0.500000 0.718112
O O9 0.000000 0.000000 0.755590
O O10 0.250000 0.022127 0.044857
O O11 0.352677 0.349826 0.090816
O O12 0.391573 0.848477 0.067351
O O13 0.500000 0.500000 0.090594
#
# Coordination Sequence:
#
# PCOD8192668 Si02
#       5
#     8   8   8   8   8
#     4   9  19  36  58  86 119 150 182 236 299 339
#     4  10  20  37  61  86 113 149 194 237 283 345
#     4  11  23  41  60  81 117 157 191 237 297 348
#     4  11  22  39  64  90 118 155 201 244 287 351
#     4  11  23  41  60  85 122 161 195 240 303 351
#
# _framework density 20.695253000000001
#
# number of rings (size 3 to 8) (size 9 to 14) (size 15 to 20)
#    0.000    1.600    0.000    6.000    0.000    4.800 
#    0.000   12.000    0.000    0.000    0.000    0.000 
#    0.000    0.000    0.000    0.000    0.000    0.000 
#
# Total GULP energy -248080.473363 kJ/mol
# GULP energy per Si atom -12404.023668 kJ/mol
# Density = 2.064815 g / cm^3
# Si number density = 20.695253 Si / 1000 Ang^3
#
#
#
# Elastic Constant Matrix: (Units=GPa)
#
#
# Indices 1 2 3 4 5 6 
#
# 1 46.6858 25.5384 53.7381 0.0000 0.0000 0.0000
# 2 25.5384 124.0659 37.2431 0.0000 0.0000 0.0000
# 3 53.7381 37.2431 136.3175 0.0000 0.0000 0.0000
# 4 0.0000 0.0000 0.0000 39.4173 0.0000 0.0000
# 5 0.0000 0.0000 0.0000 0.0000 28.1189 0.0000
# 6 0.0000 0.0000 0.0000 0.0000 0.0000 30.9537
#
#
#
# Elastic Compliance Matrix: (Units=1/GPa)
#
#
# Indices 1 2 3 4 5 6 
#
# 1 0.040872 -0.003896 -0.015048 0.000000 0.000000 0.000000
# 2 -0.003896 0.009152 -0.000964 0.000000 0.000000 0.000000
# 3 -0.015048 -0.000964 0.013531 0.000000 0.000000 0.000000
# 4 0.000000 0.000000 0.000000 0.025370 0.000000 0.000000
# 5 0.000000 0.000000 0.000000 0.000000 0.035563 0.000000
# 6 0.000000 0.000000 0.000000 0.000000 0.000000 0.032306
#
#
# Mechanical properties :
#
#
# Convention : Reuss Voigt Hill
#
# Bulk Modulus (GPa) = 42.12593 60.01205 51.06899
# Shear Modulus (GPa) = 24.44702 32.40129 28.42415
#
# Velocity S-wave (km/s) = 3.44071 3.96111 3.71005
# Velocity P-wave (km/s) = 6.01533 7.06975 6.56375
#
# Compressibility (1/GPa) = 0.02373835
#
# Stress axis : x y z
#
# Youngs Moduli (GPa) = 24.46659 109.26879 73.90245
#
# Poissons Ratio (x) = 0.42573 1.11207
# Poissons Ratio (y) = 0.09533 0.07127
# Poissons Ratio (z) = 0.36817 0.10538
#
# Static dielectric constant tensor:
#      x y z
#    x 3.488150 0.000000 0.000000 
#    y 0.000000 4.046570 0.000000 
#    z 0.000000 0.000000 3.854950 
# 
# 
# High freq. dielectric constant tensor:
#      x y z
#    x 1.784990 0.000000 0.000000 
#    y 0.000000 1.832230 0.000000 
#    z 0.000000 0.000000 1.820470 
# 
# From -- ./inp_files/19773.got.cif
#   From: 2010.03.12/outbox.cif.g09.slc.cpg/sg46_10_cif.got.tgz:19773.got - 2010.04.14 02:56:35.
