data_PCOD8192750
_publ_section_title
;
Structure prediction by ZEFSAII (Michael W. Deem and Ramdas Pophale) SiO2 
 PCOD8192750
Probable space group: I M A 2
;
_chemical_formula_sum "Si O2"
_cell_formula_units_Z 36
_cell_length_a 14.839382
_cell_length_b 7.454435
_cell_length_c 17.131688
_cell_angle_alpha 90.000000
_cell_angle_beta 90.000000
_cell_angle_gamma 90.000000
_cell_volume 1895.093768
_symmetry_space_group_name_H-M "I M A 2"
_symmetry_group_IT_number 46
_symmetry_cell_setting 'orthorhombic'
loop_
_space_group_symop_operation_xyz
x,y,z
-x,-y,z
1/2-x,y,z
1/2+x,-y,z
1/2+x,1/2+y,1/2+z
1/2-x,1/2-y,1/2+z
-x,1/2+y,1/2+z
x,1/2-y,1/2+z
loop_
_atom_site_type_symbol
_atom_site_label
_atom_site_fract_x
_atom_site_fract_y
_atom_site_fract_z
Si Si1 0.147235 0.290680 0.287290
Si Si2 0.646115 0.198826 0.774859
Si Si3 0.000000 0.000000 0.532193
Si Si4 0.646053 0.484587 0.903820
Si Si5 0.995867 0.796297 0.158014
O O1 0.250000 0.259639 0.260274
O O2 0.127867 0.498278 0.305887
O O3 0.085968 0.219789 0.217951
O O4 0.127579 0.179267 0.365919
O O5 0.750000 0.229870 0.752353
O O6 0.615079 0.333365 0.842452
O O7 0.589049 0.234454 0.697353
O O8 0.022292 0.173071 0.583734
O O9 0.912284 0.039433 0.480832
O O10 0.750000 0.459255 0.927351
O O11 0.000000 0.000000 0.128552
#
# Coordination Sequence:
#
# PCOD8192750 Si02
#       5
#     8   8   4   8   8
#     4  10  20  38  66  90 111 151 205 249 286 344
#     4  10  20  38  66  90 111 151 205 249 286 344
#     4  12  26  38  54  90 130 160 184 240 308 356
#     4  10  22  40  62  88 119 156 196 244 297 350
#     4  12  23  37  59  89 122 157 196 242 295 350
#
# _framework density 18.996420000000001
#
# number of rings (size 3 to 8) (size 9 to 14) (size 15 to 20)
#    0.000    1.333    4.444    1.333    0.000    3.556 
#    0.000    0.000    0.000    0.000    0.000    0.000 
#    0.000    0.000    0.000    0.000    0.000    0.000 
#
# Total GULP energy -223295.699783 kJ/mol
# GULP energy per Si atom -12405.316655 kJ/mol
# Density = 1.895318 g / cm^3
# Si number density = 18.996420 Si / 1000 Ang^3
#
#
#
# Elastic Constant Matrix: (Units=GPa)
#
#
# Indices 1 2 3 4 5 6 
#
# 1 73.1750 1.2717 23.8650 0.0000 0.0000 0.0000
# 2 1.2717 106.5243 0.2128 0.0000 0.0000 0.0000
# 3 23.8650 0.2128 61.0383 0.0000 0.0000 0.0000
# 4 0.0000 0.0000 0.0000 20.4611 0.0000 0.0000
# 5 0.0000 0.0000 0.0000 0.0000 9.9157 0.0000
# 6 0.0000 0.0000 0.0000 0.0000 0.0000 25.6879
#
#
#
# Elastic Compliance Matrix: (Units=1/GPa)
#
#
# Indices 1 2 3 4 5 6 
#
# 1 0.015666 -0.000175 -0.006125 0.000000 0.000000 0.000000
# 2 -0.000175 0.009390 0.000036 0.000000 0.000000 0.000000
# 3 -0.006125 0.000036 0.018778 0.000000 0.000000 0.000000
# 4 0.000000 0.000000 0.000000 0.048873 0.000000 0.000000
# 5 0.000000 0.000000 0.000000 0.000000 0.100851 0.000000
# 6 0.000000 0.000000 0.000000 0.000000 0.000000 0.038929
#
#
# Mechanical properties :
#
#
# Convention : Reuss Voigt Hill
#
# Bulk Modulus (GPa) = 31.94289 32.38183 32.16236
# Shear Modulus (GPa) = 19.57334 25.57213 22.57274
#
# Velocity S-wave (km/s) = 3.21342 3.67298 3.45086
# Velocity P-wave (km/s) = 5.53352 5.92208 5.73109
#
# Compressibility (1/GPa) = 0.03130587
#
# Stress axis : x y z
#
# Youngs Moduli (GPa) = 63.83096 106.50139 53.25468
#
# Poissons Ratio (x) = 0.01862 0.32617
# Poissons Ratio (y) = 0.01116 -0.00190
# Poissons Ratio (z) = 0.39094 -0.00379
#
# Static dielectric constant tensor:
#      x y z
#    x 3.626920 0.000000 0.000000 
#    y 0.000000 3.830300 0.000000 
#    z 0.000000 0.000000 3.212400 
# 
# 
# High freq. dielectric constant tensor:
#      x y z
#    x 1.754900 0.000000 0.000000 
#    y 0.000000 1.759380 0.000000 
#    z 0.000000 0.000000 1.712230 
# 
# From -- ./inp_files/15611.got.cif
#   From: 2010.03.12/outbox.cif.g09.slc.cpg/sg46_8_cif.got.tgz:15611.got - 2010.04.14 02:56:35.
