data_PCOD8192787
_publ_section_title
;
Structure prediction by ZEFSAII (Michael W. Deem and Ramdas Pophale) SiO2 
 PCOD8192787
Probable space group: I M A 2
;
_chemical_formula_sum "Si O2"
_cell_formula_units_Z 64
_cell_length_a 17.606759
_cell_length_b 15.230916
_cell_length_c 11.907428
_cell_angle_alpha 90.000000
_cell_angle_beta 90.000000
_cell_angle_gamma 90.000000
_cell_volume 3193.180047
_symmetry_space_group_name_H-M "I M A 2"
_symmetry_group_IT_number 46
_symmetry_cell_setting 'orthorhombic'
loop_
_space_group_symop_operation_xyz
x,y,z
-x,-y,z
1/2-x,y,z
1/2+x,-y,z
1/2+x,1/2+y,1/2+z
1/2-x,1/2-y,1/2+z
-x,1/2+y,1/2+z
x,1/2-y,1/2+z
loop_
_atom_site_type_symbol
_atom_site_label
_atom_site_fract_x
_atom_site_fract_y
_atom_site_fract_z
Si Si1 0.909907 1.000000 0.194020
Si Si2 0.661532 0.854228 0.785227
Si Si3 0.910004 0.500000 0.437381
Si Si4 0.338468 0.854228 0.785227
Si Si5 0.410829 0.329626 0.826062
Si Si6 0.084719 0.400903 0.062897
Si Si7 0.915281 0.099097 0.562897
Si Si8 0.089172 0.829626 0.326062
O O1 0.879209 0.912807 0.256094
O O2 0.879209 0.087193 0.256095
O O3 0.000000 0.000000 0.200719
O O4 0.881228 0.000000 0.065664
O O5 0.750000 0.860798 0.810131
O O6 0.634550 0.754568 0.785790
O O7 0.645098 0.890994 0.661574
O O8 0.619201 0.911995 0.878168
O O9 0.880800 0.411994 0.378168
O O10 0.000000 0.500000 0.430204
O O11 0.250000 0.860799 0.810131
O O12 0.354902 0.890994 0.661575
O O13 0.365450 0.754567 0.785790
O O14 0.500000 0.316346 0.803835
O O15 0.393632 0.340095 0.958080
O O16 0.085593 0.500000 0.017169
O O17 0.000000 0.377138 0.107596
O O18 0.893632 0.159905 0.458080
#
# Coordination Sequence:
#
# PCOD8192787 Si02
#       8
#     8   8   8   8   8   8   8   8
#     4   9  20  40  67  94 118 151 206 261 306 355
#     4  12  26  41  59  91 130 167 203 249 311 375
#     4  11  23  42  65  90 120 163 212 257 304 363
#     4  12  26  41  59  91 130 167 203 249 311 375
#     4  10  21  41  67  95 121 156 206 261 309 361
#     4  10  20  39  68  93 117 155 208 261 306 360
#     4  10  20  39  68  93 117 155 208 261 306 360
#     4  10  21  41  67  95 121 156 206 261 309 361
#
# _framework density 20.042715999999999
#
# number of rings (size 3 to 8) (size 9 to 14) (size 15 to 20)
#    0.000    1.500    2.500    2.625    3.500    1.000 
#    0.000    1.875    0.000    0.000    0.000    0.000 
#    0.000    0.000    0.000    0.000    0.000    0.000 
#
# Total GULP energy -396911.867784 kJ/mol
# GULP energy per Si atom -12403.495868 kJ/mol
# Density = 1.999710 g / cm^3
# Si number density = 20.042716 Si / 1000 Ang^3
#
#
#
# Elastic Constant Matrix: (Units=GPa)
#
#
# Indices 1 2 3 4 5 6 
#
# 1 80.9599 32.2251 39.8295 0.0000 0.0000 0.0000
# 2 32.2251 124.7975 44.2051 0.0000 0.0000 0.0000
# 3 39.8295 44.2051 112.2366 0.0000 0.0000 0.0000
# 4 0.0000 0.0000 0.0000 13.9634 0.0000 0.0000
# 5 0.0000 0.0000 0.0000 0.0000 5.0475 0.0000
# 6 0.0000 0.0000 0.0000 0.0000 0.0000 -1.4393
#
#
#
# Elastic Compliance Matrix: (Units=1/GPa)
#
#
# Indices 1 2 3 4 5 6 
#
# 1 0.015557 -0.002396 -0.004577 0.000000 0.000000 0.000000
# 2 -0.002396 0.009681 -0.002963 0.000000 0.000000 0.000000
# 3 -0.004577 -0.002963 0.011701 0.000000 0.000000 0.000000
# 4 0.000000 0.000000 0.000000 0.071616 0.000000 0.000000
# 5 0.000000 0.000000 0.000000 0.000000 0.198116 0.000000
# 6 0.000000 0.000000 0.000000 0.000000 0.000000 -0.694778
#
#
# Mechanical properties :
#
#
# Convention : Reuss Voigt Hill
#
# Bulk Modulus (GPa) = 58.59019 61.16817 59.87918
# Shear Modulus (GPa) = -13.79133 16.96329 1.58598
#
# Velocity S-wave (km/s) = -2.62601 2.91238 0.89052
# Velocity P-wave (km/s) = 4.48348 6.47259 5.56758
#
# Compressibility (1/GPa) = 0.01706770
#
# Stress axis : x y z
#
# Youngs Moduli (GPa) = 64.27868 103.29424 85.46314
#
# Poissons Ratio (x) = 0.24748 0.39118
# Poissons Ratio (y) = 0.15400 0.25320
# Poissons Ratio (z) = 0.29422 0.30603
#
# Static dielectric constant tensor:
#      x y z
#    x 3.386360 0.000000 0.000000 
#    y 0.000000 3.742210 0.000000 
#    z 0.000000 0.000000 3.687550 
# 
# 
# High freq. dielectric constant tensor:
#      x y z
#    x 1.756020 0.000000 0.000000 
#    y 0.000000 1.794890 0.000000 
#    z 0.000000 0.000000 1.791850 
# 
# From -- ./inp_files/11997.got.cif
#   From: 2010.03.12/outbox.cif.g09.slc.cpg/sg46_6_cif.got.tgz:11997.got - 2010.04.14 02:56:35.
