data_PCOD8192243
_publ_section_title
;
Structure prediction by ZEFSAII (Michael W. Deem and Ramdas Pophale) SiO2 
 PCOD8192243
Probable space group: I M A 2
;
_chemical_formula_sum "Si O2"
_cell_formula_units_Z 56
_cell_length_a 17.346178
_cell_length_b 11.932799
_cell_length_c 14.669287
_cell_angle_alpha 90.000000
_cell_angle_beta 90.000000
_cell_angle_gamma 90.000000
_cell_volume 3036.373059
_symmetry_space_group_name_H-M "I M A 2"
_symmetry_group_IT_number 46
_symmetry_cell_setting 'orthorhombic'
loop_
_space_group_symop_operation_xyz
x,y,z
-x,-y,z
1/2-x,y,z
1/2+x,-y,z
1/2+x,1/2+y,1/2+z
1/2-x,1/2-y,1/2+z
-x,1/2+y,1/2+z
x,1/2-y,1/2+z
loop_
_atom_site_type_symbol
_atom_site_label
_atom_site_fract_x
_atom_site_fract_y
_atom_site_fract_z
Si Si1 0.901201 0.154979 0.501400
Si Si2 0.660154 0.447290 0.313139
Si Si3 0.598834 0.361469 0.617684
Si Si4 0.584550 0.536196 0.140860
Si Si5 0.340849 0.802529 0.307768
Si Si6 0.341698 0.057589 0.996558
Si Si7 0.048542 0.258671 0.555968
O O1 0.862703 0.254739 0.563450
O O2 0.861427 0.139913 0.403807
O O3 0.992282 0.186417 0.488465
O O4 0.890684 0.037040 0.553115
O O5 0.750000 0.435551 0.327766
O O6 0.643220 0.516782 0.222886
O O7 0.624556 0.323093 0.307689
O O8 0.626374 0.508483 0.401742
O O9 0.620207 0.366448 0.723881
O O10 0.631361 0.475921 0.576789
O O11 0.505593 0.348824 0.609835
O O12 0.500000 0.500000 0.174502
O O13 0.588369 0.668663 0.122540
O O14 0.250000 0.805374 0.293242
O O15 0.250000 0.075295 0.999398
O O16 0.382839 0.177788 0.005137
#
# Coordination Sequence:
#
# PCOD8192243 Si02
#       7
#     8   8   8   8   8   8   8
#     4   9  20  35  57  83 114 144 191 229 291 328
#     4  10  20  32  55  84 110 142 191 234 284 332
#     4  10  20  36  57  83 114 145 189 232 288 335
#     4  10  19  38  57  83 112 147 187 236 273 337
#     4  11  20  33  55  89 118 149 187 238 288 335
#     4  11  22  38  57  84 116 150 187 240 285 340
#     4   9  21  38  58  78 115 149 194 227 290 342
#
# _framework density 18.443055000000001
#
# number of rings (size 3 to 8) (size 9 to 14) (size 15 to 20)
#    0.857    1.143    2.857    0.857    0.000    5.143 
#    0.000    5.714    0.000    1.714    0.000    0.000 
#    0.000    0.000    0.000    0.000    0.000    0.000 
#
# Total GULP energy -347074.438445 kJ/mol
# GULP energy per Si atom -12395.515659 kJ/mol
# Density = 1.840108 g / cm^3
# Si number density = 18.443055 Si / 1000 Ang^3
#
#
#
# Elastic Constant Matrix: (Units=GPa)
#
#
# Indices 1 2 3 4 5 6 
#
# 1 50.0741 28.4863 29.0656 0.0000 0.0000 0.0000
# 2 28.4863 70.7062 32.0638 0.0000 0.0000 0.0000
# 3 29.0656 32.0638 124.1757 0.0000 0.0000 0.0000
# 4 0.0000 0.0000 0.0000 16.4046 0.0000 0.0000
# 5 0.0000 0.0000 0.0000 0.0000 22.5672 0.0000
# 6 0.0000 0.0000 0.0000 0.0000 0.0000 23.9105
#
#
#
# Elastic Compliance Matrix: (Units=1/GPa)
#
#
# Indices 1 2 3 4 5 6 
#
# 1 0.027610 -0.009279 -0.004067 0.000000 0.000000 0.000000
# 2 -0.009279 0.019137 -0.002770 0.000000 0.000000 0.000000
# 3 -0.004067 -0.002770 0.009720 0.000000 0.000000 0.000000
# 4 0.000000 0.000000 0.000000 0.060959 0.000000 0.000000
# 5 0.000000 0.000000 0.000000 0.000000 0.044312 0.000000
# 6 0.000000 0.000000 0.000000 0.000000 0.000000 0.041823
#
#
# Mechanical properties :
#
#
# Convention : Reuss Voigt Hill
#
# Bulk Modulus (GPa) = 41.26027 47.13193 44.19610
# Shear Modulus (GPa) = 20.50270 22.93247 21.71759
#
# Velocity S-wave (km/s) = 3.33780 3.53004 3.43527
# Velocity P-wave (km/s) = 6.10531 6.49814 6.30478
#
# Compressibility (1/GPa) = 0.02423639
#
# Stress axis : x y z
#
# Youngs Moduli (GPa) = 36.21911 52.25356 102.87987
#
# Poissons Ratio (x) = 0.48488 0.41836
# Poissons Ratio (y) = 0.33609 0.28493
# Poissons Ratio (z) = 0.14729 0.14472
#
# Static dielectric constant tensor:
#      x y z
#    x 3.221190 0.000000 0.000000 
#    y 0.000000 3.308360 0.000000 
#    z 0.000000 0.000000 3.223050 
# 
# 
# High freq. dielectric constant tensor:
#      x y z
#    x 1.701310 0.000000 0.000000 
#    y 0.000000 1.704490 0.000000 
#    z 0.000000 0.000000 1.706860 
# 
# From -- ./inp_files/12398.got.cif
#   From: 2010.03.12/outbox.cif.g09.slc.cpg/sg46_7_cif.got.tgz:12398.got - 2010.04.14 02:56:35.
