data_PCOD8192293
_publ_section_title
;
Structure prediction by ZEFSAII (Michael W. Deem and Ramdas Pophale) SiO2 
 PCOD8192293
Probable space group: I M A 2
;
_chemical_formula_sum "Si O2"
_cell_formula_units_Z 64
_cell_length_a 22.666074
_cell_length_b 14.718426
_cell_length_c 10.345243
_cell_angle_alpha 90.000000
_cell_angle_beta 90.000000
_cell_angle_gamma 90.000000
_cell_volume 3451.265478
_symmetry_space_group_name_H-M "I M A 2"
_symmetry_group_IT_number 46
_symmetry_cell_setting 'orthorhombic'
loop_
_space_group_symop_operation_xyz
x,y,z
-x,-y,z
1/2-x,y,z
1/2+x,-y,z
1/2+x,1/2+y,1/2+z
1/2-x,1/2-y,1/2+z
-x,1/2+y,1/2+z
x,1/2-y,1/2+z
loop_
_atom_site_type_symbol
_atom_site_label
_atom_site_fract_x
_atom_site_fract_y
_atom_site_fract_z
Si Si1 0.519642 0.846945 0.390230
Si Si2 0.514371 0.231162 0.126805
Si Si3 0.684516 0.116715 0.355877
Si Si4 0.581401 0.019222 0.467073
Si Si5 0.942718 0.052455 0.011281
Si Si6 0.815332 0.317134 0.344190
Si Si7 0.185554 0.552295 0.568432
Si Si8 0.578535 0.404882 0.230039
O O1 0.526512 0.803165 0.247011
O O2 0.522365 0.769342 0.502657
O O3 0.459975 0.906953 0.395743
O O4 0.573293 0.917566 0.413063
O O5 0.554399 0.309764 0.181781
O O6 0.557522 0.150947 0.078574
O O7 0.750000 0.124926 0.414827
O O8 0.648129 0.050930 0.448841
O O9 0.655641 0.217035 0.348689
O O10 0.685744 0.070696 0.218019
O O11 0.568722 0.018279 0.621121
O O12 0.953913 0.061868 0.858639
O O13 0.878329 0.003232 0.036822
O O14 0.000000 0.000000 0.068513
O O15 0.750000 0.311846 0.283445
O O16 0.814867 0.353266 0.490796
O O17 0.852403 0.387130 0.257391
O O18 0.250000 0.502559 0.534862
#
# Coordination Sequence:
#
# PCOD8192293 Si02
#       8
#     8   8   8   8   8   8   8   8
#     4  10  22  36  56  75 111 142 178 229 277 337
#     4  11  21  37  52  79 106 142 183 225 280 335
#     4  10  20  32  50  74 105 145 185 223 268 330
#     4  10  22  34  53  77 111 142 182 224 282 319
#     4  11  23  33  56  82 109 143 192 229 274 332
#     4   9  18  30  47  72 104 149 186 212 256 327
#     4   9  19  34  48  71 109 143 178 223 270 322
#     4  10  21  34  50  75 111 147 177 230 269 329
#
# _framework density 18.543921999999998
#
# number of rings (size 3 to 8) (size 9 to 14) (size 15 to 20)
#    0.000    2.000    1.250    2.250   14.000    0.500 
#    0.000    0.000    0.000    0.000    0.000    1.750 
#    0.000    1.000    0.000    0.000    0.000    0.000 
#
# Total GULP energy -396436.815272 kJ/mol
# GULP energy per Si atom -12388.650477 kJ/mol
# Density = 1.850172 g / cm^3
# Si number density = 18.543922 Si / 1000 Ang^3
#
#
#
# Elastic Constant Matrix: (Units=GPa)
#
#
# Indices 1 2 3 4 5 6 
#
# 1 98.2506 25.8009 8.2129 0.0000 0.0000 0.0000
# 2 25.8009 48.7311 22.6877 0.0000 0.0000 0.0000
# 3 8.2129 22.6877 88.3483 0.0000 0.0000 0.0000
# 4 0.0000 0.0000 0.0000 18.2616 0.0000 0.0000
# 5 0.0000 0.0000 0.0000 0.0000 16.3420 0.0000
# 6 0.0000 0.0000 0.0000 0.0000 0.0000 25.9231
#
#
#
# Elastic Compliance Matrix: (Units=1/GPa)
#
#
# Indices 1 2 3 4 5 6 
#
# 1 0.011848 -0.006542 0.000579 0.000000 0.000000 0.000000
# 2 -0.006542 0.026920 -0.006305 0.000000 0.000000 0.000000
# 3 0.000579 -0.006305 0.012884 0.000000 0.000000 0.000000
# 4 0.000000 0.000000 0.000000 0.054760 0.000000 0.000000
# 5 0.000000 0.000000 0.000000 0.000000 0.061192 0.000000
# 6 0.000000 0.000000 0.000000 0.000000 0.000000 0.038576
#
#
# Mechanical properties :
#
#
# Convention : Reuss Voigt Hill
#
# Bulk Modulus (GPa) = 36.88003 38.74813 37.81408
# Shear Modulus (GPa) = 20.85469 24.01390 22.43430
#
# Velocity S-wave (km/s) = 3.35716 3.60248 3.48198
# Velocity P-wave (km/s) = 5.91257 6.18421 6.04992
#
# Compressibility (1/GPa) = 0.02711495
#
# Stress axis : x y z
#
# Youngs Moduli (GPa) = 84.40470 37.14723 77.61496
#
# Poissons Ratio (x) = 0.24302 -0.04491
# Poissons Ratio (y) = 0.55219 0.48935
# Poissons Ratio (z) = -0.04884 0.23421
#
# Static dielectric constant tensor:
#      x y z
#    x 3.635090 0.000000 0.000000 
#    y 0.000000 3.139180 0.000000 
#    z 0.000000 0.000000 3.629850 
# 
# 
# High freq. dielectric constant tensor:
#      x y z
#    x 1.706100 0.000000 0.000000 
#    y 0.000000 1.671220 0.000000 
#    z 0.000000 0.000000 1.736160 
# 
# From -- ./inp_files/7976.got.cif
#   From: 2010.03.12/outbox.cif.g09.slc.cpg/sg46_4_cif.got.tgz:7976.got - 2010.04.14 02:56:35.
