data_PCOD8192332
_publ_section_title
;
Structure prediction by ZEFSAII (Michael W. Deem and Ramdas Pophale) SiO2 
 PCOD8192332
Probable space group: I M A 2
;
_chemical_formula_sum "Si O2"
_cell_formula_units_Z 64
_cell_length_a 9.305719
_cell_length_b 24.545914
_cell_length_c 15.102925
_cell_angle_alpha 90.000000
_cell_angle_beta 90.000000
_cell_angle_gamma 90.000000
_cell_volume 3449.770533
_symmetry_space_group_name_H-M "I M A 2"
_symmetry_group_IT_number 46
_symmetry_cell_setting 'orthorhombic'
loop_
_space_group_symop_operation_xyz
x,y,z
-x,-y,z
1/2-x,y,z
1/2+x,-y,z
1/2+x,1/2+y,1/2+z
1/2-x,1/2-y,1/2+z
-x,1/2+y,1/2+z
x,1/2-y,1/2+z
loop_
_atom_site_type_symbol
_atom_site_label
_atom_site_fract_x
_atom_site_fract_y
_atom_site_fract_z
Si Si1 0.087306 0.233237 0.343000
Si Si2 0.081837 0.111927 0.553894
Si Si3 0.585361 0.639102 0.715944
Si Si4 0.582246 0.554162 0.232445
Si Si5 0.581549 0.556086 0.871151
Si Si6 0.581948 0.162143 0.046981
Si Si7 0.082356 0.785728 0.514174
Si Si8 0.084483 0.355546 0.371701
O O1 0.250000 0.222114 0.377742
O O2 0.061299 0.200186 0.252879
O O3 0.061652 0.296945 0.325244
O O4 0.976854 0.210861 0.414831
O O5 0.250000 0.125734 0.553840
O O6 0.040602 0.071427 0.633133
O O7 0.031681 0.084118 0.462541
O O8 0.997426 0.168229 0.571266
O O9 0.750000 0.630569 0.686836
O O10 0.540740 0.595607 0.790352
O O11 0.484937 0.631133 0.630897
O O12 0.500000 0.500000 0.259204
O O13 0.750000 0.542697 0.240585
O O14 0.532821 0.600627 0.300512
O O15 0.500000 0.500000 0.856711
O O16 0.750000 0.543884 0.874460
O O17 0.750000 0.149793 0.043157
O O18 0.549362 0.226519 0.055207
O O19 0.511492 0.137877 0.958752
O O20 0.250000 0.798481 0.512302
O O21 0.250000 0.363676 0.399288
#
# Coordination Sequence:
#
# PCOD8192332 Si02
#       8
#     8   8   8   8   8   8   8   8
#     4   9  17  33  56  81 110 144 183 227 275 327
#     4  10  20  36  57  82 114 150 189 230 269 332
#     4  10  20  35  57  84 112 148 190 230 275 332
#     4  10  22  38  59  85 112 145 190 236 282 333
#     4  10  21  37  56  82 113 148 189 228 274 329
#     4  10  22  37  54  82 117 150 184 230 286 337
#     4  10  20  33  51  81 117 150 183 221 276 335
#     4   9  19  37  59  83 108 144 191 233 278 335
#
# _framework density 18.551959
#
# number of rings (size 3 to 8) (size 9 to 14) (size 15 to 20)
#    0.000    2.250    1.250    1.125    1.750    4.000 
#    0.000    0.625    0.000    0.000    0.000    0.000 
#    0.000    0.000    0.000    0.000    0.000    0.000 
#
# Total GULP energy -396883.281629 kJ/mol
# GULP energy per Si atom -12402.602551 kJ/mol
# Density = 1.850973 g / cm^3
# Si number density = 18.551959 Si / 1000 Ang^3
#
#
#
# Elastic Constant Matrix: (Units=GPa)
#
#
# Indices 1 2 3 4 5 6 
#
# 1 69.5869 50.7812 54.8571 0.0000 0.0000 0.0000
# 2 50.7812 114.0742 62.4229 -0.0002 0.0001 0.0000
# 3 54.8571 62.4229 123.2102 -0.0009 0.0002 0.0001
# 4 0.0000 -0.0002 -0.0009 25.4049 0.0001 0.0000
# 5 0.0000 0.0001 0.0002 0.0001 16.8828 0.0000
# 6 0.0000 0.0000 0.0001 0.0000 0.0000 34.7324
#
#
#
# Elastic Compliance Matrix: (Units=1/GPa)
#
#
# Indices 1 2 3 4 5 6 
#
# 1 0.025804 -0.007195 -0.007844 0.000000 0.000000 0.000000
# 2 -0.007195 0.014135 -0.003958 0.000000 0.000000 0.000000
# 3 -0.007844 -0.003958 0.013614 0.000000 0.000000 0.000000
# 4 0.000000 0.000000 0.000000 0.039362 0.000000 0.000000
# 5 0.000000 0.000000 0.000000 0.000000 0.059232 0.000000
# 6 0.000000 0.000000 0.000000 0.000000 0.000000 0.028792
#
#
# Mechanical properties :
#
#
# Convention : Reuss Voigt Hill
#
# Bulk Modulus (GPa) = 64.26733 71.44375 67.85554
# Shear Modulus (GPa) = 22.30961 24.65802 23.48382
#
# Velocity S-wave (km/s) = 3.47154 3.64968 3.56172
# Velocity P-wave (km/s) = 7.12641 7.50693 7.31914
#
# Compressibility (1/GPa) = 0.01556001
#
# Stress axis : x y z
#
# Youngs Moduli (GPa) = 38.75303 70.74689 73.45533
#
# Poissons Ratio (x) = 0.50902 0.57617
# Poissons Ratio (y) = 0.27882 0.29073
# Poissons Ratio (z) = 0.30397 0.28001
#
# Static dielectric constant tensor:
#      x y z
#    x 3.335990 0.000000 0.000000 
#    y 0.000000 3.369180 0.000000 
#    z 0.000000 0.000000 3.291140 
# 
# 
# High freq. dielectric constant tensor:
#      x y z
#    x 1.715120 0.000000 0.000000 
#    y 0.000000 1.715000 0.000000 
#    z 0.000000 0.000000 1.714450 
# 
# From -- ./inp_files/14427.got.cif
#   From: 2010.03.12/outbox.cif.g09.slc.cpg/sg46_8_cif.got.tgz:14427.got - 2010.04.14 02:56:35.
