data_PCOD8192018
_publ_section_title
;
Structure prediction by ZEFSAII (Michael W. Deem and Ramdas Pophale) SiO2 
 PCOD8192018
Probable space group: I M A 2
;
_chemical_formula_sum "Si O2"
_cell_formula_units_Z 60
_cell_length_a 14.267840
_cell_length_b 19.793459
_cell_length_c 11.333468
_cell_angle_alpha 90.000000
_cell_angle_beta 90.000000
_cell_angle_gamma 90.000000
_cell_volume 3200.683633
_symmetry_space_group_name_H-M "I M A 2"
_symmetry_group_IT_number 46
_symmetry_cell_setting 'orthorhombic'
loop_
_space_group_symop_operation_xyz
x,y,z
-x,-y,z
1/2-x,y,z
1/2+x,-y,z
1/2+x,1/2+y,1/2+z
1/2-x,1/2-y,1/2+z
-x,1/2+y,1/2+z
x,1/2-y,1/2+z
loop_
_atom_site_type_symbol
_atom_site_label
_atom_site_fract_x
_atom_site_fract_y
_atom_site_fract_z
Si Si1 0.855055 0.470907 0.625000
Si Si2 0.645963 0.628381 0.594034
Si Si3 0.000000 0.000000 0.300115
Si Si4 0.352803 0.586671 0.370902
Si Si5 0.958851 0.653277 0.363794
Si Si6 0.644035 0.787658 0.326927
Si Si7 0.901225 0.968513 0.706065
Si Si8 0.354170 0.418318 0.953513
O O1 0.750000 0.445542 0.659223
O O2 0.860398 0.551102 0.629123
O O3 0.934871 0.449264 0.719871
O O4 0.882798 0.446032 0.495262
O O5 0.750000 0.645052 0.543661
O O6 0.567456 0.648101 0.500418
O O7 0.625139 0.669830 0.710623
O O8 0.933133 0.957098 0.382901
O O9 0.250000 0.620793 0.378025
O O10 0.429419 0.644126 0.342661
O O11 0.345566 0.528077 0.272299
O O12 0.929927 0.727122 0.320823
O O13 0.905750 0.594513 0.294082
O O14 0.750000 0.758635 0.331351
O O15 0.626921 0.837530 0.439540
O O16 0.851271 0.941419 0.589179
O O17 0.000000 0.000000 0.669691
O O18 0.250000 0.433582 0.900528
#
# Coordination Sequence:
#
# PCOD8192018 Si02
#       8
#     8   8   4   8   8   8   8   8
#     4  10  19  33  57  86 113 145 186 238 291 332
#     4  10  19  34  55  83 114 146 186 235 284 338
#     4  12  20  34  56  80 118 152 188 234 278 342
#     4  10  21  37  60  88 116 146 194 250 292 329
#     4  11  22  36  59  83 115 154 196 229 288 342
#     4  10  23  38  54  84 118 153 191 230 284 349
#     4  10  21  37  58  88 113 146 191 238 289 346
#     4  11  23  38  56  83 120 154 187 230 285 347
#
# _framework density 18.745995000000001
#
# number of rings (size 3 to 8) (size 9 to 14) (size 15 to 20)
#    0.000    1.600    3.333    2.000    2.800    1.600 
#    0.000    0.000    0.000    2.400    0.000    0.000 
#    0.000    0.000    0.000    0.000    0.000    0.000 
#
# Total GULP energy -371864.305486 kJ/mol
# GULP energy per Si atom -12395.476850 kJ/mol
# Density = 1.870333 g / cm^3
# Si number density = 18.745995 Si / 1000 Ang^3
#
#
#
# Elastic Constant Matrix: (Units=GPa)
#
#
# Indices 1 2 3 4 5 6 
#
# 1 100.9599 40.1465 16.8962 0.0000 0.0000 0.0000
# 2 40.1465 90.6512 18.3501 0.0000 0.0000 0.0000
# 3 16.8962 18.3501 62.7830 0.0000 0.0000 0.0000
# 4 0.0000 0.0000 0.0000 11.3926 0.0000 0.0000
# 5 0.0000 0.0000 0.0000 0.0000 27.0763 0.0000
# 6 0.0000 0.0000 0.0000 0.0000 0.0000 23.1038
#
#
#
# Elastic Compliance Matrix: (Units=1/GPa)
#
#
# Indices 1 2 3 4 5 6 
#
# 1 0.012213 -0.005042 -0.001813 0.000000 0.000000 0.000000
# 2 -0.005042 0.013806 -0.002678 0.000000 0.000000 0.000000
# 3 -0.001813 -0.002678 0.017199 0.000000 0.000000 0.000000
# 4 0.000000 0.000000 0.000000 0.087777 0.000000 0.000000
# 5 0.000000 0.000000 0.000000 0.000000 0.036933 0.000000
# 6 0.000000 0.000000 0.000000 0.000000 0.000000 0.043283
#
#
# Mechanical properties :
#
#
# Convention : Reuss Voigt Hill
#
# Bulk Modulus (GPa) = 41.40557 45.01997 43.21277
# Shear Modulus (GPa) = 20.97950 24.24794 22.61372
#
# Velocity S-wave (km/s) = 3.34899 3.60043 3.47698
# Velocity P-wave (km/s) = 6.09015 6.43055 6.26267
#
# Compressibility (1/GPa) = 0.02415134
#
# Stress axis : x y z
#
# Youngs Moduli (GPa) = 81.87835 72.43055 58.14388
#
# Poissons Ratio (x) = 0.36518 0.10543
# Poissons Ratio (y) = 0.41281 0.15574
# Poissons Ratio (z) = 0.14846 0.19400
#
# Static dielectric constant tensor:
#      x y z
#    x 3.662600 0.000000 0.000000 
#    y 0.000000 3.213510 0.000000 
#    z 0.000000 0.000000 3.707790 
# 
# 
# High freq. dielectric constant tensor:
#      x y z
#    x 1.736400 0.000000 0.000000 
#    y 0.000000 1.693900 0.000000 
#    z 0.000000 0.000000 1.735350 
# 
# From -- ./inp_files/11277.got.cif
#   From: 2010.03.12/outbox.cif.g09.slc.cpg/sg46_6_cif.got.tgz:11277.got - 2010.04.14 02:56:35.
