data_PCOD8192765
_publ_section_title
;
Structure prediction by ZEFSAII (Michael W. Deem and Ramdas Pophale) SiO2 
 PCOD8192765
Probable space group: I M A 2
;
_chemical_formula_sum "Si O2"
_cell_formula_units_Z 40
_cell_length_a 25.742851
_cell_length_b 5.209744
_cell_length_c 15.345987
_cell_angle_alpha 90.000000
_cell_angle_beta 90.000000
_cell_angle_gamma 90.000000
_cell_volume 2058.106537
_symmetry_space_group_name_H-M "I M A 2"
_symmetry_group_IT_number 46
_symmetry_cell_setting 'orthorhombic'
loop_
_space_group_symop_operation_xyz
x,y,z
-x,-y,z
1/2-x,y,z
1/2+x,-y,z
1/2+x,1/2+y,1/2+z
1/2-x,1/2-y,1/2+z
-x,1/2+y,1/2+z
x,1/2-y,1/2+z
loop_
_atom_site_type_symbol
_atom_site_label
_atom_site_fract_x
_atom_site_fract_y
_atom_site_fract_z
Si Si1 0.559276 0.435288 0.583040
Si Si2 0.627660 0.281586 0.738308
Si Si3 0.381968 0.764317 0.433778
Si Si4 0.808925 0.776842 0.694384
Si Si5 0.351924 0.228035 0.015557
O O1 0.500000 0.500000 0.599922
O O2 0.581668 0.287830 0.667472
O O3 0.566984 0.257771 0.496285
O O4 0.592612 0.696123 0.567233
O O5 0.601100 0.255630 0.833247
O O6 0.661933 0.537961 0.737878
O O7 0.664378 0.041607 0.720843
O O8 0.343033 0.526648 0.456415
O O9 0.351450 0.025890 0.453659
O O10 0.750000 0.779766 0.728200
O O11 0.807930 0.751250 0.589116
#
# Coordination Sequence:
#
# PCOD8192765 Si02
#       5
#     8   8   8   8   8
#     4   9  21  40  61  91 121 165 199 241 304 367
#     4  11  22  40  63  88 127 157 200 258 301 360
#     4  10  20  39  60  84 123 158 195 251 301 346
#     4  11  21  40  64  88 119 163 202 250 311 366
#     4   9  19  39  59  83 120 159 191 256 291 353
#
# _framework density 19.435338999999999
#
# number of rings (size 3 to 8) (size 9 to 14) (size 15 to 20)
#    1.200    0.800    2.000    1.800    0.000    0.800 
#    3.600    6.000    0.000    0.000    0.000    0.000 
#    0.000    0.000    0.000    0.000    0.000    0.000 
#
# Total GULP energy -247830.733559 kJ/mol
# GULP energy per Si atom -12391.536678 kJ/mol
# Density = 1.939110 g / cm^3
# Si number density = 19.435339 Si / 1000 Ang^3
#
#
#
# Elastic Constant Matrix: (Units=GPa)
#
#
# Indices 1 2 3 4 5 6 
#
# 1 96.5640 24.9769 42.6094 0.0000 0.0000 0.0000
# 2 24.9769 117.1497 28.1446 0.0000 0.0000 0.0000
# 3 42.6094 28.1446 164.3241 0.0000 0.0000 0.0000
# 4 0.0000 0.0000 0.0000 17.4088 0.0000 0.0000
# 5 0.0000 0.0000 0.0000 0.0000 3.1970 0.0000
# 6 0.0000 0.0000 0.0000 0.0000 0.0000 18.4925
#
#
#
# Elastic Compliance Matrix: (Units=1/GPa)
#
#
# Indices 1 2 3 4 5 6 
#
# 1 0.012087 -0.001902 -0.002808 0.000000 0.000000 0.000000
# 2 -0.001902 0.009202 -0.001083 0.000000 0.000000 0.000000
# 3 -0.002808 -0.001083 0.006999 0.000000 0.000000 0.000000
# 4 0.000000 0.000000 0.000000 0.057442 0.000000 0.000000
# 5 0.000000 0.000000 0.000000 0.000000 0.312791 0.000000
# 6 0.000000 0.000000 0.000000 0.000000 0.000000 0.054076
#
#
# Mechanical properties :
#
#
# Convention : Reuss Voigt Hill
#
# Bulk Modulus (GPa) = 59.87607 63.27772 61.57690
# Shear Modulus (GPa) = 10.64393 26.64012 18.64203
#
# Velocity S-wave (km/s) = 2.34275 3.70632 3.10043
# Velocity P-wave (km/s) = 6.18002 7.13754 6.67597
#
# Compressibility (1/GPa) = 0.01670116
#
# Stress axis : x y z
#
# Youngs Moduli (GPa) = 82.73290 108.67438 142.87348
#
# Poissons Ratio (x) = 0.20673 0.40124
# Poissons Ratio (y) = 0.15738 0.15470
# Poissons Ratio (z) = 0.23235 0.11767
#
# Static dielectric constant tensor:
#      x y z
#    x 3.090120 0.000000 0.000000 
#    y 0.000000 3.636140 0.000000 
#    z 0.000000 0.000000 3.652910 
# 
# 
# High freq. dielectric constant tensor:
#      x y z
#    x 1.709930 0.000000 0.000000 
#    y 0.000000 1.770540 0.000000 
#    z 0.000000 0.000000 1.762440 
# 
# From -- ./inp_files/17477.got.cif
#   From: 2010.03.12/outbox.cif.g09.slc.cpg/sg46_9_cif.got.tgz:17477.got - 2010.04.14 02:56:35.
