data_PCOD8192504
_publ_section_title
;
Structure prediction by ZEFSAII (Michael W. Deem and Ramdas Pophale) SiO2 
 PCOD8192504
Probable space group: I M A 2
;
_chemical_formula_sum "Si O2"
_cell_formula_units_Z 48
_cell_length_a 8.789798
_cell_length_b 9.124983
_cell_length_c 30.645380
_cell_angle_alpha 90.000000
_cell_angle_beta 90.000000
_cell_angle_gamma 90.000000
_cell_volume 2457.966557
_symmetry_space_group_name_H-M "I M A 2"
_symmetry_group_IT_number 46
_symmetry_cell_setting 'orthorhombic'
loop_
_space_group_symop_operation_xyz
x,y,z
-x,-y,z
1/2-x,y,z
1/2+x,-y,z
1/2+x,1/2+y,1/2+z
1/2-x,1/2-y,1/2+z
-x,1/2+y,1/2+z
x,1/2-y,1/2+z
loop_
_atom_site_type_symbol
_atom_site_label
_atom_site_fract_x
_atom_site_fract_y
_atom_site_fract_z
Si Si1 0.429284 0.158584 0.853200
Si Si2 0.070552 0.341885 0.771030
Si Si3 0.930211 0.844025 0.688641
Si Si4 0.072441 0.841114 0.014213
Si Si5 0.070030 0.158745 0.437421
Si Si6 0.927517 0.153803 0.598089
O O1 0.250000 0.141205 0.851058
O O2 0.491346 0.241634 0.810426
O O3 0.480777 0.247172 0.895792
O O4 0.500000 0.000000 0.855650
O O5 0.250000 0.357282 0.774088
O O6 0.019461 0.271470 0.725278
O O7 0.000000 0.500000 0.775679
O O8 0.750000 0.859486 0.685536
O O9 0.995794 0.788695 0.642542
O O10 0.000000 0.000000 0.701483
O O11 0.250000 0.852058 0.003367
O O12 0.994118 0.732739 0.980572
O O13 0.042575 0.777457 0.062227
O O14 0.000000 0.000000 0.010698
O O15 0.250000 0.145376 0.441516
O O16 0.000000 0.000000 0.431712
O O17 0.750000 0.126817 0.606234
O O18 0.000000 0.000000 0.582887
#
# Coordination Sequence:
#
# PCOD8192504 Si02
#       6
#     8   8   8   8   8   8
#     4  10  22  39  59  85 115 148 187 230 278 332
#     4  10  22  38  56  82 114 148 187 229 276 330
#     4  10  20  35  57  83 111 145 186 231 278 331
#     4  11  24  40  59  84 115 151 190 234 284 337
#     4  11  23  39  61  87 116 150 189 233 281 335
#     4  10  21  37  58  83 111 146 187 231 281 335
#
# _framework density 19.528337000000001
#
# number of rings (size 3 to 8) (size 9 to 14) (size 15 to 20)
#    0.000    1.667    0.000    5.000    0.000    9.333 
#    0.000    3.333    0.000    0.000    0.000    0.000 
#    0.000    0.000    0.000    0.000    0.000    0.000 
#
# Total GULP energy -297709.607786 kJ/mol
# GULP energy per Si atom -12404.566991 kJ/mol
# Density = 1.948389 g / cm^3
# Si number density = 19.528337 Si / 1000 Ang^3
#
#
#
# Elastic Constant Matrix: (Units=GPa)
#
#
# Indices 1 2 3 4 5 6 
#
# 1 80.5367 55.1787 57.6341 0.0000 0.0000 0.0000
# 2 55.1787 166.1044 83.8987 0.0000 0.0000 0.0000
# 3 57.6341 83.8987 134.0514 0.0000 0.0000 0.0000
# 4 0.0000 0.0000 0.0000 58.7040 0.0000 0.0000
# 5 0.0000 0.0000 0.0000 0.0000 15.4227 0.0000
# 6 0.0000 0.0000 0.0000 0.0000 0.0000 38.3788
#
#
#
# Elastic Compliance Matrix: (Units=1/GPa)
#
#
# Indices 1 2 3 4 5 6 
#
# 1 0.019032 -0.003201 -0.006179 0.000000 0.000000 0.000000
# 2 -0.003201 0.009342 -0.004470 0.000000 0.000000 0.000000
# 3 -0.006179 -0.004470 0.012914 0.000000 0.000000 0.000000
# 4 0.000000 0.000000 0.000000 0.017035 0.000000 0.000000
# 5 0.000000 0.000000 0.000000 0.000000 0.064839 0.000000
# 6 0.000000 0.000000 0.000000 0.000000 0.000000 0.026056
#
#
# Mechanical properties :
#
#
# Convention : Reuss Voigt Hill
#
# Bulk Modulus (GPa) = 73.60171 86.01285 79.80728
# Shear Modulus (GPa) = 27.55611 34.76650 31.16130
#
# Velocity S-wave (km/s) = 3.76051 4.22395 3.99895
# Velocity P-wave (km/s) = 7.52508 8.24195 7.89166
#
# Compressibility (1/GPa) = 0.01358664
#
# Stress axis : x y z
#
# Youngs Moduli (GPa) = 52.54351 107.04696 77.43369
#
# Poissons Ratio (x) = 0.34269 0.47846
# Poissons Ratio (y) = 0.16821 0.34615
# Poissons Ratio (z) = 0.32467 0.47854
#
# Static dielectric constant tensor:
#      x y z
#    x 3.642670 0.000000 0.000000 
#    y 0.000000 3.540470 0.000000 
#    z 0.000000 0.000000 3.895410 
# 
# 
# High freq. dielectric constant tensor:
#      x y z
#    x 1.767920 0.000000 0.000000 
#    y 0.000000 1.767480 0.000000 
#    z 0.000000 0.000000 1.779290 
# 
# From -- ./inp_files/24971.got.cif
#   From: 2010.03.12/outbox.cif.g09.slc.cpg/sg46_13_cif.got.tgz:24971.got - 2010.04.14 02:56:35.
