data_PCOD8192230
_publ_section_title
;
Structure prediction by ZEFSAII (Michael W. Deem and Ramdas Pophale) SiO2 
 PCOD8192230
Probable space group: I M A 2
;
_chemical_formula_sum "Si O2"
_cell_formula_units_Z 48
_cell_length_a 8.331646
_cell_length_b 30.636783
_cell_length_c 9.083736
_cell_angle_alpha 90.000000
_cell_angle_beta 90.000000
_cell_angle_gamma 90.000000
_cell_volume 2318.667493
_symmetry_space_group_name_H-M "I M A 2"
_symmetry_group_IT_number 46
_symmetry_cell_setting 'orthorhombic'
loop_
_space_group_symop_operation_xyz
x,y,z
-x,-y,z
1/2-x,y,z
1/2+x,-y,z
1/2+x,1/2+y,1/2+z
1/2-x,1/2-y,1/2+z
-x,1/2+y,1/2+z
x,1/2-y,1/2+z
loop_
_atom_site_type_symbol
_atom_site_label
_atom_site_fract_x
_atom_site_fract_y
_atom_site_fract_z
Si Si1 0.562302 0.451651 0.601280
Si Si2 0.565429 0.625261 0.788238
Si Si3 0.559922 0.291100 0.272582
Si Si4 0.563395 0.546746 0.285782
Si Si5 0.936261 0.376162 0.105668
Si Si6 0.440877 0.794713 0.108202
O O1 0.500000 0.500000 0.631140
O O2 0.750000 0.447864 0.633185
O O3 0.468257 0.420832 0.712613
O O4 0.528240 0.437849 0.432962
O O5 0.750000 0.627768 0.834853
O O6 0.523484 0.662976 0.674118
O O7 0.457390 0.630928 0.932516
O O8 0.750000 0.290697 0.261383
O O9 0.493582 0.333976 0.190455
O O10 0.493822 0.247842 0.192942
O O11 0.501319 0.290906 0.440194
O O12 0.500000 0.500000 0.230285
O O13 0.750000 0.542659 0.323426
O O14 0.533868 0.581419 0.157076
O O15 0.750000 0.383166 0.142217
O O16 0.250000 0.799720 0.120243
#
# Coordination Sequence:
#
# PCOD8192230 Si02
#       6
#     8   8   8   8   8   8
#     4  11  22  40  64  90 118 155 198 245 296 355
#     4  12  25  40  57  85 120 158 200 249 302 356
#     4   9  19  35  62  91 117 150 196 244 294 355
#     4  11  22  39  62  91 123 158 197 243 293 351
#     4  11  22  39  61  88 119 158 202 248 297 354
#     4  10  19  37  62  89 117 153 196 243 295 357
#
# _framework density 20.701547000000001
#
# number of rings (size 3 to 8) (size 9 to 14) (size 15 to 20)
#    0.000    1.333    0.000    8.000    0.000    4.667 
#    0.000    8.333    0.000    0.000    0.000    0.000 
#    0.000    0.000    0.000    0.000    0.000    0.000 
#
# Total GULP energy -297766.365241 kJ/mol
# GULP energy per Si atom -12406.931885 kJ/mol
# Density = 2.065443 g / cm^3
# Si number density = 20.701547 Si / 1000 Ang^3
#
#
#
# Elastic Constant Matrix: (Units=GPa)
#
#
# Indices 1 2 3 4 5 6 
#
# 1 67.2559 26.4062 7.2656 -0.0019 -0.0012 -0.0004
# 2 26.4062 127.5559 73.6425 -0.0067 -0.0015 -0.0002
# 3 7.2656 73.6425 135.2141 -0.0035 -0.0022 -0.0012
# 4 -0.0019 -0.0067 -0.0035 33.9943 -0.0019 -0.0010
# 5 -0.0012 -0.0015 -0.0022 -0.0019 23.0705 -0.0009
# 6 -0.0004 -0.0002 -0.0012 -0.0010 -0.0009 25.4892
#
#
#
# Elastic Compliance Matrix: (Units=1/GPa)
#
#
# Indices 1 2 3 4 5 6 
#
# 1 0.016366 -0.004201 0.001409 0.000000 0.000001 0.000000
# 2 -0.004201 0.012514 -0.006590 0.000002 0.000000 0.000000
# 3 0.001409 -0.006590 0.010909 0.000000 0.000001 0.000000
# 4 0.000000 0.000002 0.000000 0.029417 0.000002 0.000001
# 5 0.000001 0.000000 0.000001 0.000002 0.043345 0.000001
# 6 0.000000 0.000000 0.000000 0.000001 0.000001 0.039232
#
#
# Mechanical properties :
#
#
# Convention : Reuss Voigt Hill
#
# Bulk Modulus (GPa) = 47.56420 60.51714 54.04067
# Shear Modulus (GPa) = 28.16009 31.35824 29.75916
#
# Velocity S-wave (km/s) = 3.69221 3.89624 3.79559
# Velocity P-wave (km/s) = 6.41893 7.03829 6.73573
#
# Compressibility (1/GPa) = 0.02102422
#
# Stress axis : x y z
#
# Youngs Moduli (GPa) = 61.10247 79.91060 91.66720
#
# Poissons Ratio (x) = 0.33573 -0.12914
# Poissons Ratio (y) = 0.25671 0.60407
# Poissons Ratio (z) = -0.08608 0.52660
#
# Static dielectric constant tensor:
#      x y z
#    x 3.562130 0.000000 0.000000 
#    y 0.000000 3.937800 0.000000 
#    z 0.000000 0.000000 3.731840 
# 
# 
# High freq. dielectric constant tensor:
#      x y z
#    x 1.798610 0.000000 0.000000 
#    y 0.000000 1.825720 0.000000 
#    z 0.000000 0.000000 1.814570 
# 
# From -- ./inp_files/3920.got.cif
#   From: 2010.03.12/outbox.cif.g09.slc.cpg/sg46_2_cif.got.tgz:3920.got - 2010.04.14 02:56:35.
