data_PCOD8192969
_publ_section_title
;
Structure prediction by ZEFSAII (Michael W. Deem and Ramdas Pophale) SiO2 
 PCOD8192969
Probable space group: I M A 2
;
_chemical_formula_sum "Si O2"
_cell_formula_units_Z 36
_cell_length_a 20.850557
_cell_length_b 6.672200
_cell_length_c 12.212599
_cell_angle_alpha 90.000000
_cell_angle_beta 90.000000
_cell_angle_gamma 90.000000
_cell_volume 1699.005616
_symmetry_space_group_name_H-M "I M A 2"
_symmetry_group_IT_number 46
_symmetry_cell_setting 'orthorhombic'
loop_
_space_group_symop_operation_xyz
x,y,z
-x,-y,z
1/2-x,y,z
1/2+x,-y,z
1/2+x,1/2+y,1/2+z
1/2-x,1/2-y,1/2+z
-x,1/2+y,1/2+z
x,1/2-y,1/2+z
loop_
_atom_site_type_symbol
_atom_site_label
_atom_site_fract_x
_atom_site_fract_y
_atom_site_fract_z
Si Si1 0.891996 0.013265 0.722440
Si Si2 0.824103 0.097781 0.145588
Si Si3 0.907786 0.730107 0.531763
Si Si4 0.178897 0.318151 0.847169
Si Si5 0.500000 0.000000 0.887722
O O1 0.857661 0.187098 0.654571
O O2 0.944780 0.092498 0.809158
O O3 0.926579 0.860722 0.637272
O O4 0.838343 0.889995 0.787730
O O5 0.750000 0.116559 0.105095
O O6 0.865297 0.965800 0.060913
O O7 0.826577 0.003250 0.265483
O O8 0.866294 0.866552 0.449718
O O9 0.972603 0.671239 0.467772
O O10 0.250000 0.295958 0.893628
#
# Coordination Sequence:
#
# PCOD8192969 Si02
#       5
#     8   8   8   8   4
#     4  10  22  40  59  90 122 163 210 262 306 368
#     4  10  21  38  64  94 122 160 211 262 317 378
#     4  10  22  40  61  90 123 167 207 259 316 362
#     4   9  19  38  59  87 127 160 197 253 316 372
#     4  10  24  42  60  88 124 170 212 248 312 376
#
# _framework density 21.188865
#
# number of rings (size 3 to 8) (size 9 to 14) (size 15 to 20)
#    0.000    2.222    0.000    1.333    3.111    6.222 
#    0.000    6.667    0.000    0.000    0.000    0.000 
#    0.000    0.000    0.000    0.000    0.000    0.000 
#
# Total GULP energy -223192.660267 kJ/mol
# GULP energy per Si atom -12399.592237 kJ/mol
# Density = 2.114064 g / cm^3
# Si number density = 21.188865 Si / 1000 Ang^3
#
#
#
# Elastic Constant Matrix: (Units=GPa)
#
#
# Indices 1 2 3 4 5 6 
#
# 1 117.9686 38.8076 46.0392 0.0000 0.0000 0.0000
# 2 38.8076 79.9526 23.8732 0.0000 0.0000 0.0000
# 3 46.0392 23.8732 96.9196 0.0000 0.0000 0.0000
# 4 0.0000 0.0000 0.0000 21.9178 0.0000 0.0000
# 5 0.0000 0.0000 0.0000 0.0000 22.0789 0.0000
# 6 0.0000 0.0000 0.0000 0.0000 0.0000 23.8537
#
#
#
# Elastic Compliance Matrix: (Units=1/GPa)
#
#
# Indices 1 2 3 4 5 6 
#
# 1 0.011640 -0.004316 -0.004466 0.000000 0.000000 0.000000
# 2 -0.004316 0.015101 -0.001669 0.000000 0.000000 0.000000
# 3 -0.004466 -0.001669 0.012850 0.000000 0.000000 0.000000
# 4 0.000000 0.000000 0.000000 0.045625 0.000000 0.000000
# 5 0.000000 0.000000 0.000000 0.000000 0.045292 0.000000
# 6 0.000000 0.000000 0.000000 0.000000 0.000000 0.041922
#
#
# Mechanical properties :
#
#
# Convention : Reuss Voigt Hill
#
# Bulk Modulus (GPa) = 53.51026 56.92007 55.21516
# Shear Modulus (GPa) = 25.05480 25.97814 25.51647
#
# Velocity S-wave (km/s) = 3.44241 3.50527 3.47398
# Velocity P-wave (km/s) = 6.41163 6.58058 6.49666
#
# Compressibility (1/GPa) = 0.01868800
#
# Stress axis : x y z
#
# Youngs Moduli (GPa) = 85.91359 66.22144 77.81826
#
# Poissons Ratio (x) = 0.28582 0.34753
# Poissons Ratio (y) = 0.37082 0.12991
# Poissons Ratio (z) = 0.38368 0.11055
#
# Static dielectric constant tensor:
#      x y z
#    x 3.889520 0.000000 0.000000 
#    y 0.000000 3.508200 0.000000 
#    z 0.000000 0.000000 3.907770 
# 
# 
# High freq. dielectric constant tensor:
#      x y z
#    x 1.834370 0.000000 0.000000 
#    y 0.000000 1.808420 0.000000 
#    z 0.000000 0.000000 1.842510 
# 
# From -- ./inp_files/12606.got.cif
#   From: 2010.03.12/outbox.cif.g09.slc.cpg/sg46_7_cif.got.tgz:12606.got - 2010.04.14 02:56:35.
