data_PCOD8192260
_publ_section_title
;
Structure prediction by ZEFSAII (Michael W. Deem and Ramdas Pophale) SiO2 
 PCOD8192260
Probable space group: I M A 2
;
_chemical_formula_sum "Si O2"
_cell_formula_units_Z 64
_cell_length_a 17.655666
_cell_length_b 12.125624
_cell_length_c 14.534855
_cell_angle_alpha 90.000000
_cell_angle_beta 90.000000
_cell_angle_gamma 90.000000
_cell_volume 3111.708493
_symmetry_space_group_name_H-M "I M A 2"
_symmetry_group_IT_number 46
_symmetry_cell_setting 'orthorhombic'
loop_
_space_group_symop_operation_xyz
x,y,z
-x,-y,z
1/2-x,y,z
1/2+x,-y,z
1/2+x,1/2+y,1/2+z
1/2-x,1/2-y,1/2+z
-x,1/2+y,1/2+z
x,1/2-y,1/2+z
loop_
_atom_site_type_symbol
_atom_site_label
_atom_site_fract_x
_atom_site_fract_y
_atom_site_fract_z
Si Si1 0.553984 0.739448 0.522070
Si Si2 0.665504 0.862432 0.400650
Si Si3 0.974316 0.876134 0.682791
Si Si4 0.335208 0.338292 0.283410
Si Si5 0.941627 0.217100 0.852869
Si Si6 0.661948 0.950468 0.105433
Si Si7 0.165577 0.531024 0.411813
Si Si8 0.837799 0.422363 0.793433
O O1 0.611313 0.830030 0.483009
O O2 0.502334 0.805159 0.594811
O O3 0.493137 0.708668 0.444171
O O4 0.600559 0.643527 0.576804
O O5 0.750000 0.837715 0.435349
O O6 0.650106 0.789344 0.308920
O O7 0.654347 0.988922 0.374424
O O8 0.883393 0.875364 0.695433
O O9 0.004138 0.811652 0.770357
O O10 0.000000 0.000000 0.671872
O O11 0.250000 0.360083 0.252618
O O12 0.357336 0.408683 0.375458
O O13 0.881841 0.120851 0.859454
O O14 0.896606 0.328848 0.826533
O O15 0.750000 0.905941 0.114322
O O16 0.638491 0.019072 0.196720
O O17 0.657352 0.037387 0.021713
O O18 0.250000 0.557566 0.380853
O O19 0.750000 0.380276 0.786765
#
# Coordination Sequence:
#
# PCOD8192260 Si02
#       8
#     8   8   8   8   8   8   8   8
#     4  12  26  40  65  99 132 173 213 280 337 391
#     4  10  20  40  66  93 127 169 214 266 331 391
#     4  12  26  44  61  95 134 171 219 267 326 392
#     4  10  19  39  67  94 122 165 218 269 326 380
#     4  12  26  44  65  94 138 181 212 263 336 409
#     4  10  21  42  72 102 125 163 234 290 325 385
#     4  10  20  39  69  95 123 169 224 276 319 382
#     4  10  24  44  68  95 134 180 224 273 330 403
#
# _framework density 20.56748
#
# number of rings (size 3 to 8) (size 9 to 14) (size 15 to 20)
#    0.000    1.250    3.750    1.500    3.500    2.000 
#    0.000    0.000    0.000    0.000    0.000    0.000 
#    0.000    0.000    0.000    0.000    0.000    0.000 
#
# Total GULP energy -396538.278113 kJ/mol
# GULP energy per Si atom -12391.821191 kJ/mol
# Density = 2.052067 g / cm^3
# Si number density = 20.567480 Si / 1000 Ang^3
#
#
#
# Elastic Constant Matrix: (Units=GPa)
#
#
# Indices 1 2 3 4 5 6 
#
# 1 87.3236 52.8037 32.7095 0.0000 0.0000 0.0000
# 2 52.8037 95.2941 14.9028 0.0000 0.0000 0.0000
# 3 32.7095 14.9028 63.1369 0.0000 0.0000 0.0000
# 4 0.0000 0.0000 0.0000 18.5060 0.0000 0.0000
# 5 0.0000 0.0000 0.0000 0.0000 22.7517 0.0000
# 6 0.0000 0.0000 0.0000 0.0000 0.0000 20.8231
#
#
#
# Elastic Compliance Matrix: (Units=1/GPa)
#
#
# Indices 1 2 3 4 5 6 
#
# 1 0.020733 -0.010185 -0.008337 0.000000 0.000000 0.000000
# 2 -0.010185 0.015899 0.001524 0.000000 0.000000 0.000000
# 3 -0.008337 0.001524 0.019798 0.000000 0.000000 0.000000
# 4 0.000000 0.000000 0.000000 0.054037 0.000000 0.000000
# 5 0.000000 0.000000 0.000000 0.000000 0.043953 0.000000
# 6 0.000000 0.000000 0.000000 0.000000 0.000000 0.048024
#
#
# Mechanical properties :
#
#
# Convention : Reuss Voigt Hill
#
# Bulk Modulus (GPa) = 44.57570 49.62073 47.09822
# Shear Modulus (GPa) = 20.49866 22.10538 21.30202
#
# Velocity S-wave (km/s) = 3.16041 3.28193 3.22174
# Velocity P-wave (km/s) = 5.91925 6.20803 6.06536
#
# Compressibility (1/GPa) = 0.02243375
#
# Stress axis : x y z
#
# Youngs Moduli (GPa) = 48.23179 62.89696 50.50933
#
# Poissons Ratio (x) = 0.64059 0.42111
# Poissons Ratio (y) = 0.49123 -0.07696
# Poissons Ratio (z) = 0.40212 -0.09583
#
# Static dielectric constant tensor:
#      x y z
#    x 3.931470 0.000000 0.000000 
#    y 0.000000 3.635240 0.000000 
#    z 0.000000 0.000000 3.775300 
# 
# 
# High freq. dielectric constant tensor:
#      x y z
#    x 1.812160 0.000000 0.000000 
#    y 0.000000 1.795620 0.000000 
#    z 0.000000 0.000000 1.805750 
# 
# From -- ./inp_files/16787.got.cif
#   From: 2010.03.12/outbox.cif.g09.slc.cpg/sg46_9_cif.got.tgz:16787.got - 2010.04.14 02:56:35.
