data_PCOD8192793
_publ_section_title
;
Structure prediction by ZEFSAII (Michael W. Deem and Ramdas Pophale) SiO2 
 PCOD8192793
Probable space group: I M A 2
;
_chemical_formula_sum "Si O2"
_cell_formula_units_Z 48
_cell_length_a 18.005567
_cell_length_b 8.828430
_cell_length_c 14.956210
_cell_angle_alpha 90.000000
_cell_angle_beta 90.000000
_cell_angle_gamma 90.000000
_cell_volume 2377.452421
_symmetry_space_group_name_H-M "I M A 2"
_symmetry_group_IT_number 46
_symmetry_cell_setting 'orthorhombic'
loop_
_space_group_symop_operation_xyz
x,y,z
-x,-y,z
1/2-x,y,z
1/2+x,-y,z
1/2+x,1/2+y,1/2+z
1/2-x,1/2-y,1/2+z
-x,1/2+y,1/2+z
x,1/2-y,1/2+z
loop_
_atom_site_type_symbol
_atom_site_label
_atom_site_fract_x
_atom_site_fract_y
_atom_site_fract_z
Si Si1 0.250000 0.334467 0.539110
Si Si2 0.481657 0.679185 0.938924
Si Si3 0.864112 0.826267 0.891197
Si Si4 0.120570 0.804954 0.608398
Si Si5 0.750000 0.500718 0.038187
Si Si6 0.572627 0.098566 0.800655
Si Si7 0.750000 0.584771 0.839980
Si Si8 0.750000 0.410849 0.666597
O O1 0.321537 0.371321 0.480458
O O2 0.250000 0.167081 0.576494
O O3 0.250000 0.422212 0.630039
O O4 0.500000 0.500000 0.929988
O O5 0.557448 0.769924 0.927939
O O6 0.428715 0.745863 0.859696
O O7 0.442799 0.723687 0.033501
O O8 0.822921 0.692794 0.835221
O O9 0.863782 0.980914 0.832489
O O10 0.080115 0.856700 0.697971
O O11 0.174273 0.665262 0.632207
O O12 0.173651 0.934082 0.572619
O O13 0.750000 0.493472 0.931935
O O14 0.500000 0.000000 0.813514
O O15 0.750000 0.443054 0.772194
#
# Coordination Sequence:
#
# PCOD8192793 Si02
#       8
#     4   8   8   8   4   8   4   4
#     4  10  20  40  62  91 121 163 213 259 323 375
#     4  11  22  41  66  93 131 169 213 271 326 387
#     4   9  21  41  66  89 126 173 205 266 322 391
#     4  11  24  41  62  94 127 171 210 267 322 387
#     4   9  22  39  63  87 121 176 211 248 332 388
#     4  10  23  40  62  95 125 167 217 255 328 389
#     4  10  22  41  65  95 130 168 220 269 330 388
#     4  11  26  38  62  99 128 163 220 276 311 389
#
# _framework density 20.189679000000002
#
# number of rings (size 3 to 8) (size 9 to 14) (size 15 to 20)
#    0.000    2.000    0.000    3.500    7.000    2.000 
#    3.000    2.500    0.000    0.000    0.000    0.000 
#    0.000    0.000    0.000    0.000    0.000    0.000 
#
# Total GULP energy -297354.535084 kJ/mol
# GULP energy per Si atom -12389.772295 kJ/mol
# Density = 2.014373 g / cm^3
# Si number density = 20.189679 Si / 1000 Ang^3
#
#
#
# Elastic Constant Matrix: (Units=GPa)
#
#
# Indices 1 2 3 4 5 6 
#
# 1 92.9868 39.2802 43.3509 0.0000 0.0000 0.0000
# 2 39.2802 115.8374 80.2976 0.0000 0.0000 0.0000
# 3 43.3509 80.2976 140.5947 0.0000 0.0000 0.0000
# 4 0.0000 0.0000 0.0000 40.2406 0.0000 0.0000
# 5 0.0000 0.0000 0.0000 0.0000 83.8691 0.0000
# 6 0.0000 0.0000 0.0000 0.0000 0.0000 -74.5633
#
#
#
# Elastic Compliance Matrix: (Units=1/GPa)
#
#
# Indices 1 2 3 4 5 6 
#
# 1 0.013054 -0.002709 -0.002478 0.000000 0.000000 0.000000
# 2 -0.002709 0.014852 -0.007647 0.000000 0.000000 0.000000
# 3 -0.002478 -0.007647 0.012244 0.000000 0.000000 0.000000
# 4 0.000000 0.000000 0.000000 0.024851 0.000000 0.000000
# 5 0.000000 0.000000 0.000000 0.000000 0.011923 0.000000
# 6 0.000000 0.000000 0.000000 0.000000 0.000000 -0.013411
#
#
# Mechanical properties :
#
#
# Convention : Reuss Voigt Hill
#
# Bulk Modulus (GPa) = 69.05013 75.03071 72.04042
# Shear Modulus (GPa) = 53.18657 22.34197 37.76427
#
# Velocity S-wave (km/s) = 5.13815 3.33017 4.32959
# Velocity P-wave (km/s) = 8.33521 7.21320 7.79442
#
# Compressibility (1/GPa) = 0.01448223
#
# Stress axis : x y z
#
# Youngs Moduli (GPa) = 76.60665 67.32874 81.67039
#
# Poissons Ratio (x) = 0.18238 0.20237
# Poissons Ratio (y) = 0.20751 0.62457
# Poissons Ratio (z) = 0.18982 0.51489
#
# Static dielectric constant tensor:
#      x y z
#    x 3.571430 0.000000 0.000000 
#    y 0.000000 3.933820 0.000000 
#    z 0.000000 0.000000 3.656070 
# 
# 
# High freq. dielectric constant tensor:
#      x y z
#    x 1.795750 0.000000 0.000000 
#    y 0.000000 1.795530 0.000000 
#    z 0.000000 0.000000 1.790090 
# 
# From -- ./inp_files/16594.got.cif
#   From: 2010.03.12/outbox.cif.g09.slc.cpg/sg46_9_cif.got.tgz:16594.got - 2010.04.14 02:56:35.
