data_PCOD8192120
_publ_section_title
;
Structure prediction by ZEFSAII (Michael W. Deem and Ramdas Pophale) SiO2 
 PCOD8192120
Probable space group: I M A 2
;
_chemical_formula_sum "Si O2"
_cell_formula_units_Z 64
_cell_length_a 20.462582
_cell_length_b 16.071964
_cell_length_c 9.852508
_cell_angle_alpha 90.000000
_cell_angle_beta 90.000000
_cell_angle_gamma 90.000000
_cell_volume 3240.232546
_symmetry_space_group_name_H-M "I M A 2"
_symmetry_group_IT_number 46
_symmetry_cell_setting 'orthorhombic'
loop_
_space_group_symop_operation_xyz
x,y,z
-x,-y,z
1/2-x,y,z
1/2+x,-y,z
1/2+x,1/2+y,1/2+z
1/2-x,1/2-y,1/2+z
-x,1/2+y,1/2+z
x,1/2-y,1/2+z
loop_
_atom_site_type_symbol
_atom_site_label
_atom_site_fract_x
_atom_site_fract_y
_atom_site_fract_z
Si Si1 0.515591 0.354596 0.297950
Si Si2 0.380433 0.092825 0.932306
Si Si3 0.562592 0.439542 0.543278
Si Si4 0.822454 0.825769 0.704545
Si Si5 0.057577 0.938891 0.527495
Si Si6 0.618438 0.654588 0.724153
Si Si7 0.826122 0.557908 0.963464
Si Si8 0.027152 0.837630 0.284557
O O1 0.442286 0.382875 0.335739
O O2 0.557060 0.366470 0.433850
O O3 0.545848 0.414411 0.183195
O O4 0.525084 0.259852 0.250923
O O5 0.321010 0.106545 0.827565
O O6 0.371701 0.151438 0.062470
O O7 0.378798 0.999363 0.993928
O O8 0.500000 0.500000 0.548852
O O9 0.574350 0.391518 0.684773
O O10 0.750000 0.790462 0.681639
O O11 0.868184 0.750901 0.756912
O O12 0.847296 0.867783 0.565471
O O13 0.051616 0.855421 0.436525
O O14 0.128689 0.979233 0.501678
O O15 0.000000 0.000000 0.478736
O O16 0.545577 0.627537 0.762424
O O17 0.664106 0.591739 0.810143
O O18 0.750000 0.532869 0.983719
#
# Coordination Sequence:
#
# PCOD8192120 Si02
#       8
#     8   8   8   8   8   8   8   8
#     4  11  22  34  56  87 119 148 191 248 310 358
#     4  11  22  36  59  81 121 161 199 248 300 356
#     4  10  19  35  50  78 112 150 186 240 299 351
#     4  11  24  39  57  84 122 170 210 238 284 364
#     4  12  23  37  62  89 119 157 206 254 306 358
#     4  12  22  36  57  87 127 163 197 246 299 367
#     4  11  25  43  61  87 124 169 213 252 298 362
#     4  12  22  35  56  89 122 152 194 250 312 365
#
# _framework density 19.751667999999999
#
# number of rings (size 3 to 8) (size 9 to 14) (size 15 to 20)
#    0.000    0.750    5.000    5.625    0.000    2.000 
#    0.000    0.000    0.000    0.750    0.000    1.750 
#    0.000    0.000    0.000    0.000    0.000    0.000 
#
# Total GULP energy -396626.665239 kJ/mol
# GULP energy per Si atom -12394.583289 kJ/mol
# Density = 1.970671 g / cm^3
# Si number density = 19.751668 Si / 1000 Ang^3
#
#
#
# Elastic Constant Matrix: (Units=GPa)
#
#
# Indices 1 2 3 4 5 6 
#
# 1 61.9463 27.1237 25.6214 0.0000 0.0000 0.0000
# 2 27.1237 88.4775 25.7899 0.0000 0.0000 0.0000
# 3 25.6214 25.7899 111.5855 0.0000 0.0000 0.0000
# 4 0.0000 0.0000 0.0000 42.7911 0.0000 0.0000
# 5 0.0000 0.0000 0.0000 0.0000 23.0172 0.0000
# 6 0.0000 0.0000 0.0000 0.0000 0.0000 20.1886
#
#
#
# Elastic Compliance Matrix: (Units=1/GPa)
#
#
# Indices 1 2 3 4 5 6 
#
# 1 0.019757 -0.005076 -0.003363 0.000000 0.000000 0.000000
# 2 -0.005076 0.013423 -0.001937 0.000000 0.000000 0.000000
# 3 -0.003363 -0.001937 0.010182 0.000000 0.000000 0.000000
# 4 0.000000 0.000000 0.000000 0.023369 0.000000 0.000000
# 5 0.000000 0.000000 0.000000 0.000000 0.043446 0.000000
# 6 0.000000 0.000000 0.000000 0.000000 0.000000 0.049533
#
#
# Mechanical properties :
#
#
# Convention : Reuss Voigt Hill
#
# Bulk Modulus (GPa) = 44.23037 46.56435 45.39736
# Shear Modulus (GPa) = 26.59599 29.43099 28.01349
#
# Velocity S-wave (km/s) = 3.67347 3.86431 3.77010
# Velocity P-wave (km/s) = 6.35881 6.59822 6.47962
#
# Compressibility (1/GPa) = 0.02260890
#
# Stress axis : x y z
#
# Youngs Moduli (GPa) = 50.61568 74.49876 98.21653
#
# Poissons Ratio (x) = 0.37818 0.33031
# Poissons Ratio (y) = 0.25694 0.19022
# Poissons Ratio (z) = 0.17023 0.14429
#
# Static dielectric constant tensor:
#      x y z
#    x 3.314240 0.000000 0.000000 
#    y 0.000000 3.588320 0.000000 
#    z 0.000000 0.000000 3.801300 
# 
# 
# High freq. dielectric constant tensor:
#      x y z
#    x 1.721380 0.000000 0.000000 
#    y 0.000000 1.764000 0.000000 
#    z 0.000000 0.000000 1.794700 
# 
# From -- ./inp_files/7975.got.cif
#   From: 2010.03.12/outbox.cif.g09.slc.cpg/sg46_4_cif.got.tgz:7975.got - 2010.04.14 02:56:35.
