data_PCOD8192129
_publ_section_title
;
Structure prediction by ZEFSAII (Michael W. Deem and Ramdas Pophale) SiO2 
 PCOD8192129
Probable space group: I M A 2
;
_chemical_formula_sum "Si O2"
_cell_formula_units_Z 64
_cell_length_a 8.998949
_cell_length_b 25.815464
_cell_length_c 13.532109
_cell_angle_alpha 90.000000
_cell_angle_beta 90.000000
_cell_angle_gamma 90.000000
_cell_volume 3143.671901
_symmetry_space_group_name_H-M "I M A 2"
_symmetry_group_IT_number 46
_symmetry_cell_setting 'orthorhombic'
loop_
_space_group_symop_operation_xyz
x,y,z
-x,-y,z
1/2-x,y,z
1/2+x,-y,z
1/2+x,1/2+y,1/2+z
1/2-x,1/2-y,1/2+z
-x,1/2+y,1/2+z
x,1/2-y,1/2+z
loop_
_atom_site_type_symbol
_atom_site_label
_atom_site_fract_x
_atom_site_fract_y
_atom_site_fract_z
Si Si1 0.082541 0.423819 0.714590
Si Si2 0.420204 0.448531 0.943713
Si Si3 0.573750 0.166155 0.967838
Si Si4 0.908521 0.167361 0.260536
Si Si5 0.573409 0.737853 0.066047
Si Si6 0.424045 0.550296 0.527078
Si Si7 0.077457 0.715515 0.263197
Si Si8 0.912435 0.147753 0.476793
O O1 0.250000 0.430270 0.675810
O O2 0.064284 0.443749 0.825490
O O3 0.038760 0.362730 0.703394
O O4 0.970770 0.453937 0.642248
O O5 0.500000 0.500000 0.980022
O O6 0.250000 0.450535 0.975236
O O7 0.493819 0.402546 0.008935
O O8 0.750000 0.173340 0.977494
O O9 0.521414 0.181819 0.856813
O O10 0.499383 0.204949 0.049666
O O11 0.524128 0.106291 0.983696
O O12 0.750000 0.164961 0.200646
O O13 0.952257 0.225055 0.288777
O O14 0.882324 0.137460 0.362202
O O15 0.750000 0.742890 0.061936
O O16 0.521209 0.707251 0.165353
O O17 0.510859 0.699734 0.982737
O O18 0.500000 0.500000 0.473283
O O19 0.250000 0.543874 0.515429
O O20 0.250000 0.703471 0.240799
O O21 0.750000 0.152062 0.530727
#
# Coordination Sequence:
#
# PCOD8192129 Si02
#       8
#     8   8   8   8   8   8   8   8
#     4  10  20  32  50  78 115 151 189 232 282 343
#     4  10  20  33  50  77 110 149 192 239 290 347
#     4  10  22  42  63  85 114 157 203 243 290 356
#     4   9  17  31  53  78 106 144 186 229 275 330
#     4  12  24  36  56  89 123 152 187 240 300 355
#     4  11  23  38  58  81 111 149 195 243 293 349
#     4  10  20  37  59  81 110 149 195 237 280 346
#     4  10  19  35  56  77 107 149 190 230 278 337
#
# _framework density 20.358357999999999
#
# number of rings (size 3 to 8) (size 9 to 14) (size 15 to 20)
#    0.000    1.750    1.250    3.750    0.000    8.000 
#    0.000    0.000    0.000    0.750    0.000    3.500 
#    0.000    0.000    0.000    0.000    0.000    0.000 
#
# Total GULP energy -396450.485119 kJ/mol
# GULP energy per Si atom -12389.077660 kJ/mol
# Density = 2.031202 g / cm^3
# Si number density = 20.358358 Si / 1000 Ang^3
#
#
#
# Elastic Constant Matrix: (Units=GPa)
#
#
# Indices 1 2 3 4 5 6 
#
# 1 106.0451 54.2424 11.7843 0.0002 -0.0001 0.0000
# 2 54.2424 145.4239 12.6581 0.0001 0.0000 0.0000
# 3 11.7843 12.6581 49.7314 -0.0010 0.0001 0.0003
# 4 0.0002 0.0001 -0.0010 20.5250 0.0001 0.0002
# 5 -0.0001 0.0000 0.0001 0.0001 21.0212 -0.0001
# 6 0.0000 0.0000 0.0003 0.0002 -0.0001 36.4156
#
#
#
# Elastic Compliance Matrix: (Units=1/GPa)
#
#
# Indices 1 2 3 4 5 6 
#
# 1 0.011794 -0.004250 -0.001713 0.000000 0.000000 0.000000
# 2 -0.004250 0.008564 -0.001173 0.000000 0.000000 0.000000
# 3 -0.001713 -0.001173 0.020812 0.000001 0.000000 0.000000
# 4 0.000000 0.000000 0.000001 0.048721 0.000000 0.000000
# 5 0.000000 0.000000 0.000000 0.000000 0.047571 0.000000
# 6 0.000000 0.000000 0.000000 0.000000 0.000000 0.027461
#
#
# Mechanical properties :
#
#
# Convention : Reuss Voigt Hill
#
# Bulk Modulus (GPa) = 37.17608 50.95222 44.06415
# Shear Modulus (GPa) = 26.57300 30.42675 28.49988
#
# Velocity S-wave (km/s) = 3.61676 3.87015 3.74560
# Velocity P-wave (km/s) = 5.97844 6.71213 6.35588
#
# Compressibility (1/GPa) = 0.02689902
#
# Stress axis : x y z
#
# Youngs Moduli (GPa) = 84.78716 116.77088 48.04829
#
# Poissons Ratio (x) = 0.49629 0.08231
# Poissons Ratio (y) = 0.36035 0.05634
# Poissons Ratio (z) = 0.14524 0.13693
#
# Static dielectric constant tensor:
#      x y z
#    x 3.824390 0.000000 0.000000 
#    y 0.000000 3.851810 0.000000 
#    z 0.000000 0.000000 3.490860 
# 
# 
# High freq. dielectric constant tensor:
#      x y z
#    x 1.794020 0.000000 0.000000 
#    y 0.000000 1.801360 0.000000 
#    z 0.000000 0.000000 1.754630 
# 
# From -- ./inp_files/14531.got.cif
#   From: 2010.03.12/outbox.cif.g09.slc.cpg/sg46_8_cif.got.tgz:14531.got - 2010.04.14 02:56:35.
