data_PCOD8192270
_publ_section_title
;
Structure prediction by ZEFSAII (Michael W. Deem and Ramdas Pophale) SiO2 
 PCOD8192270
Probable space group: I M A 2
;
_chemical_formula_sum "Si O2"
_cell_formula_units_Z 48
_cell_length_a 15.748639
_cell_length_b 8.819053
_cell_length_c 18.901506
_cell_angle_alpha 90.000000
_cell_angle_beta 90.000000
_cell_angle_gamma 90.000000
_cell_volume 2625.193916
_symmetry_space_group_name_H-M "I M A 2"
_symmetry_group_IT_number 46
_symmetry_cell_setting 'orthorhombic'
loop_
_space_group_symop_operation_xyz
x,y,z
-x,-y,z
1/2-x,y,z
1/2+x,-y,z
1/2+x,1/2+y,1/2+z
1/2-x,1/2-y,1/2+z
-x,1/2+y,1/2+z
x,1/2-y,1/2+z
loop_
_atom_site_type_symbol
_atom_site_label
_atom_site_fract_x
_atom_site_fract_y
_atom_site_fract_z
Si Si1 0.001356 0.819555 0.046810
Si Si2 0.343907 0.304481 0.798571
Si Si3 0.418517 0.894481 0.282874
Si Si4 0.845121 0.335187 0.638503
Si Si5 0.344356 0.306771 0.637202
Si Si6 0.508226 0.821619 0.885279
O O1 0.090137 0.761676 0.081263
O O2 0.919122 0.745609 0.086023
O O3 0.998438 0.766764 0.965944
O O4 0.000000 0.000000 0.054027
O O5 0.250000 0.248161 0.814654
O O6 0.348060 0.486795 0.810250
O O7 0.369589 0.264149 0.717677
O O8 0.400275 0.217050 0.854676
O O9 0.384893 0.801282 0.215498
O O10 0.436559 0.769553 0.342492
O O11 0.500000 0.000000 0.263297
O O12 0.750000 0.263923 0.631000
O O13 0.838593 0.513906 0.628443
O O14 0.250000 0.239987 0.618363
O O15 0.500000 0.000000 0.877609
#
# Coordination Sequence:
#
# PCOD8192270 Si02
#       6
#     8   8   8   8   8   8
#     4   9  16  27  42  66  99 125 151 192 241 289
#     4   9  17  32  53  75  94 120 164 211 242 277
#     4   9  16  30  52  72  91 121 163 203 240 281
#     4   9  15  26  46  70  90 116 159 209 244 269
#     4   8  14  26  49  73  89 112 157 209 246 272
#     4  10  20  31  46  72 105 136 156 184 243 304
#
# _framework density 18.284364
#
# number of rings (size 3 to 8) (size 9 to 14) (size 15 to 20)
#    0.000    3.000    0.000    5.000    0.000    0.667 
#    0.000    5.833    0.000   12.000    0.000    0.000 
#    0.000    0.000    0.000    0.000    0.000    0.000 
#
# Total GULP energy -297400.083178 kJ/mol
# GULP energy per Si atom -12391.670132 kJ/mol
# Density = 1.824275 g / cm^3
# Si number density = 18.284364 Si / 1000 Ang^3
#
#
#
# Elastic Constant Matrix: (Units=GPa)
#
#
# Indices 1 2 3 4 5 6 
#
# 1 138.2758 16.8397 98.0588 0.0000 0.0000 0.0000
# 2 16.8397 32.2294 38.9322 0.0000 0.0000 0.0000
# 3 98.0588 38.9322 160.1825 0.0000 0.0000 0.0000
# 4 0.0000 0.0000 0.0000 22.4873 0.0000 0.0000
# 5 0.0000 0.0000 0.0000 0.0000 15.9350 0.0000
# 6 0.0000 0.0000 0.0000 0.0000 0.0000 12.7598
#
#
#
# Elastic Compliance Matrix: (Units=1/GPa)
#
#
# Indices 1 2 3 4 5 6 
#
# 1 0.013141 0.004036 -0.009025 0.000000 0.000000 0.000000
# 2 0.004036 0.045163 -0.013448 0.000000 0.000000 0.000000
# 3 -0.009025 -0.013448 0.015036 0.000000 0.000000 0.000000
# 4 0.000000 0.000000 0.000000 0.044469 0.000000 0.000000
# 5 0.000000 0.000000 0.000000 0.000000 0.062755 0.000000
# 6 0.000000 0.000000 0.000000 0.000000 0.000000 0.078371
#
#
# Mechanical properties :
#
#
# Convention : Reuss Voigt Hill
#
# Bulk Modulus (GPa) = 27.42224 70.92770 49.17497
# Shear Modulus (GPa) = 16.23558 22.02688 19.13123
#
# Velocity S-wave (km/s) = 2.98308 3.47462 3.23819
# Velocity P-wave (km/s) = 5.18606 7.41438 6.39798
#
# Compressibility (1/GPa) = 0.03646675
#
# Stress axis : x y z
#
# Youngs Moduli (GPa) = 76.09899 22.14192 66.50494
#
# Poissons Ratio (x) = -0.08938 0.60024
# Poissons Ratio (y) = -0.30717 0.89435
# Poissons Ratio (z) = 0.68683 0.29776
#
# Static dielectric constant tensor:
#      x y z
#    x 3.984900 0.000000 0.000000 
#    y 0.000000 2.810750 0.000000 
#    z 0.000000 0.000000 3.381970 
# 
# 
# High freq. dielectric constant tensor:
#      x y z
#    x 1.723000 0.000000 0.000000 
#    y 0.000000 1.646170 0.000000 
#    z 0.000000 0.000000 1.704200 
# 
# From -- ./inp_files/19398.got.cif
#   From: 2010.03.12/outbox.cif.g09.slc.cpg/sg46_10_cif.got.tgz:19398.got - 2010.04.14 02:56:35.
