data_PCOD8192533
_publ_section_title
;
Structure prediction by ZEFSAII (Michael W. Deem and Ramdas Pophale) SiO2 
 PCOD8192533
Probable space group: I M A 2
;
_chemical_formula_sum "Si O2"
_cell_formula_units_Z 48
_cell_length_a 8.701580
_cell_length_b 27.877196
_cell_length_c 10.080730
_cell_angle_alpha 90.000000
_cell_angle_beta 90.000000
_cell_angle_gamma 90.000000
_cell_volume 2445.339644
_symmetry_space_group_name_H-M "I M A 2"
_symmetry_group_IT_number 46
_symmetry_cell_setting 'orthorhombic'
loop_
_space_group_symop_operation_xyz
x,y,z
-x,-y,z
1/2-x,y,z
1/2+x,-y,z
1/2+x,1/2+y,1/2+z
1/2-x,1/2-y,1/2+z
-x,1/2+y,1/2+z
x,1/2-y,1/2+z
loop_
_atom_site_type_symbol
_atom_site_label
_atom_site_fract_x
_atom_site_fract_y
_atom_site_fract_z
Si Si1 0.429363 0.193323 0.080510
Si Si2 0.569573 0.950510 0.718654
Si Si3 0.569741 0.357471 0.334353
Si Si4 0.426872 0.794299 0.588227
Si Si5 0.567985 0.550107 0.914854
Si Si6 0.072355 0.645380 0.828043
O O1 0.250000 0.184885 0.058027
O O2 0.466950 0.248974 0.058857
O O3 0.477879 0.178300 0.227572
O O4 0.523516 0.161155 0.977969
O O5 0.750000 0.954315 0.728577
O O6 0.512384 0.907801 0.810787
O O7 0.516625 0.941854 0.567104
O O8 0.500000 0.000000 0.773365
O O9 0.750000 0.366260 0.325821
O O10 0.518262 0.318515 0.224972
O O11 0.250000 0.777191 0.596916
O O12 0.450850 0.832943 0.473431
O O13 0.500000 0.500000 0.862163
O O14 0.750000 0.550389 0.897699
O O15 0.494345 0.591764 0.825798
O O16 0.250000 0.644560 0.785995
#
# Coordination Sequence:
#
# PCOD8192533 Si02
#       6
#     8   8   8   8   8   8
#     4  12  26  40  57  86 123 160 198 244 299 354
#     4  10  20  35  59  90 122 154 194 242 292 347
#     4  11  22  40  63  88 119 157 200 245 296 351
#     4  10  22  40  63  88 115 154 203 248 293 350
#     4  10  20  35  59  90 122 154 194 242 292 347
#     4  11  22  40  63  88 119 157 200 245 296 351
#
# _framework density 19.629176000000001
#
# number of rings (size 3 to 8) (size 9 to 14) (size 15 to 20)
#    0.000    1.333    1.667    4.500    0.000    8.000 
#    0.000    0.833    0.000    0.000    0.000    0.000 
#    0.000    0.000    0.000    0.000    0.000    0.000 
#
# Total GULP energy -297779.867699 kJ/mol
# GULP energy per Si atom -12407.494487 kJ/mol
# Density = 1.958450 g / cm^3
# Si number density = 19.629176 Si / 1000 Ang^3
#
#
#
# Elastic Constant Matrix: (Units=GPa)
#
#
# Indices 1 2 3 4 5 6 
#
# 1 64.2721 39.0931 18.0439 0.0040 -0.0002 -0.0002
# 2 39.0931 122.9379 14.3853 0.0023 -0.0001 0.0001
# 3 18.0439 14.3853 54.4379 -0.0057 -0.0008 -0.0007
# 4 0.0040 0.0023 -0.0057 115.0399 0.0022 0.0002
# 5 -0.0002 -0.0001 -0.0008 0.0022 29.1567 0.0000
# 6 -0.0002 0.0001 -0.0007 0.0002 0.0000 40.5814
#
#
#
# Elastic Compliance Matrix: (Units=1/GPa)
#
#
# Indices 1 2 3 4 5 6 
#
# 1 0.020660 -0.005953 -0.005275 -0.000001 0.000000 0.000000
# 2 -0.005953 0.010109 -0.000698 0.000000 0.000000 0.000000
# 3 -0.005275 -0.000698 0.020303 0.000001 0.000000 0.000000
# 4 -0.000001 0.000000 0.000001 0.008693 -0.000001 0.000000
# 5 0.000000 0.000000 0.000000 -0.000001 0.034297 0.000000
# 6 0.000000 0.000000 0.000000 0.000000 0.000000 0.024642
#
#
# Mechanical properties :
#
#
# Convention : Reuss Voigt Hill
#
# Bulk Modulus (GPa) = 36.73778 42.74361 39.74069
# Shear Modulus (GPa) = 32.97529 48.29730 40.63629
#
# Velocity S-wave (km/s) = 4.10312 4.96571 4.55488
# Velocity P-wave (km/s) = 6.41903 7.39598 6.92476
#
# Compressibility (1/GPa) = 0.02721994
#
# Stress axis : x y z
#
# Youngs Moduli (GPa) = 48.40173 98.92420 49.25495
#
# Poissons Ratio (x) = 0.58885 0.25982
# Poissons Ratio (y) = 0.28811 0.03439
# Poissons Ratio (z) = 0.25532 0.06907
#
# Static dielectric constant tensor:
#      x y z
#    x 3.585850 -0.000010 0.000000 
#    y -0.000010 3.039540 0.000050 
#    z 0.000000 0.000050 3.439180 
# 
# 
# High freq. dielectric constant tensor:
#      x y z
#    x 1.773970 0.000000 0.000000 
#    y 0.000000 1.777740 0.000000 
#    z 0.000000 0.000000 1.749120 
# 
# From -- ./inp_files/3902.got.cif
#   From: 2010.03.12/outbox.cif.g09.slc.cpg/sg46_2_cif.got.tgz:3902.got - 2010.04.14 02:56:35.
