data_PCOD8192458
_publ_section_title
;
Structure prediction by ZEFSAII (Michael W. Deem and Ramdas Pophale) SiO2 
 PCOD8192458
Probable space group: I M A 2
;
_chemical_formula_sum "Si O2"
_cell_formula_units_Z 52
_cell_length_a 21.022879
_cell_length_b 13.863004
_cell_length_c 9.549581
_cell_angle_alpha 90.000000
_cell_angle_beta 90.000000
_cell_angle_gamma 90.000000
_cell_volume 2783.132328
_symmetry_space_group_name_H-M "I M A 2"
_symmetry_group_IT_number 46
_symmetry_cell_setting 'orthorhombic'
loop_
_space_group_symop_operation_xyz
x,y,z
-x,-y,z
1/2-x,y,z
1/2+x,-y,z
1/2+x,1/2+y,1/2+z
1/2-x,1/2-y,1/2+z
-x,1/2+y,1/2+z
x,1/2-y,1/2+z
loop_
_atom_site_type_symbol
_atom_site_label
_atom_site_fract_x
_atom_site_fract_y
_atom_site_fract_z
Si Si1 0.458622 0.644483 0.746670
Si Si2 0.250000 0.271234 0.085600
Si Si3 0.250000 0.375153 0.356254
Si Si4 0.093662 0.050444 0.206854
Si Si5 0.485440 0.823089 0.558432
Si Si6 0.877282 0.814685 0.446593
Si Si7 0.000000 0.500000 0.237048
Si Si8 0.616353 0.902205 0.895240
O O1 0.522677 0.588050 0.719468
O O2 0.402698 0.566397 0.720139
O O3 0.455299 0.733483 0.640679
O O4 0.454202 0.681722 0.905615
O O5 0.250000 0.279424 0.254877
O O6 0.250000 0.164611 0.017234
O O7 0.314194 0.324888 0.037956
O O8 0.185166 0.437183 0.332231
O O9 0.131612 0.101193 0.332302
O O10 0.122363 0.081407 0.060108
O O11 0.562233 0.826805 0.549939
O O12 0.466198 0.920027 0.640810
O O13 0.887942 0.712576 0.367244
O O14 0.944619 0.543769 0.334214
#
# Coordination Sequence:
#
# PCOD8192458 Si02
#       8
#     8   4   4   8   8   8   4   8
#     4  10  21  35  52  80 114 152 187 238 286 345
#     4  10  22  34  56  78 115 156 191 223 279 358
#     4  10  24  36  52  84 117 156 193 225 287 350
#     4  10  20  35  53  79 114 153 192 230 285 340
#     4  11  21  34  55  80 119 148 190 237 295 339
#     4  10  21  36  55  81 116 155 186 230 283 351
#     4  12  22  34  56  86 110 156 194 246 292 346
#     4  11  23  34  58  83 120 151 193 236 287 346
#
# _framework density 18.683985
#
# number of rings (size 3 to 8) (size 9 to 14) (size 15 to 20)
#    0.000    1.538    1.538    5.538   10.769    0.000 
#    0.000    0.000    0.000    0.000    0.000    2.154 
#    0.000    0.000    0.000    0.000    0.000    0.000 
#
# Total GULP energy -322215.731039 kJ/mol
# GULP energy per Si atom -12392.912732 kJ/mol
# Density = 1.864146 g / cm^3
# Si number density = 18.683985 Si / 1000 Ang^3
#
#
#
# Elastic Constant Matrix: (Units=GPa)
#
#
# Indices 1 2 3 4 5 6 
#
# 1 72.9963 21.4583 30.0243 0.0000 0.0000 0.0000
# 2 21.4583 114.9795 50.6573 0.0000 0.0000 0.0000
# 3 30.0243 50.6573 100.1618 0.0000 0.0000 0.0000
# 4 0.0000 0.0000 0.0000 8.2075 0.0000 0.0000
# 5 0.0000 0.0000 0.0000 0.0000 27.0414 0.0000
# 6 0.0000 0.0000 0.0000 0.0000 0.0000 11.0715
#
#
#
# Elastic Compliance Matrix: (Units=1/GPa)
#
#
# Indices 1 2 3 4 5 6 
#
# 1 0.015734 -0.001105 -0.004158 0.000000 0.000000 0.000000
# 2 -0.001105 0.011268 -0.005368 0.000000 0.000000 0.000000
# 3 -0.004158 -0.005368 0.013945 0.000000 0.000000 0.000000
# 4 0.000000 0.000000 0.000000 0.121840 0.000000 0.000000
# 5 0.000000 0.000000 0.000000 0.000000 0.036980 0.000000
# 6 0.000000 0.000000 0.000000 0.000000 0.000000 0.090322
#
#
# Mechanical properties :
#
#
# Convention : Reuss Voigt Hill
#
# Bulk Modulus (GPa) = 50.79507 54.71306 52.75406
# Shear Modulus (GPa) = 15.72760 21.66392 18.69576
#
# Velocity S-wave (km/s) = 2.90447 3.40882 3.16671
# Velocity P-wave (km/s) = 6.20430 6.69630 6.45499
#
# Compressibility (1/GPa) = 0.01968695
#
# Stress axis : x y z
#
# Youngs Moduli (GPa) = 63.55588 88.74436 71.71016
#
# Poissons Ratio (x) = 0.09803 0.29816
# Poissons Ratio (y) = 0.07020 0.38493
# Poissons Ratio (z) = 0.26425 0.47637
#
# Static dielectric constant tensor:
#      x y z
#    x 3.421100 0.000000 0.000000 
#    y 0.000000 3.626080 0.000000 
#    z 0.000000 0.000000 3.692550 
# 
# 
# High freq. dielectric constant tensor:
#      x y z
#    x 1.695150 0.000000 0.000000 
#    y 0.000000 1.702810 0.000000 
#    z 0.000000 0.000000 1.746050 
# 
# From -- ./inp_files/7376.got.cif
#   From: 2010.03.12/outbox.cif.g09.slc.cpg/sg46_4_cif.got.tgz:7376.got - 2010.04.14 02:56:35.
