data_PCOD8192955
_publ_section_title
;
Structure prediction by ZEFSAII (Michael W. Deem and Ramdas Pophale) SiO2 
 PCOD8192955
Probable space group: I M A 2
;
_chemical_formula_sum "Si O2"
_cell_formula_units_Z 64
_cell_length_a 8.553480
_cell_length_b 15.463173
_cell_length_c 23.880423
_cell_angle_alpha 90.000000
_cell_angle_beta 90.000000
_cell_angle_gamma 90.000000
_cell_volume 3158.518859
_symmetry_space_group_name_H-M "I M A 2"
_symmetry_group_IT_number 46
_symmetry_cell_setting 'orthorhombic'
loop_
_space_group_symop_operation_xyz
x,y,z
-x,-y,z
1/2-x,y,z
1/2+x,-y,z
1/2+x,1/2+y,1/2+z
1/2-x,1/2-y,1/2+z
-x,1/2+y,1/2+z
x,1/2-y,1/2+z
loop_
_atom_site_type_symbol
_atom_site_label
_atom_site_fract_x
_atom_site_fract_y
_atom_site_fract_z
Si Si1 0.434281 0.591689 0.733220
Si Si2 0.433697 0.908670 0.735396
Si Si3 0.067746 0.151252 0.850839
Si Si4 0.935851 0.251117 0.161953
Si Si5 0.566043 0.088525 0.964736
Si Si6 0.933884 0.257329 0.034400
Si Si7 0.566182 0.339379 0.852868
Si Si8 0.433963 0.088958 0.463367
O O1 0.500000 0.500000 0.713776
O O2 0.250000 0.588188 0.729176
O O3 0.502232 0.664974 0.691784
O O4 0.487526 0.613104 0.796341
O O5 0.250000 0.911833 0.729660
O O6 0.475837 0.889212 0.799168
O O7 0.502978 0.834327 0.694878
O O8 0.500000 0.000000 0.715037
O O9 0.250000 0.139725 0.839547
O O10 0.019755 0.099442 0.905792
O O11 0.027164 0.250969 0.859466
O O12 0.750000 0.250275 0.165434
O O13 0.992611 0.253312 0.098150
O O14 0.750000 0.083164 0.954904
O O15 0.500000 0.000000 0.991978
O O16 0.522789 0.166503 0.006115
O O17 0.750000 0.277100 0.029522
O O18 0.028909 0.333114 0.004934
O O19 0.750000 0.318229 0.852699
O O20 0.522189 0.400095 0.904417
O O21 0.250000 0.083331 0.453316
O O22 0.500000 0.000000 0.489928
#
# Coordination Sequence:
#
# PCOD8192955 Si02
#       8
#     8   8   8   8   8   8   8   8
#     4  10  21  38  61  90 123 159 198 243 296 356
#     4  11  22  40  63  89 123 159 201 250 304 364
#     4  12  23  37  61  92 125 158 200 247 304 369
#     4   9  20  41  64  86 118 162 205 250 305 360
#     4  11  23  39  62  90 124 162 204 250 305 363
#     4  10  22  42  66  88 118 162 209 256 307 360
#     4  11  21  38  63  91 125 162 199 244 306 364
#     4  12  25  41  63  92 126 162 204 251 304 365
#
# _framework density 20.262661999999999
#
# number of rings (size 3 to 8) (size 9 to 14) (size 15 to 20)
#    0.000    1.250    2.500    4.125    0.000    3.500 
#    0.000    3.125    0.000    0.000    0.000    0.000 
#    0.000    0.000    0.000    0.000    0.000    0.000 
#
# Total GULP energy -396968.108471 kJ/mol
# GULP energy per Si atom -12405.253390 kJ/mol
# Density = 2.021654 g / cm^3
# Si number density = 20.262662 Si / 1000 Ang^3
#
#
#
# Elastic Constant Matrix: (Units=GPa)
#
#
# Indices 1 2 3 4 5 6 
#
# 1 52.5318 30.6956 22.3237 0.0000 0.0000 0.0000
# 2 30.6956 169.0673 60.1096 0.0000 0.0000 0.0000
# 3 22.3237 60.1096 138.7477 0.0000 0.0000 0.0000
# 4 0.0000 0.0000 0.0000 6.5596 0.0000 0.0000
# 5 0.0000 0.0000 0.0000 0.0000 7.1308 0.0000
# 6 0.0000 0.0000 0.0000 0.0000 0.0000 37.0660
#
#
#
# Elastic Compliance Matrix: (Units=1/GPa)
#
#
# Indices 1 2 3 4 5 6 
#
# 1 0.021810 -0.003206 -0.002120 0.000000 0.000000 0.000000
# 2 -0.003206 0.007463 -0.002717 0.000000 0.000000 0.000000
# 3 -0.002120 -0.002717 0.008726 0.000000 0.000000 0.000000
# 4 0.000000 0.000000 0.000000 0.152449 0.000000 0.000000
# 5 0.000000 0.000000 0.000000 0.000000 0.140237 0.000000
# 6 0.000000 0.000000 0.000000 0.000000 0.000000 0.026979
#
#
# Mechanical properties :
#
#
# Convention : Reuss Voigt Hill
#
# Bulk Modulus (GPa) = 45.63730 65.17829 55.40780
# Shear Modulus (GPa) = 13.12148 26.63247 19.87697
#
# Velocity S-wave (km/s) = 2.54750 3.62935 3.13543
# Velocity P-wave (km/s) = 5.58791 7.05687 6.36491
#
# Compressibility (1/GPa) = 0.02191190
#
# Stress axis : x y z
#
# Youngs Moduli (GPa) = 45.84956 133.99405 114.60401
#
# Poissons Ratio (x) = 0.42959 0.24298
# Poissons Ratio (y) = 0.14700 0.31142
# Poissons Ratio (z) = 0.09721 0.36411
#
# Static dielectric constant tensor:
#      x y z
#    x 3.520060 0.000000 0.000000 
#    y 0.000000 4.054010 0.000000 
#    z 0.000000 0.000000 3.756850 
# 
# 
# High freq. dielectric constant tensor:
#      x y z
#    x 1.781200 0.000000 0.000000 
#    y 0.000000 1.811070 0.000000 
#    z 0.000000 0.000000 1.787680 
# 
# From -- ./inp_files/23134.got.cif
#   From: 2010.03.12/outbox.cif.g09.slc.cpg/sg46_12_cif.got.tgz:23134.got - 2010.04.14 02:56:35.
