data_PCOD8192521
_publ_section_title
;
Structure prediction by ZEFSAII (Michael W. Deem and Ramdas Pophale) SiO2 
 PCOD8192521
Probable space group: I M A 2
;
_chemical_formula_sum "Si O2"
_cell_formula_units_Z 48
_cell_length_a 15.298400
_cell_length_b 8.542179
_cell_length_c 18.926062
_cell_angle_alpha 90.000000
_cell_angle_beta 90.000000
_cell_angle_gamma 90.000000
_cell_volume 2473.289412
_symmetry_space_group_name_H-M "I M A 2"
_symmetry_group_IT_number 46
_symmetry_cell_setting 'orthorhombic'
loop_
_space_group_symop_operation_xyz
x,y,z
-x,-y,z
1/2-x,y,z
1/2+x,-y,z
1/2+x,1/2+y,1/2+z
1/2-x,1/2-y,1/2+z
-x,1/2+y,1/2+z
x,1/2-y,1/2+z
loop_
_atom_site_type_symbol
_atom_site_label
_atom_site_fract_x
_atom_site_fract_y
_atom_site_fract_z
Si Si1 0.916879 0.888523 0.490120
Si Si2 0.350910 0.197000 0.857140
Si Si3 0.007074 0.682161 0.599517
Si Si4 0.500138 0.316284 0.763662
Si Si5 0.351109 0.671942 0.358446
Si Si6 0.654435 0.300600 0.006829
O O1 0.890677 0.781442 0.424978
O O2 0.932665 0.776505 0.557178
O O3 0.839940 0.010019 0.508777
O O4 0.000000 0.000000 0.472670
O O5 0.250000 0.246377 0.844856
O O6 0.408755 0.246294 0.790475
O O7 0.359936 0.012726 0.866768
O O8 0.000000 0.500000 0.584050
O O9 0.001017 0.723162 0.681303
O O10 0.101047 0.736420 0.572569
O O11 0.500000 0.500000 0.779304
O O12 0.585877 0.236797 0.797461
O O13 0.250000 0.720128 0.342299
O O14 0.385501 0.745855 0.431734
O O15 0.750000 0.227860 0.014961
#
# Coordination Sequence:
#
# PCOD8192521 Si02
#       6
#     8   8   8   8   8   8
#     4  10  20  35  58  85 112 146 185 227 276 327
#     4  11  22  37  59  86 113 147 187 231 278 329
#     4  10  22  39  57  79 111 151 187 224 277 333
#     4  11  23  39  58  81 114 152 187 229 279 331
#     4  10  22  38  60  86 113 146 186 230 279 331
#     4  10  20  36  58  85 112 142 183 231 276 327
#
# _framework density 19.407351999999999
#
# number of rings (size 3 to 8) (size 9 to 14) (size 15 to 20)
#    0.000    1.667    0.000    5.500    0.000    6.667 
#    0.000    6.667    0.000    0.000    0.000    0.000 
#    0.000    0.000    0.000    0.000    0.000    0.000 
#
# Total GULP energy -297584.172767 kJ/mol
# GULP energy per Si atom -12399.340532 kJ/mol
# Density = 1.936318 g / cm^3
# Si number density = 19.407352 Si / 1000 Ang^3
#
#
#
# Elastic Constant Matrix: (Units=GPa)
#
#
# Indices 1 2 3 4 5 6 
#
# 1 109.2503 49.6471 69.2700 0.0000 0.0000 0.0000
# 2 49.6471 126.7920 77.3806 0.0000 0.0000 0.0000
# 3 69.2700 77.3806 144.3489 0.0000 0.0000 0.0000
# 4 0.0000 0.0000 0.0000 36.2126 0.0000 0.0000
# 5 0.0000 0.0000 0.0000 0.0000 21.8905 0.0000
# 6 0.0000 0.0000 0.0000 0.0000 0.0000 25.0764
#
#
#
# Elastic Compliance Matrix: (Units=1/GPa)
#
#
# Indices 1 2 3 4 5 6 
#
# 1 0.013482 -0.001978 -0.005410 0.000000 0.000000 0.000000
# 2 -0.001978 0.012012 -0.005490 0.000000 0.000000 0.000000
# 3 -0.005410 -0.005490 0.012467 0.000000 0.000000 0.000000
# 4 0.000000 0.000000 0.000000 0.027615 0.000000 0.000000
# 5 0.000000 0.000000 0.000000 0.000000 0.045682 0.000000
# 6 0.000000 0.000000 0.000000 0.000000 0.000000 0.039878
#
#
# Mechanical properties :
#
#
# Convention : Reuss Voigt Hill
#
# Bulk Modulus (GPa) = 81.92789 85.88738 83.90763
# Shear Modulus (GPa) = 27.63064 28.90880 28.26972
#
# Velocity S-wave (km/s) = 3.77732 3.86369 3.82075
# Velocity P-wave (km/s) = 7.83139 8.01594 7.92420
#
# Compressibility (1/GPa) = 0.01220586
#
# Stress axis : x y z
#
# Youngs Moduli (GPa) = 74.17351 83.25059 80.21367
#
# Poissons Ratio (x) = 0.16463 0.43392
# Poissons Ratio (y) = 0.14668 0.44039
# Poissons Ratio (z) = 0.40125 0.45706
#
# Static dielectric constant tensor:
#      x y z
#    x 3.674830 0.000000 0.000000 
#    y 0.000000 3.865680 0.000000 
#    z 0.000000 0.000000 3.432300 
# 
# 
# High freq. dielectric constant tensor:
#      x y z
#    x 1.760960 0.000000 0.000000 
#    y 0.000000 1.775730 0.000000 
#    z 0.000000 0.000000 1.749150 
# 
# From -- ./inp_files/19417.got.cif
#   From: 2010.03.12/outbox.cif.g09.slc.cpg/sg46_10_cif.got.tgz:19417.got - 2010.04.14 02:56:35.
