data_PCOD8192805
_publ_section_title
;
Structure prediction by ZEFSAII (Michael W. Deem and Ramdas Pophale) SiO2 
 PCOD8192805
Probable space group: I M A 2
;
_chemical_formula_sum "Si O2"
_cell_formula_units_Z 32
_cell_length_a 18.033672
_cell_length_b 7.411681
_cell_length_c 12.839921
_cell_angle_alpha 90.000000
_cell_angle_beta 90.000000
_cell_angle_gamma 90.000000
_cell_volume 1716.181583
_symmetry_space_group_name_H-M "I M A 2"
_symmetry_group_IT_number 46
_symmetry_cell_setting 'orthorhombic'
loop_
_space_group_symop_operation_xyz
x,y,z
-x,-y,z
1/2-x,y,z
1/2+x,-y,z
1/2+x,1/2+y,1/2+z
1/2-x,1/2-y,1/2+z
-x,1/2+y,1/2+z
x,1/2-y,1/2+z
loop_
_atom_site_type_symbol
_atom_site_label
_atom_site_fract_x
_atom_site_fract_y
_atom_site_fract_z
Si Si1 0.916599 0.934275 0.096540
Si Si2 0.333732 0.729425 0.117826
Si Si3 0.416156 0.054224 0.500362
Si Si4 0.334384 0.505284 0.788438
O O1 0.910312 0.767489 0.018255
O O2 0.867982 0.101772 0.051130
O O3 0.883190 0.878793 0.210549
O O4 0.000000 0.000000 0.111770
O O5 0.250000 0.692384 0.080193
O O6 0.383569 0.552074 0.100248
O O7 0.336607 0.790080 0.239892
O O8 0.500000 0.000000 0.479771
O O9 0.367486 0.994396 0.402747
O O10 0.250000 0.433326 0.791580
#
# Coordination Sequence:
#
# PCOD8192805 Si02
#       4
#     8   8   8   8
#     4  10  20  41  59  87 122 151 198 249 294 351
#     4   9  21  40  59  86 122 154 197 247 291 351
#     4  12  21  36  66  88 115 160 197 243 304 354
#     4   9  21  39  57  85 122 152 195 247 288 354
#
# _framework density 18.646046999999999
#
# number of rings (size 3 to 8) (size 9 to 14) (size 15 to 20)
#    1.500    0.500    2.500    1.500    0.000    4.000 
#    4.500    1.250    0.000    0.000    0.000    0.000 
#    0.000    0.000    0.000    0.000    0.000    0.000 
#
# Total GULP energy -198216.565759 kJ/mol
# GULP energy per Si atom -12388.535360 kJ/mol
# Density = 1.860361 g / cm^3
# Si number density = 18.646047 Si / 1000 Ang^3
#
#
#
# Elastic Constant Matrix: (Units=GPa)
#
#
# Indices 1 2 3 4 5 6 
#
# 1 152.2429 43.5725 47.3466 0.0000 0.0000 0.0000
# 2 43.5725 86.7805 23.2592 0.0000 0.0000 0.0000
# 3 47.3466 23.2592 74.4988 0.0000 0.0000 0.0000
# 4 0.0000 0.0000 0.0000 20.5634 0.0000 0.0000
# 5 0.0000 0.0000 0.0000 0.0000 31.5315 0.0000
# 6 0.0000 0.0000 0.0000 0.0000 0.0000 19.5834
#
#
#
# Elastic Compliance Matrix: (Units=1/GPa)
#
#
# Indices 1 2 3 4 5 6 
#
# 1 0.008950 -0.003241 -0.004676 0.000000 0.000000 0.000000
# 2 -0.003241 0.013749 -0.002233 0.000000 0.000000 0.000000
# 3 -0.004676 -0.002233 0.017092 0.000000 0.000000 0.000000
# 4 0.000000 0.000000 0.000000 0.048630 0.000000 0.000000
# 5 0.000000 0.000000 0.000000 0.000000 0.031714 0.000000
# 6 0.000000 0.000000 0.000000 0.000000 0.000000 0.051064
#
#
# Mechanical properties :
#
#
# Convention : Reuss Voigt Hill
#
# Bulk Modulus (GPa) = 51.30490 60.20873 55.75682
# Shear Modulus (GPa) = 25.25294 27.62526 26.43910
#
# Velocity S-wave (km/s) = 3.68412 3.85328 3.76965
# Velocity P-wave (km/s) = 6.75810 7.22201 6.99390
#
# Compressibility (1/GPa) = 0.01949132
#
# Stress axis : x y z
#
# Youngs Moduli (GPa) = 111.72867 72.73306 58.50591
#
# Poissons Ratio (x) = 0.23569 0.27360
# Poissons Ratio (y) = 0.36206 0.13065
# Poissons Ratio (z) = 0.52250 0.16242
#
# Static dielectric constant tensor:
#      x y z
#    x 3.601700 0.000000 0.000000 
#    y 0.000000 3.229740 0.000000 
#    z 0.000000 0.000000 3.073790 
# 
# 
# High freq. dielectric constant tensor:
#      x y z
#    x 1.750420 0.000000 0.000000 
#    y 0.000000 1.701570 0.000000 
#    z 0.000000 0.000000 1.693690 
# 
# From -- ./inp_files/7097.got.cif
#   From: 2010.03.12/outbox.cif.g09.slc.cpg/sg46_4_cif.got.tgz:7097.got - 2010.04.14 02:56:35.
