data_PCOD8192150
_publ_section_title
;
Structure prediction by ZEFSAII (Michael W. Deem and Ramdas Pophale) SiO2 
 PCOD8192150
Probable space group: I M A 2
;
_chemical_formula_sum "Si O2"
_cell_formula_units_Z 64
_cell_length_a 8.535041
_cell_length_b 24.869404
_cell_length_c 15.254678
_cell_angle_alpha 90.000000
_cell_angle_beta 90.000000
_cell_angle_gamma 90.000000
_cell_volume 3237.979046
_symmetry_space_group_name_H-M "I M A 2"
_symmetry_group_IT_number 46
_symmetry_cell_setting 'orthorhombic'
loop_
_space_group_symop_operation_xyz
x,y,z
-x,-y,z
1/2-x,y,z
1/2+x,-y,z
1/2+x,1/2+y,1/2+z
1/2-x,1/2-y,1/2+z
-x,1/2+y,1/2+z
x,1/2-y,1/2+z
loop_
_atom_site_type_symbol
_atom_site_label
_atom_site_fract_x
_atom_site_fract_y
_atom_site_fract_z
Si Si1 0.067193 0.234505 0.375000
Si Si2 0.064794 0.108000 0.604894
Si Si3 0.433434 0.637207 0.782138
Si Si4 0.435237 0.556642 0.275196
Si Si5 0.566942 0.558370 0.923317
Si Si6 0.565626 0.165890 0.096873
Si Si7 0.066094 0.784010 0.560431
Si Si8 0.564440 0.348579 0.403693
O O1 0.250000 0.228164 0.355075
O O2 0.968078 0.198637 0.307935
O O3 0.031467 0.211555 0.471145
O O4 0.015985 0.296109 0.362777
O O5 0.250000 0.115328 0.604027
O O6 0.999859 0.083160 0.513728
O O7 0.014719 0.068614 0.682366
O O8 0.983001 0.165810 0.621061
O O9 0.250000 0.624923 0.791657
O O10 0.528179 0.595767 0.841072
O O11 0.493865 0.631835 0.680819
O O12 0.500000 0.500000 0.309784
O O13 0.250000 0.554951 0.263286
O O14 0.486983 0.600359 0.347125
O O15 0.500000 0.500000 0.904963
O O16 0.750000 0.552879 0.932900
O O17 0.750000 0.161655 0.096447
O O18 0.517911 0.228592 0.107904
O O19 0.502753 0.142902 0.003857
O O20 0.250000 0.785454 0.538510
O O21 0.750000 0.339166 0.402340
#
# Coordination Sequence:
#
# PCOD8192150 Si02
#       8
#     8   8   8   8   8   8   8   8
#     4  11  21  34  54  86 122 155 193 242 294 349
#     4  11  23  38  58  87 123 157 195 243 295 355
#     4  11  21  36  60  87 118 157 198 243 293 352
#     4  11  24  41  63  87 116 154 202 252 303 359
#     4  11  24  41  60  84 117 156 199 244 293 351
#     4   8  18  36  59  86 116 152 196 242 289 349
#     4  10  19  35  58  85 119 159 198 235 287 354
#     4   9  20  41  63  84 114 156 201 247 299 359
#
# _framework density 19.765415000000001
#
# number of rings (size 3 to 8) (size 9 to 14) (size 15 to 20)
#    0.000    1.750    1.250    4.125    1.750    3.500 
#    0.000    6.250    0.000    1.500    0.000    0.000 
#    0.000    0.000    0.000    0.000    0.000    0.000 
#
# Total GULP energy -396814.258572 kJ/mol
# GULP energy per Si atom -12400.445580 kJ/mol
# Density = 1.972043 g / cm^3
# Si number density = 19.765415 Si / 1000 Ang^3
#
#
#
# Elastic Constant Matrix: (Units=GPa)
#
#
# Indices 1 2 3 4 5 6 
#
# 1 44.0065 17.7296 12.2187 -0.0006 0.0001 0.0000
# 2 17.7296 119.5791 60.1232 -0.0003 0.0000 0.0000
# 3 12.2187 60.1232 114.6444 -0.0024 0.0004 -0.0001
# 4 -0.0006 -0.0003 -0.0024 10.3617 0.0002 -0.0001
# 5 0.0001 0.0000 0.0004 0.0002 16.8260 -0.0002
# 6 0.0000 0.0000 -0.0001 -0.0001 -0.0002 32.9454
#
#
#
# Elastic Compliance Matrix: (Units=1/GPa)
#
#
# Indices 1 2 3 4 5 6 
#
# 1 0.024243 -0.003117 -0.000949 0.000001 0.000000 0.000000
# 2 -0.003117 0.011758 -0.005834 -0.000001 0.000000 0.000000
# 3 -0.000949 -0.005834 0.011883 0.000003 0.000000 0.000000
# 4 0.000001 -0.000001 0.000003 0.096509 -0.000001 0.000000
# 5 0.000000 0.000000 0.000000 -0.000001 0.059432 0.000000
# 6 0.000000 0.000000 0.000000 0.000000 0.000000 0.030353
#
#
# Mechanical properties :
#
#
# Convention : Reuss Voigt Hill
#
# Bulk Modulus (GPa) = 35.60751 50.93036 43.26894
# Shear Modulus (GPa) = 18.98674 24.57051 21.77862
#
# Velocity S-wave (km/s) = 3.10272 3.52960 3.32302
# Velocity P-wave (km/s) = 5.55788 6.51414 6.05492
#
# Compressibility (1/GPa) = 0.02808396
#
# Stress axis : x y z
#
# Youngs Moduli (GPa) = 41.24844 85.04695 84.15112
#
# Poissons Ratio (x) = 0.26512 0.07986
# Poissons Ratio (y) = 0.12859 0.49095
# Poissons Ratio (z) = 0.03915 0.49618
#
# Static dielectric constant tensor:
#      x y z
#    x 3.445790 0.000000 0.000000 
#    y 0.000000 3.696260 0.000000 
#    z 0.000000 0.000000 3.966190 
# 
# 
# High freq. dielectric constant tensor:
#      x y z
#    x 1.763710 0.000000 0.000000 
#    y 0.000000 1.765250 0.000000 
#    z 0.000000 0.000000 1.772020 
# 
# From -- ./inp_files/14546.got.cif
#   From: 2010.03.12/outbox.cif.g09.slc.cpg/sg46_8_cif.got.tgz:14546.got - 2010.04.14 02:56:35.
