data_PCOD8192511
_publ_section_title
;
Structure prediction by ZEFSAII (Michael W. Deem and Ramdas Pophale) SiO2 
 PCOD8192511
Probable space group: I M A 2
;
_chemical_formula_sum "Si O2"
_cell_formula_units_Z 48
_cell_length_a 9.057056
_cell_length_b 22.876223
_cell_length_c 11.498609
_cell_angle_alpha 90.000000
_cell_angle_beta 90.000000
_cell_angle_gamma 90.000000
_cell_volume 2382.410974
_symmetry_space_group_name_H-M "I M A 2"
_symmetry_group_IT_number 46
_symmetry_cell_setting 'orthorhombic'
loop_
_space_group_symop_operation_xyz
x,y,z
-x,-y,z
1/2-x,y,z
1/2+x,-y,z
1/2+x,1/2+y,1/2+z
1/2-x,1/2-y,1/2+z
-x,1/2+y,1/2+z
x,1/2-y,1/2+z
loop_
_atom_site_type_symbol
_atom_site_label
_atom_site_fract_x
_atom_site_fract_y
_atom_site_fract_z
Si Si1 0.077354 0.146048 0.695220
Si Si2 0.587250 0.362191 0.553328
Si Si3 0.424562 0.729354 0.373322
Si Si4 0.079025 0.437442 0.739096
Si Si5 0.587043 0.055624 0.834038
Si Si6 0.080873 0.344618 0.925422
O O1 0.250000 0.145673 0.723731
O O2 0.043185 0.151341 0.559952
O O3 0.002366 0.198958 0.764031
O O4 0.006171 0.084576 0.730964
O O5 0.750000 0.355279 0.611446
O O6 0.531074 0.300232 0.498501
O O7 0.474985 0.390249 0.644194
O O8 0.602028 0.402341 0.441890
O O9 0.250000 0.724550 0.354554
O O10 0.474759 0.796309 0.369416
O O11 0.250000 0.449563 0.714706
O O12 0.051556 0.407454 0.864444
O O13 0.000000 0.500000 0.731536
O O14 0.750000 0.039053 0.787343
O O15 0.500000 0.000000 0.880211
O O16 0.250000 0.325478 0.904721
#
# Coordination Sequence:
#
# PCOD8192511 Si02
#       6
#     8   8   8   8   8   8
#     4  10  21  39  60  84 117 153 196 245 297 359
#     4   9  20  38  59  88 120 153 195 245 297 353
#     4  10  22  39  62  91 121 153 197 250 305 363
#     4  11  24  41  61  87 121 162 206 249 300 359
#     4  10  20  35  57  86 118 152 195 243 297 352
#     4  10  24  42  60  86 119 159 201 246 302 362
#
# _framework density 20.147656999999999
#
# number of rings (size 3 to 8) (size 9 to 14) (size 15 to 20)
#    0.000    2.000    0.000    3.500    2.333    8.667 
#    0.000    1.667    0.000    0.000    0.000    0.000 
#    0.000    0.000    0.000    0.000    0.000    0.000 
#
# Total GULP energy -297570.024281 kJ/mol
# GULP energy per Si atom -12398.751012 kJ/mol
# Density = 2.010180 g / cm^3
# Si number density = 20.147657 Si / 1000 Ang^3
#
#
#
# Elastic Constant Matrix: (Units=GPa)
#
#
# Indices 1 2 3 4 5 6 
#
# 1 113.7206 31.3216 50.6139 -0.0011 0.0004 0.0001
# 2 31.3216 71.4903 19.4709 -0.0009 0.0004 0.0001
# 3 50.6139 19.4709 92.6565 -0.0013 -0.0001 0.0002
# 4 -0.0011 -0.0009 -0.0013 15.5644 0.0006 0.0001
# 5 0.0004 0.0004 -0.0001 0.0006 -4.6153 0.0000
# 6 0.0001 0.0001 0.0002 0.0001 0.0000 35.7921
#
#
#
# Elastic Compliance Matrix: (Units=1/GPa)
#
#
# Indices 1 2 3 4 5 6 
#
# 1 0.012543 -0.003850 -0.006043 0.000000 0.000001 0.000000
# 2 -0.003850 0.016019 -0.001263 0.000001 0.000001 0.000000
# 3 -0.006043 -0.001263 0.014359 0.000001 -0.000001 0.000000
# 4 0.000000 0.000001 0.000001 0.064249 0.000009 0.000000
# 5 0.000001 0.000001 -0.000001 0.000009 -0.216671 0.000000
# 6 0.000000 0.000000 0.000000 0.000000 0.000000 0.027939
#
#
# Mechanical properties :
#
#
# Convention : Reuss Voigt Hill
#
# Bulk Modulus (GPa) = 48.52189 53.40891 50.96540
# Shear Modulus (GPa) = -95.45421 21.11232 -37.17094
#
# Velocity S-wave (km/s) = -6.89059 3.24061 -4.29992
# Velocity P-wave (km/s) = 6.25871 6.36933 0.83573
#
# Compressibility (1/GPa) = 0.02060926
#
# Stress axis : x y z
#
# Youngs Moduli (GPa) = 79.72399 62.42739 69.64314
#
# Poissons Ratio (x) = 0.24033 0.42084
# Poissons Ratio (y) = 0.30691 0.08798
# Poissons Ratio (z) = 0.48176 0.07886
#
# Static dielectric constant tensor:
#      x y z
#    x 3.881380 0.000000 0.000000 
#    y 0.000000 3.891200 0.000000 
#    z 0.000000 0.000000 3.681590 
# 
# 
# High freq. dielectric constant tensor:
#      x y z
#    x 1.797030 0.000000 0.000000 
#    y 0.000000 1.790060 0.000000 
#    z 0.000000 0.000000 1.780520 
# 
# From -- ./inp_files/9296.got.cif
#   From: 2010.03.12/outbox.cif.g09.slc.cpg/sg46_5_cif.got.tgz:9296.got - 2010.04.14 02:56:35.
