data_PCOD8192239
_publ_section_title
;
Structure prediction by ZEFSAII (Michael W. Deem and Ramdas Pophale) SiO2 
 PCOD8192239
Probable space group: I M A 2
;
_chemical_formula_sum "Si O2"
_cell_formula_units_Z 36
_cell_length_a 15.411126
_cell_length_b 7.202898
_cell_length_c 16.717714
_cell_angle_alpha 90.000000
_cell_angle_beta 90.000000
_cell_angle_gamma 90.000000
_cell_volume 1855.745975
_symmetry_space_group_name_H-M "I M A 2"
_symmetry_group_IT_number 46
_symmetry_cell_setting 'orthorhombic'
loop_
_space_group_symop_operation_xyz
x,y,z
-x,-y,z
1/2-x,y,z
1/2+x,-y,z
1/2+x,1/2+y,1/2+z
1/2-x,1/2-y,1/2+z
-x,1/2+y,1/2+z
x,1/2-y,1/2+z
loop_
_atom_site_type_symbol
_atom_site_label
_atom_site_fract_x
_atom_site_fract_y
_atom_site_fract_z
Si Si1 0.155617 0.740629 0.636240
Si Si2 0.000000 0.000000 0.376493
Si Si3 0.001185 0.214772 0.741379
Si Si4 0.085061 0.381927 0.589479
Si Si5 0.853359 0.529946 0.000835
O O1 0.250000 0.800854 0.666384
O O2 0.160750 0.534403 0.598320
O O3 0.094257 0.728418 0.712567
O O4 0.121585 0.891821 0.572814
O O5 0.978601 0.821616 0.322673
O O6 0.912608 0.037146 0.427292
O O7 0.069708 0.270255 0.672408
O O8 0.000000 0.000000 0.761476
O O9 0.116226 0.238034 0.522414
O O10 0.000000 0.500000 0.563300
O O11 0.750000 0.521741 0.980842
#
# Coordination Sequence:
#
# PCOD8192239 Si02
#       5
#     8   4   8   8   8
#     4  10  20  37  64  91 116 154 210 257 295 361
#     4  12  24  40  58  92 134 164 196 254 322 374
#     4  11  21  38  61  89 119 162 205 249 308 360
#     4  10  19  37  66  92 115 156 211 256 301 363
#     4  11  24  41  64  93 128 165 206 257 312 372
#
# _framework density 19.399206
#
# number of rings (size 3 to 8) (size 9 to 14) (size 15 to 20)
#    0.000    1.333    5.556    3.333    0.000    3.556 
#    0.000    1.111    0.000    0.000    0.000    0.000 
#    0.000    0.000    0.000    0.000    0.000    0.000 
#
# Total GULP energy -223141.851117 kJ/mol
# GULP energy per Si atom -12396.769506 kJ/mol
# Density = 1.935505 g / cm^3
# Si number density = 19.399206 Si / 1000 Ang^3
#
#
#
# Elastic Constant Matrix: (Units=GPa)
#
#
# Indices 1 2 3 4 5 6 
#
# 1 84.9124 5.0932 33.1048 0.0000 0.0000 0.0000
# 2 5.0932 110.1056 3.9822 0.0000 0.0000 0.0000
# 3 33.1048 3.9822 54.4155 0.0000 0.0000 0.0000
# 4 0.0000 0.0000 0.0000 21.7532 0.0000 0.0000
# 5 0.0000 0.0000 0.0000 0.0000 24.8370 0.0000
# 6 0.0000 0.0000 0.0000 0.0000 0.0000 22.1565
#
#
#
# Elastic Compliance Matrix: (Units=1/GPa)
#
#
# Indices 1 2 3 4 5 6 
#
# 1 0.015454 -0.000376 -0.009374 0.000000 0.000000 0.000000
# 2 -0.000376 0.009115 -0.000438 0.000000 0.000000 0.000000
# 3 -0.009374 -0.000438 0.024112 0.000000 0.000000 0.000000
# 4 0.000000 0.000000 0.000000 0.045970 0.000000 0.000000
# 5 0.000000 0.000000 0.000000 0.000000 0.040262 0.000000
# 6 0.000000 0.000000 0.000000 0.000000 0.000000 0.045133
#
#
# Mechanical properties :
#
#
# Convention : Reuss Voigt Hill
#
# Bulk Modulus (GPa) = 35.32992 37.08823 36.20907
# Shear Modulus (GPa) = 23.82539 27.56624 25.69581
#
# Velocity S-wave (km/s) = 3.50832 3.77370 3.64343
# Velocity P-wave (km/s) = 5.88750 6.17638 6.03367
#
# Compressibility (1/GPa) = 0.02830462
#
# Stress axis : x y z
#
# Youngs Moduli (GPa) = 64.70748 109.70411 41.47267
#
# Poissons Ratio (x) = 0.04123 0.38878
# Poissons Ratio (y) = 0.02432 0.01818
# Poissons Ratio (z) = 0.60659 0.04810
#
# Static dielectric constant tensor:
#      x y z
#    x 3.585990 0.000000 0.000000 
#    y 0.000000 3.863070 0.000000 
#    z 0.000000 0.000000 3.240740 
# 
# 
# High freq. dielectric constant tensor:
#      x y z
#    x 1.754160 0.000000 0.000000 
#    y 0.000000 1.777820 0.000000 
#    z 0.000000 0.000000 1.725850 
# 
# From -- ./inp_files/15635.got.cif
#   From: 2010.03.12/outbox.cif.g09.slc.cpg/sg46_8_cif.got.tgz:15635.got - 2010.04.14 02:56:35.
