data_PCOD8192482
_publ_section_title
;
Structure prediction by ZEFSAII (Michael W. Deem and Ramdas Pophale) SiO2 
 PCOD8192482
Probable space group: I M A 2
;
_chemical_formula_sum "Si O2"
_cell_formula_units_Z 64
_cell_length_a 9.100061
_cell_length_b 19.074226
_cell_length_c 17.117938
_cell_angle_alpha 90.000000
_cell_angle_beta 90.000000
_cell_angle_gamma 90.000000
_cell_volume 2971.273822
_symmetry_space_group_name_H-M "I M A 2"
_symmetry_group_IT_number 46
_symmetry_cell_setting 'orthorhombic'
loop_
_space_group_symop_operation_xyz
x,y,z
-x,-y,z
1/2-x,y,z
1/2+x,-y,z
1/2+x,1/2+y,1/2+z
1/2-x,1/2-y,1/2+z
-x,1/2+y,1/2+z
x,1/2-y,1/2+z
loop_
_atom_site_type_symbol
_atom_site_label
_atom_site_fract_x
_atom_site_fract_y
_atom_site_fract_z
Si Si1 0.090769 0.937811 0.294570
Si Si2 0.910354 0.062269 0.472149
Si Si3 0.078786 0.071872 0.685705
Si Si4 0.077862 0.347255 0.337444
Si Si5 0.421848 0.808755 0.090405
Si Si6 0.577289 0.824650 0.546188
Si Si7 0.574377 0.575991 0.498422
Si Si8 0.420944 0.714381 0.769774
O O1 0.250000 0.932773 0.251704
O O2 0.115367 0.960065 0.383485
O O3 0.013071 0.862162 0.291216
O O4 0.000000 0.000000 0.252048
O O5 0.750000 0.071814 0.512659
O O6 0.008045 0.132124 0.474766
O O7 0.000000 0.000000 0.515722
O O8 0.250000 0.056598 0.682748
O O9 0.027998 0.097699 0.771142
O O10 0.035775 0.133012 0.624835
O O11 0.000000 0.000000 0.664394
O O12 0.250000 0.332830 0.332320
O O13 0.032941 0.380002 0.420572
O O14 0.001420 0.272946 0.320882
O O15 0.250000 0.816403 0.070510
O O16 0.499774 0.750120 0.038054
O O17 0.447798 0.779931 0.177492
O O18 0.503694 0.882384 0.072130
O O19 0.750000 0.814227 0.535350
O O20 0.500000 0.500000 0.493081
O O21 0.750000 0.568444 0.508374
O O22 0.250000 0.718953 0.792073
#
# Coordination Sequence:
#
# PCOD8192482 Si02
#       8
#     8   8   8   8   8   8   8   8
#     4   9  20  38  58  85 117 152 197 246 301 363
#     4  10  20  35  55  82 118 156 196 242 295 359
#     4  10  21  36  57  85 120 158 200 249 305 370
#     4  10  22  41  63  92 126 163 208 259 318 382
#     4  11  24  42  64  91 125 165 210 260 316 375
#     4  11  22  37  57  84 121 162 205 254 306 368
#     4  11  25  45  69  97 129 170 218 269 326 387
#     4  10  22  40  63  92 124 162 208 259 316 379
#
# _framework density 21.539584000000001
#
# number of rings (size 3 to 8) (size 9 to 14) (size 15 to 20)
#    0.000    1.750    1.250    2.250    1.750    5.500 
#    0.000    1.250    0.000    0.000    0.000    0.000 
#    0.000    0.000    0.000    0.000    0.000    0.000 
#
# Total GULP energy -396696.041602 kJ/mol
# GULP energy per Si atom -12396.751300 kJ/mol
# Density = 2.149056 g / cm^3
# Si number density = 21.539584 Si / 1000 Ang^3
#
#
#
# Elastic Constant Matrix: (Units=GPa)
#
#
# Indices 1 2 3 4 5 6 
#
# 1 112.6575 76.0175 21.5447 0.0000 0.0000 0.0000
# 2 76.0175 175.1417 13.1373 0.0000 0.0000 0.0000
# 3 21.5447 13.1373 14.0579 0.0000 0.0000 0.0000
# 4 0.0000 0.0000 0.0000 24.2847 0.0000 0.0000
# 5 0.0000 0.0000 0.0000 0.0000 17.8837 0.0000
# 6 0.0000 0.0000 0.0000 0.0000 0.0000 45.8736
#
#
#
# Elastic Compliance Matrix: (Units=1/GPa)
#
#
# Indices 1 2 3 4 5 6 
#
# 1 0.016539 -0.005675 -0.020044 0.000000 0.000000 0.000000
# 2 -0.005675 0.008087 0.001140 0.000000 0.000000 0.000000
# 3 -0.020044 0.001140 0.100788 0.000000 0.000000 0.000000
# 4 0.000000 0.000000 0.000000 0.041178 0.000000 0.000000
# 5 0.000000 0.000000 0.000000 0.000000 0.055917 0.000000
# 6 0.000000 0.000000 0.000000 0.000000 0.000000 0.021799
#
#
# Mechanical properties :
#
#
# Convention : Reuss Voigt Hill
#
# Bulk Modulus (GPa) = 13.11377 58.13959 35.62668
# Shear Modulus (GPa) = 15.67965 30.35225 23.01595
#
# Velocity S-wave (km/s) = 2.70097 3.75792 3.27240
# Velocity P-wave (km/s) = 3.97850 6.77347 5.55465
#
# Compressibility (1/GPa) = 0.07625573
#
# Stress axis : x y z
#
# Youngs Moduli (GPa) = 60.46339 123.65029 9.92185
#
# Poissons Ratio (x) = 0.70171 0.19887
# Poissons Ratio (y) = 0.34313 -0.01131
# Poissons Ratio (z) = 1.21191 -0.14091
#
# Static dielectric constant tensor:
#      x y z
#    x 4.061630 0.000000 0.000000 
#    y 0.000000 3.940000 0.000000 
#    z 0.000000 0.000000 3.767180 
# 
# 
# High freq. dielectric constant tensor:
#      x y z
#    x 1.845290 0.000000 0.000000 
#    y 0.000000 1.857890 0.000000 
#    z 0.000000 0.000000 1.833680 
# 
# From -- ./inp_files/21297.got.cif
#   From: 2010.03.12/outbox.cif.g09.slc.cpg/sg46_11_cif.got.tgz:21297.got - 2010.04.14 02:56:35.
