data_PCOD8192321
_publ_section_title
;
Structure prediction by ZEFSAII (Michael W. Deem and Ramdas Pophale) SiO2 
 PCOD8192321
Probable space group: I M A 2
;
_chemical_formula_sum "Si O2"
_cell_formula_units_Z 64
_cell_length_a 8.638380
_cell_length_b 25.066651
_cell_length_c 15.307345
_cell_angle_alpha 90.000000
_cell_angle_beta 90.000000
_cell_angle_gamma 90.000000
_cell_volume 3314.579878
_symmetry_space_group_name_H-M "I M A 2"
_symmetry_group_IT_number 46
_symmetry_cell_setting 'orthorhombic'
loop_
_space_group_symop_operation_xyz
x,y,z
-x,-y,z
1/2-x,y,z
1/2+x,-y,z
1/2+x,1/2+y,1/2+z
1/2-x,1/2-y,1/2+z
-x,1/2+y,1/2+z
x,1/2-y,1/2+z
loop_
_atom_site_type_symbol
_atom_site_label
_atom_site_fract_x
_atom_site_fract_y
_atom_site_fract_z
Si Si1 0.065801 0.441244 0.175740
Si Si2 0.429328 0.605628 0.351104
Si Si3 0.067309 0.136776 0.527699
Si Si4 0.571748 0.222685 0.809374
Si Si5 0.432129 0.263245 0.126933
Si Si6 0.933917 0.646960 0.651543
Si Si7 0.067661 0.331192 0.844149
Si Si8 0.566708 0.942919 0.022625
O O1 0.250000 0.442861 0.181559
O O2 0.004630 0.411247 0.087881
O O3 0.000000 0.500000 0.171704
O O4 0.000485 0.410360 0.258731
O O5 0.250000 0.589194 0.352781
O O6 0.451883 0.669056 0.366546
O O7 0.516249 0.573484 0.426127
O O8 0.250000 0.138598 0.540307
O O9 0.997904 0.194046 0.558824
O O10 0.023285 0.129749 0.425221
O O11 0.750000 0.229829 0.782894
O O12 0.470576 0.215862 0.722967
O O13 0.513871 0.274352 0.862195
O O14 0.250000 0.260093 0.117047
O O15 0.498861 0.203243 0.113332
O O16 0.750000 0.645604 0.646794
O O17 0.987729 0.641943 0.753174
O O18 0.001947 0.598864 0.593763
O O19 0.250000 0.320007 0.841403
O O20 0.750000 0.945200 0.026187
O O21 0.500000 0.000000 0.048459
#
# Coordination Sequence:
#
# PCOD8192321 Si02
#       8
#     8   8   8   8   8   8   8   8
#     4  11  22  38  58  82 112 148 187 227 273 325
#     4  11  23  38  55  80 113 148 184 224 274 333
#     4   9  18  32  57  86 110 142 188 230 266 316
#     4  10  20  33  50  80 117 148 178 216 274 332
#     4   9  16  32  55  81 108 140 184 224 264 320
#     4   8  17  33  56  82 108 138 181 230 275 320
#     4   9  18  35  59  83 111 146 186 230 267 320
#     4  11  23  39  58  80 107 143 187 234 279 326
#
# _framework density 19.308631999999999
#
# number of rings (size 3 to 8) (size 9 to 14) (size 15 to 20)
#    0.000    2.250    1.250    2.625    1.750    1.500 
#    0.000    7.500    0.000    0.000    0.000    0.000 
#    0.000    0.000    0.000    0.000    0.000    0.000 
#
# Total GULP energy -396638.582884 kJ/mol
# GULP energy per Si atom -12394.955715 kJ/mol
# Density = 1.926468 g / cm^3
# Si number density = 19.308632 Si / 1000 Ang^3
#
#
#
# Elastic Constant Matrix: (Units=GPa)
#
#
# Indices 1 2 3 4 5 6 
#
# 1 34.2211 31.6126 13.8674 -0.0003 0.0000 0.0000
# 2 31.6126 115.3790 51.7719 0.0002 0.0001 0.0001
# 3 13.8674 51.7719 96.9922 -0.0023 -0.0004 -0.0004
# 4 -0.0003 0.0002 -0.0023 33.0125 -0.0002 -0.0002
# 5 0.0000 0.0001 -0.0004 -0.0002 11.8143 -0.0003
# 6 0.0000 0.0001 -0.0004 -0.0002 -0.0003 25.8224
#
#
#
# Elastic Compliance Matrix: (Units=1/GPa)
#
#
# Indices 1 2 3 4 5 6 
#
# 1 0.039126 -0.010796 0.000168 0.000000 0.000000 0.000000
# 2 -0.010796 0.014376 -0.006130 -0.000001 0.000000 0.000000
# 3 0.000168 -0.006130 0.013558 0.000001 0.000001 0.000000
# 4 0.000000 -0.000001 0.000001 0.030292 0.000000 0.000000
# 5 0.000000 0.000000 0.000001 0.000000 0.084643 0.000001
# 6 0.000000 0.000000 0.000000 0.000000 0.000001 0.038726
#
#
# Mechanical properties :
#
#
# Convention : Reuss Voigt Hill
#
# Bulk Modulus (GPa) = 29.81016 49.01067 39.41041
# Shear Modulus (GPa) = 18.83832 24.08587 21.46209
#
# Velocity S-wave (km/s) = 3.12692 3.53571 3.33758
# Velocity P-wave (km/s) = 5.33939 6.48893 5.94202
#
# Compressibility (1/GPa) = 0.03354561
#
# Stress axis : x y z
#
# Youngs Moduli (GPa) = 25.55824 69.56274 73.75752
#
# Poissons Ratio (x) = 0.75098 -0.01242
# Poissons Ratio (y) = 0.27592 0.45212
# Poissons Ratio (z) = -0.00431 0.42640
#
# Static dielectric constant tensor:
#      x y z
#    x 3.323770 0.000000 0.000000 
#    y 0.000000 3.776000 0.000000 
#    z 0.000000 0.000000 3.677420 
# 
# 
# High freq. dielectric constant tensor:
#      x y z
#    x 1.728050 0.000000 0.000000 
#    y 0.000000 1.749550 0.000000 
#    z 0.000000 0.000000 1.750550 
# 
# From -- ./inp_files/14433.got.cif
#   From: 2010.03.12/outbox.cif.g09.slc.cpg/sg46_8_cif.got.tgz:14433.got - 2010.04.14 02:56:35.
