data_PCOD8192633
_publ_section_title
;
Structure prediction by ZEFSAII (Michael W. Deem and Ramdas Pophale) SiO2 
 PCOD8192633
Probable space group: I M A 2
;
_chemical_formula_sum "Si O2"
_cell_formula_units_Z 64
_cell_length_a 8.378575
_cell_length_b 30.960696
_cell_length_c 11.864942
_cell_angle_alpha 90.000000
_cell_angle_beta 90.000000
_cell_angle_gamma 90.000000
_cell_volume 3077.843237
_symmetry_space_group_name_H-M "I M A 2"
_symmetry_group_IT_number 46
_symmetry_cell_setting 'orthorhombic'
loop_
_space_group_symop_operation_xyz
x,y,z
-x,-y,z
1/2-x,y,z
1/2+x,-y,z
1/2+x,1/2+y,1/2+z
1/2-x,1/2-y,1/2+z
-x,1/2+y,1/2+z
x,1/2-y,1/2+z
loop_
_atom_site_type_symbol
_atom_site_label
_atom_site_fract_x
_atom_site_fract_y
_atom_site_fract_z
Si Si1 0.560294 0.336435 0.786410
Si Si2 0.938503 0.202043 0.056736
Si Si3 0.559832 0.202517 0.515982
Si Si4 0.564399 0.544963 0.033296
Si Si5 0.436545 0.624403 0.169907
Si Si6 0.439259 0.455723 0.559126
Si Si7 0.062419 0.934221 0.298773
Si Si8 0.935746 0.625985 0.415704
O O1 0.750000 0.334245 0.782856
O O2 0.487752 0.315618 0.673243
O O3 0.491820 0.311371 0.894398
O O4 0.501685 0.385250 0.792449
O O5 0.750000 0.205520 0.064442
O O6 0.010235 0.249900 0.039205
O O7 0.980688 0.170205 0.954425
O O8 0.750000 0.202445 0.512601
O O9 0.502373 0.168519 0.610641
O O10 0.500000 0.500000 0.085604
O O11 0.750000 0.550132 0.060965
O O12 0.467729 0.584437 0.087265
O O13 0.534429 0.543390 0.899294
O O14 0.250000 0.627201 0.196931
O O15 0.531751 0.617812 0.284895
O O16 0.500000 0.500000 0.499434
O O17 0.250000 0.455078 0.569052
O O18 0.520196 0.456434 0.681498
O O19 0.501976 0.414909 0.486674
O O20 0.250000 0.937944 0.323932
O O21 0.750000 0.631089 0.437187
#
# Coordination Sequence:
#
# PCOD8192633 Si02
#       8
#     8   8   8   8   8   8   8   8
#     4   9  17  32  58  92 125 155 197 253 302 351
#     4  10  20  36  64  94 120 160 207 254 303 359
#     4   9  19  35  61  95 124 153 203 257 303 357
#     4  12  25  42  64  92 126 163 205 251 308 369
#     4  11  23  42  66  91 121 162 210 259 309 366
#     4  11  24  41  62  88 120 158 202 251 309 369
#     4  11  20  37  63  92 127 161 202 252 305 361
#     4  11  25  43  60  86 126 164 202 255 312 372
#
# _framework density 20.793780000000002
#
# number of rings (size 3 to 8) (size 9 to 14) (size 15 to 20)
#    0.000    1.500    2.500    3.000    1.750    2.000 
#    0.000    2.500    0.000    0.000    0.000    0.000 
#    0.000    0.000    0.000    0.000    0.000    0.000 
#
# Total GULP energy -396898.980351 kJ/mol
# GULP energy per Si atom -12403.093136 kJ/mol
# Density = 2.074645 g / cm^3
# Si number density = 20.793780 Si / 1000 Ang^3
#
#
#
# Elastic Constant Matrix: (Units=GPa)
#
#
# Indices 1 2 3 4 5 6 
#
# 1 39.0086 16.3631 2.7137 -0.0008 0.0001 0.0001
# 2 16.3631 166.6011 37.1737 -0.0009 0.0006 0.0002
# 3 2.7137 37.1737 103.7614 -0.0007 0.0012 0.0004
# 4 -0.0008 -0.0009 -0.0007 26.4583 0.0005 0.0001
# 5 0.0001 0.0006 0.0012 0.0005 25.3524 0.0000
# 6 0.0001 0.0002 0.0004 0.0001 0.0000 22.0261
#
#
#
# Elastic Compliance Matrix: (Units=1/GPa)
#
#
# Indices 1 2 3 4 5 6 
#
# 1 0.026744 -0.002685 0.000263 0.000001 0.000000 0.000000
# 2 -0.002685 0.006793 -0.002364 0.000000 0.000000 0.000000
# 3 0.000263 -0.002364 0.010477 0.000000 0.000000 0.000000
# 4 0.000001 0.000000 0.000000 0.037795 -0.000001 0.000000
# 5 0.000000 0.000000 0.000000 -0.000001 0.039444 0.000000
# 6 0.000000 0.000000 0.000000 0.000000 0.000000 0.045401
#
#
# Mechanical properties :
#
#
# Convention : Reuss Voigt Hill
#
# Bulk Modulus (GPa) = 29.03445 46.87470 37.95458
# Shear Modulus (GPa) = 26.63717 31.64207 29.13962
#
# Velocity S-wave (km/s) = 3.58301 3.90514 3.74754
# Velocity P-wave (km/s) = 5.57769 6.55172 6.08423
#
# Compressibility (1/GPa) = 0.03444184
#
# Stress axis : x y z
#
# Youngs Moduli (GPa) = 37.39223 147.19965 95.44337
#
# Poissons Ratio (x) = 0.39527 -0.02506
# Poissons Ratio (y) = 0.10041 0.22559
# Poissons Ratio (z) = -0.00982 0.34792
#
# Static dielectric constant tensor:
#      x y z
#    x 3.389050 0.000000 0.000000 
#    y 0.000000 4.111570 0.000000 
#    z 0.000000 0.000000 3.787450 
# 
# 
# High freq. dielectric constant tensor:
#      x y z
#    x 1.786960 0.000000 0.000000 
#    y 0.000000 1.833850 0.000000 
#    z 0.000000 0.000000 1.813900 
# 
# From -- ./inp_files/9679.got.cif
#   From: 2010.03.12/outbox.cif.g09.slc.cpg/sg46_5_cif.got.tgz:9679.got - 2010.04.14 02:56:35.
