data_PCOD8192053
_publ_section_title
;
Structure prediction by ZEFSAII (Michael W. Deem and Ramdas Pophale) SiO2 
 PCOD8192053
Probable space group: I M A 2
;
_chemical_formula_sum "Si O2"
_cell_formula_units_Z 48
_cell_length_a 17.366995
_cell_length_b 15.455118
_cell_length_c 9.370146
_cell_angle_alpha 90.000000
_cell_angle_beta 90.000000
_cell_angle_gamma 90.000000
_cell_volume 2515.031115
_symmetry_space_group_name_H-M "I M A 2"
_symmetry_group_IT_number 46
_symmetry_cell_setting 'orthorhombic'
loop_
_space_group_symop_operation_xyz
x,y,z
-x,-y,z
1/2-x,y,z
1/2+x,-y,z
1/2+x,1/2+y,1/2+z
1/2-x,1/2-y,1/2+z
-x,1/2+y,1/2+z
x,1/2-y,1/2+z
loop_
_atom_site_type_symbol
_atom_site_label
_atom_site_fract_x
_atom_site_fract_y
_atom_site_fract_z
Si Si1 0.090484 0.505233 0.855210
Si Si2 0.341638 0.844924 0.179518
Si Si3 0.838489 0.834790 0.692821
Si Si4 0.157898 0.975948 0.659996
Si Si5 0.158880 0.679204 0.355179
Si Si6 0.160973 0.323394 0.864253
O O1 0.115767 0.568329 0.727952
O O2 0.119632 0.410204 0.813328
O O3 0.000000 0.500000 0.871573
O O4 0.126523 0.541451 0.001680
O O5 0.250000 0.858088 0.187735
O O6 0.370197 0.766955 0.280844
O O7 0.368981 0.824110 0.018405
O O8 0.750000 0.839054 0.738172
O O9 0.878114 0.760139 0.788013
O O10 0.849653 0.807232 0.530507
O O11 0.873272 0.930959 0.717134
O O12 0.250000 0.976578 0.647277
O O13 0.126352 0.902871 0.766894
O O14 0.250000 0.675887 0.347536
O O15 0.250000 0.333450 0.820906
#
# Coordination Sequence:
#
# PCOD8192053 Si02
#       6
#     8   8   8   8   8   8
#     4  11  22  35  50  73 106 145 182 214 254 309
#     4  10  19  34  55  81 108 137 173 220 268 317
#     4   8  15  27  48  74  99 124 158 201 250 300
#     4   9  17  34  57  81 104 131 169 218 268 319
#     4   9  18  32  58  87 106 130 172 219 270 322
#     4   9  17  32  52  74  97 127 164 210 258 301
#
# _framework density 19.085249000000001
#
# number of rings (size 3 to 8) (size 9 to 14) (size 15 to 20)
#    0.000    2.667    0.000    3.500    0.000    4.000 
#    0.000   12.500    0.000    0.000    0.000    0.000 
#    0.000    0.000    0.000    0.000    0.000    0.000 
#
# Total GULP energy -297541.093586 kJ/mol
# GULP energy per Si atom -12397.545566 kJ/mol
# Density = 1.904181 g / cm^3
# Si number density = 19.085249 Si / 1000 Ang^3
#
#
#
# Elastic Constant Matrix: (Units=GPa)
#
#
# Indices 1 2 3 4 5 6 
#
# 1 39.1090 21.4024 17.5562 0.0000 0.0000 0.0000
# 2 21.4024 120.5015 54.9597 0.0000 0.0000 0.0000
# 3 17.5562 54.9597 94.8848 0.0000 0.0000 0.0000
# 4 0.0000 0.0000 0.0000 47.3077 0.0000 0.0000
# 5 0.0000 0.0000 0.0000 0.0000 8.9780 0.0000
# 6 0.0000 0.0000 0.0000 0.0000 0.0000 6.5821
#
#
#
# Elastic Compliance Matrix: (Units=1/GPa)
#
#
# Indices 1 2 3 4 5 6 
#
# 1 0.029038 -0.003679 -0.003242 0.000000 0.000000 0.000000
# 2 -0.003679 0.011744 -0.006122 0.000000 0.000000 0.000000
# 3 -0.003242 -0.006122 0.014685 0.000000 0.000000 0.000000
# 4 0.000000 0.000000 0.000000 0.021138 0.000000 0.000000
# 5 0.000000 0.000000 0.000000 0.000000 0.111384 0.000000
# 6 0.000000 0.000000 0.000000 0.000000 0.000000 0.151928
#
#
# Mechanical properties :
#
#
# Convention : Reuss Voigt Hill
#
# Bulk Modulus (GPa) = 34.03457 49.14798 41.59127
# Shear Modulus (GPa) = 13.30507 23.27867 18.29187
#
# Velocity S-wave (km/s) = 2.64320 3.49624 3.09921
# Velocity P-wave (km/s) = 5.21411 6.48891 5.88613
#
# Compressibility (1/GPa) = 0.02938189
#
# Stress axis : x y z
#
# Youngs Moduli (GPa) = 34.43746 85.14862 68.09732
#
# Poissons Ratio (x) = 0.31325 0.22077
# Poissons Ratio (y) = 0.12669 0.41688
# Poissons Ratio (z) = 0.11164 0.52127
#
# Static dielectric constant tensor:
#      x y z
#    x 2.985600 0.000000 0.000000 
#    y 0.000000 3.919200 0.000000 
#    z 0.000000 0.000000 3.540110 
# 
# 
# High freq. dielectric constant tensor:
#      x y z
#    x 1.688880 0.000000 0.000000 
#    y 0.000000 1.762100 0.000000 
#    z 0.000000 0.000000 1.740340 
# 
# From -- ./inp_files/6593.got.cif
#   From: 2010.03.12/outbox.cif.g09.slc.cpg/sg46_4_cif.got.tgz:6593.got - 2010.04.14 02:56:35.
