data_PCOD8192651
_publ_section_title
;
Structure prediction by ZEFSAII (Michael W. Deem and Ramdas Pophale) SiO2 
 PCOD8192651
Probable space group: I M A 2
;
_chemical_formula_sum "Si O2"
_cell_formula_units_Z 48
_cell_length_a 8.499746
_cell_length_b 9.099388
_cell_length_c 30.623907
_cell_angle_alpha 90.000000
_cell_angle_beta 90.000000
_cell_angle_gamma 90.000000
_cell_volume 2368.529122
_symmetry_space_group_name_H-M "I M A 2"
_symmetry_group_IT_number 46
_symmetry_cell_setting 'orthorhombic'
loop_
_space_group_symop_operation_xyz
x,y,z
-x,-y,z
1/2-x,y,z
1/2+x,-y,z
1/2+x,1/2+y,1/2+z
1/2-x,1/2-y,1/2+z
-x,1/2+y,1/2+z
x,1/2-y,1/2+z
loop_
_atom_site_type_symbol
_atom_site_label
_atom_site_fract_x
_atom_site_fract_y
_atom_site_fract_z
Si Si1 0.435705 0.160507 0.423520
Si Si2 0.064887 0.660698 0.247461
Si Si3 0.063061 0.662730 0.662602
Si Si4 0.435451 0.161212 0.581733
Si Si5 0.063066 0.658742 0.829777
Si Si6 0.435440 0.660555 0.501872
O O1 0.250000 0.152418 0.424973
O O2 0.491756 0.209923 0.375704
O O3 0.495923 0.284840 0.456102
O O4 0.500000 0.000000 0.436458
O O5 0.250000 0.653872 0.248699
O O6 0.008523 0.757663 0.206787
O O7 0.002549 0.729565 0.292703
O O8 0.000000 0.500000 0.241077
O O9 0.250000 0.667013 0.655471
O O10 0.000000 0.500000 0.666023
O O11 0.976733 0.738339 0.622508
O O12 0.250000 0.156562 0.574243
O O13 0.516347 0.224643 0.538766
O O14 0.500000 0.000000 0.591194
O O15 0.250000 0.653054 0.833629
O O16 0.000000 0.500000 0.816273
O O17 0.500000 0.500000 0.513599
O O18 0.250000 0.651999 0.498455
#
# Coordination Sequence:
#
# PCOD8192651 Si02
#       6
#     8   8   8   8   8   8
#     4  11  22  39  62  90 121 159 201 248 300 357
#     4  10  23  39  59  86 120 157 200 247 298 355
#     4  11  23  41  63  91 122 159 201 247 299 356
#     4  12  25  43  65  92 123 159 199 246 297 354
#     4  10  20  37  59  87 118 155 200 249 299 356
#     4  12  25  43  64  90 122 159 200 247 298 356
#
# _framework density 20.265743000000001
#
# number of rings (size 3 to 8) (size 9 to 14) (size 15 to 20)
#    0.000    1.000    0.000    8.500    0.000    4.667 
#    0.000    1.667    0.000    0.000    0.000    0.000 
#    0.000    0.000    0.000    0.000    0.000    0.000 
#
# Total GULP energy -297746.881454 kJ/mol
# GULP energy per Si atom -12406.120061 kJ/mol
# Density = 2.021962 g / cm^3
# Si number density = 20.265743 Si / 1000 Ang^3
#
#
#
# Elastic Constant Matrix: (Units=GPa)
#
#
# Indices 1 2 3 4 5 6 
#
# 1 89.0819 12.0780 38.7175 0.0000 0.0000 0.0000
# 2 12.0780 125.1873 64.2849 0.0000 -0.0002 0.0000
# 3 38.7175 64.2849 130.6200 0.0000 -0.0001 0.0000
# 4 0.0000 0.0000 0.0000 55.3572 0.0000 0.0000
# 5 0.0000 -0.0002 -0.0001 0.0000 -221.5880 0.0000
# 6 0.0000 0.0000 0.0000 0.0000 0.0000 37.8685
#
#
#
# Elastic Compliance Matrix: (Units=1/GPa)
#
#
# Indices 1 2 3 4 5 6 
#
# 1 0.012973 0.000967 -0.004321 0.000000 0.000000 0.000000
# 2 0.000967 0.010762 -0.005583 0.000000 0.000000 0.000000
# 3 -0.004321 -0.005583 0.011684 0.000000 0.000000 0.000000
# 4 0.000000 0.000000 0.000000 0.018065 0.000000 0.000000
# 5 0.000000 0.000000 0.000000 0.000000 -0.004513 0.000000
# 6 0.000000 0.000000 0.000000 0.000000 0.000000 0.026407
#
#
# Mechanical properties :
#
#
# Convention : Reuss Voigt Hill
#
# Bulk Modulus (GPa) = 56.99741 63.89444 60.44593
# Shear Modulus (GPa) = 50.45407 -10.35188 20.05109
#
# Velocity S-wave (km/s) = 4.99503 -2.26256 3.14890
# Velocity P-wave (km/s) = 7.83920 4.97707 6.56598
#
# Compressibility (1/GPa) = 0.01754466
#
# Stress axis : x y z
#
# Youngs Moduli (GPa) = 77.08516 92.92213 85.58358
#
# Poissons Ratio (x) = -0.08990 0.36984
# Poissons Ratio (y) = -0.07458 0.47783
# Poissons Ratio (z) = 0.33312 0.51880
#
# Static dielectric constant tensor:
#      x y z
#    x 3.830180 0.000000 0.000000 
#    y 0.000000 3.688140 0.000000 
#    z 0.000000 0.000000 4.012820 
# 
# 
# High freq. dielectric constant tensor:
#      x y z
#    x 1.806990 0.000000 0.000000 
#    y 0.000000 1.800070 0.000000 
#    z 0.000000 0.000000 1.810770 
# 
# From -- ./inp_files/24972.got.cif
#   From: 2010.03.12/outbox.cif.g09.slc.cpg/sg46_13_cif.got.tgz:24972.got - 2010.04.14 02:56:35.
