data_PCOD8192491
_publ_section_title
;
Structure prediction by ZEFSAII (Michael W. Deem and Ramdas Pophale) SiO2 
 PCOD8192491
Probable space group: I M A 2
;
_chemical_formula_sum "Si O2"
_cell_formula_units_Z 64
_cell_length_a 8.927470
_cell_length_b 14.810549
_cell_length_c 24.394370
_cell_angle_alpha 90.000000
_cell_angle_beta 90.000000
_cell_angle_gamma 90.000000
_cell_volume 3225.441455
_symmetry_space_group_name_H-M "I M A 2"
_symmetry_group_IT_number 46
_symmetry_cell_setting 'orthorhombic'
loop_
_space_group_symop_operation_xyz
x,y,z
-x,-y,z
1/2-x,y,z
1/2+x,-y,z
1/2+x,1/2+y,1/2+z
1/2-x,1/2-y,1/2+z
-x,1/2+y,1/2+z
x,1/2-y,1/2+z
loop_
_atom_site_type_symbol
_atom_site_label
_atom_site_fract_x
_atom_site_fract_y
_atom_site_fract_z
Si Si1 0.925348 0.903363 0.480420
Si Si2 0.072826 0.257853 0.068081
Si Si3 0.575161 0.096320 0.253335
Si Si4 0.074116 0.402858 0.859501
Si Si5 0.926742 0.097239 0.773034
Si Si6 0.424604 0.764226 0.681507
Si Si7 0.073576 0.902210 0.009772
Si Si8 0.923175 0.405548 0.391320
O O1 0.750000 0.919667 0.487042
O O2 0.985736 0.833660 0.525637
O O3 0.960132 0.861109 0.419700
O O4 0.000000 0.000000 0.489733
O O5 0.250000 0.247305 0.064795
O O6 0.022615 0.286217 0.128478
O O7 0.996957 0.162538 0.054947
O O8 0.750000 0.081663 0.264032
O O9 0.504854 0.145821 0.307645
O O10 0.547017 0.162180 0.202043
O O11 0.500000 0.000000 0.239994
O O12 0.250000 0.408896 0.848389
O O13 0.000000 0.500000 0.859362
O O14 0.750000 0.084503 0.768539
O O15 0.983800 0.166633 0.727543
O O16 0.970856 0.140270 0.833357
O O17 0.000000 0.000000 0.763504
O O18 0.250000 0.779400 0.668312
O O19 0.250000 0.911231 0.020371
O O20 0.038435 0.856962 0.949315
O O21 0.000000 0.000000 0.016051
O O22 0.750000 0.426719 0.389548
O O23 0.000000 0.500000 0.394355
#
# Coordination Sequence:
#
# PCOD8192491 Si02
#       8
#     8   8   8   8   8   8   8   8
#     4   9  20  37  57  82 111 144 180 223 273 324
#     4  11  24  40  56  78 109 144 188 234 272 318
#     4  10  20  35  56  81 109 140 175 218 268 320
#     4   9  16  30  53  81 111 139 172 214 265 324
#     4   9  18  35  57  81 110 141 175 218 268 322
#     4  10  23  40  55  75 106 144 186 227 268 319
#     4  10  20  36  59  85 113 145 180 220 271 326
#     4   8  15  29  52  81 109 137 171 212 262 323
#
# _framework density 19.842245999999999
#
# number of rings (size 3 to 8) (size 9 to 14) (size 15 to 20)
#    0.000    2.500    0.000    2.250    0.000    5.500 
#    0.000    5.000    0.000    0.000    0.000    0.000 
#    0.000    0.000    0.000    0.000    0.000    0.000 
#
# Total GULP energy -396474.957338 kJ/mol
# GULP energy per Si atom -12389.842417 kJ/mol
# Density = 1.979708 g / cm^3
# Si number density = 19.842246 Si / 1000 Ang^3
#
#
#
# Elastic Constant Matrix: (Units=GPa)
#
#
# Indices 1 2 3 4 5 6 
#
# 1 62.5265 14.9007 25.7827 0.0000 0.0000 0.0000
# 2 14.9007 49.5662 12.5099 0.0000 0.0000 0.0000
# 3 25.7827 12.5099 94.4635 0.0000 0.0000 0.0000
# 4 0.0000 0.0000 0.0000 31.2354 0.0000 0.0000
# 5 0.0000 0.0000 0.0000 0.0000 37.3573 0.0000
# 6 0.0000 0.0000 0.0000 0.0000 0.0000 24.1715
#
#
#
# Elastic Compliance Matrix: (Units=1/GPa)
#
#
# Indices 1 2 3 4 5 6 
#
# 1 0.018963 -0.004546 -0.004574 0.000000 0.000000 0.000000
# 2 -0.004546 0.021963 -0.001668 0.000000 0.000000 0.000000
# 3 -0.004574 -0.001668 0.012055 0.000000 0.000000 0.000000
# 4 0.000000 0.000000 0.000000 0.032015 0.000000 0.000000
# 5 0.000000 0.000000 0.000000 0.000000 0.026769 0.000000
# 6 0.000000 0.000000 0.000000 0.000000 0.000000 0.041371
#
#
# Mechanical properties :
#
#
# Convention : Reuss Voigt Hill
#
# Bulk Modulus (GPa) = 31.84162 34.77146 33.30654
# Shear Modulus (GPa) = 27.00098 28.77702 27.88900
#
# Velocity S-wave (km/s) = 3.69288 3.81240 3.75312
# Velocity P-wave (km/s) = 5.85366 6.07793 5.96685
#
# Compressibility (1/GPa) = 0.03140543
#
# Stress axis : x y z
#
# Youngs Moduli (GPa) = 52.73558 45.53184 82.95140
#
# Poissons Ratio (x) = 0.20700 0.37938
# Poissons Ratio (y) = 0.23975 0.13834
# Poissons Ratio (z) = 0.24119 0.07593
#
# Static dielectric constant tensor:
#      x y z
#    x 3.557900 0.000000 0.000000 
#    y 0.000000 3.324350 0.000000 
#    z 0.000000 0.000000 4.288620 
# 
# 
# High freq. dielectric constant tensor:
#      x y z
#    x 1.774400 0.000000 0.000000 
#    y 0.000000 1.749920 0.000000 
#    z 0.000000 0.000000 1.789630 
# 
# From -- ./inp_files/23199.got.cif
#   From: 2010.03.12/outbox.cif.g09.slc.cpg/sg46_12_cif.got.tgz:23199.got - 2010.04.14 02:56:35.
