data_PCOD8192933
_publ_section_title
;
Structure prediction by ZEFSAII (Michael W. Deem and Ramdas Pophale) SiO2 
 PCOD8192933
Probable space group: I M A 2
;
_chemical_formula_sum "Si O2"
_cell_formula_units_Z 64
_cell_length_a 9.106763
_cell_length_b 28.582343
_cell_length_c 12.529860
_cell_angle_alpha 90.000000
_cell_angle_beta 90.000000
_cell_angle_gamma 90.000000
_cell_volume 3261.430134
_symmetry_space_group_name_H-M "I M A 2"
_symmetry_group_IT_number 46
_symmetry_cell_setting 'orthorhombic'
loop_
_space_group_symop_operation_xyz
x,y,z
-x,-y,z
1/2-x,y,z
1/2+x,-y,z
1/2+x,1/2+y,1/2+z
1/2-x,1/2-y,1/2+z
-x,1/2+y,1/2+z
x,1/2-y,1/2+z
loop_
_atom_site_type_symbol
_atom_site_label
_atom_site_fract_x
_atom_site_fract_y
_atom_site_fract_z
Si Si1 0.921360 0.387553 0.669800
Si Si2 0.415444 0.044108 0.314535
Si Si3 0.578021 0.904437 0.767831
Si Si4 0.915239 0.167490 0.472216
Si Si5 0.924842 0.450513 0.468449
Si Si6 0.087953 0.419662 0.034451
Si Si7 0.919583 0.309429 0.206937
Si Si8 0.923298 0.208651 0.259967
O O1 0.750000 0.395319 0.691946
O O2 0.966378 0.412067 0.558536
O O3 0.959599 0.331699 0.671091
O O4 0.008654 0.409387 0.769453
O O5 0.250000 0.042657 0.271387
O O6 0.417836 0.039853 0.444700
O O7 0.500000 0.000000 0.265500
O O8 0.750000 0.902300 0.798593
O O9 0.487984 0.931725 0.857218
O O10 0.552527 0.933933 0.657113
O O11 0.516820 0.851793 0.753097
O O12 0.750000 0.160416 0.434363
O O13 0.929562 0.196620 0.579880
O O14 0.993277 0.193357 0.373551
O O15 0.972409 0.116368 0.491735
O O16 0.750000 0.457357 0.458470
O O17 0.000000 0.500000 0.497389
O O18 0.250000 0.396476 0.035151
O O19 0.750000 0.317722 0.242969
O O20 0.991019 0.260012 0.241315
O O21 0.750000 0.216820 0.262814
#
# Coordination Sequence:
#
# PCOD8192933 Si02
#       8
#     8   8   8   8   8   8   8   8
#     4  10  21  38  59  84 114 150 192 240 289 343
#     4  11  22  35  54  81 111 143 179 226 280 339
#     4  10  21  39  60  82 115 152 193 241 291 345
#     4   9  16  29  52  76 105 145 183 226 279 335
#     4  11  24  41  62  86 116 156 200 247 300 355
#     4   9  19  35  54  78 107 141 178 226 282 333
#     4   9  18  32  53  84 115 150 195 240 289 343
#     4   9  17  31  54  83 114 149 194 240 288 343
#
# _framework density 19.623293
#
# number of rings (size 3 to 8) (size 9 to 14) (size 15 to 20)
#    0.000    2.250    1.250    1.500    0.000    4.500 
#    0.000    6.250    0.000    3.000    0.000    0.000 
#    0.000    0.000    0.000    0.000    0.000    0.000 
#
# Total GULP energy -396463.157177 kJ/mol
# GULP energy per Si atom -12389.473662 kJ/mol
# Density = 1.957863 g / cm^3
# Si number density = 19.623293 Si / 1000 Ang^3
#
#
#
# Elastic Constant Matrix: (Units=GPa)
#
#
# Indices 1 2 3 4 5 6 
#
# 1 67.0259 26.6362 29.7348 -0.0004 0.0000 0.0000
# 2 26.6362 71.6955 12.3426 -0.0010 0.0001 0.0002
# 3 29.7348 12.3426 87.8595 -0.0015 0.0000 0.0003
# 4 -0.0004 -0.0010 -0.0015 24.8850 0.0000 0.0002
# 5 0.0000 0.0001 0.0000 0.0000 23.9272 -0.0003
# 6 0.0000 0.0002 0.0003 0.0002 -0.0003 13.9902
#
#
#
# Elastic Compliance Matrix: (Units=1/GPa)
#
#
# Indices 1 2 3 4 5 6 
#
# 1 0.020099 -0.006452 -0.005896 0.000000 0.000000 0.000000
# 2 -0.006452 0.016365 -0.000115 0.000001 0.000000 0.000000
# 3 -0.005896 -0.000115 0.013393 0.000001 0.000000 0.000000
# 4 0.000000 0.000001 0.000001 0.040185 0.000000 -0.000001
# 5 0.000000 0.000000 0.000000 0.000000 0.041793 0.000001
# 6 0.000000 0.000000 0.000000 -0.000001 0.000001 0.071479
#
#
# Mechanical properties :
#
#
# Convention : Reuss Voigt Hill
#
# Bulk Modulus (GPa) = 40.11122 40.44534 40.27828
# Shear Modulus (GPa) = 21.13701 23.08495 22.11098
#
# Velocity S-wave (km/s) = 3.28554 3.43360 3.36038
# Velocity P-wave (km/s) = 5.90576 6.03118 5.96880
#
# Compressibility (1/GPa) = 0.02493068
#
# Stress axis : x y z
#
# Youngs Moduli (GPa) = 49.75276 61.10651 74.66364
#
# Poissons Ratio (x) = 0.39428 0.44021
# Poissons Ratio (y) = 0.32102 0.00861
# Poissons Ratio (z) = 0.29334 0.00704
#
# Static dielectric constant tensor:
#      x y z
#    x 3.492310 0.000000 0.000000 
#    y 0.000000 3.566670 0.000000 
#    z 0.000000 0.000000 3.829420 
# 
# 
# High freq. dielectric constant tensor:
#      x y z
#    x 1.750330 0.000000 0.000000 
#    y 0.000000 1.755460 0.000000 
#    z 0.000000 0.000000 1.772010 
# 
# From -- ./inp_files/9698.got.cif
#   From: 2010.03.12/outbox.cif.g09.slc.cpg/sg46_5_cif.got.tgz:9698.got - 2010.04.14 02:56:35.
