data_PCOD8192050
_publ_section_title
;
Structure prediction by ZEFSAII (Michael W. Deem and Ramdas Pophale) SiO2 
 PCOD8192050
Probable space group: I M A 2
;
_chemical_formula_sum "Si O2"
_cell_formula_units_Z 64
_cell_length_a 8.843015
_cell_length_b 25.902756
_cell_length_c 13.465277
_cell_angle_alpha 90.000000
_cell_angle_beta 90.000000
_cell_angle_gamma 90.000000
_cell_volume 3084.335611
_symmetry_space_group_name_H-M "I M A 2"
_symmetry_group_IT_number 46
_symmetry_cell_setting 'orthorhombic'
loop_
_space_group_symop_operation_xyz
x,y,z
-x,-y,z
1/2-x,y,z
1/2+x,-y,z
1/2+x,1/2+y,1/2+z
1/2-x,1/2-y,1/2+z
-x,1/2+y,1/2+z
x,1/2-y,1/2+z
loop_
_atom_site_type_symbol
_atom_site_label
_atom_site_fract_x
_atom_site_fract_y
_atom_site_fract_z
Si Si1 0.086632 0.330577 0.203050
Si Si2 0.914347 0.648553 0.419848
Si Si3 0.921137 0.424517 0.156814
Si Si4 0.072718 0.764583 0.015239
Si Si5 0.571479 0.785101 0.216762
Si Si6 0.576931 0.448395 0.386660
Si Si7 0.927953 0.948068 0.465672
Si Si8 0.430013 0.661636 0.905337
O O1 0.250000 0.327690 0.145752
O O2 0.115645 0.361005 0.304235
O O3 0.025161 0.274439 0.230852
O O4 0.960787 0.363274 0.143818
O O5 0.750000 0.654599 0.473674
O O6 0.020685 0.698981 0.425572
O O7 0.002222 0.597037 0.452616
O O8 0.750000 0.431898 0.118671
O O9 0.942767 0.444299 0.267900
O O10 0.036462 0.453694 0.083371
O O11 0.250000 0.766852 0.033507
O O12 0.021455 0.705536 0.988143
O O13 0.986483 0.794176 0.104924
O O14 0.750000 0.795019 0.227144
O O15 0.486388 0.820269 0.296853
O O16 0.500000 0.500000 0.425001
O O17 0.750000 0.449190 0.416682
O O18 0.750000 0.947193 0.445400
O O19 0.000536 0.894638 0.426192
O O20 0.000000 0.000000 0.414756
O O21 0.250000 0.657365 0.902236
#
# Coordination Sequence:
#
# PCOD8192050 Si02
#       8
#     8   8   8   8   8   8   8   8
#     4   9  18  32  52  80 114 153 192 235 287 346
#     4  10  19  34  55  79 111 150 191 238 290 347
#     4  10  20  33  53  82 117 155 198 244 295 355
#     4  11  23  38  59  89 123 160 200 248 303 362
#     4  11  22  37  59  87 120 158 199 245 297 355
#     4  10  20  33  51  78 112 153 197 244 296 357
#     4  12  25  41  61  84 116 156 202 252 305 363
#     4  11  24  42  64  91 124 161 204 254 308 365
#
# _framework density 20.750012999999999
#
# number of rings (size 3 to 8) (size 9 to 14) (size 15 to 20)
#    0.000    1.500    1.250    4.500    0.000    7.500 
#    0.000    0.000    0.000    0.750    0.000    5.250 
#    0.000    0.000    0.000    0.000    0.000    0.000 
#
# Total GULP energy -396440.211867 kJ/mol
# GULP energy per Si atom -12388.756621 kJ/mol
# Density = 2.070278 g / cm^3
# Si number density = 20.750013 Si / 1000 Ang^3
#
#
#
# Elastic Constant Matrix: (Units=GPa)
#
#
# Indices 1 2 3 4 5 6 
#
# 1 108.3674 55.7890 6.8051 0.0002 -0.0001 0.0000
# 2 55.7890 151.0946 5.3342 0.0003 0.0000 0.0000
# 3 6.8051 5.3342 28.0166 0.0001 0.0002 -0.0003
# 4 0.0002 0.0003 0.0001 6.2830 0.0000 -0.0001
# 5 -0.0001 0.0000 0.0002 0.0000 26.4504 -0.0001
# 6 0.0000 0.0000 -0.0003 -0.0001 -0.0001 37.2571
#
#
#
# Elastic Compliance Matrix: (Units=1/GPa)
#
#
# Indices 1 2 3 4 5 6 
#
# 1 0.011504 -0.004177 -0.001999 0.000000 0.000000 0.000000
# 2 -0.004177 0.008180 -0.000543 0.000000 0.000000 0.000000
# 3 -0.001999 -0.000543 0.036282 0.000000 0.000000 0.000000
# 4 0.000000 0.000000 0.000000 0.159160 0.000000 0.000000
# 5 0.000000 0.000000 0.000000 0.000000 0.037807 0.000000
# 6 0.000000 0.000000 0.000000 0.000000 0.000000 0.026841
#
#
# Mechanical properties :
#
#
# Convention : Reuss Voigt Hill
#
# Bulk Modulus (GPa) = 23.51385 47.03726 35.27555
# Shear Modulus (GPa) = 16.26619 28.63478 22.45048
#
# Velocity S-wave (km/s) = 2.80288 3.71885 3.29287
# Velocity P-wave (km/s) = 4.67241 6.41541 5.61199
#
# Compressibility (1/GPa) = 0.04252813
#
# Stress axis : x y z
#
# Youngs Moduli (GPa) = 86.92808 122.25216 27.56183
#
# Poissons Ratio (x) = 0.51065 0.05509
# Poissons Ratio (y) = 0.36310 0.01496
# Poissons Ratio (z) = 0.17376 0.06636
#
# Static dielectric constant tensor:
#      x y z
#    x 3.940500 0.000000 0.000000 
#    y 0.000000 3.915820 0.000000 
#    z 0.000000 0.000000 3.532940 
# 
# 
# High freq. dielectric constant tensor:
#      x y z
#    x 1.824790 0.000000 0.000000 
#    y 0.000000 1.820480 0.000000 
#    z 0.000000 0.000000 1.768710 
# 
# From -- ./inp_files/14520.got.cif
#   From: 2010.03.12/outbox.cif.g09.slc.cpg/sg46_8_cif.got.tgz:14520.got - 2010.04.14 02:56:35.
