data_PCOD8192764
_publ_section_title
;
Structure prediction by ZEFSAII (Michael W. Deem and Ramdas Pophale) SiO2 
 PCOD8192764
Probable space group: I M A 2
;
_chemical_formula_sum "Si O2"
_cell_formula_units_Z 64
_cell_length_a 26.061154
_cell_length_b 9.608970
_cell_length_c 13.626464
_cell_angle_alpha 90.000000
_cell_angle_beta 90.000000
_cell_angle_gamma 90.000000
_cell_volume 3412.350656
_symmetry_space_group_name_H-M "I M A 2"
_symmetry_group_IT_number 46
_symmetry_cell_setting 'orthorhombic'
loop_
_space_group_symop_operation_xyz
x,y,z
-x,-y,z
1/2-x,y,z
1/2+x,-y,z
1/2+x,1/2+y,1/2+z
1/2-x,1/2-y,1/2+z
-x,1/2+y,1/2+z
x,1/2-y,1/2+z
loop_
_atom_site_type_symbol
_atom_site_label
_atom_site_fract_x
_atom_site_fract_y
_atom_site_fract_z
Si Si1 0.976822 0.354550 0.706790
Si Si2 0.089588 0.957424 0.379848
Si Si3 0.438607 0.788653 0.000969
Si Si4 0.373843 0.054316 0.939832
Si Si5 0.806637 0.862026 0.779349
Si Si6 0.190557 0.245042 0.573261
Si Si7 0.305025 0.422629 0.892688
Si Si8 0.037496 0.245784 0.375871
O O1 0.932624 0.379268 0.786086
O O2 0.952432 0.275340 0.615313
O O3 0.000000 0.500000 0.668002
O O4 0.020588 0.261445 0.760892
O O5 0.089455 0.854489 0.472685
O O6 0.148208 0.989255 0.350425
O O7 0.055069 0.090765 0.408021
O O8 0.491248 0.804165 0.941177
O O9 0.399776 0.915348 0.980431
O O10 0.337595 0.023329 0.844371
O O11 0.415448 0.154059 0.890701
O O12 0.344172 0.128469 0.030658
O O13 0.750000 0.923167 0.757385
O O14 0.831927 0.807180 0.677998
O O15 0.803475 0.730536 0.849635
O O16 0.250000 0.296931 0.583245
O O17 0.186988 0.105229 0.508243
O O18 0.250000 0.497974 0.872157
#
# Coordination Sequence:
#
# PCOD8192764 Si02
#       8
#     8   8   8   8   8   8   8   8
#     4   9  20  36  57  75 108 145 184 226 268 323
#     4  10  20  40  57  77 107 149 185 216 270 337
#     4  11  23  36  52  82 114 143 177 234 282 327
#     4  11  20  33  56  85 111 143 182 235 284 317
#     4   9  18  33  55  85 114 143 184 231 276 327
#     4   9  18  33  56  87 114 143 185 228 274 330
#     4   9  17  34  58  81 106 140 185 228 261 321
#     4  10  20  39  56  75 104 147 195 222 262 331
#
# _framework density 18.755400000000002
#
# number of rings (size 3 to 8) (size 9 to 14) (size 15 to 20)
#    0.000    2.250    2.500    3.375    1.750    1.000 
#    4.500    3.750    0.000    0.750    0.000    0.000 
#    0.000    0.000    0.000    0.000    0.000    0.000 
#
# Total GULP energy -396546.184885 kJ/mol
# GULP energy per Si atom -12392.068278 kJ/mol
# Density = 1.871271 g / cm^3
# Si number density = 18.755400 Si / 1000 Ang^3
#
#
#
# Elastic Constant Matrix: (Units=GPa)
#
#
# Indices 1 2 3 4 5 6 
#
# 1 100.1530 24.8470 27.8024 0.0000 0.0000 0.0000
# 2 24.8470 56.2808 27.3943 0.0000 0.0000 0.0000
# 3 27.8024 27.3943 99.4466 0.0000 0.0000 0.0000
# 4 0.0000 0.0000 0.0000 13.4016 0.0000 0.0000
# 5 0.0000 0.0000 0.0000 0.0000 22.9440 0.0000
# 6 0.0000 0.0000 0.0000 0.0000 0.0000 24.3464
#
#
#
# Elastic Compliance Matrix: (Units=1/GPa)
#
#
# Indices 1 2 3 4 5 6 
#
# 1 0.011585 -0.004086 -0.002113 0.000000 0.000000 0.000000
# 2 -0.004086 0.021960 -0.004907 0.000000 0.000000 0.000000
# 3 -0.002113 -0.004907 0.011998 0.000000 0.000000 0.000000
# 4 0.000000 0.000000 0.000000 0.074618 0.000000 0.000000
# 5 0.000000 0.000000 0.000000 0.000000 0.043584 0.000000
# 6 0.000000 0.000000 0.000000 0.000000 0.000000 0.041074
#
#
# Mechanical properties :
#
#
# Convention : Reuss Voigt Hill
#
# Bulk Modulus (GPa) = 42.86139 46.21864 44.54002
# Shear Modulus (GPa) = 21.29387 23.86086 22.57736
#
# Velocity S-wave (km/s) = 3.37314 3.57068 3.47332
# Velocity P-wave (km/s) = 6.17035 6.45724 6.31543
#
# Compressibility (1/GPa) = 0.02333102
#
# Stress axis : x y z
#
# Youngs Moduli (GPa) = 86.31813 45.53649 83.34586
#
# Poissons Ratio (x) = 0.18606 0.17613
# Poissons Ratio (y) = 0.35269 0.40898
# Poissons Ratio (z) = 0.18242 0.22345
#
# Static dielectric constant tensor:
#      x y z
#    x 3.836430 0.000000 0.000000 
#    y 0.000000 3.194470 0.000000 
#    z 0.000000 0.000000 3.602810 
# 
# 
# High freq. dielectric constant tensor:
#      x y z
#    x 1.740870 0.000000 0.000000 
#    y 0.000000 1.684810 0.000000 
#    z 0.000000 0.000000 1.731760 
# 
# From -- ./inp_files/17741.got.cif
#   From: 2010.03.12/outbox.cif.g09.slc.cpg/sg46_9_cif.got.tgz:17741.got - 2010.04.14 02:56:35.
