data_PCOD8192185
_publ_section_title
;
Structure prediction by ZEFSAII (Michael W. Deem and Ramdas Pophale) SiO2 
 PCOD8192185
Probable space group: I M A 2
;
_chemical_formula_sum "Si O2"
_cell_formula_units_Z 48
_cell_length_a 28.281279
_cell_length_b 8.489783
_cell_length_c 8.792615
_cell_angle_alpha 90.000000
_cell_angle_beta 90.000000
_cell_angle_gamma 90.000000
_cell_volume 2111.123758
_symmetry_space_group_name_H-M "I M A 2"
_symmetry_group_IT_number 46
_symmetry_cell_setting 'orthorhombic'
loop_
_space_group_symop_operation_xyz
x,y,z
-x,-y,z
1/2-x,y,z
1/2+x,-y,z
1/2+x,1/2+y,1/2+z
1/2-x,1/2-y,1/2+z
-x,1/2+y,1/2+z
x,1/2-y,1/2+z
loop_
_atom_site_type_symbol
_atom_site_label
_atom_site_fract_x
_atom_site_fract_y
_atom_site_fract_z
Si Si1 0.838107 0.470306 0.272150
Si Si2 0.341539 0.658290 0.933941
Si Si3 0.555352 0.187642 0.336361
Si Si4 0.250000 0.165409 0.689393
Si Si5 0.563076 0.563023 0.334897
Si Si6 0.250000 0.465621 0.862435
Si Si7 0.991636 0.756727 0.085833
O O1 0.831654 0.343017 0.407055
O O2 0.794243 0.584497 0.268166
O O3 0.880975 0.586645 0.313777
O O4 0.845585 0.376244 0.113115
O O5 0.391896 0.615415 0.852834
O O6 0.297736 0.568003 0.857145
O O7 0.553249 0.377902 0.333288
O O8 0.529453 0.133582 0.180831
O O9 0.522769 0.140206 0.479044
O O10 0.250000 0.352189 0.716989
O O11 0.250000 0.144388 0.509843
O O12 0.538397 0.647409 0.195141
O O13 0.544684 0.634798 0.492585
#
# Coordination Sequence:
#
# PCOD8192185 Si02
#       7
#     8   8   8   4   8   4   8
#     4  10  22  42  64  92 127 163 207 261 311 369
#     4  10  21  40  67  92 122 165 212 254 305 376
#     4  10  20  38  58  85 119 159 206 256 299 361
#     4  10  23  42  64  94 134 160 197 264 318 372
#     4  10  22  38  56  85 122 158 206 256 305 365
#     4  10  23  42  64  96 126 162 207 254 316 376
#     4  10  19  36  58  81 118 160 198 250 309 355
#
# _framework density 22.736706000000002
#
# number of rings (size 3 to 8) (size 9 to 14) (size 15 to 20)
#    0.000    2.000    0.000    4.500    0.000    4.000 
#    0.000   31.667    0.000    0.000    0.000    0.000 
#    0.000    0.000    0.000    0.000    0.000    0.000 
#
# Total GULP energy -297493.301039 kJ/mol
# GULP energy per Si atom -12395.554210 kJ/mol
# Density = 2.268496 g / cm^3
# Si number density = 22.736706 Si / 1000 Ang^3
#
#
#
# Elastic Constant Matrix: (Units=GPa)
#
#
# Indices 1 2 3 4 5 6 
#
# 1 194.5561 66.5906 67.2696 0.0000 0.0000 0.0000
# 2 66.5906 64.1211 30.3733 0.0000 0.0000 0.0000
# 3 67.2696 30.3733 106.0379 0.0000 0.0000 0.0000
# 4 0.0000 0.0000 0.0000 34.3629 0.0000 0.0000
# 5 0.0000 0.0000 0.0000 0.0000 35.8024 0.0000
# 6 0.0000 0.0000 0.0000 0.0000 0.0000 35.2201
#
#
#
# Elastic Compliance Matrix: (Units=1/GPa)
#
#
# Indices 1 2 3 4 5 6 
#
# 1 0.008971 -0.007660 -0.003497 0.000000 0.000000 0.000000
# 2 -0.007660 0.024584 -0.002183 0.000000 0.000000 0.000000
# 3 -0.003497 -0.002183 0.012274 0.000000 0.000000 0.000000
# 4 0.000000 0.000000 0.000000 0.029101 0.000000 0.000000
# 5 0.000000 0.000000 0.000000 0.000000 0.027931 0.000000
# 6 0.000000 0.000000 0.000000 0.000000 0.000000 0.028393
#
#
# Mechanical properties :
#
#
# Convention : Reuss Voigt Hill
#
# Bulk Modulus (GPa) = 52.21777 77.02025 64.61901
# Shear Modulus (GPa) = 30.42918 34.44251 32.43585
#
# Velocity S-wave (km/s) = 3.66229 3.89632 3.78111
# Velocity P-wave (km/s) = 6.39525 7.36139 6.89527
#
# Compressibility (1/GPa) = 0.01915057
#
# Stress axis : x y z
#
# Youngs Moduli (GPa) = 111.47412 40.67672 81.47197
#
# Poissons Ratio (x) = 0.31157 0.28490
# Poissons Ratio (y) = 0.85386 0.17782
# Poissons Ratio (z) = 0.38981 0.08878
#
# Static dielectric constant tensor:
#      x y z
#    x 4.742770 0.000000 0.000000 
#    y 0.000000 3.797450 0.000000 
#    z 0.000000 0.000000 4.379300 
# 
# 
# High freq. dielectric constant tensor:
#      x y z
#    x 1.917300 0.000000 0.000000 
#    y 0.000000 1.877160 0.000000 
#    z 0.000000 0.000000 1.904550 
# 
# From -- ./inp_files/8428.got.cif
#   From: 2010.03.12/outbox.cif.g09.slc.cpg/sg46_5_cif.got.tgz:8428.got - 2010.04.14 02:56:35.
