data_PCOD8192836
_publ_section_title
;
Structure prediction by ZEFSAII (Michael W. Deem and Ramdas Pophale) SiO2 
 PCOD8192836
Probable space group: I M A 2
;
_chemical_formula_sum "Si O2"
_cell_formula_units_Z 64
_cell_length_a 8.943771
_cell_length_b 20.690446
_cell_length_c 19.381110
_cell_angle_alpha 90.000000
_cell_angle_beta 90.000000
_cell_angle_gamma 90.000000
_cell_volume 3586.486246
_symmetry_space_group_name_H-M "I M A 2"
_symmetry_group_IT_number 46
_symmetry_cell_setting 'orthorhombic'
loop_
_space_group_symop_operation_xyz
x,y,z
-x,-y,z
1/2-x,y,z
1/2+x,-y,z
1/2+x,1/2+y,1/2+z
1/2-x,1/2-y,1/2+z
-x,1/2+y,1/2+z
x,1/2-y,1/2+z
loop_
_atom_site_type_symbol
_atom_site_label
_atom_site_fract_x
_atom_site_fract_y
_atom_site_fract_z
Si Si1 0.077469 0.113748 0.987690
Si Si2 0.579636 0.733932 0.991651
Si Si3 0.574055 0.186279 0.622060
Si Si4 0.924611 0.732450 0.835787
Si Si5 0.573439 0.187658 0.205569
Si Si6 0.927212 0.566465 0.194473
Si Si7 0.073505 0.565140 0.619462
Si Si8 0.573361 0.876366 0.836719
O O1 0.250000 0.094578 0.999991
O O2 0.021650 0.094483 0.910379
O O3 0.053570 0.189825 0.997272
O O4 0.974875 0.074678 0.040293
O O5 0.750000 0.716983 0.011763
O O6 0.466647 0.697334 0.042216
O O7 0.544836 0.709604 0.914066
O O8 0.750000 0.174928 0.629476
O O9 0.518454 0.248027 0.665961
O O10 0.486759 0.123565 0.647079
O O11 0.750000 0.730628 0.818715
O O12 0.992310 0.804490 0.825070
O O13 0.007790 0.685122 0.782683
O O14 0.750000 0.186082 0.209592
O O15 0.513667 0.125085 0.164728
O O16 0.750000 0.562435 0.187302
O O17 0.977350 0.578114 0.273957
O O18 0.000000 0.500000 0.168918
O O19 0.250000 0.558732 0.623141
O O20 0.000000 0.500000 0.649321
O O21 0.750000 0.867573 0.840619
#
# Coordination Sequence:
#
# PCOD8192836 Si02
#       8
#     8   8   8   8   8   8   8   8
#     4   9  17  32  53  77 107 143 180 216 260 315
#     4   9  18  32  54  83 111 139 175 220 268 320
#     4  11  21  35  55  81 110 142 181 225 272 319
#     4   9  17  32  55  82 108 137 177 219 265 319
#     4  10  21  35  53  79 110 138 175 225 272 317
#     4  11  22  37  55  77 109 146 184 225 272 321
#     4  11  23  38  52  75 108 144 183 223 267 317
#     4   8  16  31  51  76 107 141 178 217 257 312
#
# _framework density 17.844764000000001
#
# number of rings (size 3 to 8) (size 9 to 14) (size 15 to 20)
#    0.000    2.250    2.500    2.625    0.000    2.500 
#    0.000    4.375    0.000    0.750    0.000    1.750 
#    0.000    0.000    0.000    0.000    0.000    0.000 
#
# Total GULP energy -396801.647160 kJ/mol
# GULP energy per Si atom -12400.051474 kJ/mol
# Density = 1.780415 g / cm^3
# Si number density = 17.844764 Si / 1000 Ang^3
#
#
#
# Elastic Constant Matrix: (Units=GPa)
#
#
# Indices 1 2 3 4 5 6 
#
# 1 49.8488 35.5365 31.5501 0.0000 0.0000 0.0000
# 2 35.5365 100.9945 48.4383 0.0000 0.0000 0.0000
# 3 31.5501 48.4383 95.1730 0.0000 0.0000 0.0000
# 4 0.0000 0.0000 0.0000 22.3291 0.0000 0.0000
# 5 0.0000 0.0000 0.0000 0.0000 30.1613 0.0000
# 6 0.0000 0.0000 0.0000 0.0000 0.0000 25.0877
#
#
#
# Elastic Compliance Matrix: (Units=1/GPa)
#
#
# Indices 1 2 3 4 5 6 
#
# 1 0.029053 -0.007413 -0.005858 0.000000 0.000000 0.000000
# 2 -0.007413 0.014990 -0.005172 0.000000 0.000000 0.000000
# 3 -0.005858 -0.005172 0.015081 0.000000 0.000000 0.000000
# 4 0.000000 0.000000 0.000000 0.044785 0.000000 0.000000
# 5 0.000000 0.000000 0.000000 0.000000 0.033155 0.000000
# 6 0.000000 0.000000 0.000000 0.000000 0.000000 0.039860
#
#
# Mechanical properties :
#
#
# Convention : Reuss Voigt Hill
#
# Bulk Modulus (GPa) = 44.96717 53.00736 48.98726
# Shear Modulus (GPa) = 22.60148 24.21505 23.40826
#
# Velocity S-wave (km/s) = 3.56274 3.68772 3.62577
# Velocity P-wave (km/s) = 6.49445 6.92110 6.71117
#
# Compressibility (1/GPa) = 0.02223844
#
# Stress axis : x y z
#
# Youngs Moduli (GPa) = 34.41965 66.70904 66.30648
#
# Poissons Ratio (x) = 0.49452 0.38844
# Poissons Ratio (y) = 0.25516 0.34293
# Poissons Ratio (z) = 0.20164 0.34502
#
# Static dielectric constant tensor:
#      x y z
#    x 3.092760 0.000000 0.000000 
#    y 0.000000 3.172440 0.000000 
#    z 0.000000 0.000000 3.418400 
# 
# 
# High freq. dielectric constant tensor:
#      x y z
#    x 1.679830 0.000000 0.000000 
#    y 0.000000 1.669430 0.000000 
#    z 0.000000 0.000000 1.692440 
# 
# From -- ./inp_files/18525.got.cif
#   From: 2010.03.12/outbox.cif.g09.slc.cpg/sg46_10_cif.got.tgz:18525.got - 2010.04.14 02:56:35.
