data_PCOD8192225
_publ_section_title
;
Structure prediction by ZEFSAII (Michael W. Deem and Ramdas Pophale) SiO2 
 PCOD8192225
Probable space group: I M A 2
;
_chemical_formula_sum "Si O2"
_cell_formula_units_Z 56
_cell_length_a 14.419175
_cell_length_b 20.990877
_cell_length_c 9.457260
_cell_angle_alpha 90.000000
_cell_angle_beta 90.000000
_cell_angle_gamma 90.000000
_cell_volume 2862.439560
_symmetry_space_group_name_H-M "I M A 2"
_symmetry_group_IT_number 46
_symmetry_cell_setting 'orthorhombic'
loop_
_space_group_symop_operation_xyz
x,y,z
-x,-y,z
1/2-x,y,z
1/2+x,-y,z
1/2+x,1/2+y,1/2+z
1/2-x,1/2-y,1/2+z
-x,1/2+y,1/2+z
x,1/2-y,1/2+z
loop_
_atom_site_type_symbol
_atom_site_label
_atom_site_fract_x
_atom_site_fract_y
_atom_site_fract_z
Si Si1 0.144116 0.874150 0.001760
Si Si2 0.540784 0.255737 0.593940
Si Si3 0.541813 0.371035 0.218216
Si Si4 0.648683 0.471846 0.043615
Si Si5 0.537700 0.821633 0.343190
Si Si6 0.427443 0.555202 0.757473
Si Si7 0.354011 0.119862 0.579419
O O1 0.250000 0.876035 0.946751
O O2 0.123079 0.806252 0.072828
O O3 0.128975 0.929898 0.115231
O O4 0.070330 0.887745 0.877067
O O5 0.589178 0.195764 0.673092
O O6 0.504040 0.233758 0.442357
O O7 0.456426 0.288109 0.688234
O O8 0.570998 0.429099 0.117627
O O9 0.431418 0.356826 0.192880
O O10 0.750000 0.448064 0.093223
O O11 0.634009 0.544602 0.082800
O O12 0.643906 0.469445 0.874334
O O13 0.472173 0.882317 0.326254
O O14 0.629526 0.848474 0.422803
O O15 0.500000 0.500000 0.720258
O O16 0.250000 0.139404 0.627311
#
# Coordination Sequence:
#
# PCOD8192225 Si02
#       7
#     8   8   8   8   8   8   8
#     4  11  25  39  57  92 130 164 199 245 309 382
#     4  10  20  37  59  84 118 164 199 243 298 371
#     4  11  21  40  60  86 126 165 199 250 315 361
#     4  11  20  34  61  93 119 156 208 251 302 369
#     4  10  19  37  60  85 121 156 202 245 309 349
#     4  11  20  38  60  88 121 168 199 250 302 354
#     4  10  21  37  64  92 116 154 214 262 300 358
#
# _framework density 19.563732000000002
#
# number of rings (size 3 to 8) (size 9 to 14) (size 15 to 20)
#    0.000    1.429    5.714    1.286    0.000    2.286 
#    0.000    2.857    0.000    4.286    0.000    0.000 
#    0.000    0.000    0.000    0.000    0.000    0.000 
#
# Total GULP energy -346912.472746 kJ/mol
# GULP energy per Si atom -12389.731169 kJ/mol
# Density = 1.951920 g / cm^3
# Si number density = 19.563732 Si / 1000 Ang^3
#
#
#
# Elastic Constant Matrix: (Units=GPa)
#
#
# Indices 1 2 3 4 5 6 
#
# 1 109.1572 29.1879 40.0422 0.0000 0.0000 0.0000
# 2 29.1879 70.7138 18.1458 0.0000 0.0000 0.0000
# 3 40.0422 18.1458 102.0474 0.0000 0.0000 0.0000
# 4 0.0000 0.0000 0.0000 0.5304 0.0000 0.0000
# 5 0.0000 0.0000 0.0000 0.0000 24.6260 0.0000
# 6 0.0000 0.0000 0.0000 0.0000 0.0000 17.6253
#
#
#
# Elastic Compliance Matrix: (Units=1/GPa)
#
#
# Indices 1 2 3 4 5 6 
#
# 1 0.011597 -0.003792 -0.003876 0.000000 0.000000 0.000000
# 2 -0.003792 0.016058 -0.001367 0.000000 0.000000 0.000000
# 3 -0.003876 -0.001367 0.011563 0.000000 0.000000 0.000000
# 4 0.000000 0.000000 0.000000 1.885507 0.000001 0.000000
# 5 0.000000 0.000000 0.000000 0.000001 0.040607 0.000000
# 6 0.000000 0.000000 0.000000 0.000000 0.000000 0.056737
#
#
# Mechanical properties :
#
#
# Convention : Reuss Voigt Hill
#
# Bulk Modulus (GPa) = 47.28860 50.74114 49.01487
# Shear Modulus (GPa) = 2.44237 21.52583 11.98410
#
# Velocity S-wave (km/s) = 1.11854 3.32066 2.47769
# Velocity P-wave (km/s) = 5.08844 6.37927 5.77006
#
# Compressibility (1/GPa) = 0.02114675
#
# Stress axis : x y z
#
# Youngs Moduli (GPa) = 86.22920 62.27572 86.47905
#
# Poissons Ratio (x) = 0.23616 0.33521
# Poissons Ratio (y) = 0.32699 0.11825
# Poissons Ratio (z) = 0.33424 0.08515
#
# Static dielectric constant tensor:
#      x y z
#    x 3.404570 0.000000 0.000000 
#    y 0.000000 3.842850 0.000000 
#    z 0.000000 0.000000 3.613140 
# 
# 
# High freq. dielectric constant tensor:
#      x y z
#    x 1.731250 0.000000 0.000000 
#    y 0.000000 1.778860 0.000000 
#    z 0.000000 0.000000 1.758780 
# 
# From -- ./inp_files/5919.got.cif
#   From: 2010.03.12/outbox.cif.g09.slc.cpg/sg46_3_cif.got.tgz:5919.got - 2010.04.14 02:56:35.
