data_PCOD8192281
_publ_section_title
;
Structure prediction by ZEFSAII (Michael W. Deem and Ramdas Pophale) SiO2 
 PCOD8192281
Probable space group: I M A 2
;
_chemical_formula_sum "Si O2"
_cell_formula_units_Z 64
_cell_length_a 9.143134
_cell_length_b 14.536853
_cell_length_c 27.558058
_cell_angle_alpha 90.000000
_cell_angle_beta 90.000000
_cell_angle_gamma 90.000000
_cell_volume 3662.807488
_symmetry_space_group_name_H-M "I M A 2"
_symmetry_group_IT_number 46
_symmetry_cell_setting 'orthorhombic'
loop_
_space_group_symop_operation_xyz
x,y,z
-x,-y,z
1/2-x,y,z
1/2+x,-y,z
1/2+x,1/2+y,1/2+z
1/2-x,1/2-y,1/2+z
-x,1/2+y,1/2+z
x,1/2-y,1/2+z
loop_
_atom_site_type_symbol
_atom_site_label
_atom_site_fract_x
_atom_site_fract_y
_atom_site_fract_z
Si Si1 0.920484 0.907382 0.682240
Si Si2 0.421587 0.711040 0.370608
Si Si3 0.423615 0.283857 0.095960
Si Si4 0.088536 0.357446 0.997199
Si Si5 0.922233 0.910734 0.062392
Si Si6 0.089733 0.347204 0.459472
Si Si7 0.420877 0.912522 0.407132
Si Si8 0.922381 0.595065 0.293305
O O1 0.750000 0.924986 0.674850
O O2 0.976139 0.825048 0.647385
O O3 0.956947 0.880794 0.737458
O O4 0.000000 0.000000 0.666376
O O5 0.250000 0.696252 0.363003
O O6 0.472437 0.648048 0.416006
O O7 0.460811 0.818303 0.379188
O O8 0.509552 0.679100 0.323347
O O9 0.250000 0.277579 0.092184
O O10 0.485358 0.180193 0.089561
O O11 0.475122 0.351813 0.052192
O O12 0.250000 0.404711 0.995237
O O13 0.106020 0.254798 0.978739
O O14 0.975370 0.410670 0.962932
O O15 0.750000 0.919580 0.070290
O O16 0.962186 0.908155 0.005024
O O17 0.000000 0.000000 0.085300
O O18 0.250000 0.379908 0.440380
O O19 0.250000 0.930240 0.406670
O O20 0.500000 0.000000 0.381357
O O21 0.750000 0.586168 0.303204
O O22 0.000000 0.500000 0.308510
#
# Coordination Sequence:
#
# PCOD8192281 Si02
#       8
#     8   8   8   8   8   8   8   8
#     4   9  18  33  52  73  95 120 152 191 236 285
#     4  10  20  33  50  72  97 125 159 200 241 282
#     4   8  15  30  50  70  95 127 159 190 231 282
#     4   8  14  27  46  65  89 123 159 193 228 269
#     4   9  17  29  46  68  96 130 163 194 227 268
#     4   8  15  28  44  63  90 125 160 191 228 273
#     4  10  20  32  47  69  98 131 164 198 234 275
#     4  10  20  34  53  74  95 121 153 193 242 292
#
# _framework density 17.472936000000001
#
# number of rings (size 3 to 8) (size 9 to 14) (size 15 to 20)
#    0.000    3.000    0.000    2.625    0.000    3.500 
#    0.000    5.625    0.000    0.750    0.000    3.500 
#    0.000    0.000    0.000    0.000    0.000    0.000 
#
# Total GULP energy -396603.333925 kJ/mol
# GULP energy per Si atom -12393.854185 kJ/mol
# Density = 1.743317 g / cm^3
# Si number density = 17.472936 Si / 1000 Ang^3
#
#
#
# Elastic Constant Matrix: (Units=GPa)
#
#
# Indices 1 2 3 4 5 6 
#
# 1 72.4805 49.7024 42.1248 0.0000 0.0000 0.0000
# 2 49.7024 107.3952 57.9107 0.0000 0.0000 0.0000
# 3 42.1248 57.9107 94.3133 0.0000 0.0000 0.0000
# 4 0.0000 0.0000 0.0000 24.0680 0.0000 0.0000
# 5 0.0000 0.0000 0.0000 0.0000 16.9180 0.0000
# 6 0.0000 0.0000 0.0000 0.0000 0.0000 28.0920
#
#
#
# Elastic Compliance Matrix: (Units=1/GPa)
#
#
# Indices 1 2 3 4 5 6 
#
# 1 0.021855 -0.007252 -0.005309 0.000000 0.000000 0.000000
# 2 -0.007252 0.016327 -0.006786 0.000000 0.000000 0.000000
# 3 -0.005309 -0.006786 0.017141 0.000000 0.000000 0.000000
# 4 0.000000 0.000000 0.000000 0.041549 0.000000 0.000000
# 5 0.000000 0.000000 0.000000 0.000000 0.059109 0.000000
# 6 0.000000 0.000000 0.000000 0.000000 0.000000 0.035597
#
#
# Mechanical properties :
#
#
# Convention : Reuss Voigt Hill
#
# Bulk Modulus (GPa) = 60.13402 63.74054 61.93728
# Shear Modulus (GPa) = 21.20315 22.11233 21.65774
#
# Velocity S-wave (km/s) = 3.48729 3.56127 3.52448
# Velocity P-wave (km/s) = 7.12076 7.31225 7.21714
#
# Compressibility (1/GPa) = 0.01662952
#
# Stress axis : x y z
#
# Youngs Moduli (GPa) = 45.75611 61.24905 58.34029
#
# Poissons Ratio (x) = 0.44417 0.30971
# Poissons Ratio (y) = 0.33182 0.39590
# Poissons Ratio (z) = 0.24290 0.41564
#
# Static dielectric constant tensor:
#      x y z
#    x 3.184010 0.000000 0.000000 
#    y 0.000000 3.296900 0.000000 
#    z 0.000000 0.000000 3.299540 
# 
# 
# High freq. dielectric constant tensor:
#      x y z
#    x 1.666500 0.000000 0.000000 
#    y 0.000000 1.669540 0.000000 
#    z 0.000000 0.000000 1.653310 
# 
# From -- ./inp_files/25298.got.cif
#   From: 2010.03.12/outbox.cif.g09.slc.cpg/sg46_13_cif.got.tgz:25298.got - 2010.04.14 02:56:35.
