data_PCOD8192122
_publ_section_title
;
Structure prediction by ZEFSAII (Michael W. Deem and Ramdas Pophale) SiO2 
 PCOD8192122
Probable space group: I M A 2
;
_chemical_formula_sum "Si O2"
_cell_formula_units_Z 56
_cell_length_a 17.168058
_cell_length_b 19.351379
_cell_length_c 9.041852
_cell_angle_alpha 90.000000
_cell_angle_beta 90.000000
_cell_angle_gamma 90.000000
_cell_volume 3003.934679
_symmetry_space_group_name_H-M "I M A 2"
_symmetry_group_IT_number 46
_symmetry_cell_setting 'orthorhombic'
loop_
_space_group_symop_operation_xyz
x,y,z
-x,-y,z
1/2-x,y,z
1/2+x,-y,z
1/2+x,1/2+y,1/2+z
1/2-x,1/2-y,1/2+z
-x,1/2+y,1/2+z
x,1/2-y,1/2+z
loop_
_atom_site_type_symbol
_atom_site_label
_atom_site_fract_x
_atom_site_fract_y
_atom_site_fract_z
Si Si1 0.561986 0.747343 0.669430
Si Si2 0.405705 0.152970 0.421365
Si Si3 0.340264 0.437840 0.365027
Si Si4 0.016652 0.342013 0.412636
Si Si5 0.051630 0.932423 0.360682
Si Si6 0.339269 0.482252 0.038563
Si Si7 0.575980 0.045925 0.040510
O O1 0.611466 0.800241 0.566773
O O2 0.616057 0.698476 0.775434
O O3 0.509599 0.699884 0.565197
O O4 0.504475 0.792031 0.773478
O O5 0.497865 0.132469 0.408875
O O6 0.354188 0.083758 0.430620
O O7 0.250000 0.414244 0.369332
O O8 0.396045 0.374389 0.407439
O O9 0.366746 0.463290 0.203214
O O10 0.351886 0.500958 0.480689
O O11 0.946303 0.396643 0.417176
O O12 0.093882 0.920551 0.201351
O O13 0.116198 0.948757 0.485249
O O14 0.000000 0.000000 0.349517
O O15 0.250000 0.502126 0.035055
O O16 0.500000 0.000000 0.059426
#
# Coordination Sequence:
#
# PCOD8192122 Si02
#       7
#     8   8   8   8   8   8   8
#     4  10  20  32  53  76 103 136 176 206 250 296
#     4  10  19  35  52  77 104 134 171 216 247 304
#     4  10  21  35  51  75 106 138 171 211 258 304
#     4  10  19  35  52  77 104 134 171 216 247 304
#     4   9  18  32  53  76  99 127 168 219 264 298
#     4  10  21  35  51  75 106 138 171 211 258 304
#     4   9  18  32  53  76  99 127 168 219 264 298
#
# _framework density 18.642216999999999
#
# number of rings (size 3 to 8) (size 9 to 14) (size 15 to 20)
#    0.000    2.286    2.857    0.000    4.000    2.286 
#    0.000    4.286    0.000    0.000    0.000    6.000 
#    0.000    0.000    0.000    0.000    0.000    0.000 
#
# Total GULP energy -346980.100748 kJ/mol
# GULP energy per Si atom -12392.146455 kJ/mol
# Density = 1.859979 g / cm^3
# Si number density = 18.642217 Si / 1000 Ang^3
#
#
#
# Elastic Constant Matrix: (Units=GPa)
#
#
# Indices 1 2 3 4 5 6 
#
# 1 47.1033 29.5679 22.1390 0.0000 0.0000 0.0000
# 2 29.5679 62.0005 31.1219 0.0000 0.0000 0.0000
# 3 22.1390 31.1219 110.0108 0.0000 0.0000 0.0000
# 4 0.0000 0.0000 0.0000 31.1968 0.0000 0.0000
# 5 0.0000 0.0000 0.0000 0.0000 17.8196 0.0000
# 6 0.0000 0.0000 0.0000 0.0000 0.0000 15.9418
#
#
#
# Elastic Compliance Matrix: (Units=1/GPa)
#
#
# Indices 1 2 3 4 5 6 
#
# 1 0.030828 -0.013505 -0.002383 0.000000 0.000000 0.000000
# 2 -0.013505 0.024715 -0.004274 0.000000 0.000000 0.000000
# 3 -0.002383 -0.004274 0.010779 0.000000 0.000000 0.000000
# 4 0.000000 0.000000 0.000000 0.032055 0.000000 0.000000
# 5 0.000000 0.000000 0.000000 0.000000 0.056118 0.000000
# 6 0.000000 0.000000 0.000000 0.000000 0.000000 0.062728
#
#
# Mechanical properties :
#
#
# Convention : Reuss Voigt Hill
#
# Bulk Modulus (GPa) = 38.46704 42.75245 40.60975
# Shear Modulus (GPa) = 18.78198 22.07737 20.42968
#
# Velocity S-wave (km/s) = 3.17755 3.44505 3.31400
# Velocity P-wave (km/s) = 5.84308 6.22956 6.03941
#
# Compressibility (1/GPa) = 0.02599628
#
# Stress axis : x y z
#
# Youngs Moduli (GPa) = 32.43833 40.46141 92.77539
#
# Poissons Ratio (x) = 0.54645 0.22111
# Poissons Ratio (y) = 0.43809 0.39652
# Poissons Ratio (z) = 0.07731 0.17293
#
# Static dielectric constant tensor:
#      x y z
#    x 2.967050 0.000000 0.000000 
#    y 0.000000 3.582720 0.000000 
#    z 0.000000 0.000000 3.815390 
# 
# 
# High freq. dielectric constant tensor:
#      x y z
#    x 1.659700 0.000000 0.000000 
#    y 0.000000 1.719800 0.000000 
#    z 0.000000 0.000000 1.745130 
# 
# From -- ./inp_files/6860.got.cif
#   From: 2010.03.12/outbox.cif.g09.slc.cpg/sg46_4_cif.got.tgz:6860.got - 2010.04.14 02:56:35.
