data_PCOD8192201
_publ_section_title
;
Structure prediction by ZEFSAII (Michael W. Deem and Ramdas Pophale) SiO2 
 PCOD8192201
Probable space group: I M A 2
;
_chemical_formula_sum "Si O2"
_cell_formula_units_Z 64
_cell_length_a 8.638036
_cell_length_b 24.910620
_cell_length_c 15.099667
_cell_angle_alpha 90.000000
_cell_angle_beta 90.000000
_cell_angle_gamma 90.000000
_cell_volume 3249.128714
_symmetry_space_group_name_H-M "I M A 2"
_symmetry_group_IT_number 46
_symmetry_cell_setting 'orthorhombic'
loop_
_space_group_symop_operation_xyz
x,y,z
-x,-y,z
1/2-x,y,z
1/2+x,-y,z
1/2+x,1/2+y,1/2+z
1/2-x,1/2-y,1/2+z
-x,1/2+y,1/2+z
x,1/2-y,1/2+z
loop_
_atom_site_type_symbol
_atom_site_label
_atom_site_fract_x
_atom_site_fract_y
_atom_site_fract_z
Si Si1 0.067052 0.442310 0.953270
Si Si2 0.572355 0.760965 0.404488
Si Si3 0.932198 0.350325 0.449138
Si Si4 0.568608 0.055707 0.815456
Si Si5 0.565416 0.602942 0.140058
Si Si6 0.065084 0.164157 0.135749
Si Si7 0.573739 0.781563 0.606622
Si Si8 0.431707 0.859447 0.315030
O O1 0.250000 0.445375 0.953353
O O2 0.000000 0.500000 0.928691
O O3 0.016435 0.400708 0.878684
O O4 0.004274 0.423678 0.049194
O O5 0.750000 0.757392 0.372769
O O6 0.499176 0.702138 0.401355
O O7 0.560446 0.786781 0.501132
O O8 0.477857 0.798515 0.338065
O O9 0.750000 0.343727 0.463123
O O10 0.976208 0.399789 0.386885
O O11 0.013311 0.361594 0.542992
O O12 0.750000 0.050643 0.802432
O O13 0.495363 0.068355 0.720690
O O14 0.500000 0.000000 0.850881
O O15 0.750000 0.604315 0.139877
O O16 0.498171 0.664248 0.147064
O O17 0.250000 0.162590 0.141345
O O18 0.998276 0.225712 0.139422
O O19 0.988873 0.130100 0.214635
O O20 0.750000 0.779386 0.636973
O O21 0.250000 0.868122 0.322404
#
# Coordination Sequence:
#
# PCOD8192201 Si02
#       8
#     8   8   8   8   8   8   8   8
#     4  11  23  41  63  88 122 162 206 254 305 365
#     4  10  19  36  60  87 120 160 203 243 296 365
#     4  10  22  41  61  89 123 155 199 257 313 364
#     4  11  25  42  61  87 120 157 204 253 302 360
#     4  10  20  37  61  89 122 159 200 246 297 357
#     4  10  21  38  62  90 122 162 205 248 304 368
#     4   8  16  33  56  86 118 154 196 238 287 352
#     4  12  24  38  59  90 126 163 205 255 308 358
#
# _framework density 19.697588
#
# number of rings (size 3 to 8) (size 9 to 14) (size 15 to 20)
#    0.000    1.750    1.250    4.125    1.750    4.000 
#    0.000    1.250    0.000    1.500    0.000    0.000 
#    0.000    0.000    0.000    0.000    0.000    0.000 
#
# Total GULP energy -396840.169472 kJ/mol
# GULP energy per Si atom -12401.255296 kJ/mol
# Density = 1.965276 g / cm^3
# Si number density = 19.697588 Si / 1000 Ang^3
#
#
#
# Elastic Constant Matrix: (Units=GPa)
#
#
# Indices 1 2 3 4 5 6 
#
# 1 57.5938 28.5724 23.1339 -0.0001 0.0000 0.0000
# 2 28.5724 116.9472 54.5136 0.0000 0.0000 0.0000
# 3 23.1339 54.5136 108.6750 -0.0004 0.0000 0.0000
# 4 -0.0001 0.0000 -0.0004 33.3150 0.0000 0.0000
# 5 0.0000 0.0000 0.0000 0.0000 31.5411 0.0000
# 6 0.0000 0.0000 0.0000 0.0000 0.0000 30.4441
#
#
#
# Elastic Compliance Matrix: (Units=1/GPa)
#
#
# Indices 1 2 3 4 5 6 
#
# 1 0.020220 -0.003829 -0.002384 0.000000 0.000000 0.000000
# 2 -0.003829 0.011886 -0.005147 0.000000 0.000000 0.000000
# 3 -0.002384 -0.005147 0.012291 0.000000 0.000000 0.000000
# 4 0.000000 0.000000 0.000000 0.030017 0.000000 0.000000
# 5 0.000000 0.000000 0.000000 0.000000 0.031705 0.000000
# 6 0.000000 0.000000 0.000000 0.000000 0.000000 0.032847
#
#
# Mechanical properties :
#
#
# Convention : Reuss Voigt Hill
#
# Bulk Modulus (GPa) = 46.13094 55.07285 50.60189
# Shear Modulus (GPa) = 29.60162 30.85978 30.23070
#
# Velocity S-wave (km/s) = 3.88081 3.96242 3.92183
# Velocity P-wave (km/s) = 6.59934 6.99673 6.80094
#
# Compressibility (1/GPa) = 0.02167743
#
# Stress axis : x y z
#
# Youngs Moduli (GPa) = 49.45598 84.13564 81.36067
#
# Poissons Ratio (x) = 0.32216 0.19393
# Poissons Ratio (y) = 0.18937 0.41876
# Poissons Ratio (z) = 0.11788 0.43304
#
# Static dielectric constant tensor:
#      x y z
#    x 3.488130 0.000000 0.000000 
#    y 0.000000 3.653380 0.000000 
#    z 0.000000 0.000000 3.611670 
# 
# 
# High freq. dielectric constant tensor:
#      x y z
#    x 1.761230 0.000000 0.000000 
#    y 0.000000 1.766650 0.000000 
#    z 0.000000 0.000000 1.770550 
# 
# From -- ./inp_files/14529.got.cif
#   From: 2010.03.12/outbox.cif.g09.slc.cpg/sg46_8_cif.got.tgz:14529.got - 2010.04.14 02:56:35.
