data_PCOD8192945
_publ_section_title
;
Structure prediction by ZEFSAII (Michael W. Deem and Ramdas Pophale) SiO2 
 PCOD8192945
Probable space group: I M A 2
;
_chemical_formula_sum "Si O2"
_cell_formula_units_Z 48
_cell_length_a 8.685032
_cell_length_b 18.558483
_cell_length_c 14.992226
_cell_angle_alpha 90.000000
_cell_angle_beta 90.000000
_cell_angle_gamma 90.000000
_cell_volume 2416.462260
_symmetry_space_group_name_H-M "I M A 2"
_symmetry_group_IT_number 46
_symmetry_cell_setting 'orthorhombic'
loop_
_space_group_symop_operation_xyz
x,y,z
-x,-y,z
1/2-x,y,z
1/2+x,-y,z
1/2+x,1/2+y,1/2+z
1/2-x,1/2-y,1/2+z
-x,1/2+y,1/2+z
x,1/2-y,1/2+z
loop_
_atom_site_type_symbol
_atom_site_label
_atom_site_fract_x
_atom_site_fract_y
_atom_site_fract_z
Si Si1 0.570231 0.681986 0.786510
Si Si2 0.573787 0.848207 0.783695
Si Si3 0.570612 0.076180 0.623396
Si Si4 0.068065 0.688930 0.976084
Si Si5 0.569667 0.841542 0.986816
Si Si6 0.931614 0.424001 0.645519
O O1 0.750000 0.663961 0.775068
O O2 0.534816 0.764999 0.764418
O O3 0.520287 0.665000 0.887106
O O4 0.469843 0.634827 0.719896
O O5 0.750000 0.864654 0.760778
O O6 0.470757 0.899494 0.723175
O O7 0.536917 0.867135 0.886179
O O8 0.750000 0.067290 0.616695
O O9 0.511384 0.134944 0.552829
O O10 0.500000 0.000000 0.598193
O O11 0.250000 0.685835 0.959388
O O12 0.021042 0.768344 0.008077
O O13 0.750000 0.826814 0.001833
O O14 0.509378 0.903543 0.051708
O O15 0.750000 0.429785 0.633060
O O16 0.000000 0.500000 0.677298
#
# Coordination Sequence:
#
# PCOD8192945 Si02
#       6
#     8   8   8   8   8   8
#     4  10  21  39  63  89 116 151 191 237 290 345
#     4   9  20  38  61  86 114 148 188 233 283 338
#     4  11  24  38  56  82 115 153 191 233 284 337
#     4  10  21  38  60  88 117 151 195 241 287 339
#     4  10  21  39  62  88 116 151 193 239 290 344
#     4  12  25  40  59  85 118 156 194 239 292 351
#
# _framework density 19.863748999999999
#
# number of rings (size 3 to 8) (size 9 to 14) (size 15 to 20)
#    0.000    1.667    0.000    5.500    0.000   10.667 
#    0.000    1.667    0.000    0.000    0.000    0.000 
#    0.000    0.000    0.000    0.000    0.000    0.000 
#
# Total GULP energy -297740.582051 kJ/mol
# GULP energy per Si atom -12405.857585 kJ/mol
# Density = 1.981854 g / cm^3
# Si number density = 19.863749 Si / 1000 Ang^3
#
#
#
# Elastic Constant Matrix: (Units=GPa)
#
#
# Indices 1 2 3 4 5 6 
#
# 1 60.1258 20.0698 22.0729 0.0000 0.0000 0.0000
# 2 20.0698 52.6141 23.1714 0.0000 0.0000 0.0000
# 3 22.0729 23.1714 75.7503 0.0000 0.0000 0.0000
# 4 0.0000 0.0000 0.0000 7.5416 0.0000 0.0000
# 5 0.0000 0.0000 0.0000 0.0000 36.4904 0.0000
# 6 0.0000 0.0000 0.0000 0.0000 0.0000 36.6925
#
#
#
# Elastic Compliance Matrix: (Units=1/GPa)
#
#
# Indices 1 2 3 4 5 6 
#
# 1 0.020081 -0.005874 -0.004055 0.000000 0.000000 0.000000
# 2 -0.005874 0.023684 -0.005533 0.000000 0.000000 0.000000
# 3 -0.004055 -0.005533 0.016075 0.000000 0.000000 0.000000
# 4 0.000000 0.000000 0.000000 0.132597 0.000000 0.000000
# 5 0.000000 0.000000 0.000000 0.000000 0.027404 0.000000
# 6 0.000000 0.000000 0.000000 0.000000 0.000000 0.027254
#
#
# Mechanical properties :
#
#
# Convention : Reuss Voigt Hill
#
# Bulk Modulus (GPa) = 34.58236 35.45758 35.01997
# Shear Modulus (GPa) = 17.38174 24.35664 20.86919
#
# Velocity S-wave (km/s) = 2.96133 3.50549 3.24484
# Velocity P-wave (km/s) = 5.39817 5.85438 5.63090
#
# Compressibility (1/GPa) = 0.02891647
#
# Stress axis : x y z
#
# Youngs Moduli (GPa) = 49.79805 42.22285 62.20763
#
# Poissons Ratio (x) = 0.24803 0.25222
# Poissons Ratio (y) = 0.29253 0.34419
# Poissons Ratio (z) = 0.20191 0.23362
#
# Static dielectric constant tensor:
#      x y z
#    x 3.635210 0.000000 0.000000 
#    y 0.000000 3.625140 0.000000 
#    z 0.000000 0.000000 3.710540 
# 
# 
# High freq. dielectric constant tensor:
#      x y z
#    x 1.785060 0.000000 0.000000 
#    y 0.000000 1.771210 0.000000 
#    z 0.000000 0.000000 1.784540 
# 
# From -- ./inp_files/13882.got.cif
#   From: 2010.03.12/outbox.cif.g09.slc.cpg/sg46_7_cif.got.tgz:13882.got - 2010.04.14 02:56:35.
