data_PCOD8192484
_publ_section_title
;
Structure prediction by ZEFSAII (Michael W. Deem and Ramdas Pophale) SiO2 
 PCOD8192484
Probable space group: I M A 2
;
_chemical_formula_sum "Si O2"
_cell_formula_units_Z 64
_cell_length_a 9.020157
_cell_length_b 24.704790
_cell_length_c 15.052555
_cell_angle_alpha 90.000000
_cell_angle_beta 90.000000
_cell_angle_gamma 90.000000
_cell_volume 3354.327680
_symmetry_space_group_name_H-M "I M A 2"
_symmetry_group_IT_number 46
_symmetry_cell_setting 'orthorhombic'
loop_
_space_group_symop_operation_xyz
x,y,z
-x,-y,z
1/2-x,y,z
1/2+x,-y,z
1/2+x,1/2+y,1/2+z
1/2-x,1/2-y,1/2+z
-x,1/2+y,1/2+z
x,1/2-y,1/2+z
loop_
_atom_site_type_symbol
_atom_site_label
_atom_site_fract_x
_atom_site_fract_y
_atom_site_fract_z
Si Si1 0.075399 0.389643 0.666770
Si Si2 0.580122 0.643141 0.994216
Si Si3 0.079758 0.718523 0.700928
Si Si4 0.925142 0.445014 0.504365
Si Si5 0.076210 0.854490 0.861279
Si Si6 0.576353 0.942491 0.354895
Si Si7 0.582664 0.235935 0.403529
Si Si8 0.921698 0.830972 0.687965
O O1 0.250000 0.387727 0.648566
O O2 0.037238 0.412150 0.763853
O O3 0.008149 0.329946 0.653790
O O4 0.997454 0.429426 0.597659
O O5 0.750000 0.648446 0.966709
O O6 0.559067 0.632614 0.099264
O O7 0.512443 0.593816 0.936561
O O8 0.510251 0.701010 0.972001
O O9 0.250000 0.717768 0.668310
O O10 0.069445 0.710066 0.806221
O O11 0.007188 0.774905 0.673107
O O12 0.750000 0.452245 0.517070
O O13 0.963828 0.401006 0.429997
O O14 0.000000 0.500000 0.470546
O O15 0.250000 0.851352 0.838635
O O16 0.022164 0.797454 0.902555
O O17 0.989937 0.865187 0.769240
O O18 0.750000 0.952438 0.364491
O O19 0.500000 0.000000 0.358540
O O20 0.750000 0.235584 0.438177
O O21 0.750000 0.818255 0.706974
#
# Coordination Sequence:
#
# PCOD8192484 Si02
#       8
#     8   8   8   8   8   8   8   8
#     4  11  22  37  59  87 118 156 195 238 293 350
#     4  10  21  37  55  83 119 152 189 238 287 339
#     4  10  20  35  55  83 120 157 193 235 284 345
#     4  11  24  42  62  86 117 153 198 249 298 353
#     4   9  21  41  60  83 115 151 194 244 297 348
#     4  10  22  39  58  81 115 153 192 236 282 338
#     4   9  18  33  55  83 112 149 190 229 281 342
#     4  10  21  36  58  86 118 155 194 241 295 348
#
# _framework density 19.079830000000001
#
# number of rings (size 3 to 8) (size 9 to 14) (size 15 to 20)
#    0.000    2.000    1.250    2.625    1.750    6.500 
#    0.000    0.625    0.000    3.000    0.000    0.000 
#    0.000    0.000    0.000    0.000    0.000    0.000 
#
# Total GULP energy -396877.496904 kJ/mol
# GULP energy per Si atom -12402.421778 kJ/mol
# Density = 1.903640 g / cm^3
# Si number density = 19.079830 Si / 1000 Ang^3
#
#
#
# Elastic Constant Matrix: (Units=GPa)
#
#
# Indices 1 2 3 4 5 6 
#
# 1 89.3213 50.8084 53.4442 0.0000 0.0000 0.0000
# 2 50.8084 106.9246 49.4459 -0.0001 0.0000 0.0000
# 3 53.4442 49.4459 98.2599 0.0000 0.0001 -0.0001
# 4 0.0000 -0.0001 0.0000 28.1792 0.0000 0.0000
# 5 0.0000 0.0000 0.0001 0.0000 27.0414 0.0000
# 6 0.0000 0.0000 -0.0001 0.0000 0.0000 33.1827
#
#
#
# Elastic Compliance Matrix: (Units=1/GPa)
#
#
# Indices 1 2 3 4 5 6 
#
# 1 0.018768 -0.005471 -0.007455 0.000000 0.000000 0.000000
# 2 -0.005471 0.013783 -0.003960 0.000000 0.000000 0.000000
# 3 -0.007455 -0.003960 0.016225 0.000000 0.000000 0.000000
# 4 0.000000 0.000000 0.000000 0.035487 0.000000 0.000000
# 5 0.000000 0.000000 0.000000 0.000000 0.036980 0.000000
# 6 0.000000 0.000000 0.000000 0.000000 0.000000 0.030136
#
#
# Mechanical properties :
#
#
# Convention : Reuss Voigt Hill
#
# Bulk Modulus (GPa) = 66.64964 66.87812 66.76388
# Shear Modulus (GPa) = 26.29448 27.06784 26.68116
#
# Velocity S-wave (km/s) = 3.71634 3.77060 3.74357
# Velocity P-wave (km/s) = 7.30909 7.35421 7.33168
#
# Compressibility (1/GPa) = 0.01500383
#
# Stress axis : x y z
#
# Youngs Moduli (GPa) = 53.28192 72.55094 61.63339
#
# Poissons Ratio (x) = 0.39690 0.45949
# Poissons Ratio (y) = 0.29149 0.24410
# Poissons Ratio (z) = 0.39722 0.28734
#
# Static dielectric constant tensor:
#      x y z
#    x 3.513930 0.000000 0.000000 
#    y 0.000000 3.430670 0.000000 
#    z 0.000000 0.000000 3.527150 
# 
# 
# High freq. dielectric constant tensor:
#      x y z
#    x 1.745120 0.000000 0.000000 
#    y 0.000000 1.733100 0.000000 
#    z 0.000000 0.000000 1.743440 
# 
# From -- ./inp_files/14456.got.cif
#   From: 2010.03.12/outbox.cif.g09.slc.cpg/sg46_8_cif.got.tgz:14456.got - 2010.04.14 02:56:35.
