data_PCOD8192923
_publ_section_title
;
Structure prediction by ZEFSAII (Michael W. Deem and Ramdas Pophale) SiO2 
 PCOD8192923
Probable space group: I M A 2
;
_chemical_formula_sum "Si O2"
_cell_formula_units_Z 64
_cell_length_a 15.593797
_cell_length_b 8.984423
_cell_length_c 24.084275
_cell_angle_alpha 90.000000
_cell_angle_beta 90.000000
_cell_angle_gamma 90.000000
_cell_volume 3374.237477
_symmetry_space_group_name_H-M "I M A 2"
_symmetry_group_IT_number 46
_symmetry_cell_setting 'orthorhombic'
loop_
_space_group_symop_operation_xyz
x,y,z
-x,-y,z
1/2-x,y,z
1/2+x,-y,z
1/2+x,1/2+y,1/2+z
1/2-x,1/2-y,1/2+z
-x,1/2+y,1/2+z
x,1/2-y,1/2+z
loop_
_atom_site_type_symbol
_atom_site_label
_atom_site_fract_x
_atom_site_fract_y
_atom_site_fract_z
Si Si1 0.149927 0.185413 0.143920
Si Si2 0.008296 0.176537 0.452205
Si Si3 0.580175 0.110034 0.031494
Si Si4 0.153699 0.187433 0.021668
Si Si5 0.001443 0.323811 0.334343
Si Si6 0.349510 0.847872 0.145401
Si Si7 0.653302 0.186945 0.755714
Si Si8 0.847021 0.662639 0.253085
O O1 0.250000 0.211240 0.137560
O O2 0.112398 0.224511 0.082791
O O3 0.114414 0.286744 0.193612
O O4 0.129177 0.017159 0.160928
O O5 0.932948 0.261532 0.485764
O O6 0.099988 0.226722 0.475547
O O7 0.003166 0.225654 0.388944
O O8 0.000000 0.000000 0.457815
O O9 0.599389 0.194493 0.089410
O O10 0.500000 0.000000 0.036766
O O11 0.655443 0.993814 0.014154
O O12 0.250000 0.246097 0.015340
O O13 0.087437 0.282755 0.300238
O O14 0.000000 0.500000 0.347950
O O15 0.915565 0.270273 0.302538
O O16 0.250000 0.820853 0.133301
O O17 0.380436 0.749393 0.197039
O O18 0.750000 0.247832 0.769812
O O19 0.656765 0.012216 0.750433
O O20 0.750000 0.726511 0.263902
#
# Coordination Sequence:
#
# PCOD8192923 Si02
#       8
#     8   8   8   8   8   8   8   8
#     4   8  15  29  51  80 109 136 168 210 262 320
#     4  11  24  39  53  78 112 141 180 234 283 323
#     4   9  18  34  55  78 107 143 181 217 261 321
#     4   9  18  36  60  81 107 146 186 219 261 325
#     4  10  21  38  55  72 100 142 188 226 264 319
#     4   9  17  31  52  79 108 134 168 214 263 318
#     4   9  19  34  52  77 107 137 171 215 267 321
#     4   9  18  33  54  79 105 135 173 217 267 321
#
# _framework density 18.967248999999999
#
# number of rings (size 3 to 8) (size 9 to 14) (size 15 to 20)
#    0.000    2.750    0.000    2.250    0.000    5.500 
#    0.000    8.125    0.000    0.000    0.000    0.000 
#    0.000    0.000    0.000    0.000    0.000    0.000 
#
# Total GULP energy -396571.353435 kJ/mol
# GULP energy per Si atom -12392.854795 kJ/mol
# Density = 1.892408 g / cm^3
# Si number density = 18.967249 Si / 1000 Ang^3
#
#
#
# Elastic Constant Matrix: (Units=GPa)
#
#
# Indices 1 2 3 4 5 6 
#
# 1 80.2674 35.1756 62.0692 0.0000 0.0000 0.0000
# 2 35.1756 57.7881 64.1257 0.0000 0.0000 0.0000
# 3 62.0692 64.1257 159.8091 0.0000 0.0000 0.0000
# 4 0.0000 0.0000 0.0000 37.8602 0.0000 0.0000
# 5 0.0000 0.0000 0.0000 0.0000 27.6785 0.0000
# 6 0.0000 0.0000 0.0000 0.0000 0.0000 16.3229
#
#
#
# Elastic Compliance Matrix: (Units=1/GPa)
#
#
# Indices 1 2 3 4 5 6 
#
# 1 0.018914 -0.006059 -0.004915 0.000000 0.000000 0.000000
# 2 -0.006059 0.033136 -0.010943 0.000000 0.000000 0.000000
# 3 -0.004915 -0.010943 0.012557 0.000000 0.000000 0.000000
# 4 0.000000 0.000000 0.000000 0.026413 0.000000 0.000000
# 5 0.000000 0.000000 0.000000 0.000000 0.036129 0.000000
# 6 0.000000 0.000000 0.000000 0.000000 0.000000 0.061264
#
#
# Mechanical properties :
#
#
# Convention : Reuss Voigt Hill
#
# Bulk Modulus (GPa) = 48.13815 68.95616 58.54715
# Shear Modulus (GPa) = 20.90550 25.47192 23.18871
#
# Velocity S-wave (km/s) = 3.32353 3.66859 3.50031
# Velocity P-wave (km/s) = 6.33739 7.37422 6.87537
#
# Compressibility (1/GPa) = 0.02077355
#
# Stress axis : x y z
#
# Youngs Moduli (GPa) = 52.87008 30.17884 79.63461
#
# Poissons Ratio (x) = 0.18286 0.39139
# Poissons Ratio (y) = 0.32035 0.87143
# Poissons Ratio (z) = 0.25985 0.33024
#
# Static dielectric constant tensor:
#      x y z
#    x 3.922220 0.000000 0.000000 
#    y 0.000000 3.487850 0.000000 
#    z 0.000000 0.000000 3.671400 
# 
# 
# High freq. dielectric constant tensor:
#      x y z
#    x 1.737330 0.000000 0.000000 
#    y 0.000000 1.715060 0.000000 
#    z 0.000000 0.000000 1.736410 
# 
# From -- ./inp_files/23701.got.cif
#   From: 2010.03.12/outbox.cif.g09.slc.cpg/sg46_12_cif.got.tgz:23701.got - 2010.04.14 02:56:35.
