data_PCOD8192861
_publ_section_title
;
Structure prediction by ZEFSAII (Michael W. Deem and Ramdas Pophale) SiO2 
 PCOD8192861
Probable space group: I M A 2
;
_chemical_formula_sum "Si O2"
_cell_formula_units_Z 64
_cell_length_a 20.018406
_cell_length_b 16.615818
_cell_length_c 9.360965
_cell_angle_alpha 90.000000
_cell_angle_beta 90.000000
_cell_angle_gamma 90.000000
_cell_volume 3113.664686
_symmetry_space_group_name_H-M "I M A 2"
_symmetry_group_IT_number 46
_symmetry_cell_setting 'orthorhombic'
loop_
_space_group_symop_operation_xyz
x,y,z
-x,-y,z
1/2-x,y,z
1/2+x,-y,z
1/2+x,1/2+y,1/2+z
1/2-x,1/2-y,1/2+z
-x,1/2+y,1/2+z
x,1/2-y,1/2+z
loop_
_atom_site_type_symbol
_atom_site_label
_atom_site_fract_x
_atom_site_fract_y
_atom_site_fract_z
Si Si1 0.439799 0.443101 0.610510
Si Si2 0.369145 0.591333 0.712489
Si Si3 0.503689 0.835212 0.317300
Si Si4 0.019529 0.350397 0.329117
Si Si5 0.175103 0.530933 0.008076
Si Si6 0.374663 0.842903 0.716750
Si Si7 0.176106 0.720105 0.511258
Si Si8 0.449810 0.067569 0.570448
O O1 0.500000 0.500000 0.661634
O O2 0.377621 0.503171 0.636176
O O3 0.435823 0.366304 0.716127
O O4 0.453171 0.407578 0.454005
O O5 0.434983 0.647969 0.732367
O O6 0.323395 0.636891 0.598678
O O7 0.333029 0.584876 0.865591
O O8 0.518375 0.743876 0.363758
O O9 0.502576 0.887420 0.459182
O O10 0.945034 0.373913 0.277664
O O11 0.068747 0.370917 0.197867
O O12 0.250000 0.494539 0.010877
O O13 0.164543 0.579897 0.155708
O O14 0.119287 0.461265 0.999991
O O15 0.378136 0.781258 0.581141
O O16 0.337478 0.796818 0.844932
O O17 0.250000 0.759164 0.522864
O O18 0.500000 0.000000 0.631108
#
# Coordination Sequence:
#
# PCOD8192861 Si02
#       8
#     8   8   8   8   8   8   8   8
#     4  10  21  36  57  91 125 162 205 262 321 376
#     4  11  21  40  65  90 130 175 212 267 323 392
#     4  11  20  39  61  92 127 160 206 265 324 383
#     4  12  24  36  64  96 130 161 211 274 334 386
#     4  12  25  43  66  94 130 175 223 269 327 395
#     4  12  25  41  62  93 137 179 220 263 324 393
#     4  12  25  40  58  90 137 183 219 256 312 400
#     4  12  22  40  65  94 125 167 213 270 324 388
#
# _framework density 20.554556999999999
#
# number of rings (size 3 to 8) (size 9 to 14) (size 15 to 20)
#    0.000    0.500    5.000    5.250    3.500    0.000 
#    0.000    0.000    0.000    0.750    0.000    0.000 
#    0.000    0.000    0.000    0.000    0.000    0.000 
#
# Total GULP energy -396547.553212 kJ/mol
# GULP energy per Si atom -12392.111038 kJ/mol
# Density = 2.050777 g / cm^3
# Si number density = 20.554557 Si / 1000 Ang^3
#
#
#
# Elastic Constant Matrix: (Units=GPa)
#
#
# Indices 1 2 3 4 5 6 
#
# 1 55.4301 26.2036 7.0010 0.0000 0.0000 0.0000
# 2 26.2036 73.6641 27.6490 0.0000 0.0000 0.0000
# 3 7.0010 27.6490 108.5383 0.0000 0.0000 0.0000
# 4 0.0000 0.0000 0.0000 43.0005 0.0000 0.0000
# 5 0.0000 0.0000 0.0000 0.0000 19.9803 0.0000
# 6 0.0000 0.0000 0.0000 0.0000 0.0000 21.7749
#
#
#
# Elastic Compliance Matrix: (Units=1/GPa)
#
#
# Indices 1 2 3 4 5 6 
#
# 1 0.021726 -0.007964 0.000627 0.000000 0.000000 0.000000
# 2 -0.007964 0.017929 -0.004054 0.000000 0.000000 0.000000
# 3 0.000627 -0.004054 0.010205 0.000000 0.000000 0.000000
# 4 0.000000 0.000000 0.000000 0.023256 0.000000 0.000000
# 5 0.000000 0.000000 0.000000 0.000000 0.050049 0.000000
# 6 0.000000 0.000000 0.000000 0.000000 0.000000 0.045924
#
#
# Mechanical properties :
#
#
# Convention : Reuss Voigt Hill
#
# Bulk Modulus (GPa) = 36.92643 39.92661 38.42652
# Shear Modulus (GPa) = 24.88827 28.73641 26.81234
#
# Velocity S-wave (km/s) = 3.48349 3.74311 3.61563
# Velocity P-wave (km/s) = 5.84668 6.17641 6.01381
#
# Compressibility (1/GPa) = 0.02708087
#
# Stress axis : x y z
#
# Youngs Moduli (GPa) = 46.02719 55.77402 97.98639
#
# Poissons Ratio (x) = 0.44418 -0.06147
# Poissons Ratio (y) = 0.36655 0.39720
# Poissons Ratio (z) = -0.02887 0.22609
#
# Static dielectric constant tensor:
#      x y z
#    x 3.466400 0.000000 0.000000 
#    y 0.000000 3.880310 0.000000 
#    z 0.000000 0.000000 3.909170 
# 
# 
# High freq. dielectric constant tensor:
#      x y z
#    x 1.756420 0.000000 0.000000 
#    y 0.000000 1.799420 0.000000 
#    z 0.000000 0.000000 1.826750 
# 
# From -- ./inp_files/7984.got.cif
#   From: 2010.03.12/outbox.cif.g09.slc.cpg/sg46_4_cif.got.tgz:7984.got - 2010.04.14 02:56:35.
