data_PCOD8192344
_publ_section_title
;
Structure prediction by ZEFSAII (Michael W. Deem and Ramdas Pophale) SiO2 
 PCOD8192344
Probable space group: I M A 2
;
_chemical_formula_sum "Si O2"
_cell_formula_units_Z 64
_cell_length_a 9.027933
_cell_length_b 24.669769
_cell_length_c 15.210396
_cell_angle_alpha 90.000000
_cell_angle_beta 90.000000
_cell_angle_gamma 90.000000
_cell_volume 3387.614095
_symmetry_space_group_name_H-M "I M A 2"
_symmetry_group_IT_number 46
_symmetry_cell_setting 'orthorhombic'
loop_
_space_group_symop_operation_xyz
x,y,z
-x,-y,z
1/2-x,y,z
1/2+x,-y,z
1/2+x,1/2+y,1/2+z
1/2-x,1/2-y,1/2+z
-x,1/2+y,1/2+z
x,1/2-y,1/2+z
loop_
_atom_site_type_symbol
_atom_site_label
_atom_site_fract_x
_atom_site_fract_y
_atom_site_fract_z
Si Si1 0.073644 0.943014 0.986130
Si Si2 0.422058 0.853386 0.125082
Si Si3 0.077854 0.236726 0.029450
Si Si4 0.576540 0.859020 0.495150
Si Si5 0.919397 0.160935 0.319228
Si Si6 0.073327 0.556221 0.119497
Si Si7 0.076680 0.897019 0.800983
Si Si8 0.919419 0.218276 0.853920
O O1 0.250000 0.949124 0.986860
O O2 0.013076 0.922249 0.891504
O O3 0.020219 0.901102 0.061508
O O4 0.000000 0.000000 0.008867
O O5 0.250000 0.843133 0.109000
O O6 0.453271 0.868951 0.226952
O O7 0.501775 0.796227 0.107660
O O8 0.250000 0.226558 0.035920
O O9 0.038932 0.300245 0.035442
O O10 0.022131 0.212570 0.938128
O O11 0.750000 0.872892 0.502079
O O12 0.529456 0.861926 0.392898
O O13 0.477845 0.900887 0.547809
O O14 0.750000 0.150772 0.349309
O O15 0.946236 0.225343 0.303736
O O16 0.250000 0.551832 0.117762
O O17 0.009931 0.573348 0.215471
O O18 0.000000 0.500000 0.092659
O O19 0.250000 0.906899 0.800916
O O20 0.039596 0.832904 0.792284
O O21 0.750000 0.212876 0.886513
#
# Coordination Sequence:
#
# PCOD8192344 Si02
#       8
#     8   8   8   8   8   8   8   8
#     4  10  20  36  55  78 112 149 185 227 274 327
#     4  10  20  35  57  83 114 149 189 237 282 334
#     4  10  20  33  52  82 116 149 185 227 281 340
#     4  10  22  40  58  81 116 152 188 236 292 344
#     4   9  19  34  58  86 111 147 191 234 282 339
#     4  11  23  39  61  85 113 149 196 244 289 343
#     4   9  18  33  55  84 114 146 184 229 280 334
#     4   9  16  32  54  79 112 146 185 226 272 334
#
# _framework density 18.892351000000001
#
# number of rings (size 3 to 8) (size 9 to 14) (size 15 to 20)
#    0.000    2.250    1.250    1.500    1.750    2.500 
#    0.000    2.500    0.000    1.500    0.000    0.000 
#    0.000    0.000    0.000    0.000    0.000    0.000 
#
# Total GULP energy -396773.144785 kJ/mol
# GULP energy per Si atom -12399.160775 kJ/mol
# Density = 1.884935 g / cm^3
# Si number density = 18.892351 Si / 1000 Ang^3
#
#
#
# Elastic Constant Matrix: (Units=GPa)
#
#
# Indices 1 2 3 4 5 6 
#
# 1 57.2999 45.6140 40.6343 0.0000 0.0000 0.0000
# 2 45.6140 110.1161 61.2983 0.0001 0.0000 0.0000
# 3 40.6343 61.2983 108.8886 0.0005 0.0001 0.0000
# 4 0.0000 0.0001 0.0005 26.7081 0.0000 0.0000
# 5 0.0000 0.0000 0.0001 0.0000 17.2859 0.0000
# 6 0.0000 0.0000 0.0000 0.0000 0.0000 29.3425
#
#
#
# Elastic Compliance Matrix: (Units=1/GPa)
#
#
# Indices 1 2 3 4 5 6 
#
# 1 0.028331 -0.008520 -0.005776 0.000000 0.000000 0.000000
# 2 -0.008520 0.015789 -0.005708 0.000000 0.000000 0.000000
# 3 -0.005776 -0.005708 0.014553 0.000000 0.000000 0.000000
# 4 0.000000 0.000000 0.000000 0.037442 0.000000 0.000000
# 5 0.000000 0.000000 0.000000 0.000000 0.057851 0.000000
# 6 0.000000 0.000000 0.000000 0.000000 0.000000 0.034080
#
#
# Mechanical properties :
#
#
# Convention : Reuss Voigt Hill
#
# Bulk Modulus (GPa) = 53.58321 63.48864 58.53592
# Shear Modulus (GPa) = 21.34247 23.25115 22.29681
#
# Velocity S-wave (km/s) = 3.36473 3.51196 3.43914
# Velocity P-wave (km/s) = 6.59691 7.07980 6.84262
#
# Compressibility (1/GPa) = 0.01866256
#
# Stress axis : x y z
#
# Youngs Moduli (GPa) = 35.29749 63.33714 68.71621
#
# Poissons Ratio (x) = 0.53966 0.39688
# Poissons Ratio (y) = 0.30075 0.39227
# Poissons Ratio (z) = 0.20387 0.36156
#
# Static dielectric constant tensor:
#      x y z
#    x 3.308230 0.000000 0.000000 
#    y 0.000000 3.477750 0.000000 
#    z 0.000000 0.000000 3.525840 
# 
# 
# High freq. dielectric constant tensor:
#      x y z
#    x 1.719250 0.000000 0.000000 
#    y 0.000000 1.729560 0.000000 
#    z 0.000000 0.000000 1.731470 
# 
# From -- ./inp_files/14455.got.cif
#   From: 2010.03.12/outbox.cif.g09.slc.cpg/sg46_8_cif.got.tgz:14455.got - 2010.04.14 02:56:35.
