data_PCOD8192683
_publ_section_title
;
Structure prediction by ZEFSAII (Michael W. Deem and Ramdas Pophale) SiO2 
 PCOD8192683
Probable space group: I M A 2
;
_chemical_formula_sum "Si O2"
_cell_formula_units_Z 64
_cell_length_a 8.596122
_cell_length_b 24.530193
_cell_length_c 14.786112
_cell_angle_alpha 90.000000
_cell_angle_beta 90.000000
_cell_angle_gamma 90.000000
_cell_volume 3117.866583
_symmetry_space_group_name_H-M "I M A 2"
_symmetry_group_IT_number 46
_symmetry_cell_setting 'orthorhombic'
loop_
_space_group_symop_operation_xyz
x,y,z
-x,-y,z
1/2-x,y,z
1/2+x,-y,z
1/2+x,1/2+y,1/2+z
1/2-x,1/2-y,1/2+z
-x,1/2+y,1/2+z
x,1/2-y,1/2+z
loop_
_atom_site_type_symbol
_atom_site_label
_atom_site_fract_x
_atom_site_fract_y
_atom_site_fract_z
Si Si1 0.065805 0.878292 0.892700
Si Si2 0.932735 0.127375 0.684218
Si Si3 0.569900 0.855525 0.196208
Si Si4 0.432942 0.058059 0.050258
Si Si5 0.432921 0.441608 0.030273
Si Si6 0.434684 0.643100 0.892700
Si Si7 0.070211 0.761279 0.894394
Si Si8 0.071422 0.264691 0.204430
O O1 0.250000 0.882636 0.903196
O O2 0.018461 0.885174 0.787687
O O3 0.003509 0.819118 0.931739
O O4 0.987026 0.926124 0.949563
O O5 0.750000 0.134805 0.672605
O O6 0.990232 0.077321 0.623989
O O7 0.016723 0.182788 0.646268
O O8 0.750000 0.867119 0.219085
O O9 0.504973 0.897326 0.121651
O O10 0.471362 0.864150 0.286999
O O11 0.550976 0.793949 0.155241
O O12 0.250000 0.054679 0.051596
O O13 0.500000 0.000000 0.078730
O O14 0.500000 0.500000 0.003556
O O15 0.250000 0.445158 0.043111
O O16 0.473595 0.401470 0.948672
O O17 0.250000 0.637136 0.907705
O O18 0.498010 0.703022 0.927697
O O19 0.250000 0.760134 0.916172
O O20 0.046607 0.764239 0.787466
O O21 0.250000 0.272103 0.235860
#
# Coordination Sequence:
#
# PCOD8192683 Si02
#       8
#     8   8   8   8   8   8   8   8
#     4   9  19  37  60  85 115 149 185 229 280 334
#     4  10  21  39  61  86 117 151 188 233 285 343
#     4   9  20  38  58  84 118 154 192 236 285 337
#     4  11  24  40  57  79 110 148 194 241 282 332
#     4  12  26  43  61  83 113 150 195 242 286 340
#     4  10  20  37  62  90 119 152 188 230 283 340
#     4   8  16  32  55  85 118 150 185 225 276 340
#     4   9  16  30  55  86 117 148 185 230 283 340
#
# _framework density 20.526858000000001
#
# number of rings (size 3 to 8) (size 9 to 14) (size 15 to 20)
#    0.000    2.250    0.000    3.375    0.000    6.500 
#    0.000    3.750    0.000    0.000    0.000    0.000 
#    0.000    0.000    0.000    0.000    0.000    0.000 
#
# Total GULP energy -396550.029192 kJ/mol
# GULP energy per Si atom -12392.188412 kJ/mol
# Density = 2.048014 g / cm^3
# Si number density = 20.526858 Si / 1000 Ang^3
#
#
#
# Elastic Constant Matrix: (Units=GPa)
#
#
# Indices 1 2 3 4 5 6 
#
# 1 45.4078 15.6509 19.6235 -0.0005 0.0000 0.0000
# 2 15.6509 95.4948 13.6304 -0.0009 0.0000 -0.0001
# 3 19.6235 13.6304 51.8856 -0.0051 -0.0001 0.0000
# 4 -0.0005 -0.0009 -0.0051 53.0259 -0.0003 0.0001
# 5 0.0000 0.0000 -0.0001 -0.0003 27.6556 0.0000
# 6 0.0000 -0.0001 0.0000 0.0001 0.0000 32.8317
#
#
#
# Elastic Compliance Matrix: (Units=1/GPa)
#
#
# Indices 1 2 3 4 5 6 
#
# 1 0.027183 -0.003104 -0.009465 -0.000001 0.000000 0.000000
# 2 -0.003104 0.011234 -0.001777 0.000000 0.000000 0.000000
# 3 -0.009465 -0.001777 0.023320 0.000002 0.000000 0.000000
# 4 -0.000001 0.000000 0.000002 0.018859 0.000000 0.000000
# 5 0.000000 0.000000 0.000000 0.000000 0.036159 0.000000
# 6 0.000000 0.000000 0.000000 0.000000 0.000000 0.030458
#
#
# Mechanical properties :
#
#
# Convention : Reuss Voigt Hill
#
# Bulk Modulus (GPa) = 30.26285 32.28862 31.27574
# Shear Modulus (GPa) = 26.74923 32.29487 29.52205
#
# Velocity S-wave (km/s) = 3.61381 3.97079 3.79650
# Velocity P-wave (km/s) = 5.67344 6.06522 5.87260
#
# Compressibility (1/GPa) = 0.03304381
#
# Stress axis : x y z
#
# Youngs Moduli (GPa) = 36.78758 89.01411 42.88179
#
# Poissons Ratio (x) = 0.27631 0.40589
# Poissons Ratio (y) = 0.11419 0.07621
# Poissons Ratio (z) = 0.34821 0.15820
#
# Static dielectric constant tensor:
#      x y z
#    x 3.606030 0.000000 0.000000 
#    y 0.000000 4.488800 0.000000 
#    z 0.000000 0.000000 3.486690 
# 
# 
# High freq. dielectric constant tensor:
#      x y z
#    x 1.799180 0.000000 0.000000 
#    y 0.000000 1.817580 0.000000 
#    z 0.000000 0.000000 1.779210 
# 
# From -- ./inp_files/14507.got.cif
#   From: 2010.03.12/outbox.cif.g09.slc.cpg/sg46_8_cif.got.tgz:14507.got - 2010.04.14 02:56:35.
