data_PCOD8192709
_publ_section_title
;
Structure prediction by ZEFSAII (Michael W. Deem and Ramdas Pophale) SiO2 
 PCOD8192709
Probable space group: I M A 2
;
_chemical_formula_sum "Si O2"
_cell_formula_units_Z 64
_cell_length_a 18.589414
_cell_length_b 19.408723
_cell_length_c 8.763001
_cell_angle_alpha 90.000000
_cell_angle_beta 90.000000
_cell_angle_gamma 90.000000
_cell_volume 3161.662606
_symmetry_space_group_name_H-M "I M A 2"
_symmetry_group_IT_number 46
_symmetry_cell_setting 'orthorhombic'
loop_
_space_group_symop_operation_xyz
x,y,z
-x,-y,z
1/2-x,y,z
1/2+x,-y,z
1/2+x,1/2+y,1/2+z
1/2-x,1/2-y,1/2+z
-x,1/2+y,1/2+z
x,1/2-y,1/2+z
loop_
_atom_site_type_symbol
_atom_site_label
_atom_site_fract_x
_atom_site_fract_y
_atom_site_fract_z
Si Si1 0.440040 0.167091 0.067550
Si Si2 0.398488 0.701049 0.631636
Si Si3 0.667672 0.911953 0.593726
Si Si4 0.917234 0.806096 0.412626
Si Si5 0.831792 0.043861 0.397830
Si Si6 0.919916 0.333214 0.967003
Si Si7 0.668459 0.431263 0.556148
Si Si8 0.076942 0.466748 0.373270
O O1 0.524851 0.172692 0.080427
O O2 0.403568 0.180072 0.233043
O O3 0.412964 0.224244 0.945780
O O4 0.424141 0.090668 0.006519
O O5 0.388091 0.696747 0.811241
O O6 0.390322 0.781437 0.594878
O O7 0.341341 0.651637 0.546418
O O8 0.750000 0.905425 0.653927
O O9 0.644276 0.840698 0.515297
O O10 0.613303 0.931450 0.727828
O O11 0.661916 0.967580 0.460149
O O12 0.993778 0.837778 0.465687
O O13 0.750000 0.072000 0.409042
O O14 0.885052 0.092140 0.497574
O O15 0.858018 0.043172 0.222667
O O16 0.750000 0.451456 0.526006
O O17 0.623936 0.468981 0.426360
O O18 0.000000 0.500000 0.331591
#
# Coordination Sequence:
#
# PCOD8192709 Si02
#       8
#     8   8   8   8   8   8   8   8
#     4  10  20  40  62  94 120 154 204 252 303 363
#     4   9  18  34  52  84 118 153 192 245 291 356
#     4  11  25  43  59  89 125 160 205 258 312 372
#     4  10  21  39  66  88 123 158 199 256 304 363
#     4   9  20  38  58  82 120 159 201 246 299 362
#     4   9  19  32  56  84 116 152 199 240 293 353
#     4  10  20  38  59  84 119 161 198 248 305 366
#     4  12  24  38  62  91 125 161 210 256 309 370
#
# _framework density 20.242512999999999
#
# number of rings (size 3 to 8) (size 9 to 14) (size 15 to 20)
#    0.000    2.000    1.250    1.875    1.750    2.500 
#    0.000    3.750    0.000    0.000    0.000    0.000 
#    0.000    0.000    0.000    0.000    0.000    0.000 
#
# Total GULP energy -396798.707009 kJ/mol
# GULP energy per Si atom -12399.959594 kJ/mol
# Density = 2.019644 g / cm^3
# Si number density = 20.242513 Si / 1000 Ang^3
#
#
#
# Elastic Constant Matrix: (Units=GPa)
#
#
# Indices 1 2 3 4 5 6 
#
# 1 76.5059 29.9487 26.4518 0.0000 0.0000 0.0000
# 2 29.9487 60.8190 11.3932 0.0000 0.0000 0.0000
# 3 26.4518 11.3932 71.1981 0.0000 0.0000 0.0000
# 4 0.0000 0.0000 0.0000 34.2207 0.0000 0.0000
# 5 0.0000 0.0000 0.0000 0.0000 20.0989 0.0000
# 6 0.0000 0.0000 0.0000 0.0000 0.0000 28.6027
#
#
#
# Elastic Compliance Matrix: (Units=1/GPa)
#
#
# Indices 1 2 3 4 5 6 
#
# 1 0.018028 -0.007858 -0.005440 0.000000 0.000000 0.000000
# 2 -0.007858 0.020376 -0.000341 0.000000 0.000000 0.000000
# 3 -0.005440 -0.000341 0.016121 0.000000 0.000000 0.000000
# 4 0.000000 0.000000 0.000000 0.029222 0.000000 0.000000
# 5 0.000000 0.000000 0.000000 0.000000 0.049754 0.000000
# 6 0.000000 0.000000 0.000000 0.000000 0.000000 0.034962
#
#
# Mechanical properties :
#
#
# Convention : Reuss Voigt Hill
#
# Bulk Modulus (GPa) = 36.70320 38.23448 37.46884
# Shear Modulus (GPa) = 24.41123 25.96642 25.18882
#
# Velocity S-wave (km/s) = 3.47643 3.58546 3.53137
# Velocity P-wave (km/s) = 5.85536 6.00582 5.93107
#
# Compressibility (1/GPa) = 0.02724558
#
# Stress axis : x y z
#
# Youngs Moduli (GPa) = 55.46910 49.07801 62.03045
#
# Poissons Ratio (x) = 0.38567 0.33747
# Poissons Ratio (y) = 0.43589 0.02115
# Poissons Ratio (z) = 0.30177 0.01674
#
# Static dielectric constant tensor:
#      x y z
#    x 3.610320 0.000000 0.000000 
#    y 0.000000 3.695560 0.000000 
#    z 0.000000 0.000000 3.655980 
# 
# 
# High freq. dielectric constant tensor:
#      x y z
#    x 1.777790 0.000000 0.000000 
#    y 0.000000 1.794190 0.000000 
#    z 0.000000 0.000000 1.786980 
# 
# From -- ./inp_files/6930.got.cif
#   From: 2010.03.12/outbox.cif.g09.slc.cpg/sg46_4_cif.got.tgz:6930.got - 2010.04.14 02:56:35.
