data_PCOD8192944
_publ_section_title
;
Structure prediction by ZEFSAII (Michael W. Deem and Ramdas Pophale) SiO2 
 PCOD8192944
Probable space group: I M A 2
;
_chemical_formula_sum "Si O2"
_cell_formula_units_Z 40
_cell_length_a 8.547235
_cell_length_b 9.672957
_cell_length_c 24.807201
_cell_angle_alpha 90.000000
_cell_angle_beta 90.000000
_cell_angle_gamma 90.000000
_cell_volume 2050.985866
_symmetry_space_group_name_H-M "I M A 2"
_symmetry_group_IT_number 46
_symmetry_cell_setting 'orthorhombic'
loop_
_space_group_symop_operation_xyz
x,y,z
-x,-y,z
1/2-x,y,z
1/2+x,-y,z
1/2+x,1/2+y,1/2+z
1/2-x,1/2-y,1/2+z
-x,1/2+y,1/2+z
x,1/2-y,1/2+z
loop_
_atom_site_type_symbol
_atom_site_label
_atom_site_fract_x
_atom_site_fract_y
_atom_site_fract_z
Si Si1 0.568604 0.147273 0.453330
Si Si2 0.431304 0.648520 0.827883
Si Si3 0.065778 0.153731 0.741768
Si Si4 0.066936 0.146873 0.036421
Si Si5 0.934493 0.348620 0.650472
O O1 0.750000 0.155173 0.469466
O O2 0.543061 0.179152 0.390641
O O3 0.467640 0.254396 0.486832
O O4 0.500000 0.000000 0.468811
O O5 0.500000 0.500000 0.811356
O O6 0.250000 0.649678 0.811650
O O7 0.520713 0.769151 0.796810
O O8 0.250000 0.146792 0.735966
O O9 0.996468 0.235233 0.691409
O O10 0.000000 0.000000 0.743122
O O11 0.250000 0.135596 0.047509
O O12 0.985180 0.199869 0.090982
O O13 0.000000 0.000000 0.019130
O O14 0.750000 0.355918 0.654365
O O15 0.000000 0.500000 0.664768
#
# Coordination Sequence:
#
# PCOD8192944 Si02
#       5
#     8   8   8   8   8
#     4  10  21  38  60  87 118 153 194 238 286 340
#     4  10  21  39  62  87 116 153 195 237 284 341
#     4  12  25  41  60  86 118 151 191 239 292 343
#     4  11  22  38  60  87 118 153 194 238 287 340
#     4  11  22  40  63  87 116 152 194 236 284 342
#
# _framework density 19.502815999999999
#
# number of rings (size 3 to 8) (size 9 to 14) (size 15 to 20)
#    0.000    1.200    0.000    8.400    0.000    4.000 
#    0.000    4.000    0.000    0.000    0.000    0.000 
#    0.000    0.000    0.000    0.000    0.000    0.000 
#
# Total GULP energy -248111.422321 kJ/mol
# GULP energy per Si atom -12405.571116 kJ/mol
# Density = 1.945843 g / cm^3
# Si number density = 19.502816 Si / 1000 Ang^3
#
#
#
# Elastic Constant Matrix: (Units=GPa)
#
#
# Indices 1 2 3 4 5 6 
#
# 1 177.8233 70.2092 50.9118 0.0000 0.0000 0.0000
# 2 70.2092 140.3025 78.9313 0.0000 0.0000 0.0000
# 3 50.9118 78.9313 95.8408 0.0000 0.0000 0.0000
# 4 0.0000 0.0000 0.0000 133.4366 0.0000 0.0000
# 5 0.0000 0.0000 0.0000 0.0000 36.1558 0.0000
# 6 0.0000 0.0000 0.0000 0.0000 0.0000 39.1337
#
#
#
# Elastic Compliance Matrix: (Units=1/GPa)
#
#
# Indices 1 2 3 4 5 6 
#
# 1 0.007135 -0.002680 -0.001583 0.000000 0.000000 0.000000
# 2 -0.002680 0.014287 -0.010343 0.000000 0.000000 0.000000
# 3 -0.001583 -0.010343 0.019793 0.000000 0.000000 0.000000
# 4 0.000000 0.000000 0.000000 0.007494 0.000000 0.000000
# 5 0.000000 0.000000 0.000000 0.000000 0.027658 0.000000
# 6 0.000000 0.000000 0.000000 0.000000 0.000000 0.025553
#
#
# Mechanical properties :
#
#
# Convention : Reuss Voigt Hill
#
# Bulk Modulus (GPa) = 83.30970 90.45238 86.88104
# Shear Modulus (GPa) = 37.00043 56.00616 46.50329
#
# Velocity S-wave (km/s) = 4.36039 5.36463 4.88837
# Velocity P-wave (km/s) = 8.25592 9.21153 8.74678
#
# Compressibility (1/GPa) = 0.01200340
#
# Stress axis : x y z
#
# Youngs Moduli (GPa) = 140.15706 69.99310 50.52272
#
# Poissons Ratio (x) = 0.18756 0.07999
# Poissons Ratio (y) = 0.37558 0.52255
# Poissons Ratio (z) = 0.22190 0.72393
#
# Static dielectric constant tensor:
#      x y z
#    x 3.791230 0.000000 0.000000 
#    y 0.000000 3.416990 0.000000 
#    z 0.000000 0.000000 3.626240 
# 
# 
# High freq. dielectric constant tensor:
#      x y z
#    x 1.784420 0.000000 0.000000 
#    y 0.000000 1.761190 0.000000 
#    z 0.000000 0.000000 1.769850 
# 
# From -- ./inp_files/22732.got.cif
#   From: 2010.03.12/outbox.cif.g09.slc.cpg/sg46_12_cif.got.tgz:22732.got - 2010.04.14 02:56:35.
