data_PCOD8192653
_publ_section_title
;
Structure prediction by ZEFSAII (Michael W. Deem and Ramdas Pophale) SiO2 
 PCOD8192653
Probable space group: I M A 2
;
_chemical_formula_sum "Si O2"
_cell_formula_units_Z 36
_cell_length_a 7.671708
_cell_length_b 18.485691
_cell_length_c 14.157914
_cell_angle_alpha 90.000000
_cell_angle_beta 90.000000
_cell_angle_gamma 90.000000
_cell_volume 2007.830391
_symmetry_space_group_name_H-M "I M A 2"
_symmetry_group_IT_number 46
_symmetry_cell_setting 'orthorhombic'
loop_
_space_group_symop_operation_xyz
x,y,z
-x,-y,z
1/2-x,y,z
1/2+x,-y,z
1/2+x,1/2+y,1/2+z
1/2-x,1/2-y,1/2+z
-x,1/2+y,1/2+z
x,1/2-y,1/2+z
loop_
_atom_site_type_symbol
_atom_site_label
_atom_site_fract_x
_atom_site_fract_y
_atom_site_fract_z
Si Si1 0.059659 0.078384 0.681920
Si Si2 0.556976 0.340320 0.008500
Si Si3 0.250000 0.272802 0.515310
Si Si4 0.750000 0.674883 0.310962
Si Si5 0.547891 0.416912 0.815776
Si Si6 0.750000 0.831421 0.217929
O O1 0.250000 0.071299 0.633082
O O2 0.077530 0.132057 0.772876
O O3 0.933650 0.111481 0.603271
O O4 0.000000 0.000000 0.718168
O O5 0.750000 0.307461 0.992859
O O6 0.422398 0.275484 0.017936
O O7 0.504337 0.391287 0.921569
O O8 0.250000 0.324048 0.423814
O O9 0.250000 0.324102 0.605521
O O10 0.750000 0.755215 0.270628
O O11 0.500000 0.500000 0.807835
O O12 0.750000 0.403674 0.789166
O O13 0.426389 0.373223 0.744026
#
# Coordination Sequence:
#
# PCOD8192653 Si02
#       6
#     8   8   4   4   8   4
#     4  10  20  37  59  92 124 164 199 250 313 362
#     4  11  21  34  63  98 128 157 199 260 316 374
#     4  12  22  44  60  94 128 164 210 254 316 362
#     4  10  22  40  66  86 129 172 197 260 314 364
#     4  11  23  38  63  96 127 163 205 255 318 367
#     4  12  22  42  66  86 131 166 205 264 300 384
#
# _framework density 17.929801000000001
#
# number of rings (size 3 to 8) (size 9 to 14) (size 15 to 20)
#    0.667    0.444    6.667    1.333    0.000    2.667 
#    0.000    3.333    0.000    0.000    0.000    0.000 
#    0.000    0.000    0.000    0.000    0.000    0.000 
#
# Total GULP energy -223154.099329 kJ/mol
# GULP energy per Si atom -12397.449963 kJ/mol
# Density = 1.788899 g / cm^3
# Si number density = 17.929801 Si / 1000 Ang^3
#
#
#
# Elastic Constant Matrix: (Units=GPa)
#
#
# Indices 1 2 3 4 5 6 
#
# 1 112.2854 53.6534 47.0725 0.0000 0.0000 0.0000
# 2 53.6534 123.1935 75.4197 0.0000 0.0000 0.0000
# 3 47.0725 75.4197 148.4709 0.0000 0.0000 0.0000
# 4 0.0000 0.0000 0.0000 27.7951 0.0000 0.0000
# 5 0.0000 0.0000 0.0000 0.0000 16.5794 0.0000
# 6 0.0000 0.0000 0.0000 0.0000 0.0000 38.6322
#
#
#
# Elastic Compliance Matrix: (Units=1/GPa)
#
#
# Indices 1 2 3 4 5 6 
#
# 1 0.011502 -0.004030 -0.001599 0.000000 0.000000 0.000000
# 2 -0.004030 0.013193 -0.005424 0.000000 0.000000 0.000000
# 3 -0.001599 -0.005424 0.009998 0.000000 0.000000 0.000000
# 4 0.000000 0.000000 0.000000 0.035978 0.000000 0.000000
# 5 0.000000 0.000000 0.000000 0.000000 0.060316 0.000000
# 6 0.000000 0.000000 0.000000 0.000000 0.000000 0.025885
#
#
# Mechanical properties :
#
#
# Convention : Reuss Voigt Hill
#
# Bulk Modulus (GPa) = 79.45609 81.80456 80.63032
# Shear Modulus (GPa) = 27.29641 30.45496 28.87568
#
# Velocity S-wave (km/s) = 3.90603 4.12584 4.01744
# Velocity P-wave (km/s) = 8.04699 8.27168 8.16011
#
# Compressibility (1/GPa) = 0.01258557
#
# Stress axis : x y z
#
# Youngs Moduli (GPa) = 86.93997 75.79662 100.02271
#
# Poissons Ratio (x) = 0.30548 0.15998
# Poissons Ratio (y) = 0.35039 0.54253
# Poissons Ratio (z) = 0.13906 0.41112
#
# Static dielectric constant tensor:
#      x y z
#    x 3.572000 0.000000 0.000000 
#    y 0.000000 3.295800 0.000000 
#    z 0.000000 0.000000 3.286840 
# 
# 
# High freq. dielectric constant tensor:
#      x y z
#    x 1.701820 0.000000 0.000000 
#    y 0.000000 1.691140 0.000000 
#    z 0.000000 0.000000 1.678770 
# 
# From -- ./inp_files/13631.got.cif
#   From: 2010.03.12/outbox.cif.g09.slc.cpg/sg46_7_cif.got.tgz:13631.got - 2010.04.14 02:56:35.
