data_PCOD8192810
_publ_section_title
;
Structure prediction by ZEFSAII (Michael W. Deem and Ramdas Pophale) SiO2 
 PCOD8192810
Probable space group: I M A 2
;
_chemical_formula_sum "Si O2"
_cell_formula_units_Z 56
_cell_length_a 15.570014
_cell_length_b 17.336706
_cell_length_c 9.915084
_cell_angle_alpha 90.000000
_cell_angle_beta 90.000000
_cell_angle_gamma 90.000000
_cell_volume 2676.405942
_symmetry_space_group_name_H-M "I M A 2"
_symmetry_group_IT_number 46
_symmetry_cell_setting 'orthorhombic'
loop_
_space_group_symop_operation_xyz
x,y,z
-x,-y,z
1/2-x,y,z
1/2+x,-y,z
1/2+x,1/2+y,1/2+z
1/2-x,1/2-y,1/2+z
-x,1/2+y,1/2+z
x,1/2-y,1/2+z
loop_
_atom_site_type_symbol
_atom_site_label
_atom_site_fract_x
_atom_site_fract_y
_atom_site_fract_z
Si Si1 0.415093 0.576003 0.798230
Si Si2 0.594011 0.593942 0.447755
Si Si3 0.653023 0.933013 0.453639
Si Si4 0.403221 0.573238 0.488695
Si Si5 0.151597 0.324517 0.193566
Si Si6 0.589505 0.658618 0.731201
Si Si7 0.750000 0.183840 0.002707
Si Si8 0.250000 0.673329 0.812864
O O1 0.412852 0.499969 0.897127
O O2 0.406448 0.547105 0.645061
O O3 0.498971 0.630909 0.799375
O O4 0.334104 0.624874 0.843787
O O5 0.491886 0.609100 0.435379
O O6 0.617502 0.505699 0.410916
O O7 0.647049 0.645877 0.345956
O O8 0.619736 0.612790 0.599839
O O9 0.750000 0.966013 0.472933
O O10 0.619011 0.892609 0.592251
O O11 0.658534 0.862944 0.345618
O O12 0.332707 0.636327 0.458849
O O13 0.250000 0.302606 0.158437
O O14 0.090542 0.248996 0.189998
O O15 0.750000 0.204734 0.160285
O O16 0.750000 0.260311 0.920031
#
# Coordination Sequence:
#
# PCOD8192810 Si02
#       8
#     8   8   8   8   8   8   4   4
#     4  10  20  41  69  92 123 174 223 265 315 397
#     4  10  21  41  64  89 124 166 212 267 312 384
#     4  11  22  41  65  96 135 172 222 268 327 402
#     4   9  20  39  66  91 120 162 221 257 310 387
#     4  11  26  42  59 100 139 166 209 276 343 386
#     4  11  22  39  69  92 125 173 223 261 321 395
#     4  10  22  40  64  96 123 163 210 268 321 387
#     4  10  22  42  62  94 129 163 218 266 327 383
#
# _framework density 20.923583000000001
#
# number of rings (size 3 to 8) (size 9 to 14) (size 15 to 20)
#    0.000    1.714    2.143    1.714    3.000    2.286 
#   10.286    0.000    0.000    0.000    0.000    0.000 
#    0.000    0.000    0.000    0.000    0.000    0.000 
#
# Total GULP energy -346983.784914 kJ/mol
# GULP energy per Si atom -12392.278033 kJ/mol
# Density = 2.087596 g / cm^3
# Si number density = 20.923583 Si / 1000 Ang^3
#
#
#
# Elastic Constant Matrix: (Units=GPa)
#
#
# Indices 1 2 3 4 5 6 
#
# 1 71.7445 51.6229 32.7872 0.0000 0.0000 0.0000
# 2 51.6229 122.2275 42.2311 0.0000 0.0000 0.0000
# 3 32.7872 42.2311 77.1080 0.0000 0.0000 0.0000
# 4 0.0000 0.0000 0.0000 -5.3520 0.0000 0.0000
# 5 0.0000 0.0000 0.0000 0.0000 24.4276 0.0000
# 6 0.0000 0.0000 0.0000 0.0000 0.0000 32.1170
#
#
#
# Elastic Compliance Matrix: (Units=1/GPa)
#
#
# Indices 1 2 3 4 5 6 
#
# 1 0.021568 -0.007327 -0.005158 0.000000 0.000000 0.000000
# 2 -0.007327 0.012580 -0.003774 0.000000 0.000000 0.000000
# 3 -0.005158 -0.003774 0.017229 0.000000 0.000000 0.000000
# 4 0.000000 0.000000 0.000000 -0.186845 0.000000 0.000000
# 5 0.000000 0.000000 0.000000 0.000000 0.040937 0.000000
# 6 0.000000 0.000000 0.000000 0.000000 0.000000 0.031136
#
#
# Mechanical properties :
#
#
# Convention : Reuss Voigt Hill
#
# Bulk Modulus (GPa) = 53.02709 58.26250 55.64479
# Shear Modulus (GPa) = -203.33896 19.86777 -91.73559
#
# Velocity S-wave (km/s) = -9.86877 3.08480 -6.62860
# Velocity P-wave (km/s) = 10.22050 6.37133 5.65088
#
# Compressibility (1/GPa) = 0.01885829
#
# Stress axis : x y z
#
# Youngs Moduli (GPa) = 46.36602 79.49036 58.04088
#
# Poissons Ratio (x) = 0.58242 0.29937
# Poissons Ratio (y) = 0.33972 0.21907
# Poissons Ratio (z) = 0.23915 0.30004
#
# Static dielectric constant tensor:
#      x y z
#    x 3.736790 0.000000 0.000000 
#    y 0.000000 5.633750 0.000000 
#    z 0.000000 0.000000 3.634560 
# 
# 
# High freq. dielectric constant tensor:
#      x y z
#    x 1.819410 0.000000 0.000000 
#    y 0.000000 1.821550 0.000000 
#    z 0.000000 0.000000 1.804200 
# 
# From -- ./inp_files/11193.got.cif
#   From: 2010.03.12/outbox.cif.g09.slc.cpg/sg46_6_cif.got.tgz:11193.got - 2010.04.14 02:56:35.
