data_PCOD8192702
_publ_section_title
;
Structure prediction by ZEFSAII (Michael W. Deem and Ramdas Pophale) SiO2 
 PCOD8192702
Probable space group: I M A 2
;
_chemical_formula_sum "Si O2"
_cell_formula_units_Z 56
_cell_length_a 14.894972
_cell_length_b 12.677037
_cell_length_c 13.157402
_cell_angle_alpha 90.000000
_cell_angle_beta 90.000000
_cell_angle_gamma 90.000000
_cell_volume 2484.434738
_symmetry_space_group_name_H-M "I M A 2"
_symmetry_group_IT_number 46
_symmetry_cell_setting 'orthorhombic'
loop_
_space_group_symop_operation_xyz
x,y,z
-x,-y,z
1/2-x,y,z
1/2+x,-y,z
1/2+x,1/2+y,1/2+z
1/2-x,1/2-y,1/2+z
-x,1/2+y,1/2+z
x,1/2-y,1/2+z
loop_
_atom_site_type_symbol
_atom_site_label
_atom_site_fract_x
_atom_site_fract_y
_atom_site_fract_z
Si Si1 0.395361 0.984405 0.577250
Si Si2 0.844647 0.892364 0.385608
Si Si3 0.576076 0.583315 0.283130
Si Si4 0.855677 0.277645 0.975545
Si Si5 0.845901 0.836078 0.975650
Si Si6 0.021449 0.619723 0.576576
Si Si7 0.512205 0.312925 0.791852
O O1 0.343597 0.033167 0.483127
O O2 0.367938 0.042681 0.683369
O O3 0.500000 0.000000 0.562541
O O4 0.370941 0.859435 0.570077
O O5 0.750000 0.917887 0.326814
O O6 0.839984 0.774465 0.422603
O O7 0.933736 0.899024 0.317398
O O8 0.500000 0.500000 0.305241
O O9 0.637306 0.581404 0.383580
O O10 0.528735 0.697405 0.269698
O O11 0.750000 0.262602 0.952021
O O12 0.909087 0.317718 0.875655
O O13 0.900586 0.165394 0.003934
O O14 0.750000 0.865245 0.027951
O O15 0.925191 0.824512 0.057628
O O16 0.055642 0.641073 0.689901
O O17 0.000000 0.500000 0.549982
#
# Coordination Sequence:
#
# PCOD8192702 Si02
#       7
#     8   8   8   8   8   8   8
#     4  11  20  39  71 103 136 184 232 296 362 416
#     4  10  20  37  65  98 133 170 224 288 351 414
#     4  10  20  38  68 100 135 177 232 289 356 417
#     4  12  27  48  73 106 147 188 241 302 358 430
#     4  10  21  39  63  97 135 174 225 286 350 418
#     4  12  26  47  69  97 139 191 234 287 360 429
#     4  11  24  44  69 102 138 188 239 293 352 426
#
# _framework density 22.540338999999999
#
# number of rings (size 3 to 8) (size 9 to 14) (size 15 to 20)
#    0.000    1.143    4.286    3.429    2.000    2.857 
#    0.000    2.857    0.000    0.000    0.000    0.000 
#    0.000    0.000    0.000    0.000    0.000    0.000 
#
# Total GULP energy -346894.276355 kJ/mol
# GULP energy per Si atom -12389.081298 kJ/mol
# Density = 2.248904 g / cm^3
# Si number density = 22.540339 Si / 1000 Ang^3
#
#
#
# Elastic Constant Matrix: (Units=GPa)
#
#
# Indices 1 2 3 4 5 6 
#
# 1 153.3112 15.0275 31.1181 0.0000 0.0000 0.0000
# 2 15.0275 65.6754 25.1164 0.0000 0.0000 0.0000
# 3 31.1181 25.1164 88.9852 0.0000 0.0000 0.0000
# 4 0.0000 0.0000 0.0000 28.7512 0.0000 0.0000
# 5 0.0000 0.0000 0.0000 0.0000 13.9155 0.0000
# 6 0.0000 0.0000 0.0000 0.0000 0.0000 45.3470
#
#
#
# Elastic Compliance Matrix: (Units=1/GPa)
#
#
# Indices 1 2 3 4 5 6 
#
# 1 0.007054 -0.000752 -0.002255 0.000000 0.000000 0.000000
# 2 -0.000752 0.017149 -0.004577 0.000000 0.000000 0.000000
# 3 -0.002255 -0.004577 0.013318 0.000000 0.000000 0.000000
# 4 0.000000 0.000000 0.000000 0.034781 0.000000 0.000000
# 5 0.000000 0.000000 0.000000 0.000000 0.071862 0.000000
# 6 0.000000 0.000000 0.000000 0.000000 0.000000 0.022052
#
#
# Mechanical properties :
#
#
# Convention : Reuss Voigt Hill
#
# Bulk Modulus (GPa) = 44.73568 50.05509 47.39538
# Shear Modulus (GPa) = 26.47805 33.38340 29.93072
#
# Velocity S-wave (km/s) = 3.43110 3.85262 3.64795
# Velocity P-wave (km/s) = 5.96545 6.48424 6.23025
#
# Compressibility (1/GPa) = 0.02235352
#
# Stress axis : x y z
#
# Youngs Moduli (GPa) = 141.76365 58.31251 75.08499
#
# Poissons Ratio (x) = 0.04384 0.16928
# Poissons Ratio (y) = 0.10658 0.34370
# Poissons Ratio (z) = 0.31962 0.26692
#
# Static dielectric constant tensor:
#      x y z
#    x 7.030930 0.000000 0.000000 
#    y 0.000000 4.229210 0.000000 
#    z 0.000000 0.000000 4.171570 
# 
# 
# High freq. dielectric constant tensor:
#      x y z
#    x 1.884030 0.000000 0.000000 
#    y 0.000000 1.892170 0.000000 
#    z 0.000000 0.000000 1.874790 
# 
# From -- ./inp_files/15931.got.cif
#   From: 2010.03.12/outbox.cif.g09.slc.cpg/sg46_8_cif.got.tgz:15931.got - 2010.04.14 02:56:35.
