data_PCOD8192672
_publ_section_title
;
Structure prediction by ZEFSAII (Michael W. Deem and Ramdas Pophale) SiO2 
 PCOD8192672
Probable space group: I M A 2
;
_chemical_formula_sum "Si O2"
_cell_formula_units_Z 64
_cell_length_a 8.436054
_cell_length_b 33.402004
_cell_length_c 11.631538
_cell_angle_alpha 90.000000
_cell_angle_beta 90.000000
_cell_angle_gamma 90.000000
_cell_volume 3277.547682
_symmetry_space_group_name_H-M "I M A 2"
_symmetry_group_IT_number 46
_symmetry_cell_setting 'orthorhombic'
loop_
_space_group_symop_operation_xyz
x,y,z
-x,-y,z
1/2-x,y,z
1/2+x,-y,z
1/2+x,1/2+y,1/2+z
1/2-x,1/2-y,1/2+z
-x,1/2+y,1/2+z
x,1/2-y,1/2+z
loop_
_atom_site_type_symbol
_atom_site_label
_atom_site_fract_x
_atom_site_fract_y
_atom_site_fract_z
Si Si1 0.569625 0.895119 0.439130
Si Si2 0.934866 0.124544 0.904034
Si Si3 0.566498 0.723059 0.007882
Si Si4 0.938108 0.957441 0.263694
Si Si5 0.562384 0.647446 0.159838
Si Si6 0.571425 0.176170 0.320481
Si Si7 0.567037 0.812418 0.080214
Si Si8 0.438261 0.043998 0.003346
O O1 0.750000 0.907879 0.453174
O O2 0.483679 0.928766 0.361083
O O3 0.502998 0.886259 0.567079
O O4 0.557967 0.854675 0.366963
O O5 0.750000 0.128078 0.931724
O O6 0.965730 0.138407 0.774148
O O7 0.989909 0.078585 0.922469
O O8 0.033030 0.154380 0.984533
O O9 0.750000 0.717866 0.976718
O O10 0.521336 0.691791 0.110298
O O11 0.525713 0.768106 0.039766
O O12 0.462955 0.716421 0.892623
O O13 0.750000 0.955437 0.265818
O O14 0.995041 0.946670 0.134390
O O15 0.000000 0.000000 0.301333
O O16 0.750000 0.643967 0.183445
O O17 0.750000 0.161294 0.343221
O O18 0.548429 0.180936 0.186103
O O19 0.750000 0.816086 0.117145
O O20 0.250000 0.044303 0.991888
O O21 0.500000 0.000000 0.965204
#
# Coordination Sequence:
#
# PCOD8192672 Si02
#       8
#     8   8   8   8   8   8   8   8
#     4   9  18  36  59  80 108 150 195 228 269 340
#     4  12  25  39  57  87 120 154 197 248 302 357
#     4   9  21  40  61  81 107 150 197 236 282 347
#     4   9  18  32  55  86 115 143 179 229 284 337
#     4   9  19  38  60  81 109 152 200 243 286 344
#     4  11  22  35  55  84 114 141 177 232 292 338
#     4  11  23  39  60  83 111 151 197 239 283 347
#     4  10  20  37  61  88 120 157 194 241 297 356
#
# _framework density 19.526795
#
# number of rings (size 3 to 8) (size 9 to 14) (size 15 to 20)
#    0.000    2.000    0.000    4.500    1.750    5.000 
#    0.000    0.625    0.000    1.500    0.000    0.000 
#    0.000    0.000    0.000    0.000    0.000    0.000 
#
# Total GULP energy -396638.666951 kJ/mol
# GULP energy per Si atom -12394.958342 kJ/mol
# Density = 1.948235 g / cm^3
# Si number density = 19.526795 Si / 1000 Ang^3
#
#
#
# Elastic Constant Matrix: (Units=GPa)
#
#
# Indices 1 2 3 4 5 6 
#
# 1 33.3198 13.3649 19.0878 -0.0003 -0.0001 0.0000
# 2 13.3649 102.5983 52.5245 -0.0024 -0.0005 -0.0003
# 3 19.0878 52.5245 111.4247 -0.0042 -0.0009 0.0002
# 4 -0.0003 -0.0024 -0.0042 15.8994 -0.0012 -0.0005
# 5 -0.0001 -0.0005 -0.0009 -0.0012 23.5761 -0.0004
# 6 0.0000 -0.0003 0.0002 -0.0005 -0.0004 22.9900
#
#
#
# Elastic Compliance Matrix: (Units=1/GPa)
#
#
# Indices 1 2 3 4 5 6 
#
# 1 0.033552 -0.001882 -0.004860 -0.000001 0.000000 0.000000
# 2 -0.001882 0.012953 -0.005783 0.000000 0.000000 0.000000
# 3 -0.004860 -0.005783 0.012533 0.000002 0.000000 0.000000
# 4 -0.000001 0.000000 0.000002 0.062896 0.000003 0.000001
# 5 0.000000 0.000000 0.000000 0.000003 0.042416 0.000001
# 6 0.000000 0.000000 0.000000 0.000001 0.000001 0.043497
#
#
# Mechanical properties :
#
#
# Convention : Reuss Voigt Hill
#
# Bulk Modulus (GPa) = 29.42408 46.36636 37.89522
# Shear Modulus (GPa) = 20.47278 23.31747 21.89513
#
# Velocity S-wave (km/s) = 3.24148 3.45936 3.35219
# Velocity P-wave (km/s) = 5.39545 6.30498 5.86787
#
# Compressibility (1/GPa) = 0.03398577
#
# Stress axis : x y z
#
# Youngs Moduli (GPa) = 29.80487 77.20407 79.78643
#
# Poissons Ratio (x) = 0.14533 0.38778
# Poissons Ratio (y) = 0.05610 0.46143
# Poissons Ratio (z) = 0.14486 0.44649
#
# Static dielectric constant tensor:
#      x y z
#    x 3.398380 0.000000 0.000000 
#    y 0.000000 3.709630 0.000000 
#    z 0.000000 0.000000 3.679940 
# 
# 
# High freq. dielectric constant tensor:
#      x y z
#    x 1.752040 0.000000 0.000000 
#    y 0.000000 1.761250 0.000000 
#    z 0.000000 0.000000 1.759440 
# 
# From -- ./inp_files/9737.got.cif
#   From: 2010.03.12/outbox.cif.g09.slc.cpg/sg46_5_cif.got.tgz:9737.got - 2010.04.14 02:56:35.
