data_PCOD8192583
_publ_section_title
;
Structure prediction by ZEFSAII (Michael W. Deem and Ramdas Pophale) SiO2 
 PCOD8192583
Probable space group: I M A 2
;
_chemical_formula_sum "Si O2"
_cell_formula_units_Z 60
_cell_length_a 12.912088
_cell_length_b 12.125523
_cell_length_c 19.264707
_cell_angle_alpha 90.000000
_cell_angle_beta 90.000000
_cell_angle_gamma 90.000000
_cell_volume 3016.194649
_symmetry_space_group_name_H-M "I M A 2"
_symmetry_group_IT_number 46
_symmetry_cell_setting 'orthorhombic'
loop_
_space_group_symop_operation_xyz
x,y,z
-x,-y,z
1/2-x,y,z
1/2+x,-y,z
1/2+x,1/2+y,1/2+z
1/2-x,1/2-y,1/2+z
-x,1/2+y,1/2+z
x,1/2-y,1/2+z
loop_
_atom_site_type_symbol
_atom_site_label
_atom_site_fract_x
_atom_site_fract_y
_atom_site_fract_z
Si Si1 0.372464 0.815684 0.782410
Si Si2 0.000000 0.500000 0.219395
Si Si3 0.871611 0.412832 0.028252
Si Si4 0.950010 0.244033 0.928070
Si Si5 0.128128 0.764901 0.135452
Si Si6 0.369922 0.318736 0.512086
Si Si7 0.370988 0.936730 0.029535
Si Si8 0.870669 0.620907 0.107535
O O1 0.250000 0.826010 0.795539
O O2 0.429388 0.758029 0.846528
O O3 0.399334 0.738257 0.716410
O O4 0.418527 0.936996 0.768730
O O5 0.936181 0.590987 0.175535
O O6 0.750000 0.399904 0.023602
O O7 0.915429 0.363754 0.956681
O O8 0.917046 0.342556 0.094305
O O9 0.902709 0.539925 0.042989
O O10 0.071789 0.231209 0.945201
O O11 0.887684 0.143063 0.963717
O O12 0.250000 0.759271 0.124716
O O13 0.085599 0.875705 0.098753
O O14 0.250000 0.320777 0.492226
O O15 0.420907 0.440607 0.523490
O O16 0.390352 0.246100 0.581613
O O17 0.250000 0.960752 0.037035
O O18 0.750000 0.602245 0.125823
#
# Coordination Sequence:
#
# PCOD8192583 Si02
#       8
#     8   4   8   8   8   8   8   8
#     4  11  23  37  55  86 118 146 186 235 289 340
#     4  12  22  34  56  84 116 152 180 226 290 352
#     4   9  16  32  58  85 109 138 184 240 282 322
#     4  11  21  35  55  85 110 146 190 234 287 332
#     4   8  15  31  54  80 107 135 174 230 279 315
#     4  10  22  36  54  82 116 150 190 231 278 342
#     4   9  18  34  56  81 109 143 185 235 280 325
#     4  10  20  36  58  86 115 146 186 235 285 343
#
# _framework density 19.892614999999999
#
# number of rings (size 3 to 8) (size 9 to 14) (size 15 to 20)
#    0.000    2.133    1.333    3.600    3.733    0.000 
#    0.000    0.667    0.000    3.200    0.000    5.600 
#    0.000    0.000    0.000    0.000    0.000    0.000 
#
# Total GULP energy -371898.012222 kJ/mol
# GULP energy per Si atom -12396.600407 kJ/mol
# Density = 1.984734 g / cm^3
# Si number density = 19.892615 Si / 1000 Ang^3
#
#
#
# Elastic Constant Matrix: (Units=GPa)
#
#
# Indices 1 2 3 4 5 6 
#
# 1 44.1242 13.0400 17.1754 0.0000 0.0000 0.0000
# 2 13.0400 89.1789 30.4893 0.0000 0.0000 0.0000
# 3 17.1754 30.4893 121.4568 0.0000 0.0000 0.0000
# 4 0.0000 0.0000 0.0000 24.1199 0.0000 0.0000
# 5 0.0000 0.0000 0.0000 0.0000 26.9583 0.0000
# 6 0.0000 0.0000 0.0000 0.0000 0.0000 27.8591
#
#
#
# Elastic Compliance Matrix: (Units=1/GPa)
#
#
# Indices 1 2 3 4 5 6 
#
# 1 0.024533 -0.002627 -0.002810 0.000000 0.000000 0.000000
# 2 -0.002627 0.012547 -0.002778 0.000000 0.000000 0.000000
# 3 -0.002810 -0.002778 0.009328 0.000000 0.000000 0.000000
# 4 0.000000 0.000000 0.000000 0.041460 0.000000 0.000000
# 5 0.000000 0.000000 0.000000 0.000000 0.037094 0.000000
# 6 0.000000 0.000000 0.000000 0.000000 0.000000 0.035895
#
#
# Mechanical properties :
#
#
# Convention : Reuss Voigt Hill
#
# Bulk Modulus (GPa) = 33.35660 41.79657 37.57658
# Shear Modulus (GPa) = 26.69792 28.72447 27.71120
#
# Velocity S-wave (km/s) = 3.66745 3.80409 3.73639
# Velocity P-wave (km/s) = 5.89392 6.35229 6.12739
#
# Compressibility (1/GPa) = 0.02997908
#
# Stress axis : x y z
#
# Youngs Moduli (GPa) = 40.76086 79.69793 107.20203
#
# Poissons Ratio (x) = 0.20934 0.30123
# Poissons Ratio (y) = 0.10706 0.29784
# Poissons Ratio (z) = 0.11454 0.22143
#
# Static dielectric constant tensor:
#      x y z
#    x 3.915470 0.000000 0.000000 
#    y 0.000000 3.777580 0.000000 
#    z 0.000000 0.000000 3.310360 
# 
# 
# High freq. dielectric constant tensor:
#      x y z
#    x 1.808760 0.000000 0.000000 
#    y 0.000000 1.770490 0.000000 
#    z 0.000000 0.000000 1.733540 
# 
# From -- ./inp_files/19606.got.cif
#   From: 2010.03.12/outbox.cif.g09.slc.cpg/sg46_10_cif.got.tgz:19606.got - 2010.04.14 02:56:35.
