data_PCOD8192516
_publ_section_title
;
Structure prediction by ZEFSAII (Michael W. Deem and Ramdas Pophale) SiO2 
 PCOD8192516
Probable space group: I M A 2
;
_chemical_formula_sum "Si O2"
_cell_formula_units_Z 56
_cell_length_a 14.957347
_cell_length_b 9.330835
_cell_length_c 19.383628
_cell_angle_alpha 90.000000
_cell_angle_beta 90.000000
_cell_angle_gamma 90.000000
_cell_volume 2705.267065
_symmetry_space_group_name_H-M "I M A 2"
_symmetry_group_IT_number 46
_symmetry_cell_setting 'orthorhombic'
loop_
_space_group_symop_operation_xyz
x,y,z
-x,-y,z
1/2-x,y,z
1/2+x,-y,z
1/2+x,1/2+y,1/2+z
1/2-x,1/2-y,1/2+z
-x,1/2+y,1/2+z
x,1/2-y,1/2+z
loop_
_atom_site_type_symbol
_atom_site_label
_atom_site_fract_x
_atom_site_fract_y
_atom_site_fract_z
Si Si1 0.348969 0.733662 0.859100
Si Si2 0.150535 0.451907 0.798003
Si Si3 0.011352 0.337000 0.064579
Si Si4 0.151071 0.870480 0.045303
Si Si5 0.461693 0.300116 0.911553
Si Si6 0.411634 0.091523 0.149742
Si Si7 0.149486 0.475047 0.402832
O O1 0.250000 0.711199 0.894899
O O2 0.354188 0.627404 0.792838
O O3 0.430773 0.692987 0.909318
O O4 0.356930 0.904027 0.841635
O O5 0.250000 0.401838 0.819536
O O6 0.081770 0.410694 0.858208
O O7 0.129340 0.381557 0.724971
O O8 0.073426 0.248794 0.117426
O O9 0.000000 0.500000 0.091044
O O10 0.916115 0.257689 0.062322
O O11 0.061918 0.339151 0.990349
O O12 0.250000 0.803876 0.042737
O O13 0.152479 0.998094 0.101366
O O14 0.123936 0.941551 0.972798
O O15 0.423701 0.145364 0.889618
O O16 0.500000 0.000000 0.159061
O O17 0.250000 0.409632 0.406352
#
# Coordination Sequence:
#
# PCOD8192516 Si02
#       7
#     8   8   8   8   8   8   8
#     4  10  21  35  58  88 122 158 207 257 314 377
#     4  11  24  42  61  90 126 169 213 266 325 388
#     4  11  23  38  62  95 130 167 216 266 326 388
#     4  10  20  38  63  91 123 166 215 267 316 383
#     4  12  21  37  61  92 127 167 204 261 322 384
#     4  10  21  41  66  88 121 169 221 262 319 394
#     4  10  20  35  57  92 125 158 207 260 313 375
#
# _framework density 20.70036
#
# number of rings (size 3 to 8) (size 9 to 14) (size 15 to 20)
#    0.000    1.429    2.857    3.429    0.000    0.000 
#    0.000    6.429    0.000    0.000    0.000    0.000 
#    0.000    0.000    0.000    0.000    0.000    0.000 
#
# Total GULP energy -346924.061237 kJ/mol
# GULP energy per Si atom -12390.145044 kJ/mol
# Density = 2.065325 g / cm^3
# Si number density = 20.700360 Si / 1000 Ang^3
#
#
#
# Elastic Constant Matrix: (Units=GPa)
#
#
# Indices 1 2 3 4 5 6 
#
# 1 106.7934 42.5168 33.0867 0.0000 0.0000 0.0000
# 2 42.5168 150.0253 51.6111 0.0000 0.0000 0.0000
# 3 33.0867 51.6111 87.7500 0.0000 0.0000 0.0000
# 4 0.0000 0.0000 0.0000 29.2464 0.0000 0.0000
# 5 0.0000 0.0000 0.0000 0.0000 22.2665 0.0000
# 6 0.0000 0.0000 0.0000 0.0000 0.0000 25.0080
#
#
#
# Elastic Compliance Matrix: (Units=1/GPa)
#
#
# Indices 1 2 3 4 5 6 
#
# 1 0.011126 -0.002144 -0.002934 0.000000 0.000000 0.000000
# 2 -0.002144 0.008769 -0.004349 0.000000 0.000000 0.000000
# 3 -0.002934 -0.004349 0.015061 0.000000 0.000000 0.000000
# 4 0.000000 0.000000 0.000000 0.034192 0.000000 0.000000
# 5 0.000000 0.000000 0.000000 0.000000 0.044910 0.000000
# 6 0.000000 0.000000 0.000000 0.000000 0.000000 0.039987
#
#
# Mechanical properties :
#
#
# Convention : Reuss Voigt Hill
#
# Bulk Modulus (GPa) = 62.10727 66.55532 64.33129
# Shear Modulus (GPa) = 28.04753 29.79447 28.92100
#
# Velocity S-wave (km/s) = 3.68493 3.79795 3.74187
# Velocity P-wave (km/s) = 6.94068 7.17316 7.05788
#
# Compressibility (1/GPa) = 0.01610118
#
# Stress axis : x y z
#
# Youngs Moduli (GPa) = 89.87555 114.03346 66.39813
#
# Poissons Ratio (x) = 0.24446 0.19484
# Poissons Ratio (y) = 0.19267 0.28880
# Poissons Ratio (z) = 0.26374 0.49599
#
# Static dielectric constant tensor:
#      x y z
#    x 3.903040 0.000000 0.000000 
#    y 0.000000 4.026730 0.000000 
#    z 0.000000 0.000000 3.556250 
# 
# 
# High freq. dielectric constant tensor:
#      x y z
#    x 1.823300 0.000000 0.000000 
#    y 0.000000 1.810250 0.000000 
#    z 0.000000 0.000000 1.773150 
# 
# From -- ./inp_files/22010.got.cif
#   From: 2010.03.12/outbox.cif.g09.slc.cpg/sg46_12_cif.got.tgz:22010.got - 2010.04.14 02:56:35.
