data_PCOD8192305
_publ_section_title
;
Structure prediction by ZEFSAII (Michael W. Deem and Ramdas Pophale) SiO2 
 PCOD8192305
Probable space group: I M A 2
;
_chemical_formula_sum "Si O2"
_cell_formula_units_Z 64
_cell_length_a 8.696958
_cell_length_b 18.713075
_cell_length_c 20.887157
_cell_angle_alpha 90.000000
_cell_angle_beta 90.000000
_cell_angle_gamma 90.000000
_cell_volume 3399.318534
_symmetry_space_group_name_H-M "I M A 2"
_symmetry_group_IT_number 46
_symmetry_cell_setting 'orthorhombic'
loop_
_space_group_symop_operation_xyz
x,y,z
-x,-y,z
1/2-x,y,z
1/2+x,-y,z
1/2+x,1/2+y,1/2+z
1/2-x,1/2-y,1/2+z
-x,1/2+y,1/2+z
x,1/2-y,1/2+z
loop_
_atom_site_type_symbol
_atom_site_label
_atom_site_fract_x
_atom_site_fract_y
_atom_site_fract_z
Si Si1 0.069396 0.659381 0.022630
Si Si2 0.567098 0.923217 0.637957
Si Si3 0.565764 0.685803 0.522832
Si Si4 0.419643 0.154901 0.391971
Si Si5 0.565830 0.818179 0.749031
Si Si6 0.066771 0.342018 0.752951
Si Si7 0.432159 0.076419 0.130472
Si Si8 0.917958 0.676017 0.385991
O O1 0.250000 0.660944 0.032370
O O2 0.995629 0.601578 0.069664
O O3 0.000664 0.736668 0.039210
O O4 0.031528 0.634135 0.950176
O O5 0.750000 0.926012 0.635901
O O6 0.506245 0.869144 0.692790
O O7 0.500000 0.000000 0.655343
O O8 0.750000 0.693560 0.520108
O O9 0.509579 0.631044 0.576390
O O10 0.499909 0.656757 0.453770
O O11 0.250000 0.121640 0.404870
O O12 0.487999 0.129261 0.322983
O O13 0.401382 0.239117 0.385495
O O14 0.750000 0.818101 0.752600
O O15 0.504800 0.737693 0.736648
O O16 0.500153 0.846097 0.818783
O O17 0.250000 0.339496 0.752202
O O18 0.004558 0.396012 0.698864
O O19 0.250000 0.071921 0.130216
O O20 0.500000 0.000000 0.114226
O O21 0.750000 0.639758 0.387015
#
# Coordination Sequence:
#
# PCOD8192305 Si02
#       8
#     8   8   8   8   8   8   8   8
#     4  11  21  33  52  78 104 128 161 207 256 303
#     4  11  22  36  52  71 100 136 172 208 248 295
#     4   9  17  32  55  77  99 133 173 207 243 294
#     4   8  14  28  51  75  98 126 163 205 247 295
#     4   8  14  27  51  77  96 119 159 208 249 290
#     4   8  14  28  52  77  97 125 168 209 245 293
#     4  10  20  33  49  72 103 138 174 209 248 293
#     4   7  11  23  47  77  98 117 156 205 246 287
#
# _framework density 18.827302
#
# number of rings (size 3 to 8) (size 9 to 14) (size 15 to 20)
#    0.000    3.000    0.000    4.500    0.000    2.500 
#    0.000    1.875    0.000   18.000    0.000    0.000 
#    0.000    0.000    0.000    0.000    0.000    0.000 
#
# Total GULP energy -396466.281836 kJ/mol
# GULP energy per Si atom -12389.571307 kJ/mol
# Density = 1.878445 g / cm^3
# Si number density = 18.827302 Si / 1000 Ang^3
#
#
#
# Elastic Constant Matrix: (Units=GPa)
#
#
# Indices 1 2 3 4 5 6 
#
# 1 41.0587 12.7047 17.3354 0.0000 0.0000 0.0000
# 2 12.7047 49.6630 20.7302 0.0000 0.0000 0.0000
# 3 17.3354 20.7302 119.8292 0.0000 0.0000 0.0000
# 4 0.0000 0.0000 0.0000 9.6555 0.0000 0.0000
# 5 0.0000 0.0000 0.0000 0.0000 12.0229 0.0000
# 6 0.0000 0.0000 0.0000 0.0000 0.0000 22.4456
#
#
#
# Elastic Compliance Matrix: (Units=1/GPa)
#
#
# Indices 1 2 3 4 5 6 
#
# 1 0.027392 -0.005770 -0.002965 0.000000 0.000000 0.000000
# 2 -0.005770 0.022918 -0.003130 0.000000 0.000000 0.000000
# 3 -0.002965 -0.003130 0.009316 0.000000 0.000000 0.000000
# 4 0.000000 0.000000 0.000000 0.103568 0.000000 0.000000
# 5 0.000000 0.000000 0.000000 0.000000 0.083175 0.000000
# 6 0.000000 0.000000 0.000000 0.000000 0.000000 0.044552
#
#
# Mechanical properties :
#
#
# Convention : Reuss Voigt Hill
#
# Bulk Modulus (GPa) = 27.85748 34.67682 31.26715
# Shear Modulus (GPa) = 15.30847 19.47684 17.39266
#
# Velocity S-wave (km/s) = 2.85458 3.21985 3.04270
# Velocity P-wave (km/s) = 5.06886 5.68169 5.38400
#
# Compressibility (1/GPa) = 0.03589700
#
# Stress axis : x y z
#
# Youngs Moduli (GPa) = 36.50642 43.63321 107.34697
#
# Poissons Ratio (x) = 0.25176 0.31824
# Poissons Ratio (y) = 0.21064 0.33601
# Poissons Ratio (z) = 0.10823 0.13658
#
# Static dielectric constant tensor:
#      x y z
#    x 2.985290 0.000000 0.000000 
#    y 0.000000 2.932780 0.000000 
#    z 0.000000 0.000000 4.220830 
# 
# 
# High freq. dielectric constant tensor:
#      x y z
#    x 1.683990 0.000000 0.000000 
#    y 0.000000 1.693980 0.000000 
#    z 0.000000 0.000000 1.760780 
# 
# From -- ./inp_files/21330.got.cif
#   From: 2010.03.12/outbox.cif.g09.slc.cpg/sg46_11_cif.got.tgz:21330.got - 2010.04.14 02:56:35.
