data_PCOD8192060
_publ_section_title
;
Structure prediction by ZEFSAII (Michael W. Deem and Ramdas Pophale) SiO2 
 PCOD8192060
Probable space group: I M A 2
;
_chemical_formula_sum "Si O2"
_cell_formula_units_Z 48
_cell_length_a 9.186403
_cell_length_b 25.461519
_cell_length_c 12.016976
_cell_angle_alpha 90.000000
_cell_angle_beta 90.000000
_cell_angle_gamma 90.000000
_cell_volume 2810.767977
_symmetry_space_group_name_H-M "I M A 2"
_symmetry_group_IT_number 46
_symmetry_cell_setting 'orthorhombic'
loop_
_space_group_symop_operation_xyz
x,y,z
-x,-y,z
1/2-x,y,z
1/2+x,-y,z
1/2+x,1/2+y,1/2+z
1/2-x,1/2-y,1/2+z
-x,1/2+y,1/2+z
x,1/2-y,1/2+z
loop_
_atom_site_type_symbol
_atom_site_label
_atom_site_fract_x
_atom_site_fract_y
_atom_site_fract_z
Si Si1 0.921772 0.142729 0.615480
Si Si2 0.078632 0.553243 0.694563
Si Si3 0.421865 0.147510 0.075700
Si Si4 0.086178 0.259421 0.151471
Si Si5 0.086250 0.159292 0.822655
Si Si6 0.580611 0.052141 0.450531
O O1 0.750000 0.146953 0.622330
O O2 0.973826 0.100604 0.524740
O O3 0.987228 0.199742 0.580134
O O4 0.984692 0.125896 0.737488
O O5 0.250000 0.547776 0.672852
O O6 0.042780 0.565241 0.823015
O O7 0.000000 0.500000 0.656100
O O8 0.014532 0.599903 0.621950
O O9 0.250000 0.136253 0.088487
O O10 0.470499 0.199874 0.142415
O O11 0.470024 0.155656 0.947985
O O12 0.250000 0.261550 0.102405
O O13 0.082910 0.279466 0.280519
O O14 0.250000 0.136843 0.814410
O O15 0.750000 0.041771 0.467189
O O16 0.500000 0.000000 0.491455
#
# Coordination Sequence:
#
# PCOD8192060 Si02
#       6
#     8   8   8   8   8   8
#     4   9  17  32  51  74 105 136 168 211 256 299
#     4  10  21  37  54  76 105 134 172 217 262 310
#     4  10  19  34  56  78 104 138 175 213 258 309
#     4   8  17  32  50  74 104 138 170 206 250 301
#     4   8  17  33  50  73 106 137 170 211 251 300
#     4   9  19  34  53  77 105 135 170 214 258 306
#
# _framework density 17.077183999999999
#
# number of rings (size 3 to 8) (size 9 to 14) (size 15 to 20)
#    1.000    2.000    0.000    0.500    0.000    4.667 
#    0.000    2.500    0.000    2.000    0.000    0.000 
#    0.000    0.000    0.000    0.000    0.000    0.000 
#
# Total GULP energy -297384.888784 kJ/mol
# GULP energy per Si atom -12391.037033 kJ/mol
# Density = 1.703832 g / cm^3
# Si number density = 17.077184 Si / 1000 Ang^3
#
#
#
# Elastic Constant Matrix: (Units=GPa)
#
#
# Indices 1 2 3 4 5 6 
#
# 1 70.4204 62.5602 44.6618 -0.0006 0.0002 0.0001
# 2 62.5602 143.8456 71.7664 -0.0007 0.0000 0.0000
# 3 44.6618 71.7664 93.5125 -0.0038 -0.0004 -0.0001
# 4 -0.0006 -0.0007 -0.0038 31.1133 0.0000 -0.0001
# 5 0.0002 0.0000 -0.0004 0.0000 23.3078 -0.0003
# 6 0.0001 0.0000 -0.0001 -0.0001 -0.0003 31.7744
#
#
#
# Elastic Compliance Matrix: (Units=1/GPa)
#
#
# Indices 1 2 3 4 5 6 
#
# 1 0.024952 -0.007950 -0.005815 0.000000 0.000000 0.000000
# 2 -0.007950 0.013799 -0.006793 -0.000001 0.000000 0.000000
# 3 -0.005815 -0.006793 0.018684 0.000002 0.000000 0.000000
# 4 0.000000 -0.000001 0.000002 0.032141 0.000000 0.000000
# 5 0.000000 0.000000 0.000000 0.000000 0.042904 0.000000
# 6 0.000000 0.000000 0.000000 0.000000 0.000000 0.031472
#
#
# Mechanical properties :
#
#
# Convention : Reuss Voigt Hill
#
# Bulk Modulus (GPa) = 61.28356 73.97279 67.62818
# Shear Modulus (GPa) = 23.75219 25.82512 24.78865
#
# Velocity S-wave (km/s) = 3.73349 3.89300 3.81408
# Velocity P-wave (km/s) = 7.38575 7.97609 7.68659
#
# Compressibility (1/GPa) = 0.01631759
#
# Stress axis : x y z
#
# Youngs Moduli (GPa) = 40.07751 72.47147 53.52116
#
# Poissons Ratio (x) = 0.57618 0.31125
# Poissons Ratio (y) = 0.31863 0.36355
# Poissons Ratio (z) = 0.23307 0.49227
#
# Static dielectric constant tensor:
#      x y z
#    x 3.127540 0.000000 0.000000 
#    y 0.000000 3.134310 0.000000 
#    z 0.000000 0.000000 3.104950 
# 
# 
# High freq. dielectric constant tensor:
#      x y z
#    x 1.659580 0.000000 0.000000 
#    y 0.000000 1.647750 0.000000 
#    z 0.000000 0.000000 1.646110 
# 
# From -- ./inp_files/9404.got.cif
#   From: 2010.03.12/outbox.cif.g09.slc.cpg/sg46_5_cif.got.tgz:9404.got - 2010.04.14 02:56:35.
