data_PCOD8192596
_publ_section_title
;
Structure prediction by ZEFSAII (Michael W. Deem and Ramdas Pophale) SiO2 
 PCOD8192596
Probable space group: I M A 2
;
_chemical_formula_sum "Si O2"
_cell_formula_units_Z 48
_cell_length_a 8.633126
_cell_length_b 30.380418
_cell_length_c 9.034334
_cell_angle_alpha 90.000000
_cell_angle_beta 90.000000
_cell_angle_gamma 90.000000
_cell_volume 2369.506841
_symmetry_space_group_name_H-M "I M A 2"
_symmetry_group_IT_number 46
_symmetry_cell_setting 'orthorhombic'
loop_
_space_group_symop_operation_xyz
x,y,z
-x,-y,z
1/2-x,y,z
1/2+x,-y,z
1/2+x,1/2+y,1/2+z
1/2-x,1/2-y,1/2+z
-x,1/2+y,1/2+z
x,1/2-y,1/2+z
loop_
_atom_site_type_symbol
_atom_site_label
_atom_site_fract_x
_atom_site_fract_y
_atom_site_fract_z
Si Si1 0.569459 0.545998 0.716560
Si Si2 0.431326 0.546480 0.030967
Si Si3 0.430099 0.289681 0.015408
Si Si4 0.429504 0.368170 0.540890
Si Si5 0.570060 0.875278 0.701412
Si Si6 0.429181 0.787359 0.198075
O O1 0.500000 0.500000 0.659573
O O2 0.750000 0.539510 0.742278
O O3 0.532608 0.582485 0.593697
O O4 0.498080 0.561040 0.872452
O O5 0.500000 0.500000 0.083665
O O6 0.250000 0.541171 0.015899
O O7 0.471234 0.582928 0.152217
O O8 0.250000 0.289598 0.970608
O O9 0.535219 0.287057 0.871281
O O10 0.475713 0.333624 0.102774
O O11 0.463090 0.248120 0.118466
O O12 0.250000 0.356539 0.569956
O O13 0.472981 0.363785 0.369464
O O14 0.535805 0.335263 0.632982
O O15 0.750000 0.887237 0.685883
O O16 0.250000 0.775595 0.173469
#
# Coordination Sequence:
#
# PCOD8192596 Si02
#       6
#     8   8   8   8   8   8
#     4  10  20  36  59  85 115 152 196 244 293 350
#     4  11  22  37  59  85 116 153 194 241 293 350
#     4  11  23  41  65  88 118 161 202 240 293 362
#     4  10  22  40  61  86 119 159 199 239 292 358
#     4  10  22  40  61  86 116 153 198 243 288 346
#     4  12  25  40  62  92 124 154 195 251 299 344
#
# _framework density 20.257379
#
# number of rings (size 3 to 8) (size 9 to 14) (size 15 to 20)
#    0.000    1.333    0.000    7.000    0.000    9.333 
#    0.000    1.667    0.000    0.000    0.000    0.000 
#    0.000    0.000    0.000    0.000    0.000    0.000 
#
# Total GULP energy -297775.229602 kJ/mol
# GULP energy per Si atom -12407.301233 kJ/mol
# Density = 2.021127 g / cm^3
# Si number density = 20.257379 Si / 1000 Ang^3
#
#
#
# Elastic Constant Matrix: (Units=GPa)
#
#
# Indices 1 2 3 4 5 6 
#
# 1 91.3198 38.7133 27.1631 0.0008 -0.0007 -0.0004
# 2 38.7133 111.2431 49.0016 0.0047 0.0009 0.0007
# 3 27.1631 49.0016 106.5849 0.0084 0.0008 0.0021
# 4 0.0008 0.0047 0.0084 38.9867 0.0009 0.0011
# 5 -0.0007 0.0009 0.0008 0.0009 29.0424 0.0011
# 6 -0.0004 0.0007 0.0021 0.0011 0.0011 33.5851
#
#
#
# Elastic Compliance Matrix: (Units=1/GPa)
#
#
# Indices 1 2 3 4 5 6 
#
# 1 0.013047 -0.003857 -0.001552 0.000001 0.000000 0.000000
# 2 -0.003857 0.012412 -0.004723 0.000000 0.000000 0.000000
# 3 -0.001552 -0.004723 0.011949 -0.000002 0.000000 -0.000001
# 4 0.000001 0.000000 -0.000002 0.025650 -0.000001 -0.000001
# 5 0.000000 0.000000 0.000000 -0.000001 0.034432 -0.000001
# 6 0.000000 0.000000 -0.000001 -0.000001 -0.000001 0.029775
#
#
# Mechanical properties :
#
#
# Convention : Reuss Voigt Hill
#
# Bulk Modulus (GPa) = 58.32907 59.87821 59.10364
# Shear Modulus (GPa) = 32.62743 33.27415 32.95079
#
# Velocity S-wave (km/s) = 4.01764 4.05726 4.03750
# Velocity P-wave (km/s) = 7.09777 7.18132 7.13967
#
# Compressibility (1/GPa) = 0.01714411
#
# Stress axis : x y z
#
# Youngs Moduli (GPa) = 76.64476 80.56586 83.68704
#
# Poissons Ratio (x) = 0.31074 0.12987
# Poissons Ratio (y) = 0.29561 0.39529
# Poissons Ratio (z) = 0.11894 0.38055
#
# Static dielectric constant tensor:
#      x y z
#    x 3.642580 0.000000 0.000000 
#    y 0.000000 3.751990 -0.000010 
#    z 0.000000 -0.000010 3.671100 
# 
# 
# High freq. dielectric constant tensor:
#      x y z
#    x 1.793920 0.000000 0.000000 
#    y 0.000000 1.804530 0.000000 
#    z 0.000000 0.000000 1.795110 
# 
# From -- ./inp_files/3907.got.cif
#   From: 2010.03.12/outbox.cif.g09.slc.cpg/sg46_2_cif.got.tgz:3907.got - 2010.04.14 02:56:35.
