data_PCOD8192360
_publ_section_title
;
Structure prediction by ZEFSAII (Michael W. Deem and Ramdas Pophale) SiO2 
 PCOD8192360
Probable space group: I M A 2
;
_chemical_formula_sum "Si O2"
_cell_formula_units_Z 56
_cell_length_a 8.741389
_cell_length_b 13.619082
_cell_length_c 29.394951
_cell_angle_alpha 90.000000
_cell_angle_beta 90.000000
_cell_angle_gamma 90.000000
_cell_volume 3499.459909
_symmetry_space_group_name_H-M "I M A 2"
_symmetry_group_IT_number 46
_symmetry_cell_setting 'orthorhombic'
loop_
_space_group_symop_operation_xyz
x,y,z
-x,-y,z
1/2-x,y,z
1/2+x,-y,z
1/2+x,1/2+y,1/2+z
1/2-x,1/2-y,1/2+z
-x,1/2+y,1/2+z
x,1/2-y,1/2+z
loop_
_atom_site_type_symbol
_atom_site_label
_atom_site_fract_x
_atom_site_fract_y
_atom_site_fract_z
Si Si1 0.930661 0.298683 0.646830
Si Si2 0.929261 0.106596 0.969499
Si Si3 0.431366 0.103160 0.233787
Si Si4 0.068963 0.108677 0.059783
Si Si5 0.571932 0.393832 0.369923
Si Si6 0.931374 0.218897 0.782339
Si Si7 0.427244 0.602269 0.195223
O O1 0.750000 0.316948 0.644290
O O2 0.970558 0.185969 0.658674
O O3 0.998222 0.370222 0.684945
O O4 0.008827 0.320887 0.599066
O O5 0.750000 0.100909 0.980377
O O6 0.961169 0.154749 0.919813
O O7 0.000000 0.000000 0.965841
O O8 0.014075 0.158731 0.011968
O O9 0.250000 0.097678 0.229640
O O10 0.479780 0.180855 0.272282
O O11 0.500000 0.000000 0.249732
O O12 0.250000 0.101666 0.061479
O O13 0.000000 0.000000 0.065391
O O14 0.500000 0.500000 0.363336
O O15 0.750000 0.411384 0.363157
O O16 0.512804 0.318604 0.331622
O O17 0.750000 0.239199 0.779457
O O18 0.981087 0.137432 0.745180
O O19 0.500000 0.500000 0.180561
O O20 0.250000 0.582859 0.195807
#
# Coordination Sequence:
#
# PCOD8192360 Si02
#       7
#     8   8   8   8   8   8   8
#     4  10  20  34  48  66  91 120 151 185 223 267
#     4   9  16  27  42  63  90 121 151 183 223 268
#     4  11  21  33  48  67  90 119 151 187 225 266
#     4  11  20  30  45  66  91 121 152 187 225 268
#     4   9  17  28  45  67  94 124 154 186 223 264
#     4   9  18  32  46  66  93 122 153 185 220 261
#     4   9  18  30  46  65  90 119 147 181 219 256
#
# _framework density 16.002469999999999
#
# number of rings (size 3 to 8) (size 9 to 14) (size 15 to 20)
#    0.000    2.286    0.000    6.000    0.000    4.000 
#    0.000    0.000    0.000    0.000    0.000    1.000 
#    0.000    4.571    0.000    0.000    0.000    0.000 
#
# Total GULP energy -347079.662006 kJ/mol
# GULP energy per Si atom -12395.702214 kJ/mol
# Density = 1.596605 g / cm^3
# Si number density = 16.002470 Si / 1000 Ang^3
#
#
#
# Elastic Constant Matrix: (Units=GPa)
#
#
# Indices 1 2 3 4 5 6 
#
# 1 94.0329 43.4277 55.8568 0.0000 0.0000 0.0000
# 2 43.4277 93.7009 57.9564 0.0000 0.0000 0.0000
# 3 55.8568 57.9564 150.6086 0.0000 0.0000 0.0000
# 4 0.0000 0.0000 0.0000 17.2660 0.0000 0.0000
# 5 0.0000 0.0000 0.0000 0.0000 22.8056 0.0000
# 6 0.0000 0.0000 0.0000 0.0000 0.0000 25.6531
#
#
#
# Elastic Compliance Matrix: (Units=1/GPa)
#
#
# Indices 1 2 3 4 5 6 
#
# 1 0.015020 -0.004614 -0.003795 0.000000 0.000000 0.000000
# 2 -0.004614 0.015423 -0.004224 0.000000 0.000000 0.000000
# 3 -0.003795 -0.004224 0.009673 0.000000 0.000000 0.000000
# 4 0.000000 0.000000 0.000000 0.057917 0.000000 0.000000
# 5 0.000000 0.000000 0.000000 0.000000 0.043849 0.000000
# 6 0.000000 0.000000 0.000000 0.000000 0.000000 0.038982
#
#
# Mechanical properties :
#
#
# Convention : Reuss Voigt Hill
#
# Bulk Modulus (GPa) = 67.33993 72.53601 69.93797
# Shear Modulus (GPa) = 23.68783 25.21838 24.45310
#
# Velocity S-wave (km/s) = 3.85159 3.97407 3.91331
# Velocity P-wave (km/s) = 7.87096 8.15378 8.01362
#
# Compressibility (1/GPa) = 0.01485003
#
# Stress axis : x y z
#
# Youngs Moduli (GPa) = 66.57931 64.83702 103.38505
#
# Poissons Ratio (x) = 0.29916 0.39233
# Poissons Ratio (y) = 0.30719 0.43669
# Poissons Ratio (z) = 0.25266 0.27387
#
# Static dielectric constant tensor:
#      x y z
#    x 3.136850 0.000000 0.000000 
#    y 0.000000 2.846510 0.000000 
#    z 0.000000 0.000000 3.581620 
# 
# 
# High freq. dielectric constant tensor:
#      x y z
#    x 1.626810 0.000000 0.000000 
#    y 0.000000 1.579970 0.000000 
#    z 0.000000 0.000000 1.619210 
# 
# From -- ./inp_files/25252.got.cif
#   From: 2010.03.12/outbox.cif.g09.slc.cpg/sg46_13_cif.got.tgz:25252.got - 2010.04.14 02:56:35.
