data_PCOD8192736
_publ_section_title
;
Structure prediction by ZEFSAII (Michael W. Deem and Ramdas Pophale) SiO2 
 PCOD8192736
Probable space group: I M A 2
;
_chemical_formula_sum "Si O2"
_cell_formula_units_Z 56
_cell_length_a 14.045837
_cell_length_b 19.789891
_cell_length_c 10.254742
_cell_angle_alpha 90.000000
_cell_angle_beta 90.000000
_cell_angle_gamma 90.000000
_cell_volume 2850.465341
_symmetry_space_group_name_H-M "I M A 2"
_symmetry_group_IT_number 46
_symmetry_cell_setting 'orthorhombic'
loop_
_space_group_symop_operation_xyz
x,y,z
-x,-y,z
1/2-x,y,z
1/2+x,-y,z
1/2+x,1/2+y,1/2+z
1/2-x,1/2-y,1/2+z
-x,1/2+y,1/2+z
x,1/2-y,1/2+z
loop_
_atom_site_type_symbol
_atom_site_label
_atom_site_fract_x
_atom_site_fract_y
_atom_site_fract_z
Si Si1 0.857079 0.149122 0.305220
Si Si2 0.956606 0.397532 0.059313
Si Si3 0.640940 0.967000 0.630297
Si Si4 0.357611 0.592316 0.531605
Si Si5 0.027536 0.320314 0.478720
Si Si6 0.517851 0.266342 0.214680
Si Si7 0.641089 0.549792 0.433531
O O1 0.750000 0.156621 0.359894
O O2 0.928088 0.122857 0.414613
O O3 0.860423 0.094929 0.188493
O O4 0.891411 0.221824 0.254586
O O5 0.886802 0.455130 0.113112
O O6 0.942411 0.335954 0.157732
O O7 0.067312 0.420610 0.049660
O O8 0.750000 0.955234 0.583469
O O9 0.627577 0.946133 0.779388
O O10 0.250000 0.600726 0.478597
O O11 0.418298 0.653881 0.471755
O O12 0.402421 0.520649 0.486718
O O13 0.093139 0.385512 0.499824
O O14 0.047537 0.280708 0.342900
O O15 0.044498 0.271358 0.602903
O O16 0.750000 0.552375 0.476354
#
# Coordination Sequence:
#
# PCOD8192736 Si02
#       7
#     8   8   8   8   8   8   8
#     4  10  22  39  58  90 125 159 197 245 303 370
#     4  11  21  39  63  85 126 160 200 247 311 358
#     4  10  22  38  63  92 117 155 205 254 305 363
#     4   9  20  37  61  90 117 149 196 246 305 359
#     4  11  21  38  60  85 121 157 196 243 294 359
#     4  11  22  38  60  84 121 162 201 236 299 360
#     4  10  20  38  63  87 112 150 202 256 299 349
#
# _framework density 19.645914999999999
#
# number of rings (size 3 to 8) (size 9 to 14) (size 15 to 20)
#    0.000    1.714    2.857    1.714    2.000    1.714 
#   10.286    1.429    0.000    0.857    0.000    0.000 
#    0.000    0.000    0.000    0.000    0.000    0.000 
#
# Total GULP energy -347215.679011 kJ/mol
# GULP energy per Si atom -12400.559965 kJ/mol
# Density = 1.960120 g / cm^3
# Si number density = 19.645915 Si / 1000 Ang^3
#
#
#
# Elastic Constant Matrix: (Units=GPa)
#
#
# Indices 1 2 3 4 5 6 
#
# 1 87.5980 39.4596 29.0387 0.0000 0.0000 0.0000
# 2 39.4596 113.2980 44.0022 0.0000 0.0000 0.0000
# 3 29.0387 44.0022 89.5957 0.0000 0.0000 0.0000
# 4 0.0000 0.0000 0.0000 35.4552 0.0000 0.0000
# 5 0.0000 0.0000 0.0000 0.0000 21.3512 0.0000
# 6 0.0000 0.0000 0.0000 0.0000 0.0000 23.3503
#
#
#
# Elastic Compliance Matrix: (Units=1/GPa)
#
#
# Indices 1 2 3 4 5 6 
#
# 1 0.014033 -0.003857 -0.002654 0.000000 0.000000 0.000000
# 2 -0.003857 0.011966 -0.004627 0.000000 0.000000 0.000000
# 3 -0.002654 -0.004627 0.014294 0.000000 0.000000 0.000000
# 4 0.000000 0.000000 0.000000 0.028205 0.000000 0.000000
# 5 0.000000 0.000000 0.000000 0.000000 0.046836 0.000000
# 6 0.000000 0.000000 0.000000 0.000000 0.000000 0.042826
#
#
# Mechanical properties :
#
#
# Convention : Reuss Voigt Hill
#
# Bulk Modulus (GPa) = 55.50074 57.27697 56.38886
# Shear Modulus (GPa) = 26.81812 27.89742 27.35777
#
# Velocity S-wave (km/s) = 3.69870 3.77239 3.73573
# Velocity P-wave (km/s) = 6.82293 6.94208 6.88276
#
# Compressibility (1/GPa) = 0.01801778
#
# Stress axis : x y z
#
# Youngs Moduli (GPa) = 71.26127 83.56677 69.95999
#
# Poissons Ratio (x) = 0.32228 0.18568
# Poissons Ratio (y) = 0.27483 0.32371
# Poissons Ratio (z) = 0.18914 0.38666
#
# Static dielectric constant tensor:
#      x y z
#    x 3.487680 0.000000 0.000000 
#    y 0.000000 3.676420 0.000000 
#    z 0.000000 0.000000 3.599030 
# 
# 
# High freq. dielectric constant tensor:
#      x y z
#    x 1.748740 0.000000 0.000000 
#    y 0.000000 1.773280 0.000000 
#    z 0.000000 0.000000 1.763700 
# 
# From -- ./inp_files/5916.got.cif
#   From: 2010.03.12/outbox.cif.g09.slc.cpg/sg46_3_cif.got.tgz:5916.got - 2010.04.14 02:56:35.
