data_PCOD8192947
_publ_section_title
;
Structure prediction by ZEFSAII (Michael W. Deem and Ramdas Pophale) SiO2 
 PCOD8192947
Probable space group: I M A 2
;
_chemical_formula_sum "Si O2"
_cell_formula_units_Z 48
_cell_length_a 9.045038
_cell_length_b 22.691734
_cell_length_c 11.647534
_cell_angle_alpha 90.000000
_cell_angle_beta 90.000000
_cell_angle_gamma 90.000000
_cell_volume 2390.628357
_symmetry_space_group_name_H-M "I M A 2"
_symmetry_group_IT_number 46
_symmetry_cell_setting 'orthorhombic'
loop_
_space_group_symop_operation_xyz
x,y,z
-x,-y,z
1/2-x,y,z
1/2+x,-y,z
1/2+x,1/2+y,1/2+z
1/2-x,1/2-y,1/2+z
-x,1/2+y,1/2+z
x,1/2-y,1/2+z
loop_
_atom_site_type_symbol
_atom_site_label
_atom_site_fract_x
_atom_site_fract_y
_atom_site_fract_z
Si Si1 0.915504 0.148896 0.230970
Si Si2 0.927565 0.632867 0.322204
Si Si3 0.418419 0.779161 0.664418
Si Si4 0.086295 0.163226 0.460891
Si Si5 0.074959 0.564393 0.526392
Si Si6 0.089381 0.445042 0.115605
O O1 0.750000 0.141128 0.280381
O O2 0.926631 0.208830 0.158681
O O3 0.954502 0.092746 0.151300
O O4 0.028869 0.155259 0.333480
O O5 0.750000 0.637977 0.333561
O O6 0.980172 0.585760 0.227084
O O7 0.990389 0.695428 0.274660
O O8 0.001152 0.611062 0.439253
O O9 0.250000 0.801534 0.675232
O O10 0.482348 0.797704 0.541219
O O11 0.250000 0.192124 0.458259
O O12 0.096448 0.097907 0.508920
O O13 0.250000 0.558517 0.501022
O O14 0.000000 0.500000 0.518375
O O15 0.250000 0.467892 0.151299
O O16 0.000000 0.500000 0.071937
#
# Coordination Sequence:
#
# PCOD8192947 Si02
#       6
#     8   8   8   8   8   8
#     4  10  24  42  61  85 118 161 204 248 304 370
#     4  10  21  38  60  91 124 157 201 254 307 363
#     4  10  21  39  63  89 120 157 200 251 309 371
#     4  10  22  39  58  86 119 151 195 249 302 360
#     4  11  24  42  62  89 125 168 213 257 307 369
#     4   9  19  34  54  82 115 148 189 237 290 347
#
# _framework density 20.078403000000002
#
# number of rings (size 3 to 8) (size 9 to 14) (size 15 to 20)
#    0.000    2.000    0.000    3.500    2.333    8.667 
#    0.000    3.333    0.000    0.000    0.000    0.000 
#    0.000    0.000    0.000    0.000    0.000    0.000 
#
# Total GULP energy -297521.323115 kJ/mol
# GULP energy per Si atom -12396.721796 kJ/mol
# Density = 2.003270 g / cm^3
# Si number density = 20.078403 Si / 1000 Ang^3
#
#
#
# Elastic Constant Matrix: (Units=GPa)
#
#
# Indices 1 2 3 4 5 6 
#
# 1 122.3702 34.4896 47.4099 -0.0003 0.0000 0.0000
# 2 34.4896 66.6454 16.4028 0.0004 -0.0001 0.0000
# 3 47.4099 16.4028 97.8358 -0.0008 0.0006 0.0000
# 4 -0.0003 0.0004 -0.0008 8.9308 0.0002 0.0000
# 5 0.0000 -0.0001 0.0006 0.0002 36.4079 -0.0001
# 6 0.0000 0.0000 0.0000 0.0000 -0.0001 28.6215
#
#
#
# Elastic Compliance Matrix: (Units=1/GPa)
#
#
# Indices 1 2 3 4 5 6 
#
# 1 0.011316 -0.004700 -0.004695 0.000000 0.000000 0.000000
# 2 -0.004700 0.017603 -0.000674 -0.000001 0.000000 0.000000
# 3 -0.004695 -0.000674 0.012609 0.000001 0.000000 0.000000
# 4 0.000000 -0.000001 0.000001 0.111972 -0.000001 0.000000
# 5 0.000000 0.000000 0.000000 -0.000001 0.027467 0.000000
# 6 0.000000 0.000000 0.000000 0.000000 0.000000 0.034939
#
#
# Mechanical properties :
#
#
# Convention : Reuss Voigt Hill
#
# Bulk Modulus (GPa) = 46.75161 53.71733 50.23447
# Shear Modulus (GPa) = 20.56137 27.36197 23.96167
#
# Velocity S-wave (km/s) = 3.20356 3.69556 3.45832
# Velocity P-wave (km/s) = 6.08431 6.70980 6.40469
#
# Compressibility (1/GPa) = 0.02138964
#
# Stress axis : x y z
#
# Youngs Moduli (GPa) = 88.37132 56.80828 79.30539
#
# Poissons Ratio (x) = 0.26702 0.37238
# Poissons Ratio (y) = 0.41538 0.05341
# Poissons Ratio (z) = 0.41494 0.03826
#
# Static dielectric constant tensor:
#      x y z
#    x 4.048800 0.000000 0.000000 
#    y 0.000000 3.684020 0.000000 
#    z 0.000000 0.000000 3.482920 
# 
# 
# High freq. dielectric constant tensor:
#      x y z
#    x 1.796310 0.000000 0.000000 
#    y 0.000000 1.783330 0.000000 
#    z 0.000000 0.000000 1.779320 
# 
# From -- ./inp_files/9320.got.cif
#   From: 2010.03.12/outbox.cif.g09.slc.cpg/sg46_5_cif.got.tgz:9320.got - 2010.04.14 02:56:35.
