data_PCOD8192555
_publ_section_title
;
Structure prediction by ZEFSAII (Michael W. Deem and Ramdas Pophale) SiO2 
 PCOD8192555
Probable space group: I M A 2
;
_chemical_formula_sum "Si O2"
_cell_formula_units_Z 56
_cell_length_a 18.708371
_cell_length_b 15.311300
_cell_length_c 10.477282
_cell_angle_alpha 90.000000
_cell_angle_beta 90.000000
_cell_angle_gamma 90.000000
_cell_volume 3001.211990
_symmetry_space_group_name_H-M "I M A 2"
_symmetry_group_IT_number 46
_symmetry_cell_setting 'orthorhombic'
loop_
_space_group_symop_operation_xyz
x,y,z
-x,-y,z
1/2-x,y,z
1/2+x,-y,z
1/2+x,1/2+y,1/2+z
1/2-x,1/2-y,1/2+z
-x,1/2+y,1/2+z
x,1/2-y,1/2+z
loop_
_atom_site_type_symbol
_atom_site_label
_atom_site_fract_x
_atom_site_fract_y
_atom_site_fract_z
Si Si1 0.559023 0.750000 0.647300
Si Si2 0.330953 0.132890 0.037724
Si Si3 0.330953 0.367110 0.256877
Si Si4 0.528644 0.091304 0.251383
Si Si5 0.169939 0.508923 0.751723
Si Si6 0.330061 0.991077 0.542878
Si Si7 0.971356 0.408696 0.043217
O O1 0.613072 0.713392 0.539270
O O2 0.613072 0.786608 0.755330
O O3 0.505385 0.673593 0.684262
O O4 0.505385 0.826407 0.610337
O O5 0.250000 0.167811 0.056706
O O6 0.350553 0.067054 0.152246
O O7 0.337719 0.088086 0.897300
O O8 0.250000 0.332189 0.237894
O O9 0.350553 0.432946 0.142355
O O10 0.615060 0.089676 0.233699
O O11 0.505233 0.097450 0.397300
O O12 0.500000 0.000000 0.193123
O O13 0.250000 0.543714 0.725153
O O14 0.163016 0.472115 0.897300
O O15 0.250000 0.956286 0.569447
O O16 0.384940 0.910324 0.560902
O O17 0.000000 0.500000 0.101477
#
# Coordination Sequence:
#
# PCOD8192555 Si02
#       7
#     8   8   8   8   8   8   8
#     4  12  21  34  55  82 114 152 184 224 279 338
#     4  10  21  35  53  82 116 144 177 227 284 338
#     4  10  21  35  53  82 116 144 177 227 284 338
#     4  10  20  36  56  81 113 148 189 233 273 328
#     4   9  18  36  61  82 105 146 192 229 272 329
#     4   9  18  36  61  82 105 146 192 229 272 329
#     4  10  20  36  56  81 113 148 189 233 273 328
#
# _framework density 18.659127999999999
#
# number of rings (size 3 to 8) (size 9 to 14) (size 15 to 20)
#    0.000    2.000    2.857    1.286    0.000    1.143 
#    0.000    7.857    0.000    0.000    0.000    0.000 
#    0.000    0.000    0.000    0.000    0.000    0.000 
#
# Total GULP energy -346875.847977 kJ/mol
# GULP energy per Si atom -12388.423142 kJ/mol
# Density = 1.861666 g / cm^3
# Si number density = 18.659128 Si / 1000 Ang^3
#
#
#
# Elastic Constant Matrix: (Units=GPa)
#
#
# Indices 1 2 3 4 5 6 
#
# 1 139.8735 74.2263 44.3166 0.0000 0.0000 0.0000
# 2 74.2263 115.2333 49.6545 0.0000 0.0000 0.0000
# 3 44.3166 49.6545 99.8924 0.0000 0.0000 0.0000
# 4 0.0000 0.0000 0.0000 15.6906 0.0000 0.0000
# 5 0.0000 0.0000 0.0000 0.0000 12.4564 0.0000
# 6 0.0000 0.0000 0.0000 0.0000 0.0000 34.2125
#
#
#
# Elastic Compliance Matrix: (Units=1/GPa)
#
#
# Indices 1 2 3 4 5 6 
#
# 1 0.011096 -0.006396 -0.001743 0.000000 0.000000 0.000000
# 2 -0.006396 0.014730 -0.004485 0.000000 0.000000 0.000000
# 3 -0.001743 -0.004485 0.013013 0.000000 0.000000 0.000000
# 4 0.000000 0.000000 0.000000 0.063732 0.000000 0.000000
# 5 0.000000 0.000000 0.000000 0.000000 0.080280 0.000000
# 6 0.000000 0.000000 0.000000 0.000000 0.000000 0.029229
#
#
# Mechanical properties :
#
#
# Convention : Reuss Voigt Hill
#
# Bulk Modulus (GPa) = 73.57399 76.82154 75.19777
# Shear Modulus (GPa) = 20.67316 24.92536 22.79926
#
# Velocity S-wave (km/s) = 3.33218 3.65886 3.49934
# Velocity P-wave (km/s) = 7.37026 7.68831 7.53096
#
# Compressibility (1/GPa) = 0.01359176
#
# Stress axis : x y z
#
# Youngs Moduli (GPa) = 90.12397 67.88655 76.84409
#
# Poissons Ratio (x) = 0.43421 0.13396
# Poissons Ratio (y) = 0.57644 0.34462
# Poissons Ratio (z) = 0.15711 0.30445
#
# Static dielectric constant tensor:
#      x y z
#    x 3.838720 0.000000 0.000000 
#    y 0.000000 3.101760 0.000000 
#    z 0.000000 0.000000 3.385110 
# 
# 
# High freq. dielectric constant tensor:
#      x y z
#    x 1.752860 0.000000 0.000000 
#    y 0.000000 1.678280 0.000000 
#    z 0.000000 0.000000 1.715900 
# 
# From -- ./inp_files/7424.got.cif
#   From: 2010.03.12/outbox.cif.g09.slc.cpg/sg46_4_cif.got.tgz:7424.got - 2010.04.14 02:56:35.
