data_PCOD8192524
_publ_section_title
;
Structure prediction by ZEFSAII (Michael W. Deem and Ramdas Pophale) SiO2 
 PCOD8192524
Probable space group: I M A 2
;
_chemical_formula_sum "Si O2"
_cell_formula_units_Z 64
_cell_length_a 15.885067
_cell_length_b 8.642915
_cell_length_c 23.762702
_cell_angle_alpha 90.000000
_cell_angle_beta 90.000000
_cell_angle_gamma 90.000000
_cell_volume 3262.459391
_symmetry_space_group_name_H-M "I M A 2"
_symmetry_group_IT_number 46
_symmetry_cell_setting 'orthorhombic'
loop_
_space_group_symop_operation_xyz
x,y,z
-x,-y,z
1/2-x,y,z
1/2+x,-y,z
1/2+x,1/2+y,1/2+z
1/2-x,1/2-y,1/2+z
-x,1/2+y,1/2+z
x,1/2-y,1/2+z
loop_
_atom_site_type_symbol
_atom_site_label
_atom_site_fract_x
_atom_site_fract_y
_atom_site_fract_z
Si Si1 0.594476 0.816050 0.411900
Si Si2 0.655511 0.303669 0.530191
Si Si3 0.843843 0.316697 0.303156
Si Si4 0.844215 0.824146 0.801010
Si Si5 0.488184 0.817683 0.601796
Si Si6 0.920372 0.607632 0.516154
Si Si7 0.500813 0.316507 0.228894
Si Si8 0.400678 0.668001 0.913842
O O1 0.650160 0.767256 0.359133
O O2 0.614681 0.702556 0.463345
O O3 0.496754 0.806575 0.395513
O O4 0.619841 0.990237 0.428239
O O5 0.750000 0.243598 0.534973
O O6 0.604873 0.219583 0.579642
O O7 0.651845 0.490169 0.537392
O O8 0.616872 0.264888 0.469521
O O9 0.750000 0.292625 0.276998
O O10 0.861526 0.496752 0.314527
O O11 0.844712 0.227322 0.362288
O O12 0.916082 0.252666 0.261153
O O13 0.750000 0.799516 0.775937
O O14 0.914263 0.757812 0.757863
O O15 0.557713 0.729361 0.564994
O O16 0.496560 0.754763 0.665269
O O17 0.500000 0.000000 0.596599
O O18 0.000000 0.500000 0.500162
O O19 0.500000 0.500000 0.227994
#
# Coordination Sequence:
#
# PCOD8192524 Si02
#       8
#     8   8   8   8   8   8   8   8
#     4  11  21  34  58  86 116 152 190 237 293 348
#     4  11  23  38  59  87 118 152 194 242 289 346
#     4  10  20  35  58  86 116 153 194 232 280 349
#     4  10  21  36  58  87 116 149 194 239 285 345
#     4  10  20  39  63  87 110 152 199 241 293 348
#     4  10  20  36  59  81 113 151 191 230 282 350
#     4   9  19  36  60  84 113 151 193 240 292 335
#     4  11  21  35  56  87 119 153 190 235 293 348
#
# _framework density 19.617101999999999
#
# number of rings (size 3 to 8) (size 9 to 14) (size 15 to 20)
#    0.000    1.750    3.750    1.875    0.000    3.000 
#    0.000    8.125    0.000    0.000    0.000    0.000 
#    0.000    0.000    0.000    0.000    0.000    0.000 
#
# Total GULP energy -396801.218647 kJ/mol
# GULP energy per Si atom -12400.038083 kJ/mol
# Density = 1.957245 g / cm^3
# Si number density = 19.617102 Si / 1000 Ang^3
#
#
#
# Elastic Constant Matrix: (Units=GPa)
#
#
# Indices 1 2 3 4 5 6 
#
# 1 116.9660 27.3826 51.0720 0.0000 0.0000 0.0000
# 2 27.3826 86.8466 37.9713 0.0000 0.0000 0.0000
# 3 51.0720 37.9713 139.4082 0.0000 0.0000 0.0000
# 4 0.0000 0.0000 0.0000 27.1187 0.0000 0.0000
# 5 0.0000 0.0000 0.0000 0.0000 14.6406 0.0000
# 6 0.0000 0.0000 0.0000 0.0000 0.0000 18.7725
#
#
#
# Elastic Compliance Matrix: (Units=1/GPa)
#
#
# Indices 1 2 3 4 5 6 
#
# 1 0.010429 -0.001837 -0.003321 0.000000 0.000000 0.000000
# 2 -0.001837 0.013395 -0.002976 0.000000 0.000000 0.000000
# 3 -0.003321 -0.002976 0.009200 0.000000 0.000000 0.000000
# 4 0.000000 0.000000 0.000000 0.036875 0.000000 0.000000
# 5 0.000000 0.000000 0.000000 0.000000 0.068303 0.000000
# 6 0.000000 0.000000 0.000000 0.000000 0.000000 0.053269
#
#
# Mechanical properties :
#
#
# Convention : Reuss Voigt Hill
#
# Bulk Modulus (GPa) = 59.67013 64.00805 61.83909
# Shear Modulus (GPa) = 23.43861 27.22601 25.33231
#
# Velocity S-wave (km/s) = 3.46034 3.72946 3.59742
# Velocity P-wave (km/s) = 6.81533 7.15854 6.98904
#
# Compressibility (1/GPa) = 0.01675880
#
# Stress axis : x y z
#
# Youngs Moduli (GPa) = 95.88353 74.65703 108.69428
#
# Poissons Ratio (x) = 0.13711 0.36092
# Poissons Ratio (y) = 0.17609 0.32342
# Poissons Ratio (z) = 0.31839 0.22214
#
# Static dielectric constant tensor:
#      x y z
#    x 3.664520 0.000000 0.000000 
#    y 0.000000 3.621960 0.000000 
#    z 0.000000 0.000000 3.530400 
# 
# 
# High freq. dielectric constant tensor:
#      x y z
#    x 1.760530 0.000000 0.000000 
#    y 0.000000 1.759900 0.000000 
#    z 0.000000 0.000000 1.752530 
# 
# From -- ./inp_files/23654.got.cif
#   From: 2010.03.12/outbox.cif.g09.slc.cpg/sg46_12_cif.got.tgz:23654.got - 2010.04.14 02:56:35.
