data_PCOD8192188
_publ_section_title
;
Structure prediction by ZEFSAII (Michael W. Deem and Ramdas Pophale) SiO2 
 PCOD8192188
Probable space group: I M A 2
;
_chemical_formula_sum "Si O2"
_cell_formula_units_Z 40
_cell_length_a 13.858067
_cell_length_b 11.761803
_cell_length_c 12.834964
_cell_angle_alpha 90.000000
_cell_angle_beta 90.000000
_cell_angle_gamma 90.000000
_cell_volume 2092.045918
_symmetry_space_group_name_H-M "I M A 2"
_symmetry_group_IT_number 46
_symmetry_cell_setting 'orthorhombic'
loop_
_space_group_symop_operation_xyz
x,y,z
-x,-y,z
1/2-x,y,z
1/2+x,-y,z
1/2+x,1/2+y,1/2+z
1/2-x,1/2-y,1/2+z
-x,1/2+y,1/2+z
x,1/2-y,1/2+z
loop_
_atom_site_type_symbol
_atom_site_label
_atom_site_fract_x
_atom_site_fract_y
_atom_site_fract_z
Si Si1 0.140979 0.538827 0.551170
Si Si2 0.478959 0.680984 0.385394
Si Si3 0.860411 0.282669 0.717281
Si Si4 0.361248 0.223855 0.033304
Si Si5 0.984171 0.623523 0.165744
O O1 0.250000 0.557259 0.511502
O O2 0.072547 0.594738 0.464815
O O3 0.127138 0.593032 0.666224
O O4 0.118225 0.406157 0.567354
O O5 0.404556 0.773680 0.334573
O O6 0.566351 0.750805 0.438221
O O7 0.527048 0.609411 0.290893
O O8 0.750000 0.243389 0.720604
O O9 0.919363 0.197131 0.640641
O O10 0.250000 0.242804 0.001495
O O11 0.388825 0.312036 0.124450
O O12 0.000000 0.500000 0.114138
#
# Coordination Sequence:
#
# PCOD8192188 Si02
#       5
#     8   8   8   8   8
#     4  10  19  36  63  88 115 149 193 242 286 340
#     4  10  19  36  58  86 113 147 193 241 276 338
#     4   9  20  35  58  88 113 145 189 240 293 337
#     4  11  23  38  59  87 117 155 194 237 287 340
#     4  10  22  37  56  83 118 154 189 237 291 343
#
# _framework density 19.120039999999999
#
# number of rings (size 3 to 8) (size 9 to 14) (size 15 to 20)
#    1.200    0.800    2.000    2.400    0.000    1.600 
#    0.000    2.000    0.000    2.400    0.000    0.000 
#    0.000    0.000    0.000    0.000    0.000    0.000 
#
# Total GULP energy -247761.946409 kJ/mol
# GULP energy per Si atom -12388.097320 kJ/mol
# Density = 1.907652 g / cm^3
# Si number density = 19.120040 Si / 1000 Ang^3
#
#
#
# Elastic Constant Matrix: (Units=GPa)
#
#
# Indices 1 2 3 4 5 6 
#
# 1 141.6887 46.2962 45.8811 0.0000 0.0000 0.0000
# 2 46.2962 88.0798 49.3724 0.0000 0.0000 0.0000
# 3 45.8811 49.3724 67.9394 0.0000 0.0000 0.0000
# 4 0.0000 0.0000 0.0000 14.6401 0.0000 0.0000
# 5 0.0000 0.0000 0.0000 0.0000 35.4233 0.0000
# 6 0.0000 0.0000 0.0000 0.0000 0.0000 27.8090
#
#
#
# Elastic Compliance Matrix: (Units=1/GPa)
#
#
# Indices 1 2 3 4 5 6 
#
# 1 0.009303 -0.002309 -0.004605 0.000000 0.000000 0.000000
# 2 -0.002309 0.019730 -0.012779 0.000000 0.000000 0.000000
# 3 -0.004605 -0.012779 0.027115 0.000000 0.000000 0.000000
# 4 0.000000 0.000000 0.000000 0.068306 0.000000 0.000000
# 5 0.000000 0.000000 0.000000 0.000000 0.028230 0.000000
# 6 0.000000 0.000000 0.000000 0.000000 0.000000 0.035960
#
#
# Mechanical properties :
#
#
# Convention : Reuss Voigt Hill
#
# Bulk Modulus (GPa) = 59.65322 64.53413 62.09368
# Shear Modulus (GPa) = 21.40261 25.98504 23.69383
#
# Velocity S-wave (km/s) = 3.34934 3.69053 3.52407
# Velocity P-wave (km/s) = 6.79886 7.21009 7.00749
#
# Compressibility (1/GPa) = 0.01676355
#
# Stress axis : x y z
#
# Youngs Moduli (GPa) = 107.48953 50.68451 36.87942
#
# Poissons Ratio (x) = 0.11701 0.16983
# Poissons Ratio (y) = 0.24816 0.47128
# Poissons Ratio (z) = 0.49499 0.64769
#
# Static dielectric constant tensor:
#      x y z
#    x 3.638090 0.000000 0.000000 
#    y 0.000000 3.296750 0.000000 
#    z 0.000000 0.000000 3.355450 
# 
# 
# High freq. dielectric constant tensor:
#      x y z
#    x 1.754610 0.000000 0.000000 
#    y 0.000000 1.726070 0.000000 
#    z 0.000000 0.000000 1.722850 
# 
# From -- ./inp_files/15679.got.cif
#   From: 2010.03.12/outbox.cif.g09.slc.cpg/sg46_8_cif.got.tgz:15679.got - 2010.04.14 02:56:35.
