data_PCOD8192761
_publ_section_title
;
Structure prediction by ZEFSAII (Michael W. Deem and Ramdas Pophale) SiO2 
 PCOD8192761
Probable space group: I M A 2
;
_chemical_formula_sum "Si O2"
_cell_formula_units_Z 64
_cell_length_a 14.020917
_cell_length_b 22.691640
_cell_length_c 9.648427
_cell_angle_alpha 90.000000
_cell_angle_beta 90.000000
_cell_angle_gamma 90.000000
_cell_volume 3069.720388
_symmetry_space_group_name_H-M "I M A 2"
_symmetry_group_IT_number 46
_symmetry_cell_setting 'orthorhombic'
loop_
_space_group_symop_operation_xyz
x,y,z
-x,-y,z
1/2-x,y,z
1/2+x,-y,z
1/2+x,1/2+y,1/2+z
1/2-x,1/2-y,1/2+z
-x,1/2+y,1/2+z
x,1/2-y,1/2+z
loop_
_atom_site_type_symbol
_atom_site_label
_atom_site_fract_x
_atom_site_fract_y
_atom_site_fract_z
Si Si1 0.138175 0.702030 0.046890
Si Si2 0.640185 0.192097 0.241481
Si Si3 0.549573 0.845468 0.611610
Si Si4 0.898684 0.973318 0.121626
Si Si5 0.864256 0.715196 0.601770
Si Si6 0.857406 0.623946 0.835060
Si Si7 0.354263 0.903225 0.040193
Si Si8 0.452265 0.377525 0.411380
O O1 0.250000 0.683680 0.061761
O O2 0.113573 0.763461 0.119385
O O3 0.066516 0.655536 0.117179
O O4 0.095759 0.707405 0.890387
O O5 0.750000 0.195439 0.276292
O O6 0.610767 0.127778 0.184178
O O7 0.597931 0.781176 0.614537
O O8 0.581838 0.880978 0.475474
O O9 0.578430 0.880445 0.750573
O O10 0.859364 0.938453 0.254529
O O11 0.898947 0.929897 0.990494
O O12 0.000000 0.000000 0.161404
O O13 0.835350 0.028433 0.074443
O O14 0.750000 0.714078 0.580722
O O15 0.895125 0.677493 0.737950
O O16 0.916725 0.685115 0.471034
O O17 0.750000 0.638087 0.879676
O O18 0.250000 0.877138 0.994219
O O19 0.433242 0.888366 0.924900
#
# Coordination Sequence:
#
# PCOD8192761 Si02
#       8
#     8   8   8   8   8   8   8   8
#     4  10  23  37  55  88 128 163 192 234 294 354
#     4   9  20  36  57  85 119 155 193 233 284 348
#     4  12  24  34  60  87 125 160 195 245 296 357
#     4   9  20  40  66  85 114 153 203 250 291 354
#     4  10  22  40  61  86 119 161 205 242 287 356
#     4  10  22  40  61  88 120 155 198 249 304 345
#     4  10  20  38  68  92 112 152 206 244 287 356
#     4  10  23  39  58  90 121 157 197 247 300 346
#
# _framework density 20.848804000000001
#
# number of rings (size 3 to 8) (size 9 to 14) (size 15 to 20)
#    0.000    2.000    0.000    2.250   10.500    3.000 
#    0.000    1.875    0.000    0.000    0.000    0.000 
#    0.000    0.000    0.000    0.000    0.000    0.000 
#
# Total GULP energy -396562.855212 kJ/mol
# GULP energy per Si atom -12392.589225 kJ/mol
# Density = 2.080135 g / cm^3
# Si number density = 20.848804 Si / 1000 Ang^3
#
#
#
# Elastic Constant Matrix: (Units=GPa)
#
#
# Indices 1 2 3 4 5 6 
#
# 1 80.3259 18.0541 31.5970 0.0001 0.0000 0.0000
# 2 18.0541 74.5436 50.7122 0.0003 0.0000 -0.0001
# 3 31.5970 50.7122 147.2167 0.0006 -0.0004 -0.0002
# 4 0.0001 0.0003 0.0006 13.8668 -0.0001 0.0000
# 5 0.0000 0.0000 -0.0004 -0.0001 22.9264 0.0000
# 6 0.0000 -0.0001 -0.0002 0.0000 0.0000 20.6852
#
#
#
# Elastic Compliance Matrix: (Units=1/GPa)
#
#
# Indices 1 2 3 4 5 6 
#
# 1 0.013766 -0.001729 -0.002359 0.000000 0.000000 0.000000
# 2 -0.001729 0.017738 -0.005739 0.000000 0.000000 0.000000
# 3 -0.002359 -0.005739 0.009276 0.000000 0.000000 0.000000
# 4 0.000000 0.000000 0.000000 0.072115 0.000000 0.000000
# 5 0.000000 0.000000 0.000000 0.000000 0.043618 0.000000
# 6 0.000000 0.000000 0.000000 0.000000 0.000000 0.048344
#
#
# Mechanical properties :
#
#
# Convention : Reuss Voigt Hill
#
# Bulk Modulus (GPa) = 47.33645 55.86807 51.60226
# Shear Modulus (GPa) = 21.59336 24.94388 23.26862
#
# Velocity S-wave (km/s) = 3.22174 3.46268 3.34438
# Velocity P-wave (km/s) = 6.04925 6.54537 6.30219
#
# Compressibility (1/GPa) = 0.02112537
#
# Stress axis : x y z
#
# Youngs Moduli (GPa) = 72.64357 56.37569 107.80541
#
# Poissons Ratio (x) = 0.09749 0.25430
# Poissons Ratio (y) = 0.12562 0.61871
# Poissons Ratio (z) = 0.17136 0.32355
#
# Static dielectric constant tensor:
#      x y z
#    x 3.963850 0.000000 0.000000 
#    y 0.000000 3.556160 0.000000 
#    z 0.000000 0.000000 3.754500 
# 
# 
# High freq. dielectric constant tensor:
#      x y z
#    x 1.832640 0.000000 0.000000 
#    y 0.000000 1.793900 0.000000 
#    z 0.000000 0.000000 1.806280 
# 
# From -- ./inp_files/6076.got.cif
#   From: 2010.03.12/outbox.cif.g09.slc.cpg/sg46_4_cif.got.tgz:6076.got - 2010.04.14 02:56:35.
