data_PCOD8192383
_publ_section_title
;
Structure prediction by ZEFSAII (Michael W. Deem and Ramdas Pophale) SiO2 
 PCOD8192383
Probable space group: I M A 2
;
_chemical_formula_sum "Si O2"
_cell_formula_units_Z 64
_cell_length_a 9.394777
_cell_length_b 27.577631
_cell_length_c 12.541524
_cell_angle_alpha 90.000000
_cell_angle_beta 90.000000
_cell_angle_gamma 90.000000
_cell_volume 3249.329442
_symmetry_space_group_name_H-M "I M A 2"
_symmetry_group_IT_number 46
_symmetry_cell_setting 'orthorhombic'
loop_
_space_group_symop_operation_xyz
x,y,z
-x,-y,z
1/2-x,y,z
1/2+x,-y,z
1/2+x,1/2+y,1/2+z
1/2-x,1/2-y,1/2+z
-x,1/2+y,1/2+z
x,1/2-y,1/2+z
loop_
_atom_site_type_symbol
_atom_site_label
_atom_site_fract_x
_atom_site_fract_y
_atom_site_fract_z
Si Si1 0.085461 0.907270 0.555640
Si Si2 0.086833 0.384594 0.660998
Si Si3 0.415062 0.209247 0.041172
Si Si4 0.080350 0.550863 0.824870
Si Si5 0.405956 0.316930 0.306158
Si Si6 0.593045 0.572287 0.248434
Si Si7 0.583085 0.201732 0.612840
Si Si8 0.912679 0.543129 0.475974
O O1 0.250000 0.913850 0.580509
O O2 0.043725 0.929388 0.441974
O O3 0.044306 0.850349 0.560794
O O4 0.004758 0.938439 0.646123
O O5 0.250000 0.390167 0.702152
O O6 0.048729 0.328240 0.637808
O O7 0.069540 0.409169 0.545839
O O8 0.978443 0.408267 0.744577
O O9 0.250000 0.224020 0.047872
O O10 0.510403 0.257126 0.042193
O O11 0.452194 0.184353 0.928776
O O12 0.250000 0.544134 0.807668
O O13 0.000000 0.500000 0.805045
O O14 0.250000 0.292034 0.291048
O O15 0.394042 0.371242 0.267516
O O16 0.522965 0.291084 0.232439
O O17 0.750000 0.550715 0.225512
O O18 0.525752 0.550281 0.356375
O O19 0.750000 0.210462 0.616245
O O20 0.750000 0.527169 0.469492
O O21 0.000000 0.500000 0.532113
#
# Coordination Sequence:
#
# PCOD8192383 Si02
#       8
#     8   8   8   8   8   8   8   8
#     4   9  21  40  58  79 114 153 191 239 293 346
#     4  10  21  39  60  83 115 151 193 242 292 346
#     4  10  20  36  59  85 114 152 197 244 293 350
#     4  11  24  42  62  85 117 159 204 251 302 355
#     4   9  17  34  57  78 106 145 186 233 285 340
#     4   9  17  33  57  81 106 140 181 227 282 337
#     4  10  21  36  55  84 118 153 192 241 298 354
#     4  10  20  34  53  81 113 143 175 223 279 334
#
# _framework density 19.696372
#
# number of rings (size 3 to 8) (size 9 to 14) (size 15 to 20)
#    0.000    2.250    1.250    1.125    0.000    6.000 
#    0.000    5.000    0.000    0.000    0.000    0.000 
#    0.000    0.000    0.000    0.000    0.000    0.000 
#
# Total GULP energy -396676.768016 kJ/mol
# GULP energy per Si atom -12396.149000 kJ/mol
# Density = 1.965154 g / cm^3
# Si number density = 19.696372 Si / 1000 Ang^3
#
#
#
# Elastic Constant Matrix: (Units=GPa)
#
#
# Indices 1 2 3 4 5 6 
#
# 1 74.3934 27.4225 37.8292 -0.0003 0.0001 -0.0001
# 2 27.4225 47.6965 8.7880 -0.0005 0.0003 0.0000
# 3 37.8292 8.7880 88.3658 -0.0003 0.0002 -0.0009
# 4 -0.0003 -0.0005 -0.0003 22.1358 0.0001 -0.0001
# 5 0.0001 0.0003 0.0002 0.0001 29.7946 0.0001
# 6 -0.0001 0.0000 -0.0009 -0.0001 0.0001 26.5232
#
#
#
# Elastic Compliance Matrix: (Units=1/GPa)
#
#
# Indices 1 2 3 4 5 6 
#
# 1 0.021625 -0.010928 -0.008171 0.000000 0.000000 0.000000
# 2 -0.010928 0.026879 0.002005 0.000001 0.000000 0.000000
# 3 -0.008171 0.002005 0.014615 0.000000 0.000000 0.000000
# 4 0.000000 0.000001 0.000000 0.045176 0.000000 0.000000
# 5 0.000000 0.000000 0.000000 0.000000 0.033563 0.000000
# 6 0.000000 0.000000 0.000000 0.000000 0.000000 0.037703
#
#
# Mechanical properties :
#
#
# Convention : Reuss Voigt Hill
#
# Bulk Modulus (GPa) = 34.56346 39.83724 37.20035
# Shear Modulus (GPa) = 22.38217 24.78511 23.58364
#
# Velocity S-wave (km/s) = 3.37465 3.55118 3.46404
# Velocity P-wave (km/s) = 5.72456 6.08967 5.90994
#
# Compressibility (1/GPa) = 0.02893228
#
# Stress axis : x y z
#
# Youngs Moduli (GPa) = 46.24277 37.20357 68.42222
#
# Poissons Ratio (x) = 0.40654 0.55907
# Poissons Ratio (y) = 0.50532 -0.13718
# Poissons Ratio (z) = 0.37784 -0.07459
#
# Static dielectric constant tensor:
#      x y z
#    x 3.690970 0.000000 0.000000 
#    y 0.000000 3.586580 0.000000 
#    z 0.000000 0.000000 3.677070 
# 
# 
# High freq. dielectric constant tensor:
#      x y z
#    x 1.761840 0.000000 0.000000 
#    y 0.000000 1.762950 0.000000 
#    z 0.000000 0.000000 1.768470 
# 
# From -- ./inp_files/9772.got.cif
#   From: 2010.03.12/outbox.cif.g09.slc.cpg/sg46_5_cif.got.tgz:9772.got - 2010.04.14 02:56:35.
