data_PCOD8192663
_publ_section_title
;
Structure prediction by ZEFSAII (Michael W. Deem and Ramdas Pophale) SiO2 
 PCOD8192663
Probable space group: I M A 2
;
_chemical_formula_sum "Si O2"
_cell_formula_units_Z 24
_cell_length_a 11.441174
_cell_length_b 21.474895
_cell_length_c 5.159177
_cell_angle_alpha 90.000000
_cell_angle_beta 90.000000
_cell_angle_gamma 90.000000
_cell_volume 1267.599524
_symmetry_space_group_name_H-M "I M A 2"
_symmetry_group_IT_number 46
_symmetry_cell_setting 'orthorhombic'
loop_
_space_group_symop_operation_xyz
x,y,z
-x,-y,z
1/2-x,y,z
1/2+x,-y,z
1/2+x,1/2+y,1/2+z
1/2-x,1/2-y,1/2+z
-x,1/2+y,1/2+z
x,1/2-y,1/2+z
loop_
_atom_site_type_symbol
_atom_site_label
_atom_site_fract_x
_atom_site_fract_y
_atom_site_fract_z
Si Si1 0.385598 0.890855 0.694830
Si Si2 0.000000 0.000000 0.454485
Si Si3 0.250000 0.292368 0.683147
Si Si4 0.976631 0.624123 0.715006
O O1 0.250000 0.874931 0.712475
O O2 0.445317 0.851827 0.459176
O O3 0.404509 0.964926 0.636429
O O4 0.445491 0.870589 0.959945
O O5 0.061622 0.052178 0.271853
O O6 0.250000 0.251485 0.428623
O O7 0.137203 0.335275 0.682190
#
# Coordination Sequence:
#
# PCOD8192663 Si02
#       4
#     8   4   4   8
#     4  10  20  37  60  93 133 161 207 266 338 392
#     4   8  22  34  58 102 118 176 192 276 332 388
#     4  12  26  46  70  92 134 182 228 276 310 390
#     4  10  22  39  61  96 125 168 220 268 327 388
#
# _framework density 18.933423999999999
#
# number of rings (size 3 to 8) (size 9 to 14) (size 15 to 20)
#    2.000    0.000    0.000    4.000    2.333    0.000 
#    9.000    0.000    0.000   20.000    0.000    0.000 
#    0.000    0.000    0.000    0.000    0.000    0.000 
#
# Total GULP energy -148662.458907 kJ/mol
# GULP energy per Si atom -12388.538242 kJ/mol
# Density = 1.889033 g / cm^3
# Si number density = 18.933424 Si / 1000 Ang^3
#
#
#
# Elastic Constant Matrix: (Units=GPa)
#
#
# Indices 1 2 3 4 5 6 
#
# 1 171.6212 55.3365 75.7364 -0.0070 0.0063 -0.0013
# 2 55.3365 77.8568 35.0087 0.0047 0.0045 0.0028
# 3 75.7364 35.0087 171.9021 0.0537 -0.0009 -0.0317
# 4 -0.0070 0.0047 0.0537 11.1287 -0.0086 0.0003
# 5 0.0063 0.0045 -0.0009 -0.0086 33.0528 0.0059
# 6 -0.0013 0.0028 -0.0317 0.0003 0.0059 22.3188
#
#
#
# Elastic Compliance Matrix: (Units=1/GPa)
#
#
# Indices 1 2 3 4 5 6 
#
# 1 0.008641 -0.004876 -0.002814 0.000021 -0.000001 -0.000003
# 2 -0.004876 0.016891 -0.001292 -0.000004 -0.000001 -0.000004
# 3 -0.002814 -0.001292 0.007320 -0.000037 0.000001 0.000010
# 4 0.000021 -0.000004 -0.000037 0.089858 0.000023 -0.000001
# 5 -0.000001 -0.000001 0.000001 0.000023 0.030255 -0.000008
# 6 -0.000003 -0.000004 0.000010 -0.000001 -0.000008 0.044805
#
#
# Mechanical properties :
#
#
# Convention : Reuss Voigt Hill
#
# Bulk Modulus (GPa) = 67.16704 83.72703 75.44703
# Shear Modulus (GPa) = 22.65567 30.31995 26.48781
#
# Velocity S-wave (km/s) = 3.46294 4.00609 3.74438
# Velocity P-wave (km/s) = 7.17925 8.10655 7.65695
#
# Compressibility (1/GPa) = 0.01488826
#
# Stress axis : x y z
#
# Youngs Moduli (GPa) = 115.73008 59.20479 136.61106
#
# Poissons Ratio (x) = 0.28869 0.38441
# Poissons Ratio (y) = 0.56431 0.17644
# Poissons Ratio (z) = 0.32565 0.07646
#
# Static dielectric constant tensor:
#      x y z
#    x 3.250670 -0.000020 -0.000030 
#    y -0.000020 3.262080 -0.000060 
#    z -0.000030 -0.000060 3.657300 
# 
# 
# High freq. dielectric constant tensor:
#      x y z
#    x 1.725690 0.000000 0.000000 
#    y 0.000000 1.709930 0.000000 
#    z 0.000000 0.000000 1.756330 
# 
# From -- ./inp_files/587.got.cif
#   From: 2010.03.12/outbox.cif.g09.slc.cpg/sg46_1_cif.got.tgz:587.got - 2010.04.14 02:56:35.
