data_PCOD8192273
_publ_section_title
;
Structure prediction by ZEFSAII (Michael W. Deem and Ramdas Pophale) SiO2 
 PCOD8192273
Probable space group: I M A 2
;
_chemical_formula_sum "Si O2"
_cell_formula_units_Z 64
_cell_length_a 27.883417
_cell_length_b 8.605133
_cell_length_c 14.804019
_cell_angle_alpha 90.000000
_cell_angle_beta 90.000000
_cell_angle_gamma 90.000000
_cell_volume 3552.083895
_symmetry_space_group_name_H-M "I M A 2"
_symmetry_group_IT_number 46
_symmetry_cell_setting 'orthorhombic'
loop_
_space_group_symop_operation_xyz
x,y,z
-x,-y,z
1/2-x,y,z
1/2+x,-y,z
1/2+x,1/2+y,1/2+z
1/2-x,1/2-y,1/2+z
-x,1/2+y,1/2+z
x,1/2-y,1/2+z
loop_
_atom_site_type_symbol
_atom_site_label
_atom_site_fract_x
_atom_site_fract_y
_atom_site_fract_z
Si Si1 0.697550 0.660322 0.175840
Si Si2 0.111125 0.154276 0.434739
Si Si3 0.197576 0.159163 0.992877
Si Si4 0.445545 0.045450 0.730820
Si Si5 0.128415 0.572904 0.100578
Si Si6 0.554513 0.544985 0.438105
Si Si7 0.889254 0.650738 0.734222
Si Si8 0.128142 0.924991 0.069836
O O1 0.750000 0.640009 0.222761
O O2 0.704847 0.740692 0.081026
O O3 0.673919 0.494519 0.154256
O O4 0.661836 0.760671 0.237590
O O5 0.160657 0.252119 0.427374
O O6 0.068216 0.274823 0.461831
O O7 0.101322 0.082871 0.334986
O O8 0.115058 0.018502 0.508281
O O9 0.250000 0.133732 0.946503
O O10 0.175231 0.995804 0.023379
O O11 0.431710 0.012805 0.834403
O O12 0.431249 0.225288 0.707451
O O13 0.500000 0.000000 0.712184
O O14 0.417056 0.929823 0.666209
O O15 0.142294 0.748691 0.083988
O O16 0.500000 0.500000 0.457441
O O17 0.584106 0.429350 0.500871
O O18 0.887814 0.511848 0.662182
#
# Coordination Sequence:
#
# PCOD8192273 Si02
#       8
#     8   8   8   8   8   8   8   8
#     4   8  15  30  50  70  94 127 167 206 244 288
#     4   9  18  33  52  73  99 132 169 206 246 296
#     4   8  15  30  50  70  94 127 167 206 244 288
#     4   9  18  34  54  73  95 127 169 214 254 294
#     4  10  20  31  48  75 105 136 165 201 251 304
#     4   9  18  34  54  73  95 127 169 214 254 294
#     4   9  18  33  52  73  99 132 169 206 246 296
#     4  10  20  31  48  75 105 136 165 201 251 304
#
# _framework density 18.017592
#
# number of rings (size 3 to 8) (size 9 to 14) (size 15 to 20)
#    0.000    3.000    0.000    2.250    0.000    4.000 
#    0.000    0.000    0.000    5.250    0.000    7.000 
#    0.000    0.000    0.000    0.000    0.000    0.000 
#
# Total GULP energy -396512.487412 kJ/mol
# GULP energy per Si atom -12391.015232 kJ/mol
# Density = 1.797658 g / cm^3
# Si number density = 18.017592 Si / 1000 Ang^3
#
#
#
# Elastic Constant Matrix: (Units=GPa)
#
#
# Indices 1 2 3 4 5 6 
#
# 1 116.0657 34.0144 30.6078 0.0000 0.0000 0.0000
# 2 34.0144 92.6178 24.1440 0.0000 0.0000 0.0000
# 3 30.6078 24.1440 57.8228 0.0000 0.0000 0.0000
# 4 0.0000 0.0000 0.0000 14.4671 0.0000 0.0000
# 5 0.0000 0.0000 0.0000 0.0000 17.9383 0.0000
# 6 0.0000 0.0000 0.0000 0.0000 0.0000 14.6891
#
#
#
# Elastic Compliance Matrix: (Units=1/GPa)
#
#
# Indices 1 2 3 4 5 6 
#
# 1 0.010593 -0.002725 -0.004469 0.000000 0.000000 0.000000
# 2 -0.002725 0.012817 -0.003909 0.000000 0.000000 0.000000
# 3 -0.004469 -0.003909 0.021292 0.000000 0.000000 0.000000
# 4 0.000000 0.000000 0.000000 0.069123 0.000000 0.000000
# 5 0.000000 0.000000 0.000000 0.000000 0.055747 0.000000
# 6 0.000000 0.000000 0.000000 0.000000 0.000000 0.068078
#
#
# Mechanical properties :
#
#
# Convention : Reuss Voigt Hill
#
# Bulk Modulus (GPa) = 44.45481 49.33764 46.89623
# Shear Modulus (GPa) = 18.70172 21.26824 19.98498
#
# Velocity S-wave (km/s) = 3.22525 3.43944 3.33407
# Velocity P-wave (km/s) = 6.21258 6.57385 6.39577
#
# Compressibility (1/GPa) = 0.02249475
#
# Stress axis : x y z
#
# Youngs Moduli (GPa) = 94.40102 78.02144 46.96530
#
# Poissons Ratio (x) = 0.21263 0.20991
# Poissons Ratio (y) = 0.25727 0.18360
# Poissons Ratio (z) = 0.42191 0.30500
#
# Static dielectric constant tensor:
#      x y z
#    x 3.736430 0.000000 0.000000 
#    y 0.000000 3.060800 0.000000 
#    z 0.000000 0.000000 3.391920 
# 
# 
# High freq. dielectric constant tensor:
#      x y z
#    x 1.698060 0.000000 0.000000 
#    y 0.000000 1.671000 0.000000 
#    z 0.000000 0.000000 1.701000 
# 
# From -- ./inp_files/17737.got.cif
#   From: 2010.03.12/outbox.cif.g09.slc.cpg/sg46_9_cif.got.tgz:17737.got - 2010.04.14 02:56:35.
