data_PCOD8192903
_publ_section_title
;
Structure prediction by ZEFSAII (Michael W. Deem and Ramdas Pophale) SiO2 
 PCOD8192903
Probable space group: I M A 2
;
_chemical_formula_sum "Si O2"
_cell_formula_units_Z 56
_cell_length_a 9.218493
_cell_length_b 20.641320
_cell_length_c 14.321043
_cell_angle_alpha 90.000000
_cell_angle_beta 90.000000
_cell_angle_gamma 90.000000
_cell_volume 2725.034755
_symmetry_space_group_name_H-M "I M A 2"
_symmetry_group_IT_number 46
_symmetry_cell_setting 'orthorhombic'
loop_
_space_group_symop_operation_xyz
x,y,z
-x,-y,z
1/2-x,y,z
1/2+x,-y,z
1/2+x,1/2+y,1/2+z
1/2-x,1/2-y,1/2+z
-x,1/2+y,1/2+z
x,1/2-y,1/2+z
loop_
_atom_site_type_symbol
_atom_site_label
_atom_site_fract_x
_atom_site_fract_y
_atom_site_fract_z
Si Si1 0.918548 0.065947 0.118190
Si Si2 0.576899 0.741767 0.918121
Si Si3 0.417218 0.625704 0.421823
Si Si4 0.098173 0.553331 0.906649
Si Si5 0.920994 0.352576 0.055806
Si Si6 0.081263 0.934300 0.725885
Si Si7 0.591169 0.167061 0.266195
O O1 0.750000 0.055828 0.143243
O O2 0.974300 0.130484 0.174690
O O3 0.943573 0.078770 0.009312
O O4 0.000000 0.000000 0.147792
O O5 0.750000 0.735800 0.918066
O O6 0.527773 0.815214 0.929199
O O7 0.518130 0.716998 0.816651
O O8 0.514161 0.705197 0.010026
O O9 0.250000 0.650415 0.418509
O O10 0.457600 0.583819 0.331561
O O11 0.250000 0.518240 0.926852
O O12 0.122455 0.612147 0.839520
O O13 0.000000 0.500000 0.858319
O O14 0.035527 0.580879 0.003225
O O15 0.750000 0.335516 0.043317
O O16 0.961367 0.370802 0.162637
O O17 0.250000 0.948722 0.711934
O O18 0.000000 0.000000 0.697158
O O19 0.750000 0.200066 0.243371
#
# Coordination Sequence:
#
# PCOD8192903 Si02
#       7
#     8   8   8   8   8   8   8
#     4  10  21  37  60  87 115 150 190 231 280 333
#     4  11  23  38  58  85 112 145 190 240 287 330
#     4  10  22  40  59  81 114 156 193 229 278 338
#     4   9  16  26  44  70 102 137 173 215 265 320
#     4   9  19  36  55  78 111 149 184 224 279 343
#     4  10  21  37  60  87 115 150 190 231 280 333
#     4   9  19  36  55  78 111 149 184 224 279 343
#
# _framework density 20.550198000000002
#
# number of rings (size 3 to 8) (size 9 to 14) (size 15 to 20)
#    0.000    2.286    0.000    3.429    0.000    5.714 
#    0.000    5.714    0.000    0.000    0.000    0.000 
#    0.000    0.000    0.000    0.000    0.000    0.000 
#
# Total GULP energy -346898.189186 kJ/mol
# GULP energy per Si atom -12389.221042 kJ/mol
# Density = 2.050342 g / cm^3
# Si number density = 20.550198 Si / 1000 Ang^3
#
#
#
# Elastic Constant Matrix: (Units=GPa)
#
#
# Indices 1 2 3 4 5 6 
#
# 1 82.4442 45.7415 19.8081 0.0000 0.0000 0.0000
# 2 45.7415 73.1705 11.7364 0.0000 0.0000 0.0000
# 3 19.8081 11.7364 103.1854 -0.0002 0.0000 0.0001
# 4 0.0000 0.0000 -0.0002 16.2915 0.0000 0.0001
# 5 0.0000 0.0000 0.0000 0.0000 21.2905 0.0000
# 6 0.0000 0.0000 0.0001 0.0001 0.0000 42.2787
#
#
#
# Elastic Compliance Matrix: (Units=1/GPa)
#
#
# Indices 1 2 3 4 5 6 
#
# 1 0.019115 -0.011572 -0.002353 0.000000 0.000000 0.000000
# 2 -0.011572 0.020926 -0.000159 0.000000 0.000000 0.000000
# 3 -0.002353 -0.000159 0.010161 0.000000 0.000000 0.000000
# 4 0.000000 0.000000 0.000000 0.061382 0.000000 0.000000
# 5 0.000000 0.000000 0.000000 0.000000 0.046969 0.000000
# 6 0.000000 0.000000 0.000000 0.000000 0.000000 0.023653
#
#
# Mechanical properties :
#
#
# Convention : Reuss Voigt Hill
#
# Bulk Modulus (GPa) = 45.38354 45.93021 45.65688
# Shear Modulus (GPa) = 22.96532 28.07307 25.51919
#
# Velocity S-wave (km/s) = 3.34656 3.70005 3.52774
# Velocity P-wave (km/s) = 6.08809 6.37594 6.23368
#
# Compressibility (1/GPa) = 0.02203442
#
# Stress axis : x y z
#
# Youngs Moduli (GPa) = 52.31419 47.78662 98.41458
#
# Poissons Ratio (x) = 0.55300 0.23160
# Poissons Ratio (y) = 0.60539 0.01562
# Poissons Ratio (z) = 0.12311 0.00758
#
# Static dielectric constant tensor:
#      x y z
#    x 3.599900 0.000000 0.000000 
#    y 0.000000 3.446930 0.000000 
#    z 0.000000 0.000000 4.546060 
# 
# 
# High freq. dielectric constant tensor:
#      x y z
#    x 1.784270 0.000000 0.000000 
#    y 0.000000 1.790350 0.000000 
#    z 0.000000 0.000000 1.816090 
# 
# From -- ./inp_files/14166.got.cif
#   From: 2010.03.12/outbox.cif.g09.slc.cpg/sg46_8_cif.got.tgz:14166.got - 2010.04.14 02:56:35.
