data_PCOD8192421
_publ_section_title
;
Structure prediction by ZEFSAII (Michael W. Deem and Ramdas Pophale) SiO2 
 PCOD8192421
Probable space group: I M A 2
;
_chemical_formula_sum "Si O2"
_cell_formula_units_Z 64
_cell_length_a 8.906359
_cell_length_b 24.685438
_cell_length_c 14.904989
_cell_angle_alpha 90.000000
_cell_angle_beta 90.000000
_cell_angle_gamma 90.000000
_cell_volume 3276.971725
_symmetry_space_group_name_H-M "I M A 2"
_symmetry_group_IT_number 46
_symmetry_cell_setting 'orthorhombic'
loop_
_space_group_symop_operation_xyz
x,y,z
-x,-y,z
1/2-x,y,z
1/2+x,-y,z
1/2+x,1/2+y,1/2+z
1/2-x,1/2-y,1/2+z
-x,1/2+y,1/2+z
x,1/2-y,1/2+z
loop_
_atom_site_type_symbol
_atom_site_label
_atom_site_fract_x
_atom_site_fract_y
_atom_site_fract_z
Si Si1 0.073208 0.942558 0.011760
Si Si2 0.578402 0.863735 0.150091
Si Si3 0.078515 0.242492 0.045529
Si Si4 0.424714 0.852178 0.527745
Si Si5 0.921613 0.164851 0.321542
Si Si6 0.927143 0.556113 0.143190
Si Si7 0.076792 0.900798 0.816840
Si Si8 0.921707 0.216814 0.869108
O O1 0.250000 0.948573 0.017621
O O2 0.021855 0.901105 0.087515
O O3 0.023861 0.920551 0.914529
O O4 0.000000 0.000000 0.031038
O O5 0.750000 0.882871 0.142193
O O6 0.525007 0.868635 0.253112
O O7 0.558361 0.800942 0.124168
O O8 0.250000 0.262040 0.037108
O O9 0.974814 0.294103 0.066584
O O10 0.031000 0.213085 0.953781
O O11 0.250000 0.860144 0.549895
O O12 0.458294 0.854829 0.421889
O O13 0.519418 0.898528 0.574511
O O14 0.750000 0.152611 0.296861
O O15 0.955637 0.229119 0.312490
O O16 0.750000 0.550776 0.138905
O O17 0.000000 0.500000 0.112152
O O18 0.974421 0.569650 0.244561
O O19 0.250000 0.916036 0.798740
O O20 0.052218 0.836051 0.807923
O O21 0.750000 0.218385 0.905355
#
# Coordination Sequence:
#
# PCOD8192421 Si02
#       8
#     8   8   8   8   8   8   8   8
#     4  11  23  40  63  87 120 161 205 251 300 355
#     4  11  23  37  57  88 125 161 202 248 300 356
#     4  10  20  34  55  88 124 159 197 243 298 355
#     4  10  22  42  65  88 118 158 204 254 305 361
#     4   9  20  37  60  88 120 159 201 247 300 357
#     4  12  26  43  64  90 121 158 203 254 307 364
#     4  10  21  38  61  91 123 162 204 246 298 359
#     4   9  18  35  57  86 120 160 202 239 292 356
#
# _framework density 19.530227
#
# number of rings (size 3 to 8) (size 9 to 14) (size 15 to 20)
#    0.000    1.750    1.250    3.750    1.750    6.500 
#    0.000    0.625    0.000    3.000    0.000    0.000 
#    0.000    0.000    0.000    0.000    0.000    0.000 
#
# Total GULP energy -396920.389387 kJ/mol
# GULP energy per Si atom -12403.762168 kJ/mol
# Density = 1.948578 g / cm^3
# Si number density = 19.530227 Si / 1000 Ang^3
#
#
#
# Elastic Constant Matrix: (Units=GPa)
#
#
# Indices 1 2 3 4 5 6 
#
# 1 104.2995 45.5377 46.3355 0.0000 0.0000 0.0000
# 2 45.5377 97.3269 39.1488 0.0002 0.0000 0.0000
# 3 46.3355 39.1488 87.4298 0.0009 -0.0001 -0.0001
# 4 0.0000 0.0002 0.0009 22.0693 0.0000 0.0000
# 5 0.0000 0.0000 -0.0001 0.0000 34.3197 0.0001
# 6 0.0000 0.0000 -0.0001 0.0000 0.0001 33.4807
#
#
#
# Elastic Compliance Matrix: (Units=1/GPa)
#
#
# Indices 1 2 3 4 5 6 
#
# 1 0.013881 -0.004312 -0.005426 0.000000 0.000000 0.000000
# 2 -0.004312 0.013871 -0.003926 0.000000 0.000000 0.000000
# 3 -0.005426 -0.003926 0.016071 -0.000001 0.000000 0.000000
# 4 0.000000 0.000000 -0.000001 0.045312 0.000000 0.000000
# 5 0.000000 0.000000 0.000000 0.000000 0.029138 0.000000
# 6 0.000000 0.000000 0.000000 0.000000 0.000000 0.029868
#
#
# Mechanical properties :
#
#
# Convention : Reuss Voigt Hill
#
# Bulk Modulus (GPa) = 60.62100 61.23336 60.92718
# Shear Modulus (GPa) = 27.62934 28.50955 28.06944
#
# Velocity S-wave (km/s) = 3.76533 3.82483 3.79520
# Velocity P-wave (km/s) = 7.07181 7.13631 7.10414
#
# Compressibility (1/GPa) = 0.01649593
#
# Stress axis : x y z
#
# Youngs Moduli (GPa) = 72.04158 72.09062 62.22358
#
# Poissons Ratio (x) = 0.31087 0.33760
# Poissons Ratio (y) = 0.31066 0.24428
# Poissons Ratio (z) = 0.39087 0.28302
#
# Static dielectric constant tensor:
#      x y z
#    x 3.581210 0.000000 0.000000 
#    y 0.000000 3.610230 0.000000 
#    z 0.000000 0.000000 3.413370 
# 
# 
# High freq. dielectric constant tensor:
#      x y z
#    x 1.766310 0.000000 0.000000 
#    y 0.000000 1.758310 0.000000 
#    z 0.000000 0.000000 1.754330 
# 
# From -- ./inp_files/14548.got.cif
#   From: 2010.03.12/outbox.cif.g09.slc.cpg/sg46_8_cif.got.tgz:14548.got - 2010.04.14 02:56:35.
