data_PCOD8192738
_publ_section_title
;
Structure prediction by ZEFSAII (Michael W. Deem and Ramdas Pophale) SiO2 
 PCOD8192738
Probable space group: I M A 2
;
_chemical_formula_sum "Si O2"
_cell_formula_units_Z 48
_cell_length_a 17.009638
_cell_length_b 8.826682
_cell_length_c 15.567900
_cell_angle_alpha 90.000000
_cell_angle_beta 90.000000
_cell_angle_gamma 90.000000
_cell_volume 2337.343732
_symmetry_space_group_name_H-M "I M A 2"
_symmetry_group_IT_number 46
_symmetry_cell_setting 'orthorhombic'
loop_
_space_group_symop_operation_xyz
x,y,z
-x,-y,z
1/2-x,y,z
1/2+x,-y,z
1/2+x,1/2+y,1/2+z
1/2-x,1/2-y,1/2+z
-x,1/2+y,1/2+z
x,1/2-y,1/2+z
loop_
_atom_site_type_symbol
_atom_site_label
_atom_site_fract_x
_atom_site_fract_y
_atom_site_fract_z
Si Si1 0.658998 0.117723 0.852220
Si Si2 0.084125 0.065201 0.706063
Si Si3 0.910810 0.061651 0.363518
Si Si4 0.659852 0.078593 0.041913
Si Si5 0.157808 0.576723 0.043780
Si Si6 0.916697 0.579646 0.696427
O O1 0.750000 0.176060 0.849335
O O2 0.597880 0.257653 0.847036
O O3 0.645497 0.999504 0.775635
O O4 0.644571 0.031631 0.942952
O O5 0.078341 0.243515 0.709721
O O6 0.110535 0.022951 0.610884
O O7 0.000000 0.000000 0.729462
O O8 0.863061 0.017075 0.448850
O O9 0.870050 0.984532 0.279770
O O10 0.000000 0.000000 0.374358
O O11 0.750000 0.072914 0.066385
O O12 0.629240 0.250008 0.056284
O O13 0.619539 0.959033 0.104467
O O14 0.250000 0.558509 0.059316
O O15 0.000000 0.500000 0.700059
#
# Coordination Sequence:
#
# PCOD8192738 Si02
#       6
#     8   8   8   8   8   8
#     4  10  22  42  65  91 123 163 206 252 306 366
#     4  12  24  39  61  88 121 161 204 254 307 365
#     4  10  20  38  63  91 121 157 205 253 301 363
#     4   9  20  39  63  87 117 156 198 243 299 361
#     4  10  21  39  62  89 120 159 201 248 304 362
#     4  11  24  39  58  86 119 156 199 248 303 359
#
# _framework density 20.536131999999998
#
# number of rings (size 3 to 8) (size 9 to 14) (size 15 to 20)
#    0.000    1.667    0.000    6.500    0.000    7.333 
#    0.000    1.667    0.000    0.000    0.000    0.000 
#    0.000    0.000    0.000    0.000    0.000    0.000 
#
# Total GULP energy -297524.709832 kJ/mol
# GULP energy per Si atom -12396.862910 kJ/mol
# Density = 2.048939 g / cm^3
# Si number density = 20.536132 Si / 1000 Ang^3
#
#
#
# Elastic Constant Matrix: (Units=GPa)
#
#
# Indices 1 2 3 4 5 6 
#
# 1 64.7711 42.3624 28.9898 0.0000 0.0000 0.0000
# 2 42.3624 130.5418 66.8927 0.0000 0.0000 0.0000
# 3 28.9898 66.8927 155.9544 0.0000 0.0000 0.0000
# 4 0.0000 0.0000 0.0000 30.2234 0.0000 0.0000
# 5 0.0000 0.0000 0.0000 0.0000 39.5394 0.0000
# 6 0.0000 0.0000 0.0000 0.0000 0.0000 24.1821
#
#
#
# Elastic Compliance Matrix: (Units=1/GPa)
#
#
# Indices 1 2 3 4 5 6 
#
# 1 0.019767 -0.005809 -0.001183 0.000000 0.000000 0.000000
# 2 -0.005809 0.011525 -0.003864 0.000000 0.000000 0.000000
# 3 -0.001183 -0.003864 0.008289 0.000000 0.000000 0.000000
# 4 0.000000 0.000000 0.000000 0.033087 0.000000 0.000000
# 5 0.000000 0.000000 0.000000 0.000000 0.025291 0.000000
# 6 0.000000 0.000000 0.000000 0.000000 0.000000 0.041353
#
#
# Mechanical properties :
#
#
# Convention : Reuss Voigt Hill
#
# Bulk Modulus (GPa) = 55.95568 69.75078 62.85323
# Shear Modulus (GPa) = 29.94359 32.99050 31.46704
#
# Velocity S-wave (km/s) = 3.82264 4.01242 3.91868
# Velocity P-wave (km/s) = 6.84032 7.45014 7.15174
#
# Compressibility (1/GPa) = 0.01787129
#
# Stress axis : x y z
#
# Youngs Moduli (GPa) = 50.58820 86.76659 120.63763
#
# Poissons Ratio (x) = 0.50399 0.14272
# Poissons Ratio (y) = 0.29384 0.46611
# Poissons Ratio (z) = 0.05985 0.33524
#
# Static dielectric constant tensor:
#      x y z
#    x 3.629030 0.000000 0.000000 
#    y 0.000000 3.622480 0.000000 
#    z 0.000000 0.000000 4.347560 
# 
# 
# High freq. dielectric constant tensor:
#      x y z
#    x 1.794390 0.000000 0.000000 
#    y 0.000000 1.790460 0.000000 
#    z 0.000000 0.000000 1.830460 
# 
# From -- ./inp_files/16526.got.cif
#   From: 2010.03.12/outbox.cif.g09.slc.cpg/sg46_9_cif.got.tgz:16526.got - 2010.04.14 02:56:35.
