data_PCOD8192874
_publ_section_title
;
Structure prediction by ZEFSAII (Michael W. Deem and Ramdas Pophale) SiO2 
 PCOD8192874
Probable space group: I M A 2
;
_chemical_formula_sum "Si O2"
_cell_formula_units_Z 64
_cell_length_a 8.653839
_cell_length_b 28.814735
_cell_length_c 12.464476
_cell_angle_alpha 90.000000
_cell_angle_beta 90.000000
_cell_angle_gamma 90.000000
_cell_volume 3108.117773
_symmetry_space_group_name_H-M "I M A 2"
_symmetry_group_IT_number 46
_symmetry_cell_setting 'orthorhombic'
loop_
_space_group_symop_operation_xyz
x,y,z
-x,-y,z
1/2-x,y,z
1/2+x,-y,z
1/2+x,1/2+y,1/2+z
1/2-x,1/2-y,1/2+z
-x,1/2+y,1/2+z
x,1/2-y,1/2+z
loop_
_atom_site_type_symbol
_atom_site_label
_atom_site_fract_x
_atom_site_fract_y
_atom_site_fract_z
Si Si1 0.072945 0.864105 0.423240
Si Si2 0.432709 0.549153 0.457898
Si Si3 0.070504 0.187974 0.244232
Si Si4 0.426952 0.216567 0.829051
Si Si5 0.565038 0.649274 0.517137
Si Si6 0.579794 0.166829 0.650960
Si Si7 0.928332 0.545203 0.003777
Si Si8 0.921808 0.438439 0.213830
O O1 0.250000 0.859712 0.387106
O O2 0.037346 0.831052 0.525066
O O3 0.961832 0.854358 0.323679
O O4 0.038909 0.915678 0.459158
O O5 0.500000 0.500000 0.505491
O O6 0.250000 0.549879 0.476749
O O7 0.501062 0.596390 0.511124
O O8 0.478428 0.549978 0.333006
O O9 0.250000 0.197739 0.229882
O O10 0.994869 0.232830 0.305825
O O11 0.005275 0.174001 0.126937
O O12 0.250000 0.223335 0.859996
O O13 0.444769 0.192915 0.713244
O O14 0.500266 0.183557 0.922175
O O15 0.750000 0.645486 0.512509
O O16 0.750000 0.189437 0.668969
O O17 0.584782 0.116073 0.699171
O O18 0.750000 0.553193 0.974724
O O19 0.000000 0.500000 0.947409
O O20 0.951233 0.540761 0.132594
O O21 0.750000 0.458954 0.190848
#
# Coordination Sequence:
#
# PCOD8192874 Si02
#       8
#     8   8   8   8   8   8   8   8
#     4  10  22  40  59  84 119 155 198 249 298 354
#     4  11  22  37  59  87 121 163 208 256 310 370
#     4  10  23  41  62  88 120 159 205 254 304 362
#     4  10  21  36  61  91 120 156 197 244 301 360
#     4  10  22  41  61  89 127 161 204 260 307 364
#     4   9  18  34  55  83 119 153 189 238 289 347
#     4  11  21  34  56  85 118 158 200 246 302 361
#     4   9  18  33  52  81 121 157 195 245 297 356
#
# _framework density 20.591239999999999
#
# number of rings (size 3 to 8) (size 9 to 14) (size 15 to 20)
#    0.000    2.000    1.250    3.000    1.750    5.500 
#    0.000    0.625    0.000    3.000    0.000    0.000 
#    0.000    0.000    0.000    0.000    0.000    0.000 
#
# Total GULP energy -396453.917924 kJ/mol
# GULP energy per Si atom -12389.184935 kJ/mol
# Density = 2.054437 g / cm^3
# Si number density = 20.591240 Si / 1000 Ang^3
#
#
#
# Elastic Constant Matrix: (Units=GPa)
#
#
# Indices 1 2 3 4 5 6 
#
# 1 40.0819 24.1241 20.8845 0.0003 0.0001 0.0000
# 2 24.1241 118.8961 57.4212 0.0009 0.0003 0.0001
# 3 20.8845 57.4212 106.5632 0.0032 0.0008 0.0004
# 4 0.0003 0.0009 0.0032 -6.1091 0.0001 0.0001
# 5 0.0001 0.0003 0.0008 0.0001 25.2616 0.0004
# 6 0.0000 0.0001 0.0004 0.0001 0.0004 26.6414
#
#
#
# Elastic Compliance Matrix: (Units=1/GPa)
#
#
# Indices 1 2 3 4 5 6 
#
# 1 0.029321 -0.004291 -0.003434 -0.000001 0.000000 0.000000
# 2 -0.004291 0.011997 -0.005624 -0.000002 0.000000 0.000000
# 3 -0.003434 -0.005624 0.013088 0.000006 0.000000 0.000000
# 4 -0.000001 -0.000002 0.000006 -0.163691 0.000001 0.000001
# 5 0.000000 0.000000 0.000000 0.000001 0.039586 -0.000001
# 6 0.000000 0.000000 0.000000 0.000001 -0.000001 0.037536
#
#
# Mechanical properties :
#
#
# Convention : Reuss Voigt Hill
#
# Bulk Modulus (GPa) = 36.09062 52.26678 44.17870
# Shear Modulus (GPa) = 1326.41673 20.03289 673.22481
#
# Velocity S-wave (km/s) = 25.40795 3.12249 18.10130
# Velocity P-wave (km/s) = 29.63642 6.19984 21.40976
#
# Compressibility (1/GPa) = 0.02770803
#
# Stress axis : x y z
#
# Youngs Moduli (GPa) = 34.10556 83.35202 76.40841
#
# Poissons Ratio (x) = 0.35763 0.26242
# Poissons Ratio (y) = 0.14633 0.42971
# Poissons Ratio (z) = 0.11713 0.46876
#
# Static dielectric constant tensor:
#      x y z
#    x 3.581620 0.000000 0.000000 
#    y 0.000000 3.933970 0.000000 
#    z 0.000000 0.000000 3.720470 
# 
# 
# High freq. dielectric constant tensor:
#      x y z
#    x 1.789310 0.000000 0.000000 
#    y 0.000000 1.816300 0.000000 
#    z 0.000000 0.000000 1.786770 
# 
# From -- ./inp_files/9665.got.cif
#   From: 2010.03.12/outbox.cif.g09.slc.cpg/sg46_5_cif.got.tgz:9665.got - 2010.04.14 02:56:35.
