data_PCOD8192091
_publ_section_title
;
Structure prediction by ZEFSAII (Michael W. Deem and Ramdas Pophale) SiO2 
 PCOD8192091
Probable space group: I M A 2
;
_chemical_formula_sum "Si O2"
_cell_formula_units_Z 64
_cell_length_a 8.884394
_cell_length_b 28.897790
_cell_length_c 12.471107
_cell_angle_alpha 90.000000
_cell_angle_beta 90.000000
_cell_angle_gamma 90.000000
_cell_volume 3201.823931
_symmetry_space_group_name_H-M "I M A 2"
_symmetry_group_IT_number 46
_symmetry_cell_setting 'orthorhombic'
loop_
_space_group_symop_operation_xyz
x,y,z
-x,-y,z
1/2-x,y,z
1/2+x,-y,z
1/2+x,1/2+y,1/2+z
1/2-x,1/2-y,1/2+z
-x,1/2+y,1/2+z
x,1/2-y,1/2+z
loop_
_atom_site_type_symbol
_atom_site_label
_atom_site_fract_x
_atom_site_fract_y
_atom_site_fract_z
Si Si1 0.082363 0.163028 0.032530
Si Si2 0.419178 0.196420 0.801716
Si Si3 0.427243 0.602470 0.242814
Si Si4 0.076640 0.925298 0.974474
Si Si5 0.072261 0.613064 0.829575
Si Si6 0.074326 0.455382 0.673360
Si Si7 0.427782 0.550200 0.031005
Si Si8 0.925381 0.797487 0.260329
O O1 0.250000 0.139348 0.043039
O O2 0.046368 0.192970 0.135865
O O3 0.080223 0.195875 0.930023
O O4 0.949939 0.126300 0.017507
O O5 0.250000 0.193913 0.756172
O O6 0.505439 0.153925 0.746207
O O7 0.492790 0.246028 0.774704
O O8 0.250000 0.609192 0.236746
O O9 0.471566 0.572925 0.349237
O O10 0.487537 0.573747 0.140837
O O11 0.250000 0.939372 0.991229
O O12 0.970645 0.957850 0.047144
O O13 0.250000 0.611809 0.812528
O O14 0.990699 0.590998 0.726112
O O15 0.014328 0.665918 0.835806
O O16 0.024244 0.584503 0.935019
O O17 0.250000 0.457853 0.690498
O O18 0.000000 0.500000 0.731057
O O19 0.500000 0.500000 0.014578
O O20 0.250000 0.543379 0.034844
O O21 0.750000 0.799680 0.292657
#
# Coordination Sequence:
#
# PCOD8192091 Si02
#       8
#     8   8   8   8   8   8   8   8
#     4   9  17  32  52  75 110 151 187 234 289 341
#     4   9  19  34  54  84 117 154 201 245 293 349
#     4   9  20  39  60  84 118 154 194 243 294 349
#     4  10  19  34  57  83 110 144 186 231 284 344
#     4  11  23  39  59  84 115 152 198 245 294 353
#     4  12  24  38  57  83 115 147 183 232 288 345
#     4  10  23  42  62  86 118 157 200 250 302 358
#     4  10  20  34  55  83 116 155 198 246 296 349
#
# _framework density 19.988606999999998
#
# number of rings (size 3 to 8) (size 9 to 14) (size 15 to 20)
#    0.000    2.000    1.250    2.250    0.000    5.000 
#    0.000    2.500    0.000    0.000    0.000    0.000 
#    0.000    0.000    0.000    0.000    0.000    0.000 
#
# Total GULP energy -396720.188256 kJ/mol
# GULP energy per Si atom -12397.505883 kJ/mol
# Density = 1.994311 g / cm^3
# Si number density = 19.988607 Si / 1000 Ang^3
#
#
#
# Elastic Constant Matrix: (Units=GPa)
#
#
# Indices 1 2 3 4 5 6 
#
# 1 69.8053 28.9544 29.9607 -0.0004 0.0000 0.0000
# 2 28.9544 99.8070 32.9095 0.0002 -0.0001 0.0000
# 3 29.9607 32.9095 102.3329 -0.0032 0.0006 -0.0003
# 4 -0.0004 0.0002 -0.0032 28.7001 0.0002 -0.0001
# 5 0.0000 -0.0001 0.0006 0.0002 22.0049 -0.0005
# 6 0.0000 0.0000 -0.0003 -0.0001 -0.0005 33.5872
#
#
#
# Elastic Compliance Matrix: (Units=1/GPa)
#
#
# Indices 1 2 3 4 5 6 
#
# 1 0.017590 -0.003809 -0.003925 0.000000 0.000000 0.000000
# 2 -0.003809 0.012032 -0.002754 0.000000 0.000000 0.000000
# 3 -0.003925 -0.002754 0.011807 0.000001 0.000000 0.000000
# 4 0.000000 0.000000 0.000001 0.034843 0.000000 0.000000
# 5 0.000000 0.000000 0.000000 0.000000 0.045444 0.000001
# 6 0.000000 0.000000 0.000000 0.000000 0.000001 0.029773
#
#
# Mechanical properties :
#
#
# Convention : Reuss Voigt Hill
#
# Bulk Modulus (GPa) = 48.89258 50.62162 49.75710
# Shear Modulus (GPa) = 27.88864 28.86649 28.37757
#
# Velocity S-wave (km/s) = 3.73933 3.80432 3.77196
# Velocity P-wave (km/s) = 6.56938 6.68411 6.62699
#
# Compressibility (1/GPa) = 0.02045300
#
# Stress axis : x y z
#
# Youngs Moduli (GPa) = 56.85034 83.10836 84.69542
#
# Poissons Ratio (x) = 0.31654 0.33244
# Poissons Ratio (y) = 0.21653 0.23329
# Poissons Ratio (z) = 0.22314 0.22892
#
# Static dielectric constant tensor:
#      x y z
#    x 3.528890 0.000000 0.000000 
#    y 0.000000 3.659430 0.000000 
#    z 0.000000 0.000000 3.838290 
# 
# 
# High freq. dielectric constant tensor:
#      x y z
#    x 1.770110 0.000000 0.000000 
#    y 0.000000 1.780780 0.000000 
#    z 0.000000 0.000000 1.782450 
# 
# From -- ./inp_files/9699.got.cif
#   From: 2010.03.12/outbox.cif.g09.slc.cpg/sg46_5_cif.got.tgz:9699.got - 2010.04.14 02:56:35.
