data_PCOD8192002
_publ_section_title
;
Structure prediction by ZEFSAII (Michael W. Deem and Ramdas Pophale) SiO2 
 PCOD8192002
Probable space group: I M A 2
;
_chemical_formula_sum "Si O2"
_cell_formula_units_Z 48
_cell_length_a 9.042342
_cell_length_b 13.416120
_cell_length_c 18.410892
_cell_angle_alpha 90.000000
_cell_angle_beta 90.000000
_cell_angle_gamma 90.000000
_cell_volume 2233.483217
_symmetry_space_group_name_H-M "I M A 2"
_symmetry_group_IT_number 46
_symmetry_cell_setting 'orthorhombic'
loop_
_space_group_symop_operation_xyz
x,y,z
-x,-y,z
1/2-x,y,z
1/2+x,-y,z
1/2+x,1/2+y,1/2+z
1/2-x,1/2-y,1/2+z
-x,1/2+y,1/2+z
x,1/2-y,1/2+z
loop_
_atom_site_type_symbol
_atom_site_label
_atom_site_fract_x
_atom_site_fract_y
_atom_site_fract_z
Si Si1 0.426684 0.106325 0.705400
Si Si2 0.919583 0.897301 0.997800
Si Si3 0.924475 0.402823 0.867725
Si Si4 0.417281 0.209617 0.854961
Si Si5 0.417230 0.757447 0.597251
Si Si6 0.089933 0.584509 0.705833
O O1 0.250000 0.096602 0.699290
O O2 0.472092 0.173556 0.775459
O O3 0.490447 0.149121 0.628813
O O4 0.500000 0.000000 0.718130
O O5 0.750000 0.903714 0.025043
O O6 0.997563 0.801367 0.034364
O O7 0.926804 0.882933 0.910887
O O8 0.000000 0.000000 0.018763
O O9 0.750000 0.407418 0.880487
O O10 0.981174 0.399760 0.784605
O O11 0.000000 0.500000 0.905986
O O12 0.985950 0.296576 0.894258
O O13 0.250000 0.249206 0.848777
O O14 0.250000 0.788589 0.571864
O O15 0.404160 0.687632 0.666357
O O16 0.250000 0.537694 0.717353
O O17 0.000000 0.500000 0.661405
#
# Coordination Sequence:
#
# PCOD8192002 Si02
#       6
#     8   8   8   8   8   8
#     4  11  23  40  64  92 122 161 206 257 311 368
#     4  11  24  42  63  92 127 165 207 253 307 370
#     4  10  19  33  55  85 120 156 197 246 300 357
#     4  10  22  40  62  90 126 164 206 254 307 366
#     4  11  22  39  60  88 122 158 202 252 306 365
#     4   9  18  30  49  79 113 148 186 234 287 344
#
# _framework density 21.491095000000001
#
# number of rings (size 3 to 8) (size 9 to 14) (size 15 to 20)
#    0.000    1.667    1.667    3.000    0.000    5.333 
#    0.000    0.833    0.000    4.000    0.000    0.000 
#    0.000    0.000    0.000    0.000    0.000    0.000 
#
# Total GULP energy -297407.291728 kJ/mol
# GULP energy per Si atom -12391.970489 kJ/mol
# Density = 2.144218 g / cm^3
# Si number density = 21.491095 Si / 1000 Ang^3
#
#
#
# Elastic Constant Matrix: (Units=GPa)
#
#
# Indices 1 2 3 4 5 6 
#
# 1 137.7248 58.0665 29.2319 0.0000 0.0000 0.0000
# 2 58.0665 114.9410 16.5691 0.0000 0.0000 0.0000
# 3 29.2319 16.5691 62.9998 0.0000 0.0000 0.0000
# 4 0.0000 0.0000 0.0000 22.5340 0.0000 0.0000
# 5 0.0000 0.0000 0.0000 0.0000 -79.9752 0.0000
# 6 0.0000 0.0000 0.0000 0.0000 0.0000 43.5684
#
#
#
# Elastic Compliance Matrix: (Units=1/GPa)
#
#
# Indices 1 2 3 4 5 6 
#
# 1 0.009880 -0.004501 -0.003401 0.000000 0.000000 0.000000
# 2 -0.004501 0.011094 -0.000829 0.000000 0.000000 0.000000
# 3 -0.003401 -0.000829 0.017669 0.000000 0.000000 0.000000
# 4 0.000000 0.000000 0.000000 0.044377 0.000000 0.000000
# 5 0.000000 0.000000 0.000000 0.000000 -0.012504 0.000000
# 6 0.000000 0.000000 0.000000 0.000000 0.000000 0.022952
#
#
# Mechanical properties :
#
#
# Convention : Reuss Voigt Hill
#
# Bulk Modulus (GPa) = 47.21194 58.15561 52.68378
# Shear Modulus (GPa) = 42.37600 11.34530 26.86065
#
# Velocity S-wave (km/s) = 4.44531 2.30012 3.53916
# Velocity P-wave (km/s) = 6.95439 5.84578 6.42404
#
# Compressibility (1/GPa) = 0.02118108
#
# Stress axis : x y z
#
# Youngs Moduli (GPa) = 101.21024 90.14220 56.59616
#
# Poissons Ratio (x) = 0.40575 0.19247
# Poissons Ratio (y) = 0.45557 0.04692
# Poissons Ratio (z) = 0.34418 0.07473
#
# Static dielectric constant tensor:
#      x y z
#    x 4.068030 0.000000 0.000000 
#    y 0.000000 3.900900 0.000000 
#    z 0.000000 0.000000 3.634210 
# 
# 
# High freq. dielectric constant tensor:
#      x y z
#    x 1.851040 0.000000 0.000000 
#    y 0.000000 1.841530 0.000000 
#    z 0.000000 0.000000 1.825770 
# 
# From -- ./inp_files/22912.got.cif
#   From: 2010.03.12/outbox.cif.g09.slc.cpg/sg46_12_cif.got.tgz:22912.got - 2010.04.14 02:56:35.
