data_PCOD8192412
_publ_section_title
;
Structure prediction by ZEFSAII (Michael W. Deem and Ramdas Pophale) SiO2 
 PCOD8192412
Probable space group: I M A 2
;
_chemical_formula_sum "Si O2"
_cell_formula_units_Z 64
_cell_length_a 8.992374
_cell_length_b 28.091829
_cell_length_c 12.536040
_cell_angle_alpha 90.000000
_cell_angle_beta 90.000000
_cell_angle_gamma 90.000000
_cell_volume 3166.757054
_symmetry_space_group_name_H-M "I M A 2"
_symmetry_group_IT_number 46
_symmetry_cell_setting 'orthorhombic'
loop_
_space_group_symop_operation_xyz
x,y,z
-x,-y,z
1/2-x,y,z
1/2+x,-y,z
1/2+x,1/2+y,1/2+z
1/2-x,1/2-y,1/2+z
-x,1/2+y,1/2+z
x,1/2-y,1/2+z
loop_
_atom_site_type_symbol
_atom_site_label
_atom_site_fract_x
_atom_site_fract_y
_atom_site_fract_z
Si Si1 0.912634 0.181033 0.023800
Si Si2 0.422937 0.200371 0.821761
Si Si3 0.573379 0.595789 0.249677
Si Si4 0.084292 0.926588 0.957407
Si Si5 0.919321 0.611107 0.861698
Si Si6 0.079456 0.455696 0.667753
Si Si7 0.427573 0.551659 0.040984
Si Si8 0.922356 0.800607 0.236225
O O1 0.750000 0.204144 0.035815
O O2 0.988864 0.179334 0.137285
O O3 0.900665 0.128524 0.979419
O O4 0.003342 0.210280 0.936131
O O5 0.250000 0.198870 0.845760
O O6 0.470209 0.151728 0.761796
O O7 0.468530 0.245704 0.751120
O O8 0.750000 0.588805 0.238099
O O9 0.514376 0.565953 0.351091
O O10 0.490219 0.575212 0.147603
O O11 0.250000 0.948512 0.942035
O O12 0.001414 0.950891 0.054915
O O13 0.750000 0.603890 0.903506
O O14 0.938840 0.589374 0.743744
O O15 0.956121 0.667137 0.842044
O O16 0.031672 0.587133 0.944305
O O17 0.250000 0.467419 0.645367
O O18 0.000000 0.500000 0.727286
O O19 0.500000 0.500000 0.021550
O O20 0.250000 0.546324 0.047529
O O21 0.750000 0.805322 0.207863
#
# Coordination Sequence:
#
# PCOD8192412 Si02
#       8
#     8   8   8   8   8   8   8   8
#     4  10  20  34  55  82 117 154 189 242 304 357
#     4   9  20  37  60  88 119 161 207 252 301 360
#     4  10  21  40  64  89 121 159 204 253 305 363
#     4  10  20  36  58  85 116 151 192 240 298 359
#     4  10  22  40  62  88 120 159 205 254 303 361
#     4  11  22  36  57  86 117 152 191 241 295 353
#     4  12  26  44  66  90 122 164 210 261 318 379
#     4  10  20  37  61  88 119 160 209 253 299 362
#
# _framework density 20.209948000000001
#
# number of rings (size 3 to 8) (size 9 to 14) (size 15 to 20)
#    0.000    1.750    1.250    3.000    0.000    6.000 
#    0.000    7.500    0.000    0.000    0.000    0.000 
#    0.000    0.000    0.000    0.000    0.000    0.000 
#
# Total GULP energy -396732.947391 kJ/mol
# GULP energy per Si atom -12397.904606 kJ/mol
# Density = 2.016395 g / cm^3
# Si number density = 20.209948 Si / 1000 Ang^3
#
#
#
# Elastic Constant Matrix: (Units=GPa)
#
#
# Indices 1 2 3 4 5 6 
#
# 1 115.1904 30.1869 49.6947 -0.0012 -0.0015 0.0007
# 2 30.1869 51.3260 16.3666 -0.0019 -0.0015 0.0009
# 3 49.6947 16.3666 99.8807 -0.0040 -0.0032 0.0009
# 4 -0.0012 -0.0019 -0.0040 16.2910 -0.0003 0.0000
# 5 -0.0015 -0.0015 -0.0032 -0.0003 34.9772 -0.0003
# 6 0.0007 0.0009 0.0009 0.0000 -0.0003 20.8175
#
#
#
# Elastic Compliance Matrix: (Units=1/GPa)
#
#
# Indices 1 2 3 4 5 6 
#
# 1 0.012426 -0.005631 -0.005260 -0.000001 0.000000 0.000000
# 2 -0.005631 0.023109 -0.000985 0.000002 0.000001 -0.000001
# 3 -0.005260 -0.000985 0.012790 0.000003 0.000001 0.000000
# 4 -0.000001 0.000002 0.000003 0.061384 0.000001 0.000000
# 5 0.000000 0.000001 0.000001 0.000001 0.028590 0.000000
# 6 0.000000 -0.000001 0.000000 0.000000 0.000000 0.048037
#
#
# Mechanical properties :
#
#
# Convention : Reuss Voigt Hill
#
# Bulk Modulus (GPa) = 40.69355 50.98816 45.84086
# Shear Modulus (GPa) = 22.90645 25.76038 24.33341
#
# Velocity S-wave (km/s) = 3.37029 3.57408 3.47368
# Velocity P-wave (km/s) = 5.94342 6.50508 6.23058
#
# Compressibility (1/GPa) = 0.02457392
#
# Stress axis : x y z
#
# Youngs Moduli (GPa) = 80.47577 43.27269 78.18422
#
# Poissons Ratio (x) = 0.24367 0.41123
# Poissons Ratio (y) = 0.45317 0.07701
# Poissons Ratio (z) = 0.42328 0.04262
#
# Static dielectric constant tensor:
#      x y z
#    x 4.049490 0.000000 0.000010 
#    y 0.000000 3.891580 0.000000 
#    z 0.000010 0.000000 3.607140 
# 
# 
# High freq. dielectric constant tensor:
#      x y z
#    x 1.795030 0.000000 0.000000 
#    y 0.000000 1.790590 0.000000 
#    z 0.000000 0.000000 1.785830 
# 
# From -- ./inp_files/9674.got.cif
#   From: 2010.03.12/outbox.cif.g09.slc.cpg/sg46_5_cif.got.tgz:9674.got - 2010.04.14 02:56:35.
