data_PCOD8192451
_publ_section_title
;
Structure prediction by ZEFSAII (Michael W. Deem and Ramdas Pophale) SiO2 
 PCOD8192451
Probable space group: I M A 2
;
_chemical_formula_sum "Si O2"
_cell_formula_units_Z 40
_cell_length_a 16.994061
_cell_length_b 15.150609
_cell_length_c 7.633052
_cell_angle_alpha 90.000000
_cell_angle_beta 90.000000
_cell_angle_gamma 90.000000
_cell_volume 1965.284750
_symmetry_space_group_name_H-M "I M A 2"
_symmetry_group_IT_number 46
_symmetry_cell_setting 'orthorhombic'
loop_
_space_group_symop_operation_xyz
x,y,z
-x,-y,z
1/2-x,y,z
1/2+x,-y,z
1/2+x,1/2+y,1/2+z
1/2-x,1/2-y,1/2+z
-x,1/2+y,1/2+z
x,1/2-y,1/2+z
loop_
_atom_site_type_symbol
_atom_site_label
_atom_site_fract_x
_atom_site_fract_y
_atom_site_fract_z
Si Si1 0.341108 0.038218 0.179010
Si Si2 0.907041 0.327905 0.128282
Si Si3 0.909535 0.501498 0.322641
Si Si4 0.447544 0.416460 0.977885
Si Si5 0.338045 0.841037 0.275203
O O1 0.250000 0.058734 0.215290
O O2 0.391780 0.102455 0.308764
O O3 0.364520 0.937117 0.213124
O O4 0.359622 0.050309 0.973370
O O5 0.888331 0.398960 0.282021
O O6 0.901083 0.229688 0.204777
O O7 0.839219 0.340914 0.984924
O O8 0.993223 0.337666 0.034617
O O9 0.000000 0.500000 0.380311
O O10 0.894458 0.558670 0.146718
O O11 0.500000 0.500000 0.927116
O O12 0.250000 0.818602 0.210188
#
# Coordination Sequence:
#
# PCOD8192451 Si02
#       5
#     8   8   8   8   8
#     4  11  21  33  56  84 114 152 191 244 300 351
#     4  10  20  35  52  78 120 162 195 236 287 361
#     4   9  19  33  53  74 106 153 196 241 279 347
#     4   9  18  38  54  75 110 157 202 243 279 344
#     4  11  21  32  50  83 124 154 181 226 297 365
#
# _framework density 20.353285
#
# number of rings (size 3 to 8) (size 9 to 14) (size 15 to 20)
#    0.000    2.400    4.000    2.400    0.000    4.000 
#    0.000    0.000    0.000    0.000    0.000    1.400 
#    0.000    0.000    0.000    0.000    0.000    0.000 
#
# Total GULP energy -247838.777809 kJ/mol
# GULP energy per Si atom -12391.938890 kJ/mol
# Density = 2.030696 g / cm^3
# Si number density = 20.353285 Si / 1000 Ang^3
#
#
#
# Elastic Constant Matrix: (Units=GPa)
#
#
# Indices 1 2 3 4 5 6 
#
# 1 85.4112 33.0725 47.2979 0.0000 0.0000 0.0000
# 2 33.0725 42.4211 6.3591 0.0000 0.0000 0.0000
# 3 47.2979 6.3591 117.9482 0.0000 0.0000 0.0000
# 4 0.0000 0.0000 0.0000 17.8281 0.0000 0.0000
# 5 0.0000 0.0000 0.0000 0.0000 31.5763 0.0000
# 6 0.0000 0.0000 0.0000 0.0000 0.0000 28.2114
#
#
#
# Elastic Compliance Matrix: (Units=1/GPa)
#
#
# Indices 1 2 3 4 5 6 
#
# 1 0.022571 -0.016373 -0.008168 0.000000 0.000000 0.000000
# 2 -0.016373 0.035641 0.004644 0.000000 0.000000 0.000000
# 3 -0.008168 0.004644 0.011504 0.000000 0.000000 0.000000
# 4 0.000000 0.000000 0.000000 0.056091 0.000000 0.000000
# 5 0.000000 0.000000 0.000000 0.000000 0.031669 0.000000
# 6 0.000000 0.000000 0.000000 0.000000 0.000000 0.035447
#
#
# Mechanical properties :
#
#
# Convention : Reuss Voigt Hill
#
# Bulk Modulus (GPa) = 33.42028 46.58217 40.00122
# Shear Modulus (GPa) = 20.60227 26.12656 23.36442
#
# Velocity S-wave (km/s) = 3.18501 3.58670 3.39181
# Velocity P-wave (km/s) = 5.47553 6.33159 5.91906
#
# Compressibility (1/GPa) = 0.02992196
#
# Stress axis : x y z
#
# Youngs Moduli (GPa) = 44.30425 28.05722 86.92980
#
# Poissons Ratio (x) = 0.45937 0.71008
# Poissons Ratio (y) = 0.72537 -0.40369
# Poissons Ratio (z) = 0.36190 -0.13030
#
# Static dielectric constant tensor:
#      x y z
#    x 3.541030 0.000000 0.000000 
#    y 0.000000 3.315960 0.000000 
#    z 0.000000 0.000000 3.899440 
# 
# 
# High freq. dielectric constant tensor:
#      x y z
#    x 1.778230 0.000000 0.000000 
#    y 0.000000 1.745230 0.000000 
#    z 0.000000 0.000000 1.809730 
# 
# From -- ./inp_files/5406.got.cif
#   From: 2010.03.12/outbox.cif.g09.slc.cpg/sg46_3_cif.got.tgz:5406.got - 2010.04.14 02:56:35.
