data_PCOD8192638
_publ_section_title
;
Structure prediction by ZEFSAII (Michael W. Deem and Ramdas Pophale) SiO2 
 PCOD8192638
Probable space group: I M A 2
;
_chemical_formula_sum "Si O2"
_cell_formula_units_Z 48
_cell_length_a 8.534934
_cell_length_b 30.555436
_cell_length_c 9.872543
_cell_angle_alpha 90.000000
_cell_angle_beta 90.000000
_cell_angle_gamma 90.000000
_cell_volume 2574.646960
_symmetry_space_group_name_H-M "I M A 2"
_symmetry_group_IT_number 46
_symmetry_cell_setting 'orthorhombic'
loop_
_space_group_symop_operation_xyz
x,y,z
-x,-y,z
1/2-x,y,z
1/2+x,-y,z
1/2+x,1/2+y,1/2+z
1/2-x,1/2-y,1/2+z
-x,1/2+y,1/2+z
x,1/2-y,1/2+z
loop_
_atom_site_type_symbol
_atom_site_label
_atom_site_fract_x
_atom_site_fract_y
_atom_site_fract_z
Si Si1 0.566426 0.718535 0.748600
Si Si2 0.432256 0.785026 0.957694
Si Si3 0.063726 0.122510 0.942006
Si Si4 0.436064 0.046023 0.442275
Si Si5 0.564789 0.954144 0.748686
Si Si6 0.934685 0.619932 0.745797
O O1 0.750000 0.726644 0.773313
O O2 0.464798 0.749890 0.841787
O O3 0.529885 0.727584 0.591305
O O4 0.515410 0.669014 0.786558
O O5 0.250000 0.785482 0.994166
O O6 0.484573 0.831982 0.899311
O O7 0.250000 0.128549 0.933334
O O8 0.000761 0.085121 0.841436
O O9 0.009281 0.109405 0.093354
O O10 0.250000 0.045323 0.435833
O O11 0.495150 0.053889 0.595644
O O12 0.508267 0.084759 0.349619
O O13 0.500000 0.000000 0.386404
O O14 0.750000 0.955840 0.755373
O O15 0.500000 0.000000 0.805305
O O16 0.750000 0.616023 0.752713
#
# Coordination Sequence:
#
# PCOD8192638 Si02
#       6
#     8   8   8   8   8   8
#     4  10  20  37  58  78 103 142 183 217 259 322
#     4  11  22  36  54  81 112 138 170 223 276 315
#     4   9  18  34  52  71  97 135 175 209 251 314
#     4   9  17  31  48  70  97 126 160 203 250 298
#     4   9  18  31  49  71  98 130 167 209 255 307
#     4   8  16  31  51  71  94 125 167 209 243 290
#
# _framework density 18.643332999999998
#
# number of rings (size 3 to 8) (size 9 to 14) (size 15 to 20)
#    0.000    2.667    0.000    3.000    0.000    2.667 
#    0.000    7.500    0.000    0.000    0.000    0.000 
#    0.000    0.000    0.000    0.000    0.000    0.000 
#
# Total GULP energy -297596.973443 kJ/mol
# GULP energy per Si atom -12399.873893 kJ/mol
# Density = 1.860090 g / cm^3
# Si number density = 18.643333 Si / 1000 Ang^3
#
#
#
# Elastic Constant Matrix: (Units=GPa)
#
#
# Indices 1 2 3 4 5 6 
#
# 1 35.0327 20.9002 11.7697 -0.0002 -0.0003 -0.0002
# 2 20.9002 158.9939 91.2210 -0.0012 -0.0006 -0.0004
# 3 11.7697 91.2210 92.2834 0.0005 -0.0004 -0.0006
# 4 -0.0002 -0.0012 0.0005 42.8456 -0.0004 -0.0003
# 5 -0.0003 -0.0006 -0.0004 -0.0004 19.2428 -0.0006
# 6 -0.0002 -0.0004 -0.0006 -0.0003 -0.0006 27.9842
#
#
#
# Elastic Compliance Matrix: (Units=1/GPa)
#
#
# Indices 1 2 3 4 5 6 
#
# 1 0.030975 -0.004170 0.000172 0.000000 0.000000 0.000000
# 2 -0.004170 0.015091 -0.014386 0.000001 0.000000 0.000000
# 3 0.000172 -0.014386 0.025035 -0.000001 0.000000 0.000000
# 4 0.000000 0.000001 -0.000001 0.023340 0.000001 0.000000
# 5 0.000000 0.000000 0.000000 0.000001 0.051968 0.000001
# 6 0.000000 0.000000 0.000000 0.000000 0.000001 0.035734
#
#
# Mechanical properties :
#
#
# Convention : Reuss Voigt Hill
#
# Bulk Modulus (GPa) = 29.12713 59.34353 44.23533
# Shear Modulus (GPa) = 21.70559 28.84247 25.27403
#
# Velocity S-wave (km/s) = 3.41582 3.93754 3.68592
# Velocity P-wave (km/s) = 5.58698 7.25068 6.47251
#
# Compressibility (1/GPa) = 0.03433225
#
# Stress axis : x y z
#
# Youngs Moduli (GPa) = 32.28409 66.26256 39.94483
#
# Poissons Ratio (x) = 0.27634 -0.00686
# Poissons Ratio (y) = 0.13463 0.57464
# Poissons Ratio (z) = -0.00555 0.95324
#
# Static dielectric constant tensor:
#      x y z
#    x 3.149300 0.000000 0.000000 
#    y 0.000000 3.622740 0.000000 
#    z 0.000000 0.000000 3.615030 
# 
# 
# High freq. dielectric constant tensor:
#      x y z
#    x 1.703010 0.000000 0.000000 
#    y 0.000000 1.730870 0.000000 
#    z 0.000000 0.000000 1.721360 
# 
# From -- ./inp_files/3918.got.cif
#   From: 2010.03.12/outbox.cif.g09.slc.cpg/sg46_2_cif.got.tgz:3918.got - 2010.04.14 02:56:35.
