data_PCOD8192667
_publ_section_title
;
Structure prediction by ZEFSAII (Michael W. Deem and Ramdas Pophale) SiO2 
 PCOD8192667
Probable space group: I M A 2
;
_chemical_formula_sum "Si O2"
_cell_formula_units_Z 48
_cell_length_a 15.227351
_cell_length_b 17.745501
_cell_length_c 8.930226
_cell_angle_alpha 90.000000
_cell_angle_beta 90.000000
_cell_angle_gamma 90.000000
_cell_volume 2413.098633
_symmetry_space_group_name_H-M "I M A 2"
_symmetry_group_IT_number 46
_symmetry_cell_setting 'orthorhombic'
loop_
_space_group_symop_operation_xyz
x,y,z
-x,-y,z
1/2-x,y,z
1/2+x,-y,z
1/2+x,1/2+y,1/2+z
1/2-x,1/2-y,1/2+z
-x,1/2+y,1/2+z
x,1/2-y,1/2+z
loop_
_atom_site_type_symbol
_atom_site_label
_atom_site_fract_x
_atom_site_fract_y
_atom_site_fract_z
Si Si1 0.984736 0.173043 0.477950
Si Si2 0.089851 0.959642 0.657399
Si Si3 0.482463 0.826377 0.125713
Si Si4 0.652956 0.884237 0.627403
Si Si5 0.849192 0.063577 0.975617
Si Si6 0.650350 0.612290 0.474559
O O1 0.925473 0.102684 0.530057
O O2 0.979172 0.181542 0.302186
O O3 0.948406 0.248911 0.553158
O O4 0.085835 0.161275 0.524957
O O5 0.132037 0.919255 0.801177
O O6 0.151835 0.025777 0.592641
O O7 0.000000 0.000000 0.708630
O O8 0.417348 0.892690 0.078827
O O9 0.582515 0.841696 0.075697
O O10 0.750000 0.854042 0.589930
O O11 0.628806 0.870950 0.801183
O O12 0.750000 0.089541 0.012707
O O13 0.861491 0.975633 0.008883
O O14 0.750000 0.637479 0.513067
#
# Coordination Sequence:
#
# PCOD8192667 Si02
#       6
#     8   8   8   8   8   8
#     4  11  24  37  56  80 111 153 189 227 282 330
#     4   9  17  35  60  85 112 145 182 222 275 333
#     4  12  23  39  56  79 116 152 187 233 278 329
#     4   9  18  36  60  87 114 143 181 226 275 335
#     4  10  20  37  61  86 110 145 187 229 277 332
#     4   9  19  36  62  89 114 146 183 223 276 335
#
# _framework density 19.891437
#
# number of rings (size 3 to 8) (size 9 to 14) (size 15 to 20)
#    0.000    2.000    0.000    7.000    0.000    5.333 
#    0.000    7.500    0.000    0.000    0.000    0.000 
#    0.000    0.000    0.000    0.000    0.000    0.000 
#
# Total GULP energy -297637.616549 kJ/mol
# GULP energy per Si atom -12401.567356 kJ/mol
# Density = 1.984616 g / cm^3
# Si number density = 19.891437 Si / 1000 Ang^3
#
#
#
# Elastic Constant Matrix: (Units=GPa)
#
#
# Indices 1 2 3 4 5 6 
#
# 1 63.0681 10.1160 24.6779 0.0000 0.0000 0.0000
# 2 10.1160 58.7505 40.5457 0.0000 0.0000 0.0000
# 3 24.6779 40.5457 117.9633 0.0000 0.0000 0.0000
# 4 0.0000 0.0000 0.0000 33.8885 0.0000 0.0000
# 5 0.0000 0.0000 0.0000 0.0000 14.6250 0.0000
# 6 0.0000 0.0000 0.0000 0.0000 0.0000 18.0734
#
#
#
# Elastic Compliance Matrix: (Units=1/GPa)
#
#
# Indices 1 2 3 4 5 6 
#
# 1 0.017287 -0.000630 -0.003400 0.000000 0.000000 0.000000
# 2 -0.000630 0.022337 -0.007546 0.000000 0.000000 0.000000
# 3 -0.003400 -0.007546 0.011782 0.000000 0.000000 0.000000
# 4 0.000000 0.000000 0.000000 0.029509 0.000000 0.000000
# 5 0.000000 0.000000 0.000000 0.000000 0.068376 0.000000
# 6 0.000000 0.000000 0.000000 0.000000 0.000000 0.055330
#
#
# Mechanical properties :
#
#
# Convention : Reuss Voigt Hill
#
# Bulk Modulus (GPa) = 35.39227 43.38458 39.38843
# Shear Modulus (GPa) = 21.08001 24.28020 22.68011
#
# Velocity S-wave (km/s) = 3.25892 3.49755 3.38034
# Velocity P-wave (km/s) = 5.65615 6.17807 5.92286
#
# Compressibility (1/GPa) = 0.02825476
#
# Stress axis : x y z
#
# Youngs Moduli (GPa) = 57.84596 44.76826 84.87478
#
# Poissons Ratio (x) = 0.02822 0.28856
# Poissons Ratio (y) = 0.03646 0.64045
# Poissons Ratio (z) = 0.19667 0.33781
#
# Static dielectric constant tensor:
#      x y z
#    x 3.730090 0.000000 0.000000 
#    y 0.000000 3.645270 0.000000 
#    z 0.000000 0.000000 3.368130 
# 
# 
# High freq. dielectric constant tensor:
#      x y z
#    x 1.776340 0.000000 0.000000 
#    y 0.000000 1.774380 0.000000 
#    z 0.000000 0.000000 1.759180 
# 
# From -- ./inp_files/5695.got.cif
#   From: 2010.03.12/outbox.cif.g09.slc.cpg/sg46_3_cif.got.tgz:5695.got - 2010.04.14 02:56:35.
