data_PCOD8193028
_publ_section_title
;
Structure prediction by ZEFSAII (Michael W. Deem and Ramdas Pophale) SiO2 
 PCOD8193028
Probable space group: I M A 2
;
_chemical_formula_sum "Si O2"
_cell_formula_units_Z 56
_cell_length_a 14.655534
_cell_length_b 5.630038
_cell_length_c 28.760191
_cell_angle_alpha 90.000000
_cell_angle_beta 90.000000
_cell_angle_gamma 90.000000
_cell_volume 2373.038255
_symmetry_space_group_name_H-M "I M A 2"
_symmetry_group_IT_number 46
_symmetry_cell_setting 'orthorhombic'
loop_
_space_group_symop_operation_xyz
x,y,z
-x,-y,z
1/2-x,y,z
1/2+x,-y,z
1/2+x,1/2+y,1/2+z
1/2-x,1/2-y,1/2+z
-x,1/2+y,1/2+z
x,1/2-y,1/2+z
loop_
_atom_site_type_symbol
_atom_site_label
_atom_site_fract_x
_atom_site_fract_y
_atom_site_fract_z
Si Si1 0.645471 0.492600 0.390260
Si Si2 0.500000 0.500000 0.555449
Si Si3 0.349246 0.197329 0.712736
Si Si4 0.000000 0.500000 0.758710
Si Si5 0.593804 0.880649 0.612417
Si Si6 0.148778 0.672884 0.291204
Si Si7 0.645844 0.511940 0.927782
Si Si8 0.850310 0.333438 0.025987
O O1 0.750000 0.492901 0.406958
O O2 0.634740 0.506023 0.334340
O O3 0.602531 0.239607 0.408684
O O4 0.599632 0.739467 0.409480
O O5 0.571913 0.631092 0.588585
O O6 0.436634 0.658784 0.522195
O O7 0.250000 0.312925 0.725290
O O8 0.434883 0.359941 0.723712
O O9 0.345344 0.143840 0.658076
O O10 0.360557 0.957667 0.742052
O O11 0.066536 0.640692 0.793341
O O12 0.500000 0.000000 0.627867
O O13 0.648745 0.036156 0.575305
O O14 0.250000 0.791564 0.295425
O O15 0.750000 0.514912 0.910292
O O16 0.636798 0.518621 0.983714
O O17 0.750000 0.208867 0.021023
#
# Coordination Sequence:
#
# PCOD8193028 Si02
#       8
#     8   4   8   4   8   8   8   8
#     4   9  19  37  65  99 134 174 227 282 340 406
#     4  10  23  40  64  96 136 174 220 286 345 410
#     4  11  24  42  66  94 128 174 225 282 347 417
#     4  12  23  40  66  96 136 172 224 282 343 418
#     4  10  21  40  63  91 133 175 219 282 346 412
#     4  10  23  41  67  97 134 180 226 281 344 414
#     4   9  19  36  65 100 133 176 227 281 341 405
#     4  10  22  39  66  98 133 181 230 280 345 416
#
# _framework density 23.598441999999999
#
# number of rings (size 3 to 8) (size 9 to 14) (size 15 to 20)
#    0.000    2.000    0.000    2.571    4.000    2.286 
#    0.000    0.000    7.857    0.000    0.000    0.000 
#    0.000    1.143    0.000    0.000    0.000    0.000 
#
# Total GULP energy -346945.937875 kJ/mol
# GULP energy per Si atom -12390.926353 kJ/mol
# Density = 2.354473 g / cm^3
# Si number density = 23.598442 Si / 1000 Ang^3
#
#
#
# Elastic Constant Matrix: (Units=GPa)
#
#
# Indices 1 2 3 4 5 6 
#
# 1 138.7978 50.2021 47.0764 0.0000 0.0000 0.0000
# 2 50.2021 146.8188 54.0071 0.0000 0.0000 0.0000
# 3 47.0764 54.0071 129.3286 0.0000 0.0000 0.0000
# 4 0.0000 0.0000 0.0000 24.7966 0.0000 0.0000
# 5 0.0000 0.0000 0.0000 0.0000 34.0244 0.0000
# 6 0.0000 0.0000 0.0000 0.0000 0.0000 22.8788
#
#
#
# Elastic Compliance Matrix: (Units=1/GPa)
#
#
# Indices 1 2 3 4 5 6 
#
# 1 0.008760 -0.002153 -0.002290 0.000000 0.000000 0.000000
# 2 -0.002153 0.008576 -0.002798 0.000000 0.000000 0.000000
# 3 -0.002290 -0.002798 0.009734 0.000000 0.000000 0.000000
# 4 0.000000 0.000000 0.000000 0.040328 0.000000 0.000000
# 5 0.000000 0.000000 0.000000 0.000000 0.029391 0.000000
# 6 0.000000 0.000000 0.000000 0.000000 0.000000 0.043709
#
#
# Mechanical properties :
#
#
# Convention : Reuss Voigt Hill
#
# Bulk Modulus (GPa) = 79.43050 79.72402 79.57726
# Shear Modulus (GPa) = 31.41190 33.91727 32.66459
#
# Velocity S-wave (km/s) = 3.65238 3.79524 3.72450
# Velocity P-wave (km/s) = 7.17766 7.28437 7.23121
#
# Compressibility (1/GPa) = 0.01258962
#
# Stress axis : x y z
#
# Youngs Moduli (GPa) = 114.15447 116.59773 102.73272
#
# Poissons Ratio (x) = 0.25105 0.23521
# Poissons Ratio (y) = 0.24579 0.28742
# Poissons Ratio (z) = 0.26137 0.32621
#
# Static dielectric constant tensor:
#      x y z
#    x 4.228720 0.000000 0.000000 
#    y 0.000000 4.276840 0.000000 
#    z 0.000000 0.000000 4.117610 
# 
# 
# High freq. dielectric constant tensor:
#      x y z
#    x 1.932930 0.000000 0.000000 
#    y 0.000000 1.917220 0.000000 
#    z 0.000000 0.000000 1.939690 
# 
# From -- ./inp_files/25462.got.cif
#   From: 2010.03.12/outbox.cif.g09.slc.cpg/sg46_13_cif.got.tgz:25462.got - 2010.04.14 02:56:35.
