data_PCOD8193522
_publ_section_title
;
Structure prediction by ZEFSAII (Michael W. Deem and Ramdas Pophale) SiO2 
 PCOD8193522
Probable space group: P M M M
;
_chemical_formula_sum "Si O2"
_cell_formula_units_Z 48
_cell_length_a 14.128719
_cell_length_b 13.748477
_cell_length_c 16.495257
_cell_angle_alpha 90.000000
_cell_angle_beta 90.000000
_cell_angle_gamma 90.000000
_cell_volume 3204.176755
_symmetry_space_group_name_H-M "P M M M"
_symmetry_group_IT_number 47
_symmetry_cell_setting 'orthorhombic'
loop_
_space_group_symop_operation_xyz
x,y,z
-x,-y,z
x,-y,-z
-x,y,-z
-x,-y,-z
x,y,-z
-x,y,z
x,-y,z
loop_
_atom_site_type_symbol
_atom_site_label
_atom_site_fract_x
_atom_site_fract_y
_atom_site_fract_z
Si Si1 0.611892 0.296064 0.000000
Si Si2 0.610606 0.789021 0.736685
Si Si3 0.771272 0.112042 0.174187
Si Si4 0.103602 0.885899 0.684551
Si Si5 0.610952 0.607342 0.164113
Si Si6 0.287177 0.886390 0.592788
Si Si7 0.729041 0.111133 0.000000
O O1 0.653831 0.348422 0.919465
O O2 0.640670 0.183168 0.000000
O O3 0.500000 0.299085 0.000000
O O4 0.500000 0.813388 0.745270
O O5 0.666902 0.849202 0.804497
O O6 0.631509 0.675463 0.757540
O O7 0.645505 0.817705 0.646806
O O8 0.852469 0.158625 0.231695
O O9 0.767804 0.000000 0.196820
O O10 0.793915 0.130109 0.079503
O O11 0.176931 0.863278 0.611899
O O12 0.000000 0.837989 0.668001
O O13 0.088876 0.000000 0.693462
O O14 0.500000 0.598165 0.150623
O O15 0.654843 0.500000 0.180057
O O16 0.307650 0.860102 0.500000
O O17 0.309264 0.000000 0.610754
O O18 0.690556 0.000000 0.000000
#
# Coordination Sequence:
#
# PCOD8193522 Si02
#       7
#     4   8   8   8   8   8   4
#     4  10  17  27  40  58  82 113 148 181 216 242
#     4  10  18  28  42  58  81 114 144 173 209 247
#     4   9  17  27  38  56  83 114 146 176 203 239
#     4   8  14  26  43  60  80 108 140 173 208 244
#     4   9  17  28  42  59  79 106 144 186 220 250
#     4   9  18  30  43  63  88 111 138 171 207 253
#     4  10  18  26  36  54  86 121 145 170 203 240
#
# _framework density 14.980447
#
# number of rings (size 3 to 8) (size 9 to 14) (size 15 to 20)
#    0.000    2.833    1.667    1.750    0.000    3.167 
#    0.000    4.583    0.000    3.000    0.000    2.333 
#    0.000   10.667    0.000   12.000    0.000    1.333 
#
# Total GULP energy -594641.000063 kJ/mol
# GULP energy per Si atom -12388.354168 kJ/mol
# Density = 1.494635 g / cm^3
# Si number density = 14.980447 Si / 1000 Ang^3
#
#
#
# Elastic Constant Matrix: (Units=GPa)
#
#
# Indices 1 2 3 4 5 6 
#
# 1 53.4876 14.4943 16.7204 0.0000 0.0000 0.0000
# 2 14.4943 63.6738 35.8938 0.0000 0.0000 0.0000
# 3 16.7204 35.8938 110.4320 0.0000 0.0000 0.0000
# 4 0.0000 0.0000 0.0000 15.7199 0.0000 0.0000
# 5 0.0000 0.0000 0.0000 0.0000 12.0355 0.0000
# 6 0.0000 0.0000 0.0000 0.0000 0.0000 2.7933
#
#
#
# Elastic Compliance Matrix: (Units=1/GPa)
#
#
# Indices 1 2 3 4 5 6 
#
# 1 0.020252 -0.003528 -0.001920 0.000000 0.000000 0.000000
# 2 -0.003528 0.019843 -0.005915 0.000000 0.000000 0.000000
# 3 -0.001920 -0.005915 0.011269 0.000000 0.000000 0.000000
# 4 0.000000 0.000000 0.000000 0.063614 0.000000 0.000000
# 5 0.000000 0.000000 0.000000 0.000000 0.083088 0.000000
# 6 0.000000 0.000000 0.000000 0.000000 0.000000 0.358004
#
#
# Mechanical properties :
#
#
# Convention : Reuss Voigt Hill
#
# Bulk Modulus (GPa) = 34.91916 40.20116 37.56016
# Shear Modulus (GPa) = 8.49848 16.80871 12.65360
#
# Velocity S-wave (km/s) = 2.38440 3.35333 2.90948
# Velocity P-wave (km/s) = 5.56246 6.47202 6.03440
#
# Compressibility (1/GPa) = 0.02863757
#
# Stress axis : x y z
#
# Youngs Moduli (GPa) = 49.37774 50.39653 88.74170
#
# Poissons Ratio (x) = 0.17779 0.17036
# Poissons Ratio (y) = 0.17420 0.52493
# Poissons Ratio (z) = 0.09479 0.29811
#
# Static dielectric constant tensor:
#      x y z
#    x 2.837300 0.000000 0.000000 
#    y 0.000000 2.838690 0.000000 
#    z 0.000000 0.000000 3.044250 
# 
# 
# High freq. dielectric constant tensor:
#      x y z
#    x 1.543270 0.000000 0.000000 
#    y 0.000000 1.539080 0.000000 
#    z 0.000000 0.000000 1.580190 
# 
# From -- ./inp_files/23714.got.cif
#   From: 2010.03.12/outbox.cif.g09.slc.cpg/sg47_12_cif.got.tgz:23714.got - 2010.04.14 03:12:58.
