data_PCOD8193670
_publ_section_title
;
Structure prediction by ZEFSAII (Michael W. Deem and Ramdas Pophale) SiO2 
 PCOD8193670
Probable space group: P M M M
;
_chemical_formula_sum "Si O2"
_cell_formula_units_Z 64
_cell_length_a 9.089975
_cell_length_b 20.281348
_cell_length_c 20.143205
_cell_angle_alpha 90.000000
_cell_angle_beta 90.000000
_cell_angle_gamma 90.000000
_cell_volume 3713.539762
_symmetry_space_group_name_H-M "P M M M"
_symmetry_group_IT_number 47
_symmetry_cell_setting 'orthorhombic'
loop_
_space_group_symop_operation_xyz
x,y,z
-x,-y,z
x,-y,-z
-x,y,-z
-x,-y,-z
x,y,-z
-x,y,z
x,-y,z
loop_
_atom_site_type_symbol
_atom_site_label
_atom_site_fract_x
_atom_site_fract_y
_atom_site_fract_z
Si Si1 0.835506 0.293973 0.252990
Si Si2 0.174832 0.926104 0.573897
Si Si3 0.830053 0.887911 0.925703
Si Si4 0.332384 0.925951 0.200067
Si Si5 0.835315 0.259660 0.102338
Si Si6 0.176260 0.161996 0.306713
Si Si7 0.826758 0.427810 0.201943
Si Si8 0.669814 0.613177 0.073746
O O1 0.830136 0.259654 0.181731
O O2 0.765108 0.238672 0.302635
O O3 0.760369 0.367533 0.247481
O O4 0.000000 0.306343 0.278362
O O5 0.230791 0.907205 0.500000
O O6 0.236452 0.872166 0.625898
O O7 0.000000 0.925547 0.575502
O O8 0.230271 0.000000 0.592451
O O9 0.727735 0.927266 0.875020
O O10 0.787203 0.811153 0.923810
O O11 0.000000 0.897810 0.905237
O O12 0.801693 0.914894 0.000000
O O13 0.500000 0.900585 0.200542
O O14 0.233993 0.878472 0.244363
O O15 0.322426 0.000000 0.228508
O O16 0.721800 0.311360 0.072053
O O17 0.000000 0.277312 0.077897
O O18 0.000000 0.161220 0.303064
O O19 0.795694 0.500000 0.234317
O O20 0.759344 0.427969 0.128312
O O21 0.000000 0.415035 0.192902
O O22 0.500000 0.610602 0.094209
O O23 0.693288 0.582684 0.000000
#
# Coordination Sequence:
#
# PCOD8193670 Si02
#       8
#     8   8   8   8   8   8   8   8
#     4   8  14  26  46  69  87 105 141 189 228 265
#     4   8  14  24  41  71 106 132 155 187 230 277
#     4  10  20  34  52  69  84 109 151 201 246 289
#     4  11  24  37  47  64  93 124 154 193 240 290
#     4   9  16  30  48  65  85 108 140 186 232 276
#     4  10  17  30  53  74  93 121 158 198 233 270
#     4   9  18  32  47  61  82 113 146 185 233 280
#     4  10  20  30  41  61  87 112 140 177 224 282
#
# _framework density 17.234231000000001
#
# number of rings (size 3 to 8) (size 9 to 14) (size 15 to 20)
#    0.000    2.625    1.250    2.625    0.000    4.500 
#    0.000    2.500    0.000    0.375    0.000    1.750 
#    0.000    0.500    0.000    7.000    0.000    0.000 
#
# Total GULP energy -792942.757740 kJ/mol
# GULP energy per Si atom -12389.730590 kJ/mol
# Density = 1.719500 g / cm^3
# Si number density = 17.234231 Si / 1000 Ang^3
#
#
#
# Elastic Constant Matrix: (Units=GPa)
#
#
# Indices 1 2 3 4 5 6 
#
# 1 34.1108 21.3640 14.6060 0.0000 0.0000 0.0000
# 2 21.3640 127.7516 54.4418 0.0000 0.0000 0.0000
# 3 14.6060 54.4418 76.4447 0.0000 0.0000 0.0000
# 4 0.0000 0.0000 0.0000 22.6248 0.0000 0.0000
# 5 0.0000 0.0000 0.0000 0.0000 4.7700 0.0000
# 6 0.0000 0.0000 0.0000 0.0000 0.0000 11.7647
#
#
#
# Elastic Compliance Matrix: (Units=1/GPa)
#
#
# Indices 1 2 3 4 5 6 
#
# 1 0.033367 -0.004111 -0.003448 0.000000 0.000000 0.000000
# 2 -0.004111 0.011745 -0.007579 0.000000 0.000000 0.000000
# 3 -0.003448 -0.007579 0.019138 0.000000 0.000000 0.000000
# 4 0.000000 0.000000 0.000000 0.044199 0.000000 0.000000
# 5 0.000000 0.000000 0.000000 0.000000 0.209642 0.000000
# 6 0.000000 0.000000 0.000000 0.000000 0.000000 0.085000
#
#
# Mechanical properties :
#
#
# Convention : Reuss Voigt Hill
#
# Bulk Modulus (GPa) = 29.43365 46.57007 38.00186
# Shear Modulus (GPa) = 11.24377 17.69159 14.46768
#
# Velocity S-wave (km/s) = 2.55700 3.20744 2.90051
# Velocity P-wave (km/s) = 5.08265 6.38728 5.77195
#
# Compressibility (1/GPa) = 0.03397472
#
# Stress axis : x y z
#
# Youngs Moduli (GPa) = 29.96960 85.14290 52.25293
#
# Poissons Ratio (x) = 0.35000 0.18016
# Poissons Ratio (y) = 0.12320 0.39603
# Poissons Ratio (z) = 0.10333 0.64530
#
# Static dielectric constant tensor:
#      x y z
#    x 2.934550 0.000000 0.000000 
#    y 0.000000 3.464240 0.000000 
#    z 0.000000 0.000000 3.136580 
# 
# 
# High freq. dielectric constant tensor:
#      x y z
#    x 1.633610 0.000000 0.000000 
#    y 0.000000 1.670990 0.000000 
#    z 0.000000 0.000000 1.626080 
# 
# From -- ./inp_files/30128.got.cif
#   From: 2010.03.12/outbox.cif.g09.slc.cpg/sg47_16_cif.got.tgz:30128.got - 2010.04.14 03:12:58.
