data_PCOD8193964
_publ_section_title
;
Structure prediction by ZEFSAII (Michael W. Deem and Ramdas Pophale) SiO2 
 PCOD8193964
Probable space group: P M M M
;
_chemical_formula_sum "Si O2"
_cell_formula_units_Z 64
_cell_length_a 28.511665
_cell_length_b 14.127496
_cell_length_c 9.120117
_cell_angle_alpha 90.000000
_cell_angle_beta 90.000000
_cell_angle_gamma 90.000000
_cell_volume 3673.568839
_symmetry_space_group_name_H-M "P M M M"
_symmetry_group_IT_number 47
_symmetry_cell_setting 'orthorhombic'
loop_
_space_group_symop_operation_xyz
x,y,z
-x,-y,z
x,-y,-z
-x,y,-z
-x,-y,-z
x,y,-z
-x,y,z
x,-y,z
loop_
_atom_site_type_symbol
_atom_site_label
_atom_site_fract_x
_atom_site_fract_y
_atom_site_fract_z
Si Si1 0.780245 0.388126 0.333463
Si Si2 0.552334 0.105710 0.674085
Si Si3 0.724110 0.892619 0.328544
Si Si4 0.685853 0.609997 0.828830
Si Si5 0.363471 0.233347 0.326321
Si Si6 0.134504 0.291754 0.170479
Si Si7 0.183328 0.105664 0.169126
Si Si8 0.945809 0.391587 0.330809
O O1 0.776976 0.349994 0.500000
O O2 0.784853 0.500000 0.330788
O O3 0.733597 0.355395 0.248887
O O4 0.825827 0.348353 0.255555
O O5 0.555635 0.102556 0.500000
O O6 0.500000 0.135861 0.724370
O O7 0.589422 0.182499 0.733195
O O8 0.564014 0.000000 0.733818
O O9 0.732237 0.885220 0.500000
O O10 0.679790 0.832184 0.278448
O O11 0.771288 0.854178 0.253287
O O12 0.714502 0.000000 0.278664
O O13 0.676112 0.500000 0.799108
O O14 0.642417 0.666934 0.757264
O O15 0.690106 0.632344 0.000000
O O16 0.365375 0.251005 0.500000
O O17 0.140787 0.178827 0.196429
O O18 0.083843 0.320812 0.230668
O O19 0.137948 0.318035 0.000000
O O20 0.168892 0.000000 0.224373
O O21 0.197241 0.102439 0.000000
O O22 0.932702 0.374826 0.500000
O O23 0.934801 0.500000 0.287631
O O24 0.000000 0.368335 0.302268
#
# Coordination Sequence:
#
# PCOD8193964 Si02
#       8
#     8   8   8   8   8   8   8   8
#     4  10  20  33  49  70  98 130 160 191 232 283
#     4   8  14  26  46  73 102 127 152 188 236 287
#     4   9  17  28  43  67  97 124 152 188 229 274
#     4  10  21  35  48  64  91 126 162 200 239 278
#     4  10  18  28  47  72  95 122 157 195 235 282
#     4  11  21  31  49  75  99 126 161 199 237 278
#     4   9  19  34  47  62  91 129 163 193 227 270
#     4   9  19  36  55  74  98 127 156 189 235 289
#
# _framework density 17.421751
#
# number of rings (size 3 to 8) (size 9 to 14) (size 15 to 20)
#    0.000    2.500    0.000    3.375    0.000    8.500 
#    0.000    0.625    0.000    2.250    0.000    6.125 
#    0.000    0.000    0.000    0.000    0.000    0.000 
#
# Total GULP energy -793570.176129 kJ/mol
# GULP energy per Si atom -12399.534002 kJ/mol
# Density = 1.738210 g / cm^3
# Si number density = 17.421751 Si / 1000 Ang^3
#
#
#
# Elastic Constant Matrix: (Units=GPa)
#
#
# Indices 1 2 3 4 5 6 
#
# 1 109.4936 66.0947 47.8914 0.0000 0.0000 0.0000
# 2 66.0947 71.7372 43.2517 0.0000 0.0000 0.0000
# 3 47.8914 43.2517 70.3366 0.0000 0.0000 0.0000
# 4 0.0000 0.0000 0.0000 24.2098 0.0000 0.0000
# 5 0.0000 0.0000 0.0000 0.0000 5.8892 0.0000
# 6 0.0000 0.0000 0.0000 0.0000 0.0000 31.3271
#
#
#
# Elastic Compliance Matrix: (Units=1/GPa)
#
#
# Indices 1 2 3 4 5 6 
#
# 1 0.021215 -0.017222 -0.003855 0.000000 0.000000 0.000000
# 2 -0.017222 0.036134 -0.010493 0.000000 0.000000 0.000000
# 3 -0.003855 -0.010493 0.023295 0.000000 0.000000 0.000000
# 4 0.000000 0.000000 0.000000 0.041306 0.000000 0.000000
# 5 0.000000 0.000000 0.000000 0.000000 0.169802 0.000000
# 6 0.000000 0.000000 0.000000 0.000000 0.000000 0.031921
#
#
# Mechanical properties :
#
#
# Convention : Reuss Voigt Hill
#
# Bulk Modulus (GPa) = 57.13253 62.89366 60.01309
# Shear Modulus (GPa) = 12.73409 18.57387 15.65398
#
# Velocity S-wave (km/s) = 2.70651 3.26871 3.00080
# Velocity P-wave (km/s) = 6.52931 7.10105 6.82117
#
# Compressibility (1/GPa) = 0.01750316
#
# Stress axis : x y z
#
# Youngs Moduli (GPa) = 47.13651 27.67474 42.92859
#
# Poissons Ratio (x) = 0.47662 0.16547
# Poissons Ratio (y) = 0.81180 0.45046
# Poissons Ratio (z) = 0.18169 0.29040
#
# Static dielectric constant tensor:
#      x y z
#    x 3.219630 0.000000 0.000000 
#    y 0.000000 3.421230 0.000000 
#    z 0.000000 0.000000 3.152790 
# 
# 
# High freq. dielectric constant tensor:
#      x y z
#    x 1.655690 0.000000 0.000000 
#    y 0.000000 1.675440 0.000000 
#    z 0.000000 0.000000 1.662540 
# 
# From -- ./inp_files/12749.got.cif
#   From: 2010.03.12/outbox.cif.g09.slc.cpg/sg47_7_cif.got.tgz:12749.got - 2010.04.14 03:12:58.
