data_PCOD8193048
_publ_section_title
;
Structure prediction by ZEFSAII (Michael W. Deem and Ramdas Pophale) SiO2 
 PCOD8193048
Probable space group: I M A 2
;
_chemical_formula_sum "Si O2"
_cell_formula_units_Z 64
_cell_length_a 29.576080
_cell_length_b 10.628512
_cell_length_c 9.709592
_cell_angle_alpha 90.000000
_cell_angle_beta 90.000000
_cell_angle_gamma 90.000000
_cell_volume 3052.207538
_symmetry_space_group_name_H-M "I M A 2"
_symmetry_group_IT_number 46
_symmetry_cell_setting 'orthorhombic'
loop_
_space_group_symop_operation_xyz
x,y,z
-x,-y,z
1/2-x,y,z
1/2+x,-y,z
1/2+x,1/2+y,1/2+z
1/2-x,1/2-y,1/2+z
-x,1/2+y,1/2+z
x,1/2-y,1/2+z
loop_
_atom_site_type_symbol
_atom_site_label
_atom_site_fract_x
_atom_site_fract_y
_atom_site_fract_z
Si Si1 0.585657 0.781308 0.708570
Si Si2 0.328025 0.145743 0.243913
Si Si3 0.868812 0.474093 0.252461
Si Si4 0.197461 0.628946 0.802673
Si Si5 0.966321 0.662571 0.481100
Si Si6 0.347789 0.747508 0.060339
Si Si7 0.066545 0.607964 0.473131
Si Si8 0.199179 0.120075 0.929030
O O1 0.617601 0.660473 0.735005
O O2 0.551400 0.766735 0.584280
O O3 0.555054 0.811183 0.836210
O O4 0.618091 0.898516 0.673160
O O5 0.307137 0.255408 0.337538
O O6 0.316337 0.016115 0.320940
O O7 0.308847 0.151296 0.088944
O O8 0.847940 0.385534 0.137525
O O9 0.912736 0.409643 0.320876
O O10 0.833859 0.508051 0.376856
O O11 0.250000 0.646693 0.835637
O O12 0.187109 0.665178 0.644180
O O13 0.169026 0.720668 0.904695
O O14 0.948524 0.527062 0.535941
O O15 0.019869 0.684370 0.465250
O O16 0.396838 0.815732 0.063896
O O17 0.250000 0.070578 0.910161
#
# Coordination Sequence:
#
# PCOD8193048 Si02
#       8
#     8   8   8   8   8   8   8   8
#     4  10  21  40  65  96 124 165 208 261 326 379
#     4  11  24  42  68  97 136 172 215 275 330 384
#     4  10  23  41  65  91 131 173 209 267 327 386
#     4  12  27  44  65  94 129 176 226 270 320 389
#     4  10  22  39  71  92 129 162 214 264 320 398
#     4  12  25  44  67  89 132 174 220 272 322 388
#     4  10  22  45  63  94 128 174 209 261 331 382
#     4  11  23  41  67  98 131 173 221 270 326 383
#
# _framework density 20.968430999999999
#
# number of rings (size 3 to 8) (size 9 to 14) (size 15 to 20)
#    0.000    1.250    1.250    5.250    7.000    1.000 
#    0.000    0.000    0.000    0.000    0.000    0.000 
#    0.000    0.000    0.000    0.000    0.000    0.000 
#
# Total GULP energy -396778.784486 kJ/mol
# GULP energy per Si atom -12399.337015 kJ/mol
# Density = 2.092071 g / cm^3
# Si number density = 20.968431 Si / 1000 Ang^3
#
#
#
# Elastic Constant Matrix: (Units=GPa)
#
#
# Indices 1 2 3 4 5 6 
#
# 1 164.9000 48.4372 32.6093 0.0000 0.0000 0.0000
# 2 48.4372 68.1724 33.6464 0.0000 0.0000 0.0000
# 3 32.6093 33.6464 85.0547 0.0000 0.0000 0.0000
# 4 0.0000 0.0000 0.0000 29.6422 0.0000 0.0000
# 5 0.0000 0.0000 0.0000 0.0000 29.0006 0.0000
# 6 0.0000 0.0000 0.0000 0.0000 0.0000 20.4084
#
#
#
# Elastic Compliance Matrix: (Units=1/GPa)
#
#
# Indices 1 2 3 4 5 6 
#
# 1 0.007729 -0.005007 -0.000983 0.000000 0.000000 0.000000
# 2 -0.005007 0.021471 -0.006574 0.000000 0.000000 0.000000
# 3 -0.000983 -0.006574 0.014734 0.000000 0.000000 0.000000
# 4 0.000000 0.000000 0.000000 0.033736 0.000000 0.000000
# 5 0.000000 0.000000 0.000000 0.000000 0.034482 0.000000
# 6 0.000000 0.000000 0.000000 0.000000 0.000000 0.048999
#
#
# Mechanical properties :
#
#
# Convention : Reuss Voigt Hill
#
# Bulk Modulus (GPa) = 53.17013 60.83477 57.00245
# Shear Modulus (GPa) = 25.96767 29.37254 27.67010
#
# Velocity S-wave (km/s) = 3.52293 3.74678 3.63658
# Velocity P-wave (km/s) = 6.47768 6.91328 6.69902
#
# Compressibility (1/GPa) = 0.01880755
#
# Stress axis : x y z
#
# Youngs Moduli (GPa) = 129.37819 46.57547 67.86808
#
# Poissons Ratio (x) = 0.23319 0.06670
# Poissons Ratio (y) = 0.64776 0.44616
# Poissons Ratio (z) = 0.12715 0.30618
#
# Static dielectric constant tensor:
#      x y z
#    x 3.910820 0.000000 0.000000 
#    y 0.000000 4.050340 0.000000 
#    z 0.000000 0.000000 3.612230 
# 
# 
# High freq. dielectric constant tensor:
#      x y z
#    x 1.829670 0.000000 0.000000 
#    y 0.000000 1.825030 0.000000 
#    z 0.000000 0.000000 1.815710 
# 
# From -- ./inp_files/8483.got.cif
#   From: 2010.03.12/outbox.cif.g09.slc.cpg/sg46_5_cif.got.tgz:8483.got - 2010.04.14 02:56:35.
