data_PCOD8193978
_publ_section_title
;
Structure prediction by ZEFSAII (Michael W. Deem and Ramdas Pophale) SiO2 
 PCOD8193978
Probable space group: P M M M
;
_chemical_formula_sum "Si O2"
_cell_formula_units_Z 56
_cell_length_a 9.217241
_cell_length_b 23.618881
_cell_length_c 14.318234
_cell_angle_alpha 90.000000
_cell_angle_beta 90.000000
_cell_angle_gamma 90.000000
_cell_volume 3117.092691
_symmetry_space_group_name_H-M "P M M M"
_symmetry_group_IT_number 47
_symmetry_cell_setting 'orthorhombic'
loop_
_space_group_symop_operation_xyz
x,y,z
-x,-y,z
x,-y,-z
-x,y,-z
-x,-y,-z
x,y,-z
-x,y,z
x,-y,z
loop_
_atom_site_type_symbol
_atom_site_label
_atom_site_fract_x
_atom_site_fract_y
_atom_site_fract_z
Si Si1 0.332345 0.436785 0.261803
Si Si2 0.666158 0.268246 0.892991
Si Si3 0.672245 0.063472 0.104246
Si Si4 0.670388 0.837404 0.764763
Si Si5 0.332455 0.334981 0.607679
Si Si6 0.829877 0.778483 0.391560
Si Si7 0.169589 0.379769 0.107445
O O1 0.500000 0.427868 0.236610
O O2 0.304859 0.500000 0.301447
O O3 0.280908 0.391023 0.338083
O O4 0.239890 0.429794 0.167537
O O5 0.500000 0.286435 0.878370
O O6 0.707150 0.214342 0.832443
O O7 0.763859 0.320236 0.858937
O O8 0.698151 0.252257 0.000000
O O9 0.500000 0.068059 0.101271
O O10 0.730877 0.106609 0.182805
O O11 0.721436 0.000000 0.131904
O O12 0.731213 0.078537 0.000000
O O13 0.500000 0.842063 0.742456
O O14 0.757086 0.829004 0.668068
O O15 0.304977 0.348607 0.500000
O O16 0.500000 0.320258 0.627966
O O17 0.239086 0.281210 0.640397
O O18 0.795867 0.790574 0.500000
O O19 0.000000 0.776295 0.371619
O O20 0.000000 0.377811 0.125511
O O21 0.208022 0.391667 0.000000
#
# Coordination Sequence:
#
# PCOD8193978 Si02
#       7
#     8   8   8   8   8   8   8
#     4  10  21  35  51  72  95 120 153 191 232 282
#     4   9  17  29  46  70  99 126 152 187 234 287
#     4   8  14  26  46  74 107 138 166 198 237 281
#     4  10  18  28  48  76 101 127 162 201 238 279
#     4   9  18  34  55  76  98 123 151 188 237 290
#     4  10  21  35  50  70  97 128 161 198 242 290
#     4  10  21  35  49  66  91 124 160 197 237 280
#
# _framework density 17.965458999999999
#
# number of rings (size 3 to 8) (size 9 to 14) (size 15 to 20)
#    0.000    2.571    0.000    2.571    0.000    8.857 
#    0.000    2.857    0.000    2.143    0.000    7.000 
#    0.000    0.000    0.000    0.000    0.000    0.000 
#
# Total GULP energy -694420.990578 kJ/mol
# GULP energy per Si atom -12400.374832 kJ/mol
# Density = 1.792457 g / cm^3
# Si number density = 17.965459 Si / 1000 Ang^3
#
#
#
# Elastic Constant Matrix: (Units=GPa)
#
#
# Indices 1 2 3 4 5 6 
#
# 1 54.5987 42.5374 42.7964 0.0000 0.0000 0.0000
# 2 42.5374 119.4414 73.4321 0.0000 0.0000 0.0000
# 3 42.7964 73.4321 94.1388 0.0000 0.0000 0.0000
# 4 0.0000 0.0000 0.0000 30.8801 0.0000 0.0000
# 5 0.0000 0.0000 0.0000 0.0000 23.7803 0.0000
# 6 0.0000 0.0000 0.0000 0.0000 0.0000 1.8560
#
#
#
# Elastic Compliance Matrix: (Units=1/GPa)
#
#
# Indices 1 2 3 4 5 6 
#
# 1 0.029590 -0.004358 -0.010053 0.000000 0.000000 0.000000
# 2 -0.004358 0.016729 -0.011068 0.000000 0.000000 0.000000
# 3 -0.010053 -0.011068 0.023826 0.000000 0.000000 0.000000
# 4 0.000000 0.000000 0.000000 0.032383 0.000000 0.000000
# 5 0.000000 0.000000 0.000000 0.000000 0.042052 0.000000
# 6 0.000000 0.000000 0.000000 0.000000 0.000000 0.538785
#
#
# Mechanical properties :
#
#
# Convention : Reuss Voigt Hill
#
# Bulk Modulus (GPa) = 52.11565 65.07899 58.59732
# Shear Modulus (GPa) = 6.75020 18.59749 12.67384
#
# Velocity S-wave (km/s) = 1.94048 3.22091 2.65892
# Velocity P-wave (km/s) = 5.83887 7.08064 6.48953
#
# Compressibility (1/GPa) = 0.01918809
#
# Stress axis : x y z
#
# Youngs Moduli (GPa) = 33.79490 59.77668 41.97031
#
# Poissons Ratio (x) = 0.26049 0.42192
# Poissons Ratio (y) = 0.14727 0.46454
# Poissons Ratio (z) = 0.33973 0.66162
#
# Static dielectric constant tensor:
#      x y z
#    x 3.132040 0.000000 0.000000 
#    y 0.000000 3.382680 0.000000 
#    z 0.000000 0.000000 3.455370 
# 
# 
# High freq. dielectric constant tensor:
#      x y z
#    x 1.673480 0.000000 0.000000 
#    y 0.000000 1.684080 0.000000 
#    z 0.000000 0.000000 1.698780 
# 
# From -- ./inp_files/7255.got.cif
#   From: 2010.03.12/outbox.cif.g09.slc.cpg/sg47_4_cif.got.tgz:7255.got - 2010.04.14 03:12:58.
