data_PCOD8193914
_publ_section_title
;
Structure prediction by ZEFSAII (Michael W. Deem and Ramdas Pophale) SiO2 
 PCOD8193914
Probable space group: P M M M
;
_chemical_formula_sum "Si O2"
_cell_formula_units_Z 52
_cell_length_a 9.207147
_cell_length_b 28.317322
_cell_length_c 12.465839
_cell_angle_alpha 90.000000
_cell_angle_beta 90.000000
_cell_angle_gamma 90.000000
_cell_volume 3250.115313
_symmetry_space_group_name_H-M "P M M M"
_symmetry_group_IT_number 47
_symmetry_cell_setting 'orthorhombic'
loop_
_space_group_symop_operation_xyz
x,y,z
-x,-y,z
x,-y,-z
-x,y,-z
-x,-y,-z
x,y,-z
-x,y,z
x,-y,z
loop_
_atom_site_type_symbol
_atom_site_label
_atom_site_fract_x
_atom_site_fract_y
_atom_site_fract_z
Si Si1 0.663203 0.948026 0.872439
Si Si2 0.162926 0.859393 0.872119
Si Si3 0.331101 0.232069 0.877671
Si Si4 0.328383 0.688709 0.710852
Si Si5 0.172686 0.314056 0.500000
Si Si6 0.674277 0.500000 0.121812
Si Si7 0.333061 0.582332 0.267409
Si Si8 0.665522 0.409667 0.500000
O O1 0.500000 0.940071 0.829859
O O2 0.764320 0.906868 0.824121
O O3 0.719833 0.000000 0.836013
O O4 0.663825 0.945255 0.000000
O O5 0.247022 0.813175 0.830889
O O6 0.000000 0.857076 0.827949
O O7 0.167519 0.860911 0.000000
O O8 0.500000 0.220048 0.868453
O O9 0.288543 0.278158 0.810441
O O10 0.286005 0.242767 0.000000
O O11 0.500000 0.688400 0.686116
O O12 0.243066 0.708823 0.607009
O O13 0.271119 0.635748 0.739505
O O14 0.215822 0.368765 0.500000
O O15 0.000000 0.307131 0.500000
O O16 0.500000 0.500000 0.126820
O O17 0.739462 0.453729 0.182565
O O18 0.731073 0.500000 0.000000
O O19 0.500000 0.585122 0.235584
O O20 0.312703 0.561306 0.389204
O O21 0.500000 0.388410 0.500000
#
# Coordination Sequence:
#
# PCOD8193914 Si02
#       8
#     8   8   8   8   4   4   8   4
#     4   8  13  21  33  48  67  96 136 177 212 248
#     4   9  16  24  34  50  75 105 135 172 215 253
#     4   9  17  28  42  59  79 108 145 178 207 245
#     4   9  17  30  46  63  85 112 141 173 211 255
#     4  10  18  28  45  67  87 106 133 171 214 257
#     4   9  16  23  33  57  91 115 130 160 208 251
#     4   8  14  24  38  56  79 107 133 160 200 248
#     4   8  14  27  44  60  80 104 132 165 201 243
#
# _framework density 15.999432000000001
#
# number of rings (size 3 to 8) (size 9 to 14) (size 15 to 20)
#    0.000    3.308    0.000    2.538    0.000    3.692 
#    0.000    6.154    0.000    0.000    0.000   17.231 
#    0.000    9.846    0.000    0.692    0.000   13.692 
#
# Total GULP energy -644247.838841 kJ/mol
# GULP energy per Si atom -12389.381516 kJ/mol
# Density = 1.596302 g / cm^3
# Si number density = 15.999432 Si / 1000 Ang^3
#
#
#
# Elastic Constant Matrix: (Units=GPa)
#
#
# Indices 1 2 3 4 5 6 
#
# 1 58.8642 41.7522 30.0190 0.0000 0.0000 0.0000
# 2 41.7522 121.7365 59.2134 0.0000 0.0000 0.0000
# 3 30.0190 59.2134 84.8667 0.0000 0.0000 0.0000
# 4 0.0000 0.0000 0.0000 3.3742 0.0000 0.0000
# 5 0.0000 0.0000 0.0000 0.0000 9.3489 0.0000
# 6 0.0000 0.0000 0.0000 0.0000 0.0000 9.0782
#
#
#
# Elastic Compliance Matrix: (Units=1/GPa)
#
#
# Indices 1 2 3 4 5 6 
#
# 1 0.023330 -0.006036 -0.004041 0.000000 0.000000 0.000000
# 2 -0.006036 0.013996 -0.007630 0.000000 0.000000 0.000000
# 3 -0.004041 -0.007630 0.018536 0.000000 0.000000 0.000000
# 4 0.000000 0.000000 0.000000 0.296365 0.000000 0.000000
# 5 0.000000 0.000000 0.000000 0.000000 0.106965 0.000000
# 6 0.000000 0.000000 0.000000 0.000000 0.000000 0.110154
#
#
# Mechanical properties :
#
#
# Convention : Reuss Voigt Hill
#
# Bulk Modulus (GPa) = 48.90400 58.60407 53.75404
# Shear Modulus (GPa) = 8.17558 13.32578 10.75068
#
# Velocity S-wave (km/s) = 2.26297 2.88912 2.59500
# Velocity P-wave (km/s) = 6.12049 6.91648 6.53063
#
# Compressibility (1/GPa) = 0.02044823
#
# Stress axis : x y z
#
# Youngs Moduli (GPa) = 42.86252 71.44829 53.94806
#
# Poissons Ratio (x) = 0.43128 0.21800
# Poissons Ratio (y) = 0.25873 0.41164
# Poissons Ratio (z) = 0.17320 0.54517
#
# Static dielectric constant tensor:
#      x y z
#    x 2.831660 0.000000 0.000000 
#    y 0.000000 3.163470 0.000000 
#    z 0.000000 0.000000 2.910430 
# 
# 
# High freq. dielectric constant tensor:
#      x y z
#    x 1.587080 0.000000 0.000000 
#    y 0.000000 1.610010 0.000000 
#    z 0.000000 0.000000 1.575450 
# 
# From -- ./inp_files/15702.got.cif
#   From: 2010.03.12/outbox.cif.g09.slc.cpg/sg47_8_cif.got.tgz:15702.got - 2010.04.14 03:12:58.
