data_PCOD8193950
_publ_section_title
;
Structure prediction by ZEFSAII (Michael W. Deem and Ramdas Pophale) SiO2 
 PCOD8193950
Probable space group: P M M M
;
_chemical_formula_sum "Si O2"
_cell_formula_units_Z 64
_cell_length_a 17.835509
_cell_length_b 9.100061
_cell_length_c 23.101821
_cell_angle_alpha 90.000000
_cell_angle_beta 90.000000
_cell_angle_gamma 90.000000
_cell_volume 3749.523035
_symmetry_space_group_name_H-M "P M M M"
_symmetry_group_IT_number 47
_symmetry_cell_setting 'orthorhombic'
loop_
_space_group_symop_operation_xyz
x,y,z
-x,-y,z
x,-y,-z
-x,y,-z
-x,-y,-z
x,y,-z
-x,y,z
x,-y,z
loop_
_atom_site_type_symbol
_atom_site_label
_atom_site_fract_x
_atom_site_fract_y
_atom_site_fract_z
Si Si1 0.296516 0.833198 0.665292
Si Si2 0.313686 0.673390 0.154138
Si Si3 0.228260 0.672520 0.434111
Si Si4 0.917957 0.835682 0.568605
Si Si5 0.585489 0.828091 0.238133
Si Si6 0.918086 0.170034 0.146032
Si Si7 0.200056 0.166822 0.232166
Si Si8 0.782911 0.826138 0.066408
O O1 0.293285 0.736602 0.607167
O O2 0.364275 0.779633 0.706632
O O3 0.216536 0.816478 0.699553
O O4 0.310007 0.000000 0.645761
O O5 0.322496 0.500000 0.146373
O O6 0.390688 0.740773 0.179988
O O7 0.249233 0.712599 0.199672
O O8 0.290612 0.746367 0.092780
O O9 0.243309 0.725236 0.500000
O O10 0.229716 0.500000 0.429595
O O11 0.147561 0.727311 0.410745
O O12 0.921193 0.836086 0.500000
O O13 0.000000 0.784680 0.592310
O O14 0.899798 0.000000 0.591280
O O15 0.500000 0.788982 0.252889
O O16 0.597091 0.000000 0.225927
O O17 0.885906 0.192964 0.211843
O O18 0.858113 0.231186 0.099367
O O19 0.000000 0.248264 0.141006
O O20 0.929608 0.000000 0.132790
O O21 0.224301 0.000000 0.213023
O O22 0.772871 0.000000 0.073978
O O23 0.790585 0.779509 0.000000
#
# Coordination Sequence:
#
# PCOD8193950 Si02
#       8
#     8   8   8   8   8   8   8   8
#     4   9  17  30  49  71  93 118 151 190 229 274
#     4  10  18  28  46  71  97 123 153 190 230 274
#     4  10  20  31  44  65  94 128 162 194 232 281
#     4   8  14  26  44  63  82 108 147 194 236 269
#     4   9  18  34  56  79 100 120 145 182 229 280
#     4   8  13  23  42  67  92 118 154 203 249 282
#     4   8  15  29  46  64  88 119 156 195 237 283
#     4   9  17  29  45  65  92 129 170 206 239 278
#
# _framework density 17.068836999999998
#
# number of rings (size 3 to 8) (size 9 to 14) (size 15 to 20)
#    0.000    3.125    0.000    3.375    0.000    3.750 
#    0.000    3.125    0.000    9.000    0.000    8.750 
#    0.000    0.000    0.000    0.000    0.000    0.000 
#
# Total GULP energy -792863.328468 kJ/mol
# GULP energy per Si atom -12388.489507 kJ/mol
# Density = 1.702999 g / cm^3
# Si number density = 17.068837 Si / 1000 Ang^3
#
#
#
# Elastic Constant Matrix: (Units=GPa)
#
#
# Indices 1 2 3 4 5 6 
#
# 1 106.3871 35.1856 57.6870 0.0000 0.0000 0.0000
# 2 35.1856 57.0813 35.1960 0.0000 0.0000 0.0000
# 3 57.6870 35.1960 90.7658 0.0000 0.0000 0.0000
# 4 0.0000 0.0000 0.0000 19.2316 0.0000 0.0000
# 5 0.0000 0.0000 0.0000 0.0000 19.1626 0.0000
# 6 0.0000 0.0000 0.0000 0.0000 0.0000 14.3114
#
#
#
# Elastic Compliance Matrix: (Units=1/GPa)
#
#
# Indices 1 2 3 4 5 6 
#
# 1 0.015165 -0.004475 -0.007903 0.000000 0.000000 0.000000
# 2 -0.004475 0.024344 -0.006596 0.000000 0.000000 0.000000
# 3 -0.007903 -0.006596 0.018598 0.000000 0.000000 0.000000
# 4 0.000000 0.000000 0.000000 0.051998 0.000000 0.000000
# 5 0.000000 0.000000 0.000000 0.000000 0.052185 0.000000
# 6 0.000000 0.000000 0.000000 0.000000 0.000000 0.069874
#
#
# Mechanical properties :
#
#
# Convention : Reuss Voigt Hill
#
# Bulk Modulus (GPa) = 49.60433 56.70794 53.15614
# Shear Modulus (GPa) = 18.06156 18.95216 18.50686
#
# Velocity S-wave (km/s) = 3.25647 3.33579 3.29637
# Velocity P-wave (km/s) = 6.57753 6.93771 6.76002
#
# Compressibility (1/GPa) = 0.02015953
#
# Stress axis : x y z
#
# Youngs Moduli (GPa) = 65.94165 41.07757 53.76983
#
# Poissons Ratio (x) = 0.18382 0.42494
# Poissons Ratio (y) = 0.29508 0.35465
# Poissons Ratio (z) = 0.52113 0.27094
#
# Static dielectric constant tensor:
#      x y z
#    x 3.309830 0.000000 0.000000 
#    y 0.000000 2.941730 0.000000 
#    z 0.000000 0.000000 3.152940 
# 
# 
# High freq. dielectric constant tensor:
#      x y z
#    x 1.639810 0.000000 0.000000 
#    y 0.000000 1.635390 0.000000 
#    z 0.000000 0.000000 1.642260 
# 
# From -- ./inp_files/32886.got.cif
#   From: 2010.03.12/outbox.cif.g09.slc.cpg/sg47_17_cif.got.tgz:32886.got - 2010.04.14 03:12:58.
