data_PCOD8193565
_publ_section_title
;
Structure prediction by ZEFSAII (Michael W. Deem and Ramdas Pophale) SiO2 
 PCOD8193565
Probable space group: P M M M
;
_chemical_formula_sum "Si O2"
_cell_formula_units_Z 52
_cell_length_a 26.428776
_cell_length_b 12.583081
_cell_length_c 9.403118
_cell_angle_alpha 90.000000
_cell_angle_beta 90.000000
_cell_angle_gamma 90.000000
_cell_volume 3127.057942
_symmetry_space_group_name_H-M "P M M M"
_symmetry_group_IT_number 47
_symmetry_cell_setting 'orthorhombic'
loop_
_space_group_symop_operation_xyz
x,y,z
-x,-y,z
x,-y,-z
-x,y,-z
-x,-y,-z
x,y,-z
-x,y,z
x,-y,z
loop_
_atom_site_type_symbol
_atom_site_label
_atom_site_fract_x
_atom_site_fract_y
_atom_site_fract_z
Si Si1 0.168959 0.000000 0.330989
Si Si2 0.717575 0.000000 0.331126
Si Si3 0.000000 0.880821 0.331531
Si Si4 0.555298 0.880829 0.331288
Si Si5 0.106998 0.203204 0.668664
Si Si6 0.658991 0.208190 0.331251
Si Si7 0.835390 0.376947 0.164428
Si Si8 0.720124 0.376640 0.163515
O O1 0.140484 0.895311 0.275647
O O2 0.168848 0.000000 0.500000
O O3 0.225663 0.000000 0.269106
O O4 0.689268 0.895034 0.276134
O O5 0.718089 0.000000 0.500000
O O6 0.049452 0.816749 0.281286
O O7 0.000000 0.891983 0.500000
O O8 0.000000 0.000000 0.266336
O O9 0.557216 0.887505 0.500000
O O10 0.500000 0.837359 0.281326
O O11 0.600576 0.804161 0.279827
O O12 0.563629 0.000000 0.270939
O O13 0.111116 0.216164 0.500000
O O14 0.126210 0.310604 0.740070
O O15 0.663393 0.220562 0.500000
O O16 0.681419 0.312756 0.260771
O O17 0.846954 0.500000 0.193160
O O18 0.777705 0.350222 0.208220
O O19 0.844115 0.348921 0.000000
O O20 0.708744 0.500000 0.188253
O O21 0.711396 0.345596 0.000000
#
# Coordination Sequence:
#
# PCOD8193565 Si02
#       8
#     4   4   4   8   8   8   8   8
#     4   9  16  25  41  67  98 125 149 180 229 280
#     4   9  16  24  37  67 103 123 139 182 239 280
#     4   9  16  30  50  73 100 128 159 190 227 278
#     4   8  13  23  41  66  96 129 160 188 227 280
#     4  10  18  30  51  75  96 124 159 195 231 274
#     4  10  17  27  46  72  99 123 154 197 237 276
#     4   9  19  36  53  68  92 126 160 195 238 286
#     4   9  19  35  51  66  90 127 163 194 236 287
#
# _framework density 16.629048999999998
#
# number of rings (size 3 to 8) (size 9 to 14) (size 15 to 20)
#    0.000    2.846    1.538    2.308    0.000    2.462 
#    0.000    3.077    0.000    6.462    0.000    4.308 
#    0.000    0.000    0.000    0.000    0.000    0.000 
#
# Total GULP energy -644611.565356 kJ/mol
# GULP energy per Si atom -12396.376257 kJ/mol
# Density = 1.659120 g / cm^3
# Si number density = 16.629049 Si / 1000 Ang^3
#
#
#
# Elastic Constant Matrix: (Units=GPa)
#
#
# Indices 1 2 3 4 5 6 
#
# 1 162.0319 71.8035 39.1488 0.0000 0.0000 0.0000
# 2 71.8035 91.3288 35.8393 0.0000 0.0000 0.0000
# 3 39.1488 35.8393 32.0843 0.0000 0.0000 0.0000
# 4 0.0000 0.0000 0.0000 0.3691 0.0000 0.0000
# 5 0.0000 0.0000 0.0000 0.0000 14.5061 0.0000
# 6 0.0000 0.0000 0.0000 0.0000 0.0000 26.9820
#
#
#
# Elastic Compliance Matrix: (Units=1/GPa)
#
#
# Indices 1 2 3 4 5 6 
#
# 1 0.010111 -0.005534 -0.006156 0.000000 0.000000 0.000000
# 2 -0.005534 0.022524 -0.018407 0.000000 0.000000 0.000000
# 3 -0.006156 -0.018407 0.059242 0.000000 0.000000 0.000000
# 4 0.000000 0.000000 0.000000 2.708943 0.000000 0.000000
# 5 0.000000 0.000000 0.000000 0.000000 0.068936 0.000000
# 6 0.000000 0.000000 0.000000 0.000000 0.000000 0.037062
#
#
# Mechanical properties :
#
#
# Convention : Reuss Voigt Hill
#
# Bulk Modulus (GPa) = 31.56426 64.33648 47.95037
# Shear Modulus (GPa) = 1.67922 17.61501 9.64712
#
# Velocity S-wave (km/s) = 1.00598 3.25821 2.41122
# Velocity P-wave (km/s) = 4.51353 7.27515 6.05391
#
# Compressibility (1/GPa) = 0.03168140
#
# Stress axis : x y z
#
# Youngs Moduli (GPa) = 98.89933 44.39787 16.88005
#
# Poissons Ratio (x) = 0.24569 0.10392
# Poissons Ratio (y) = 0.54728 0.31072
# Poissons Ratio (z) = 0.60885 0.81725
#
# Static dielectric constant tensor:
#      x y z
#    x 3.441390 0.000000 0.000000 
#    y 0.000000 2.998040 0.000000 
#    z 0.000000 0.000000 2.670500 
# 
# 
# High freq. dielectric constant tensor:
#      x y z
#    x 1.650860 0.000000 0.000000 
#    y 0.000000 1.631610 0.000000 
#    z 0.000000 0.000000 1.596120 
# 
# From -- ./inp_files/13301.got.cif
#   From: 2010.03.12/outbox.cif.g09.slc.cpg/sg47_7_cif.got.tgz:13301.got - 2010.04.14 03:12:58.
