data_PCOD8193911
_publ_section_title
;
Structure prediction by ZEFSAII (Michael W. Deem and Ramdas Pophale) SiO2 
 PCOD8193911
Probable space group: P M M M
;
_chemical_formula_sum "Si O2"
_cell_formula_units_Z 64
_cell_length_a 14.579108
_cell_length_b 9.261664
_cell_length_c 28.692947
_cell_angle_alpha 90.000000
_cell_angle_beta 90.000000
_cell_angle_gamma 90.000000
_cell_volume 3874.316808
_symmetry_space_group_name_H-M "P M M M"
_symmetry_group_IT_number 47
_symmetry_cell_setting 'orthorhombic'
loop_
_space_group_symop_operation_xyz
x,y,z
-x,-y,z
x,-y,-z
-x,y,-z
-x,-y,-z
x,y,-z
-x,y,z
x,-y,z
loop_
_atom_site_type_symbol
_atom_site_label
_atom_site_fract_x
_atom_site_fract_y
_atom_site_fract_z
Si Si1 0.258388 0.332447 0.947773
Si Si2 0.893892 0.664055 0.188526
Si Si3 0.891373 0.661348 0.448788
Si Si4 0.783901 0.330306 0.719998
Si Si5 0.106425 0.170178 0.359219
Si Si6 0.105889 0.168375 0.902940
Si Si7 0.398200 0.328663 0.766746
Si Si8 0.602062 0.328531 0.870889
O O1 0.238233 0.500000 0.937973
O O2 0.163599 0.245058 0.943387
O O3 0.329934 0.266610 0.910291
O O4 0.297237 0.310166 0.000000
O O5 0.870231 0.500000 0.174011
O O6 0.838887 0.710876 0.233831
O O7 0.863438 0.766671 0.146632
O O8 0.000000 0.682902 0.200858
O O9 0.853725 0.708492 0.500000
O O10 0.855691 0.500000 0.436584
O O11 0.858791 0.773370 0.409481
O O12 0.000000 0.659975 0.450644
O O13 0.791661 0.500000 0.708547
O O14 0.826798 0.240740 0.678234
O O15 0.678158 0.280785 0.728894
O O16 0.000000 0.213755 0.349883
O O17 0.118934 0.000000 0.357841
O O18 0.000000 0.202095 0.913082
O O19 0.126802 0.000000 0.902415
O O20 0.500000 0.269756 0.752885
O O21 0.401156 0.500000 0.768490
O O22 0.370253 0.275000 0.818830
O O23 0.500000 0.272168 0.882444
O O24 0.604134 0.500000 0.873118
#
# Coordination Sequence:
#
# PCOD8193911 Si02
#       8
#     8   8   8   8   8   8   8   8
#     4  10  20  32  48  71  94 114 139 173 213 257
#     4   9  17  29  46  67  88 112 146 185 221 260
#     4   8  14  26  44  63  84 116 159 201 235 268
#     4  10  18  28  45  66  90 121 152 183 221 265
#     4  10  20  30  40  60  93 129 161 194 230 266
#     4  10  21  35  49  64  84 114 150 184 217 255
#     4   8  14  25  43  67  90 112 142 180 220 261
#     4   8  14  27  48  72  95 114 134 168 215 265
#
# _framework density 16.519041999999999
#
# number of rings (size 3 to 8) (size 9 to 14) (size 15 to 20)
#    0.000    2.875    0.000    3.000    0.000    5.500 
#    0.000    5.000    0.000    0.750    0.000    2.625 
#    0.000    0.500    0.000    5.750    0.000    1.875 
#
# Total GULP energy -793267.971014 kJ/mol
# GULP energy per Si atom -12394.812047 kJ/mol
# Density = 1.648144 g / cm^3
# Si number density = 16.519042 Si / 1000 Ang^3
#
#
#
# Elastic Constant Matrix: (Units=GPa)
#
#
# Indices 1 2 3 4 5 6 
#
# 1 80.6177 34.3363 64.9526 0.0000 0.0000 0.0000
# 2 34.3363 50.2927 44.8113 0.0000 0.0000 0.0000
# 3 64.9526 44.8113 109.1838 0.0000 0.0000 0.0000
# 4 0.0000 0.0000 0.0000 7.0591 0.0000 0.0000
# 5 0.0000 0.0000 0.0000 0.0000 17.9900 0.0000
# 6 0.0000 0.0000 0.0000 0.0000 0.0000 11.0483
#
#
#
# Elastic Compliance Matrix: (Units=1/GPa)
#
#
# Indices 1 2 3 4 5 6 
#
# 1 0.024919 -0.005998 -0.012363 0.000000 0.000000 0.000000
# 2 -0.005998 0.032790 -0.009890 0.000000 0.000000 0.000000
# 3 -0.012363 -0.009890 0.020572 0.000000 0.000000 0.000000
# 4 0.000000 0.000000 0.000000 0.141661 0.000000 0.000000
# 5 0.000000 0.000000 0.000000 0.000000 0.055586 0.000000
# 6 0.000000 0.000000 0.000000 0.000000 0.000000 0.090512
#
#
# Mechanical properties :
#
#
# Convention : Reuss Voigt Hill
#
# Bulk Modulus (GPa) = 45.91080 58.69944 52.30512
# Shear Modulus (GPa) = 11.63326 13.61909 12.62618
#
# Velocity S-wave (km/s) = 2.65662 2.87443 2.76767
# Velocity P-wave (km/s) = 6.10436 6.82847 6.47654
#
# Compressibility (1/GPa) = 0.02178137
#
# Stress axis : x y z
#
# Youngs Moduli (GPa) = 40.12977 30.49672 48.60916
#
# Poissons Ratio (x) = 0.18291 0.60093
# Poissons Ratio (y) = 0.24069 0.48073
# Poissons Ratio (z) = 0.49611 0.30161
#
# Static dielectric constant tensor:
#      x y z
#    x 3.258500 0.000000 0.000000 
#    y 0.000000 2.875290 0.000000 
#    z 0.000000 0.000000 3.267900 
# 
# 
# High freq. dielectric constant tensor:
#      x y z
#    x 1.619310 0.000000 0.000000 
#    y 0.000000 1.607870 0.000000 
#    z 0.000000 0.000000 1.628480 
# 
# From -- ./inp_files/25878.got.cif
#   From: 2010.03.12/outbox.cif.g09.slc.cpg/sg47_13_cif.got.tgz:25878.got - 2010.04.14 03:12:58.
