data_PCOD8193479
_publ_section_title
;
Structure prediction by ZEFSAII (Michael W. Deem and Ramdas Pophale) SiO2 
 PCOD8193479
Probable space group: P M M M
;
_chemical_formula_sum "Si O2"
_cell_formula_units_Z 56
_cell_length_a 14.842280
_cell_length_b 9.551931
_cell_length_c 23.332373
_cell_angle_alpha 90.000000
_cell_angle_beta 90.000000
_cell_angle_gamma 90.000000
_cell_volume 3307.887322
_symmetry_space_group_name_H-M "P M M M"
_symmetry_group_IT_number 47
_symmetry_cell_setting 'orthorhombic'
loop_
_space_group_symop_operation_xyz
x,y,z
-x,-y,z
x,-y,-z
-x,y,-z
-x,-y,-z
x,y,-z
-x,y,z
x,-y,z
loop_
_atom_site_type_symbol
_atom_site_label
_atom_site_fract_x
_atom_site_fract_y
_atom_site_fract_z
Si Si1 0.102891 0.339459 0.110719
Si Si2 0.400908 0.834076 0.716834
Si Si3 0.895919 0.659515 0.243279
Si Si4 0.742921 0.838046 0.935406
Si Si5 0.898979 0.833723 0.563561
Si Si6 0.400092 0.833693 0.845246
Si Si7 0.216245 0.833522 0.331100
O O1 0.125191 0.500000 0.096846
O O2 0.121947 0.307257 0.177092
O O3 0.163372 0.242072 0.071065
O O4 0.000000 0.305553 0.095472
O O5 0.500000 0.775901 0.697587
O O6 0.376797 0.780434 0.780962
O O7 0.321588 0.786946 0.673165
O O8 0.406341 0.000000 0.718475
O O9 0.868291 0.500000 0.257806
O O10 0.837026 0.767615 0.278695
O O11 0.000000 0.683605 0.258734
O O12 0.670168 0.772126 0.891314
O O13 0.760797 0.000000 0.921558
O O14 0.706487 0.818515 0.000000
O O15 0.873087 0.778103 0.500000
O O16 0.825943 0.776806 0.609220
O O17 0.000000 0.781848 0.579892
O O18 0.897812 0.000000 0.563392
O O19 0.500000 0.780942 0.861963
O O20 0.397011 0.000000 0.847527
O O21 0.206262 0.000000 0.326026
#
# Coordination Sequence:
#
# PCOD8193479 Si02
#       7
#     8   8   8   8   8   8   8
#     4   9  19  35  50  62  82 117 152 174 205 264
#     4   8  14  24  39  62  89 112 137 176 223 262
#     4   9  18  31  45  64  91 116 137 172 224 269
#     4  10  20  31  45  68  91 108 137 185 226 248
#     4   8  14  24  37  57  88 121 151 184 217 249
#     4   8  14  26  43  62  87 116 139 164 211 272
#     4  10  17  25  44  69  88 113 151 186 214 253
#
# _framework density 16.929234000000001
#
# number of rings (size 3 to 8) (size 9 to 14) (size 15 to 20)
#    0.000    3.143    0.000    3.429    0.000    3.714 
#    0.000    4.286    0.000    1.714    0.000   10.000 
#    0.000    0.000    0.000    1.286    0.000    1.714 
#
# Total GULP energy -694019.383016 kJ/mol
# GULP energy per Si atom -12393.203268 kJ/mol
# Density = 1.689070 g / cm^3
# Si number density = 16.929234 Si / 1000 Ang^3
#
#
#
# Elastic Constant Matrix: (Units=GPa)
#
#
# Indices 1 2 3 4 5 6 
#
# 1 126.7375 24.6567 73.4844 0.0000 0.0000 0.0000
# 2 24.6567 21.7043 18.4736 0.0000 0.0000 0.0000
# 3 73.4844 18.4736 86.9392 0.0000 0.0000 0.0000
# 4 0.0000 0.0000 0.0000 12.3375 0.0000 0.0000
# 5 0.0000 0.0000 0.0000 0.0000 27.6036 0.0000
# 6 0.0000 0.0000 0.0000 0.0000 0.0000 8.4764
#
#
#
# Elastic Compliance Matrix: (Units=1/GPa)
#
#
# Indices 1 2 3 4 5 6 
#
# 1 0.016659 -0.008473 -0.012281 0.000000 0.000000 0.000000
# 2 -0.008473 0.060556 -0.005706 0.000000 0.000000 0.000000
# 3 -0.012281 -0.005706 0.023095 0.000000 0.000000 0.000000
# 4 0.000000 0.000000 0.000000 0.081054 0.000000 0.000000
# 5 0.000000 0.000000 0.000000 0.000000 0.036227 0.000000
# 6 0.000000 0.000000 0.000000 0.000000 0.000000 0.117975
#
#
# Mechanical properties :
#
#
# Convention : Reuss Voigt Hill
#
# Bulk Modulus (GPa) = 21.10103 52.06783 36.58443
# Shear Modulus (GPa) = 12.36764 17.60125 14.98444
#
# Velocity S-wave (km/s) = 2.70580 3.22793 2.97833
# Velocity P-wave (km/s) = 4.71732 6.68697 5.78657
#
# Compressibility (1/GPa) = 0.04739104
#
# Stress axis : x y z
#
# Youngs Moduli (GPa) = 60.02694 16.51376 43.29975
#
# Poissons Ratio (x) = 0.13992 0.53175
# Poissons Ratio (y) = 0.50859 0.24707
# Poissons Ratio (z) = 0.73717 0.09423
#
# Static dielectric constant tensor:
#      x y z
#    x 3.484790 0.000000 0.000000 
#    y 0.000000 2.699880 0.000000 
#    z 0.000000 0.000000 3.279490 
# 
# 
# High freq. dielectric constant tensor:
#      x y z
#    x 1.657470 0.000000 0.000000 
#    y 0.000000 1.603370 0.000000 
#    z 0.000000 0.000000 1.643800 
# 
# From -- ./inp_files/30970.got.cif
#   From: 2010.03.12/outbox.cif.g09.slc.cpg/sg47_16_cif.got.tgz:30970.got - 2010.04.14 03:12:58.
