data_PCOD8193063
_publ_section_title
;
Structure prediction by ZEFSAII (Michael W. Deem and Ramdas Pophale) SiO2 
 PCOD8193063
Probable space group: I M A 2
;
_chemical_formula_sum "Si O2"
_cell_formula_units_Z 56
_cell_length_a 15.324926
_cell_length_b 4.952965
_cell_length_c 32.825123
_cell_angle_alpha 90.000000
_cell_angle_beta 90.000000
_cell_angle_gamma 90.000000
_cell_volume 2491.552297
_symmetry_space_group_name_H-M "I M A 2"
_symmetry_group_IT_number 46
_symmetry_cell_setting 'orthorhombic'
loop_
_space_group_symop_operation_xyz
x,y,z
-x,-y,z
1/2-x,y,z
1/2+x,-y,z
1/2+x,1/2+y,1/2+z
1/2-x,1/2-y,1/2+z
-x,1/2+y,1/2+z
x,1/2-y,1/2+z
loop_
_atom_site_type_symbol
_atom_site_label
_atom_site_fract_x
_atom_site_fract_y
_atom_site_fract_z
Si Si1 0.594595 0.893463 0.366830
Si Si2 0.846586 0.131380 0.912119
Si Si3 0.000000 0.000000 0.109012
Si Si4 0.099565 0.513183 0.773231
Si Si5 0.350128 0.356026 0.547273
Si Si6 0.845977 0.522461 0.227457
Si Si7 0.500000 0.500000 0.164266
Si Si8 0.152290 0.633905 0.993978
O O1 0.601826 0.597944 0.387141
O O2 0.609209 0.899248 0.318735
O O3 0.500000 0.000000 0.378986
O O4 0.664160 0.103245 0.384552
O O5 0.750000 0.016520 0.922084
O O6 0.894693 0.234352 0.954098
O O7 0.918200 0.877027 0.084043
O O8 0.028183 0.754205 0.137286
O O9 0.129993 0.818576 0.764567
O O10 0.000000 0.500000 0.758784
O O11 0.158578 0.320252 0.746049
O O12 0.250000 0.274699 0.560697
O O13 0.348790 0.653835 0.529907
O O14 0.387256 0.142812 0.513210
O O15 0.750000 0.452661 0.209989
O O16 0.914561 0.537189 0.191288
O O17 0.250000 0.561953 0.979530
#
# Coordination Sequence:
#
# PCOD8193063 Si02
#       8
#     8   8   4   8   8   8   4   8
#     4  11  24  39  60  92 136 176 217 277 342 384
#     4  11  22  39  62  91 129 175 225 278 332 385
#     4  12  26  42  70 100 127 174 211 258 344 408
#     4  11  22  43  66  90 134 182 222 281 338 387
#     4  10  21  41  65  94 129 165 216 267 318 393
#     4  12  25  43  71  99 129 178 229 269 333 408
#     4  12  26  46  66  96 141 162 209 280 338 400
#     4   9  19  38  64  89 124 172 212 264 325 375
#
# _framework density 22.475946
#
# number of rings (size 3 to 8) (size 9 to 14) (size 15 to 20)
#    0.000    1.143    1.429    4.714    0.000    9.143 
#    5.143    0.000    0.000    0.000    0.000    0.000 
#    0.000    0.000    0.000    0.000    0.000    0.000 
#
# Total GULP energy -346988.968162 kJ/mol
# GULP energy per Si atom -12392.463149 kJ/mol
# Density = 2.242479 g / cm^3
# Si number density = 22.475946 Si / 1000 Ang^3
#
#
#
# Elastic Constant Matrix: (Units=GPa)
#
#
# Indices 1 2 3 4 5 6 
#
# 1 101.5747 14.5537 48.5653 0.0000 0.0000 0.0000
# 2 14.5537 129.0889 49.4324 0.0000 0.0000 0.0000
# 3 48.5653 49.4324 113.3536 0.0000 0.0000 0.0000
# 4 0.0000 0.0000 0.0000 53.8493 0.0000 0.0000
# 5 0.0000 0.0000 0.0000 0.0000 15.7077 0.0000
# 6 0.0000 0.0000 0.0000 0.0000 0.0000 24.8593
#
#
#
# Elastic Compliance Matrix: (Units=1/GPa)
#
#
# Indices 1 2 3 4 5 6 
#
# 1 0.012444 0.000767 -0.005666 0.000000 0.000000 0.000000
# 2 0.000767 0.009347 -0.004405 0.000000 0.000000 0.000000
# 3 -0.005666 -0.004405 0.013170 0.000000 0.000000 0.000000
# 4 0.000000 0.000000 0.000000 0.018570 0.000000 0.000000
# 5 0.000000 0.000000 0.000000 0.000000 0.063663 0.000000
# 6 0.000000 0.000000 0.000000 0.000000 0.000000 0.040226
#
#
# Mechanical properties :
#
#
# Convention : Reuss Voigt Hill
#
# Bulk Modulus (GPa) = 61.14843 63.23557 62.19200
# Shear Modulus (GPa) = 27.55130 34.31429 30.93279
#
# Velocity S-wave (km/s) = 3.50496 3.91155 3.71383
# Velocity P-wave (km/s) = 6.60643 6.97110 6.79121
#
# Compressibility (1/GPa) = 0.01635365
#
# Stress axis : x y z
#
# Youngs Moduli (GPa) = 80.35909 106.98841 75.92869
#
# Poissons Ratio (x) = -0.08203 0.43021
# Poissons Ratio (y) = -0.06161 0.33443
# Poissons Ratio (z) = 0.45531 0.47123
#
# Static dielectric constant tensor:
#      x y z
#    x 4.036900 0.000000 0.000000 
#    y 0.000000 4.176700 0.000000 
#    z 0.000000 0.000000 4.004110 
# 
# 
# High freq. dielectric constant tensor:
#      x y z
#    x 1.875820 0.000000 0.000000 
#    y 0.000000 1.904340 0.000000 
#    z 0.000000 0.000000 1.880790 
# 
# From -- ./inp_files/25457.got.cif
#   From: 2010.03.12/outbox.cif.g09.slc.cpg/sg46_13_cif.got.tgz:25457.got - 2010.04.14 02:56:35.
