data_PCOD8193738
_publ_section_title
;
Structure prediction by ZEFSAII (Michael W. Deem and Ramdas Pophale) SiO2 
 PCOD8193738
Probable space group: P M M M
;
_chemical_formula_sum "Si O2"
_cell_formula_units_Z 64
_cell_length_a 18.411290
_cell_length_b 26.851169
_cell_length_c 8.920208
_cell_angle_alpha 90.000000
_cell_angle_beta 90.000000
_cell_angle_gamma 90.000000
_cell_volume 4409.835589
_symmetry_space_group_name_H-M "P M M M"
_symmetry_group_IT_number 47
_symmetry_cell_setting 'orthorhombic'
loop_
_space_group_symop_operation_xyz
x,y,z
-x,-y,z
x,-y,-z
-x,y,-z
-x,-y,-z
x,y,-z
-x,y,z
x,-y,z
loop_
_atom_site_type_symbol
_atom_site_label
_atom_site_fract_x
_atom_site_fract_y
_atom_site_fract_z
Si Si1 0.798535 0.396879 0.333969
Si Si2 0.086165 0.945419 0.668291
Si Si3 0.916034 0.660733 0.172481
Si Si4 0.914840 0.152615 0.173395
Si Si5 0.153299 0.753786 0.679402
Si Si6 0.708780 0.703888 0.336508
Si Si7 0.329862 0.443010 0.827490
Si Si8 0.417672 0.358165 0.320814
O O1 0.817182 0.417581 0.500000
O O2 0.872581 0.385372 0.244842
O O3 0.754103 0.346451 0.349592
O O4 0.749695 0.436741 0.245643
O O5 0.114115 0.934140 0.500000
O O6 0.113513 0.902268 0.779870
O O7 0.000000 0.946460 0.668965
O O8 0.115028 0.000000 0.721268
O O9 0.901531 0.713223 0.253849
O O10 0.000000 0.647430 0.189638
O O11 0.892852 0.666704 0.000000
O O12 0.870285 0.191744 0.270890
O O13 0.000000 0.158868 0.208424
O O14 0.897886 0.161222 0.000000
O O15 0.151762 0.749191 0.500000
O O16 0.236387 0.743571 0.741505
O O17 0.689133 0.725234 0.500000
O O18 0.632521 0.688016 0.257228
O O19 0.354321 0.500000 0.810264
O O20 0.391557 0.410291 0.747296
O O21 0.324677 0.426683 0.000000
O O22 0.409217 0.361787 0.500000
O O23 0.500000 0.347633 0.271468
#
# Coordination Sequence:
#
# PCOD8193738 Si02
#       8
#     8   8   8   8   8   8   8   8
#     4   9  17  30  47  63  79 102 133 164 192 230
#     4   8  14  25  39  52  67  92 129 170 209 250
#     4  10  19  29  42  61  84 106 128 159 201 245
#     4  10  19  27  35  51  76 103 133 173 217 253
#     4  10  18  27  40  56  77 106 138 170 201 236
#     4   7  13  26  41  58  77  98 127 159 190 226
#     4  10  20  32  46  64  86 110 132 157 193 233
#     4   9  17  30  48  67  86 108 134 163 192 226
#
# _framework density 14.513013000000001
#
# number of rings (size 3 to 8) (size 9 to 14) (size 15 to 20)
#    0.000    2.875    0.000    4.125    0.000    5.000 
#    0.000    3.125    0.000    0.375    0.000    2.625 
#    0.000    0.000    0.000    0.000    0.000    0.625 
#
# Total GULP energy -792979.768379 kJ/mol
# GULP energy per Si atom -12390.308881 kJ/mol
# Density = 1.447998 g / cm^3
# Si number density = 14.513013 Si / 1000 Ang^3
#
#
#
# Elastic Constant Matrix: (Units=GPa)
#
#
# Indices 1 2 3 4 5 6 
#
# 1 87.7542 37.9426 36.1192 0.0000 0.0000 0.0000
# 2 37.9426 53.6818 25.6339 0.0000 0.0000 0.0000
# 3 36.1192 25.6339 69.7908 0.0000 0.0000 0.0000
# 4 0.0000 0.0000 0.0000 21.1487 0.0000 0.0000
# 5 0.0000 0.0000 0.0000 0.0000 15.9696 0.0000
# 6 0.0000 0.0000 0.0000 0.0000 0.0000 11.9355
#
#
#
# Elastic Compliance Matrix: (Units=1/GPa)
#
#
# Indices 1 2 3 4 5 6 
#
# 1 0.018081 -0.010079 -0.005656 0.000000 0.000000 0.000000
# 2 -0.010079 0.028209 -0.005145 0.000000 0.000000 0.000000
# 3 -0.005656 -0.005145 0.019145 0.000000 0.000000 0.000000
# 4 0.000000 0.000000 0.000000 0.047284 0.000000 0.000000
# 5 0.000000 0.000000 0.000000 0.000000 0.062619 0.000000
# 6 0.000000 0.000000 0.000000 0.000000 0.000000 0.083784
#
#
# Mechanical properties :
#
#
# Convention : Reuss Voigt Hill
#
# Bulk Modulus (GPa) = 42.23638 45.62424 43.93031
# Shear Modulus (GPa) = 16.19308 17.24616 16.71962
#
# Velocity S-wave (km/s) = 3.34393 3.45095 3.39786
# Velocity P-wave (km/s) = 6.63888 6.88359 6.76234
#
# Compressibility (1/GPa) = 0.02367627
#
# Stress axis : x y z
#
# Youngs Moduli (GPa) = 55.30566 35.44960 52.23255
#
# Poissons Ratio (x) = 0.35731 0.29541
# Poissons Ratio (y) = 0.55744 0.26872
# Poissons Ratio (z) = 0.31279 0.18238
#
# Static dielectric constant tensor:
#      x y z
#    x 2.894180 0.000000 0.000000 
#    y 0.000000 2.823040 0.000000 
#    z 0.000000 0.000000 2.896920 
# 
# 
# High freq. dielectric constant tensor:
#      x y z
#    x 1.527050 0.000000 0.000000 
#    y 0.000000 1.529410 0.000000 
#    z 0.000000 0.000000 1.558490 
# 
# From -- ./inp_files/10254.got.cif
#   From: 2010.03.12/outbox.cif.g09.slc.cpg/sg47_6_cif.got.tgz:10254.got - 2010.04.14 03:12:58.
