data_PCOD8193334
_publ_section_title
;
Structure prediction by ZEFSAII (Michael W. Deem and Ramdas Pophale) SiO2 
 PCOD8193334
Probable space group: I M A 2
;
_chemical_formula_sum "Si O2"
_cell_formula_units_Z 64
_cell_length_a 15.626173
_cell_length_b 19.717918
_cell_length_c 10.192840
_cell_angle_alpha 90.000000
_cell_angle_beta 90.000000
_cell_angle_gamma 90.000000
_cell_volume 3140.572991
_symmetry_space_group_name_H-M "I M A 2"
_symmetry_group_IT_number 46
_symmetry_cell_setting 'orthorhombic'
loop_
_space_group_symop_operation_xyz
x,y,z
-x,-y,z
1/2-x,y,z
1/2+x,-y,z
1/2+x,1/2+y,1/2+z
1/2-x,1/2-y,1/2+z
-x,1/2+y,1/2+z
x,1/2-y,1/2+z
loop_
_atom_site_type_symbol
_atom_site_label
_atom_site_fract_x
_atom_site_fract_y
_atom_site_fract_z
Si Si1 0.148490 0.961029 0.614950
Si Si2 0.148371 0.690884 0.094547
Si Si3 0.147939 0.059671 0.395115
Si Si4 0.351727 0.795330 0.886782
Si Si5 0.653433 0.443243 0.397979
Si Si6 0.650474 0.789960 0.365031
Si Si7 0.649042 0.683221 0.573483
Si Si8 0.590002 0.964942 0.112481
O O1 0.250000 0.967954 0.604408
O O2 0.117913 0.886212 0.570191
O O3 0.113762 0.974835 0.763296
O O4 0.109451 0.017290 0.516814
O O5 0.250000 0.693369 0.089309
O O6 0.118042 0.717887 0.237264
O O7 0.106891 0.738723 0.982479
O O8 0.250000 0.060426 0.388589
O O9 0.112348 0.136523 0.405101
O O10 0.115328 0.023688 0.262667
O O11 0.250000 0.790107 0.898932
O O12 0.386664 0.869524 0.932447
O O13 0.750000 0.426051 0.357167
O O14 0.654213 0.494728 0.518090
O O15 0.750000 0.790753 0.398218
O O16 0.612097 0.729759 0.455321
O O17 0.633939 0.776691 0.210679
O O18 0.750000 0.665020 0.559306
O O19 0.594354 0.614048 0.573091
O O20 0.500000 0.000000 0.081329
#
# Coordination Sequence:
#
# PCOD8193334 Si02
#       8
#     8   8   8   8   8   8   8   8
#     4   8  15  27  47  73  99 123 157 205 257 305
#     4   8  13  22  36  62  93 119 148 192 242 283
#     4   9  17  32  53  78 103 130 168 217 265 316
#     4   8  14  23  38  59  87 118 152 193 238 281
#     4   9  17  31  49  71  96 125 163 212 259 301
#     4   8  15  27  48  77 104 125 155 203 263 317
#     4   9  17  32  54  81 106 130 166 218 270 317
#     4  11  22  34  49  71 104 142 174 204 245 310
#
# _framework density 20.378447999999999
#
# number of rings (size 3 to 8) (size 9 to 14) (size 15 to 20)
#    0.000    3.250    0.000    3.375    0.000    2.000 
#    0.000    8.125    0.000    9.000    0.000    0.000 
#    0.000    0.000    0.000    0.000    0.000    0.000 
#
# Total GULP energy -396498.639751 kJ/mol
# GULP energy per Si atom -12390.582492 kJ/mol
# Density = 2.033207 g / cm^3
# Si number density = 20.378448 Si / 1000 Ang^3
#
#
#
# Elastic Constant Matrix: (Units=GPa)
#
#
# Indices 1 2 3 4 5 6 
#
# 1 16.2814 18.5523 14.4273 0.0000 0.0000 0.0000
# 2 18.5523 118.7998 78.4546 0.0000 0.0000 0.0000
# 3 14.4273 78.4546 108.6193 0.0000 0.0000 0.0000
# 4 0.0000 0.0000 0.0000 51.4069 0.0000 0.0000
# 5 0.0000 0.0000 0.0000 0.0000 2.9552 0.0000
# 6 0.0000 0.0000 0.0000 0.0000 0.0000 13.9402
#
#
#
# Elastic Compliance Matrix: (Units=1/GPa)
#
#
# Indices 1 2 3 4 5 6 
#
# 1 0.075183 -0.009840 -0.002879 0.000000 0.000000 0.000000
# 2 -0.009840 0.017382 -0.011248 0.000000 0.000000 0.000000
# 3 -0.002879 -0.011248 0.017713 0.000000 0.000000 0.000000
# 4 0.000000 0.000000 0.000000 0.019453 0.000000 0.000000
# 5 0.000000 0.000000 0.000000 0.000000 0.338389 0.000000
# 6 0.000000 0.000000 0.000000 0.000000 0.000000 0.071735
#
#
# Mechanical properties :
#
#
# Convention : Reuss Voigt Hill
#
# Bulk Modulus (GPa) = 16.03983 51.84098 33.94041
# Shear Modulus (GPa) = 8.21598 22.47821 15.34710
#
# Velocity S-wave (km/s) = 2.01009 3.32481 2.74725
# Velocity P-wave (km/s) = 3.64353 6.34298 5.17247
#
# Compressibility (1/GPa) = 0.06234481
#
# Stress axis : x y z
#
# Youngs Moduli (GPa) = 13.30093 57.52986 56.45488
#
# Poissons Ratio (x) = 0.56607 0.16254
# Poissons Ratio (y) = 0.13087 0.63501
# Poissons Ratio (z) = 0.03829 0.64710
#
# Static dielectric constant tensor:
#      x y z
#    x 2.988630 0.000000 0.000000 
#    y 0.000000 3.902240 0.000000 
#    z 0.000000 0.000000 3.905100 
# 
# 
# High freq. dielectric constant tensor:
#      x y z
#    x 1.735550 0.000000 0.000000 
#    y 0.000000 1.797700 0.000000 
#    z 0.000000 0.000000 1.804980 
# 
# From -- ./inp_files/11316.got.cif
#   From: 2010.03.12/outbox.cif.g09.slc.cpg/sg46_6_cif.got.tgz:11316.got - 2010.04.14 02:56:35.
