data_PCOD8193648
_publ_section_title
;
Structure prediction by ZEFSAII (Michael W. Deem and Ramdas Pophale) SiO2 
 PCOD8193648
Probable space group: P M M M
;
_chemical_formula_sum "Si O2"
_cell_formula_units_Z 56
_cell_length_a 23.884661
_cell_length_b 13.809260
_cell_length_c 9.157005
_cell_angle_alpha 90.000000
_cell_angle_beta 90.000000
_cell_angle_gamma 90.000000
_cell_volume 3020.250324
_symmetry_space_group_name_H-M "P M M M"
_symmetry_group_IT_number 47
_symmetry_cell_setting 'orthorhombic'
loop_
_space_group_symop_operation_xyz
x,y,z
-x,-y,z
x,-y,-z
-x,y,-z
-x,-y,-z
x,y,-z
-x,y,z
x,-y,z
loop_
_atom_site_type_symbol
_atom_site_label
_atom_site_fract_x
_atom_site_fract_y
_atom_site_fract_z
Si Si1 0.631556 0.395864 0.669502
Si Si2 0.063735 0.191115 0.328260
Si Si3 0.739734 0.889180 0.169279
Si Si4 0.632707 0.184934 0.674445
Si Si5 0.563004 0.000000 0.326333
Si Si6 0.934289 0.000000 0.161315
Si Si7 0.237926 0.391495 0.660490
Si Si8 0.164456 0.746375 0.167442
O O1 0.617483 0.402629 0.500000
O O2 0.609221 0.500000 0.739260
O O3 0.607907 0.291106 0.727118
O O4 0.697102 0.390191 0.698761
O O5 0.069507 0.178964 0.500000
O O6 0.108410 0.267193 0.265632
O O7 0.000000 0.220327 0.286343
O O8 0.083921 0.092930 0.251660
O O9 0.694851 0.829349 0.263039
O O10 0.801752 0.846256 0.195945
O O11 0.740568 0.000000 0.222211
O O12 0.722765 0.880421 0.000000
O O13 0.637232 0.183656 0.500000
O O14 0.593399 0.097440 0.731834
O O15 0.500000 0.000000 0.264565
O O16 0.563025 0.000000 0.500000
O O17 0.000000 0.000000 0.141179
O O18 0.905646 0.000000 0.000000
O O19 0.227907 0.343287 0.500000
O O20 0.215093 0.500000 0.655979
O O21 0.205662 0.339460 0.790054
O O22 0.146296 0.736224 0.000000
#
# Coordination Sequence:
#
# PCOD8193648 Si02
#       8
#     8   8   8   8   4   4   8   8
#     4   8  14  25  44  71  98 125 162 207 252 300
#     4  10  21  36  52  70  94 128 172 216 251 293
#     4  10  21  34  46  68 105 138 161 201 256 302
#     4  10  17  29  52  73  95 133 175 212 250 301
#     4   9  18  30  46  75 108 137 175 221 262 293
#     4   9  17  31  50  69  90 117 152 197 248 297
#     4   9  17  31  51  73 100 130 159 203 258 309
#     4  11  22  33  50  74 101 134 165 202 257 314
#
# _framework density 18.541509000000001
#
# number of rings (size 3 to 8) (size 9 to 14) (size 15 to 20)
#    0.000    2.429    2.143    1.929    1.000    2.571 
#    0.000    0.000    0.000    2.143    0.000    6.000 
#    0.000    0.000    0.000    1.286    0.000    1.429 
#
# Total GULP energy -693772.449831 kJ/mol
# GULP energy per Si atom -12388.793747 kJ/mol
# Density = 1.849931 g / cm^3
# Si number density = 18.541509 Si / 1000 Ang^3
#
#
#
# Elastic Constant Matrix: (Units=GPa)
#
#
# Indices 1 2 3 4 5 6 
#
# 1 58.9525 25.4509 24.6964 0.0000 0.0000 0.0000
# 2 25.4509 134.4258 19.2381 0.0000 0.0000 0.0000
# 3 24.6964 19.2381 51.2069 0.0000 0.0000 0.0000
# 4 0.0000 0.0000 0.0000 18.9989 0.0000 0.0000
# 5 0.0000 0.0000 0.0000 0.0000 13.0019 0.0000
# 6 0.0000 0.0000 0.0000 0.0000 0.0000 20.7670
#
#
#
# Elastic Compliance Matrix: (Units=1/GPa)
#
#
# Indices 1 2 3 4 5 6 
#
# 1 0.022229 -0.002826 -0.009659 0.000000 0.000000 0.000000
# 2 -0.002826 0.008221 -0.001726 0.000000 0.000000 0.000000
# 3 -0.009659 -0.001726 0.024835 0.000000 0.000000 0.000000
# 4 0.000000 0.000000 0.000000 0.052635 0.000000 0.000000
# 5 0.000000 0.000000 0.000000 0.000000 0.076912 0.000000
# 6 0.000000 0.000000 0.000000 0.000000 0.000000 0.048153
#
#
# Mechanical properties :
#
#
# Convention : Reuss Voigt Hill
#
# Bulk Modulus (GPa) = 37.22468 42.59513 39.90990
# Shear Modulus (GPa) = 18.49371 22.23355 20.36363
#
# Velocity S-wave (km/s) = 3.16163 3.46659 3.31761
# Velocity P-wave (km/s) = 5.78341 6.24866 6.02053
#
# Compressibility (1/GPa) = 0.02686390
#
# Stress axis : x y z
#
# Youngs Moduli (GPa) = 44.98549 121.63809 40.26522
#
# Poissons Ratio (x) = 0.34379 0.38893
# Poissons Ratio (y) = 0.12714 0.06948
# Poissons Ratio (z) = 0.43452 0.20989
#
# Static dielectric constant tensor:
#      x y z
#    x 3.195760 0.000000 0.000000 
#    y 0.000000 3.807850 0.000000 
#    z 0.000000 0.000000 3.193590 
# 
# 
# High freq. dielectric constant tensor:
#      x y z
#    x 1.691740 0.000000 0.000000 
#    y 0.000000 1.723360 0.000000 
#    z 0.000000 0.000000 1.694430 
# 
# From -- ./inp_files/11359.got.cif
#   From: 2010.03.12/outbox.cif.g09.slc.cpg/sg47_6_cif.got.tgz:11359.got - 2010.04.14 03:12:58.
