data_PCOD8193575
_publ_section_title
;
Structure prediction by ZEFSAII (Michael W. Deem and Ramdas Pophale) SiO2 
 PCOD8193575
Probable space group: P M M M
;
_chemical_formula_sum "Si O2"
_cell_formula_units_Z 64
_cell_length_a 15.526760
_cell_length_b 24.580430
_cell_length_c 9.447623
_cell_angle_alpha 90.000000
_cell_angle_beta 90.000000
_cell_angle_gamma 90.000000
_cell_volume 3605.727240
_symmetry_space_group_name_H-M "P M M M"
_symmetry_group_IT_number 47
_symmetry_cell_setting 'orthorhombic'
loop_
_space_group_symop_operation_xyz
x,y,z
-x,-y,z
x,-y,-z
-x,y,-z
-x,-y,-z
x,y,-z
-x,y,z
x,-y,z
loop_
_atom_site_type_symbol
_atom_site_label
_atom_site_fract_x
_atom_site_fract_y
_atom_site_fract_z
Si Si1 0.593700 0.674275 0.163283
Si Si2 0.360076 0.224412 0.337115
Si Si3 0.229043 0.937296 0.334439
Si Si4 0.220410 0.360497 0.162503
Si Si5 0.408309 0.896573 0.663172
Si Si6 0.198104 0.762248 0.160064
Si Si7 0.903087 0.134640 0.837562
Si Si8 0.903072 0.562985 0.664968
O O1 0.500000 0.644337 0.184424
O O2 0.589105 0.728892 0.254575
O O3 0.677553 0.638614 0.207333
O O4 0.606256 0.691086 0.000000
O O5 0.350965 0.242033 0.500000
O O6 0.410225 0.168324 0.320734
O O7 0.266355 0.215189 0.271312
O O8 0.226878 0.921999 0.500000
O O9 0.323582 0.923867 0.267638
O O10 0.158164 0.901633 0.257583
O O11 0.207250 0.000000 0.308203
O O12 0.178521 0.301135 0.191076
O O13 0.169243 0.403489 0.254456
O O14 0.210328 0.377817 0.000000
O O15 0.406741 0.913589 0.500000
O O16 0.500000 0.917435 0.729398
O O17 0.114959 0.800587 0.179037
O O18 0.234933 0.767066 0.000000
O O19 0.000000 0.124363 0.786304
O O20 0.890405 0.116837 0.000000
O O21 0.892426 0.574928 0.500000
O O22 0.886956 0.500000 0.698552
O O23 0.000000 0.579312 0.713556
#
# Coordination Sequence:
#
# PCOD8193575 Si02
#       8
#     8   8   8   8   8   8   8   8
#     4   9  18  32  48  70 106 146 177 207 249 301
#     4  10  17  27  47  73 102 132 166 207 248 294
#     4  10  21  37  55  74  98 129 166 211 260 307
#     4   9  18  31  51  80 107 134 172 214 254 299
#     4   9  17  29  47  73 101 127 159 201 249 300
#     4   9  18  33  51  73 104 136 166 201 250 306
#     4  10  21  37  57  77  99 131 168 206 253 310
#     4   9  19  36  55  75 103 139 176 214 259 309
#
# _framework density 17.74954
#
# number of rings (size 3 to 8) (size 9 to 14) (size 15 to 20)
#    0.000    2.625    1.250    1.875    0.000    4.750 
#    0.000    4.375    0.000    1.500    0.000    3.500 
#    0.000    0.000    0.000    0.000    0.000    0.000 
#
# Total GULP energy -793074.409302 kJ/mol
# GULP energy per Si atom -12391.787645 kJ/mol
# Density = 1.770914 g / cm^3
# Si number density = 17.749540 Si / 1000 Ang^3
#
#
#
# Elastic Constant Matrix: (Units=GPa)
#
#
# Indices 1 2 3 4 5 6 
#
# 1 160.9431 69.8867 50.3608 0.0000 0.0000 0.0000
# 2 69.8867 75.8131 38.7373 0.0000 0.0000 0.0000
# 3 50.3608 38.7373 58.1406 0.0000 0.0000 0.0000
# 4 0.0000 0.0000 0.0000 26.1625 0.0000 0.0000
# 5 0.0000 0.0000 0.0000 0.0000 23.8131 0.0000
# 6 0.0000 0.0000 0.0000 0.0000 0.0000 18.7911
#
#
#
# Elastic Compliance Matrix: (Units=1/GPa)
#
#
# Indices 1 2 3 4 5 6 
#
# 1 0.010999 -0.007992 -0.004202 0.000000 0.000000 0.000000
# 2 -0.007992 0.025805 -0.010271 0.000000 0.000000 0.000000
# 3 -0.004202 -0.010271 0.027683 0.000000 0.000000 0.000000
# 4 0.000000 0.000000 0.000000 0.038223 0.000000 0.000000
# 5 0.000000 0.000000 0.000000 0.000000 0.041994 0.000000
# 6 0.000000 0.000000 0.000000 0.000000 0.000000 0.053217
#
#
# Mechanical properties :
#
#
# Convention : Reuss Voigt Hill
#
# Bulk Modulus (GPa) = 51.13272 68.09627 59.61449
# Shear Modulus (GPa) = 20.05063 22.81412 21.43238
#
# Velocity S-wave (km/s) = 3.36466 3.58905 3.47866
# Velocity P-wave (km/s) = 6.63061 7.45811 7.05650
#
# Compressibility (1/GPa) = 0.01955695
#
# Stress axis : x y z
#
# Youngs Moduli (GPa) = 90.92139 38.75171 36.12334
#
# Poissons Ratio (x) = 0.30969 0.15180
# Poissons Ratio (y) = 0.72661 0.37103
# Poissons Ratio (z) = 0.38207 0.39802
#
# Static dielectric constant tensor:
#      x y z
#    x 3.498250 0.000000 0.000000 
#    y 0.000000 3.067330 0.000000 
#    z 0.000000 0.000000 3.172860 
# 
# 
# High freq. dielectric constant tensor:
#      x y z
#    x 1.696940 0.000000 0.000000 
#    y 0.000000 1.663830 0.000000 
#    z 0.000000 0.000000 1.671480 
# 
# From -- ./inp_files/7934.got.cif
#   From: 2010.03.12/outbox.cif.g09.slc.cpg/sg47_4_cif.got.tgz:7934.got - 2010.04.14 03:12:58.
