data_PCOD8193600
_publ_section_title
;
Structure prediction by ZEFSAII (Michael W. Deem and Ramdas Pophale) SiO2 
 PCOD8193600
Probable space group: P M M M
;
_chemical_formula_sum "Si O2"
_cell_formula_units_Z 64
_cell_length_a 31.140906
_cell_length_b 14.183095
_cell_length_c 9.233363
_cell_angle_alpha 90.000000
_cell_angle_beta 90.000000
_cell_angle_gamma 90.000000
_cell_volume 4078.140323
_symmetry_space_group_name_H-M "P M M M"
_symmetry_group_IT_number 47
_symmetry_cell_setting 'orthorhombic'
loop_
_space_group_symop_operation_xyz
x,y,z
-x,-y,z
x,-y,-z
-x,y,-z
-x,-y,-z
x,y,-z
-x,y,z
x,-y,z
loop_
_atom_site_type_symbol
_atom_site_label
_atom_site_fract_x
_atom_site_fract_y
_atom_site_fract_z
Si Si1 0.370461 0.390706 0.170032
Si Si2 0.792589 0.605372 0.671682
Si Si3 0.706007 0.706620 0.667779
Si Si4 0.126639 0.273182 0.327676
Si Si5 0.547156 0.611859 0.662459
Si Si6 0.749389 0.105461 0.335075
Si Si7 0.836016 0.107952 0.167970
Si Si8 0.047619 0.605339 0.328077
O O1 0.363203 0.500000 0.212756
O O2 0.333355 0.327961 0.237755
O O3 0.415891 0.351801 0.229996
O O4 0.370468 0.376134 0.000000
O O5 0.794004 0.601253 0.500000
O O6 0.794636 0.500000 0.737128
O O7 0.748851 0.654556 0.723641
O O8 0.833338 0.664188 0.727349
O O9 0.696937 0.682986 0.500000
O O10 0.711698 0.818976 0.693198
O O11 0.126638 0.260326 0.500000
O O12 0.129345 0.171412 0.252157
O O13 0.083172 0.322242 0.269501
O O14 0.557328 0.647691 0.500000
O O15 0.500000 0.649564 0.711904
O O16 0.546229 0.500000 0.664715
O O17 0.766380 0.117123 0.500000
O O18 0.788791 0.127178 0.230295
O O19 0.730996 0.000000 0.308652
O O20 0.849691 0.000000 0.192849
O O21 0.835448 0.134923 0.000000
O O22 0.050096 0.602353 0.500000
O O23 0.057205 0.500000 0.268654
O O24 0.000000 0.638098 0.277860
#
# Coordination Sequence:
#
# PCOD8193600 Si02
#       8
#     8   8   8   8   8   8   8   8
#     4  10  20  30  40  59  89 124 157 187 221 259
#     4   9  16  25  39  62  88 114 146 179 209 248
#     4  10  18  29  44  62  86 118 150 180 217 262
#     4  10  17  28  47  69  90 115 149 184 217 257
#     4   8  14  26  44  63  82 109 149 193 231 266
#     4   9  17  31  50  69  87 109 145 190 229 265
#     4  10  20  32  46  65  89 115 143 180 227 272
#     4   8  14  25  44  72 100 120 141 177 224 267
#
# _framework density 15.693429
#
# number of rings (size 3 to 8) (size 9 to 14) (size 15 to 20)
#    0.000    2.750    1.250    2.250    0.000    4.250 
#    0.000    1.250    0.000    2.250    0.000    3.500 
#    0.000    0.500    0.000    5.750    0.000    1.875 
#
# Total GULP energy -793369.542910 kJ/mol
# GULP energy per Si atom -12396.399108 kJ/mol
# Density = 1.565771 g / cm^3
# Si number density = 15.693429 Si / 1000 Ang^3
#
#
#
# Elastic Constant Matrix: (Units=GPa)
#
#
# Indices 1 2 3 4 5 6 
#
# 1 130.1043 59.8046 47.6398 0.0000 0.0000 0.0000
# 2 59.8046 93.6917 39.9373 0.0000 0.0000 0.0000
# 3 47.6398 39.9373 55.3927 0.0000 0.0000 0.0000
# 4 0.0000 0.0000 0.0000 15.4272 0.0000 0.0000
# 5 0.0000 0.0000 0.0000 0.0000 8.1533 0.0000
# 6 0.0000 0.0000 0.0000 0.0000 0.0000 13.1501
#
#
#
# Elastic Compliance Matrix: (Units=1/GPa)
#
#
# Indices 1 2 3 4 5 6 
#
# 1 0.012635 -0.004956 -0.007293 0.000000 0.000000 0.000000
# 2 -0.004956 0.017353 -0.008249 0.000000 0.000000 0.000000
# 3 -0.007293 -0.008249 0.030272 0.000000 0.000000 0.000000
# 4 0.000000 0.000000 0.000000 0.064821 0.000000 0.000000
# 5 0.000000 0.000000 0.000000 0.000000 0.122650 0.000000
# 6 0.000000 0.000000 0.000000 0.000000 0.000000 0.076045
#
#
# Mechanical properties :
#
#
# Convention : Reuss Voigt Hill
#
# Bulk Modulus (GPa) = 51.90959 63.77246 57.84103
# Shear Modulus (GPa) = 13.47007 16.13324 14.80165
#
# Velocity S-wave (km/s) = 2.93290 3.20976 3.07445
# Velocity P-wave (km/s) = 6.67969 7.37980 7.03845
#
# Compressibility (1/GPa) = 0.01926426
#
# Stress axis : x y z
#
# Youngs Moduli (GPa) = 79.14633 57.62671 33.03330
#
# Poissons Ratio (x) = 0.28561 0.24091
# Poissons Ratio (y) = 0.39227 0.27248
# Poissons Ratio (z) = 0.57722 0.47535
#
# Static dielectric constant tensor:
#      x y z
#    x 3.112140 0.000000 0.000000 
#    y 0.000000 3.045320 0.000000 
#    z 0.000000 0.000000 2.793850 
# 
# 
# High freq. dielectric constant tensor:
#      x y z
#    x 1.592240 0.000000 0.000000 
#    y 0.000000 1.586190 0.000000 
#    z 0.000000 0.000000 1.579380 
# 
# From -- ./inp_files/14277.got.cif
#   From: 2010.03.12/outbox.cif.g09.slc.cpg/sg47_8_cif.got.tgz:14277.got - 2010.04.14 03:12:58.
