data_PCOD8193021
_publ_section_title
;
Structure prediction by ZEFSAII (Michael W. Deem and Ramdas Pophale) SiO2 
 PCOD8193021
Probable space group: I M A 2
;
_chemical_formula_sum "Si O2"
_cell_formula_units_Z 64
_cell_length_a 13.404963
_cell_length_b 12.159703
_cell_length_c 18.187336
_cell_angle_alpha 90.000000
_cell_angle_beta 90.000000
_cell_angle_gamma 90.000000
_cell_volume 2964.542476
_symmetry_space_group_name_H-M "I M A 2"
_symmetry_group_IT_number 46
_symmetry_cell_setting 'orthorhombic'
loop_
_space_group_symop_operation_xyz
x,y,z
-x,-y,z
1/2-x,y,z
1/2+x,-y,z
1/2+x,1/2+y,1/2+z
1/2-x,1/2-y,1/2+z
-x,1/2+y,1/2+z
x,1/2-y,1/2+z
loop_
_atom_site_type_symbol
_atom_site_label
_atom_site_fract_x
_atom_site_fract_y
_atom_site_fract_z
Si Si1 0.462807 0.117011 0.322330
Si Si2 0.969771 0.386085 0.453617
Si Si3 0.863493 0.463110 0.599542
Si Si4 0.365773 0.186234 0.177252
Si Si5 0.637906 0.239245 0.836757
Si Si6 0.139637 0.743170 0.170280
Si Si7 0.368166 0.305281 0.959675
Si Si8 0.031535 0.121976 0.600597
O O1 0.427559 0.184163 0.251850
O O2 0.561629 0.166392 0.359100
O O3 0.375991 0.126266 0.383687
O O4 0.500000 0.000000 0.296579
O O5 0.928673 0.412057 0.534516
O O6 0.880876 0.351226 0.398919
O O7 0.000000 0.500000 0.416247
O O8 0.068517 0.308357 0.457352
O O9 0.750000 0.474647 0.572219
O O10 0.902003 0.584581 0.624787
O O11 0.870637 0.376620 0.667754
O O12 0.250000 0.170155 0.194399
O O13 0.385263 0.308483 0.145857
O O14 0.750000 0.284157 0.841904
O O15 0.615915 0.200120 0.752712
O O16 0.250000 0.706440 0.147004
O O17 0.069602 0.691768 0.107712
O O18 0.250000 0.282248 0.976636
O O19 0.421813 0.384129 0.019452
O O20 0.000000 0.000000 0.628601
#
# Coordination Sequence:
#
# PCOD8193021 Si02
#       8
#     8   8   8   8   8   8   8   8
#     4  11  23  42  70 100 130 172 219 278 334 399
#     4  11  23  39  67  96 134 171 215 275 338 403
#     4  10  21  39  70 104 132 167 215 279 343 396
#     4  11  24  42  70 104 137 172 219 278 344 407
#     4  10  22  40  61  91 130 170 210 261 325 394
#     4  10  21  40  64  95 130 169 220 276 328 389
#     4  11  25  45  65  94 135 178 227 279 336 397
#     4  12  25  43  66  92 132 181 230 272 328 395
#
# _framework density 21.588491000000001
#
# number of rings (size 3 to 8) (size 9 to 14) (size 15 to 20)
#    0.000    1.250    2.500    3.000    0.000    5.500 
#    0.000    0.000    0.000    0.750    0.000    0.000 
#    0.000    0.000    0.000    0.000    0.000    0.000 
#
# Total GULP energy -396457.063642 kJ/mol
# GULP energy per Si atom -12389.283239 kJ/mol
# Density = 2.153935 g / cm^3
# Si number density = 21.588491 Si / 1000 Ang^3
#
#
#
# Elastic Constant Matrix: (Units=GPa)
#
#
# Indices 1 2 3 4 5 6 
#
# 1 135.7751 30.5227 41.8186 0.0000 0.0000 0.0000
# 2 30.5227 112.7507 32.2620 0.0000 0.0000 0.0000
# 3 41.8186 32.2620 107.6688 0.0000 0.0000 0.0000
# 4 0.0000 0.0000 0.0000 29.2700 0.0000 0.0000
# 5 0.0000 0.0000 0.0000 0.0000 33.6017 0.0000
# 6 0.0000 0.0000 0.0000 0.0000 0.0000 28.1622
#
#
#
# Elastic Compliance Matrix: (Units=1/GPa)
#
#
# Indices 1 2 3 4 5 6 
#
# 1 0.008592 -0.001500 -0.002888 0.000000 0.000000 0.000000
# 2 -0.001500 0.009963 -0.002403 0.000000 0.000000 0.000000
# 3 -0.002888 -0.002403 0.011129 0.000000 0.000000 0.000000
# 4 0.000000 0.000000 0.000000 0.034165 0.000000 0.000000
# 5 0.000000 0.000000 0.000000 0.000000 0.029760 0.000000
# 6 0.000000 0.000000 0.000000 0.000000 0.000000 0.035509
#
#
# Mechanical properties :
#
#
# Convention : Reuss Voigt Hill
#
# Bulk Modulus (GPa) = 62.09834 62.82239 62.46036
# Shear Modulus (GPa) = 33.76893 34.97952 34.37423
#
# Velocity S-wave (km/s) = 3.95930 4.02964 3.99463
# Velocity P-wave (km/s) = 7.05184 7.12838 7.09021
#
# Compressibility (1/GPa) = 0.01610349
#
# Stress axis : x y z
#
# Youngs Moduli (GPa) = 116.39242 100.37546 89.85309
#
# Poissons Ratio (x) = 0.15052 0.25946
# Poissons Ratio (y) = 0.17454 0.21590
# Poissons Ratio (z) = 0.33610 0.24118
#
# Static dielectric constant tensor:
#      x y z
#    x 4.179030 0.000000 0.000000 
#    y 0.000000 4.163710 0.000000 
#    z 0.000000 0.000000 3.844680 
# 
# 
# High freq. dielectric constant tensor:
#      x y z
#    x 1.868140 0.000000 0.000000 
#    y 0.000000 1.829260 0.000000 
#    z 0.000000 0.000000 1.846560 
# 
# From -- ./inp_files/19644.got.cif
#   From: 2010.03.12/outbox.cif.g09.slc.cpg/sg46_10_cif.got.tgz:19644.got - 2010.04.14 02:56:35.
