data_PCOD8193933
_publ_section_title
;
Structure prediction by ZEFSAII (Michael W. Deem and Ramdas Pophale) SiO2 
 PCOD8193933
Probable space group: P M M M
;
_chemical_formula_sum "Si O2"
_cell_formula_units_Z 64
_cell_length_a 14.280542
_cell_length_b 28.775945
_cell_length_c 9.098311
_cell_angle_alpha 90.000000
_cell_angle_beta 90.000000
_cell_angle_gamma 90.000000
_cell_volume 3738.824359
_symmetry_space_group_name_H-M "P M M M"
_symmetry_group_IT_number 47
_symmetry_cell_setting 'orthorhombic'
loop_
_space_group_symop_operation_xyz
x,y,z
-x,-y,z
x,-y,-z
-x,y,-z
-x,-y,-z
x,y,-z
-x,y,z
x,-y,z
loop_
_atom_site_type_symbol
_atom_site_label
_atom_site_fract_x
_atom_site_fract_y
_atom_site_fract_z
Si Si1 0.891692 0.181531 0.172140
Si Si2 0.894806 0.448880 0.825562
Si Si3 0.604148 0.686568 0.830071
Si Si4 0.732333 0.134806 0.325772
Si Si5 0.395424 0.948112 0.325480
Si Si6 0.606272 0.778990 0.328112
Si Si7 0.789261 0.359537 0.828381
Si Si8 0.890095 0.723980 0.668487
O O1 0.831733 0.139694 0.243574
O O2 0.859493 0.229562 0.246902
O O3 0.000000 0.170699 0.205323
O O4 0.871761 0.185212 0.000000
O O5 0.864749 0.500000 0.765718
O O6 0.822987 0.409676 0.767686
O O7 0.000000 0.436996 0.770928
O O8 0.893267 0.449964 0.000000
O O9 0.500000 0.671897 0.774216
O O10 0.642597 0.732014 0.747496
O O11 0.677302 0.644668 0.801528
O O12 0.600636 0.699706 0.000000
O O13 0.748854 0.132985 0.500000
O O14 0.680961 0.088410 0.266104
O O15 0.668368 0.177961 0.277041
O O16 0.398303 0.944932 0.500000
O O17 0.500000 0.936248 0.265987
O O18 0.366189 0.000000 0.274714
O O19 0.614148 0.770904 0.500000
O O20 0.500000 0.789592 0.279891
O O21 0.841815 0.320094 0.739656
O O22 0.814471 0.353722 0.000000
O O23 0.857837 0.729427 0.500000
O O24 0.000000 0.716011 0.681886
#
# Coordination Sequence:
#
# PCOD8193933 Si02
#       8
#     8   8   8   8   8   8   8   8
#     4  10  21  35  48  63  88 123 159 191 224 267
#     4   8  14  25  42  65  89 110 139 183 228 268
#     4   9  18  30  41  57  85 118 149 182 219 256
#     4  10  18  28  47  72  94 118 151 191 230 266
#     4   8  14  26  46  73 102 127 151 183 226 276
#     4   9  17  28  42  63  91 119 146 177 215 262
#     4  10  18  28  46  67  87 117 154 187 220 264
#     4  10  20  32  46  67  95 121 145 180 226 271
#
# _framework density 17.117678999999999
#
# number of rings (size 3 to 8) (size 9 to 14) (size 15 to 20)
#    0.000    2.750    0.000    3.000    0.000    6.500 
#    0.000    0.000    0.000    2.625    0.000    7.875 
#    0.000    0.000    0.000    4.250    0.000    4.625 
#
# Total GULP energy -793390.553563 kJ/mol
# GULP energy per Si atom -12396.727399 kJ/mol
# Density = 1.707872 g / cm^3
# Si number density = 17.117679 Si / 1000 Ang^3
#
#
#
# Elastic Constant Matrix: (Units=GPa)
#
#
# Indices 1 2 3 4 5 6 
#
# 1 91.7865 87.0769 34.5616 0.0000 0.0000 0.0000
# 2 87.0769 134.4315 34.8398 0.0000 0.0000 0.0000
# 3 34.5616 34.8398 41.9034 0.0000 0.0000 0.0000
# 4 0.0000 0.0000 0.0000 16.6239 0.0000 0.0000
# 5 0.0000 0.0000 0.0000 0.0000 21.4331 0.0000
# 6 0.0000 0.0000 0.0000 0.0000 0.0000 32.1354
#
#
#
# Elastic Compliance Matrix: (Units=1/GPa)
#
#
# Indices 1 2 3 4 5 6 
#
# 1 0.032251 -0.017841 -0.011767 0.000000 0.000000 0.000000
# 2 -0.017841 0.019351 -0.001374 0.000000 0.000000 0.000000
# 3 -0.011767 -0.001374 0.034712 0.000000 0.000000 0.000000
# 4 0.000000 0.000000 0.000000 0.060154 0.000000 0.000000
# 5 0.000000 0.000000 0.000000 0.000000 0.046657 0.000000
# 6 0.000000 0.000000 0.000000 0.000000 0.000000 0.031118
#
#
# Mechanical properties :
#
#
# Convention : Reuss Voigt Hill
#
# Bulk Modulus (GPa) = 41.06700 64.56424 52.81562
# Shear Modulus (GPa) = 16.98807 21.48136 19.23472
#
# Velocity S-wave (km/s) = 3.15370 3.54633 3.35576
# Velocity P-wave (km/s) = 6.10771 7.38704 6.77763
#
# Compressibility (1/GPa) = 0.02435045
#
# Stress axis : x y z
#
# Youngs Moduli (GPa) = 31.00687 51.67688 28.80826
#
# Poissons Ratio (x) = 0.92195 0.33899
# Poissons Ratio (y) = 0.55318 0.03959
# Poissons Ratio (z) = 0.36486 0.07101
#
# Static dielectric constant tensor:
#      x y z
#    x 3.438890 0.000000 0.000000 
#    y 0.000000 3.359180 0.000000 
#    z 0.000000 0.000000 2.954920 
# 
# 
# High freq. dielectric constant tensor:
#      x y z
#    x 1.664590 0.000000 0.000000 
#    y 0.000000 1.644640 0.000000 
#    z 0.000000 0.000000 1.633730 
# 
# From -- ./inp_files/8200.got.cif
#   From: 2010.03.12/outbox.cif.g09.slc.cpg/sg47_5_cif.got.tgz:8200.got - 2010.04.14 03:12:58.
