data_PCOD8193615
_publ_section_title
;
Structure prediction by ZEFSAII (Michael W. Deem and Ramdas Pophale) SiO2 
 PCOD8193615
Probable space group: P M M M
;
_chemical_formula_sum "Si O2"
_cell_formula_units_Z 48
_cell_length_a 9.360587
_cell_length_b 13.177016
_cell_length_c 22.143683
_cell_angle_alpha 90.000000
_cell_angle_beta 90.000000
_cell_angle_gamma 90.000000
_cell_volume 2731.303826
_symmetry_space_group_name_H-M "P M M M"
_symmetry_group_IT_number 47
_symmetry_cell_setting 'orthorhombic'
loop_
_space_group_symop_operation_xyz
x,y,z
-x,-y,z
x,-y,-z
-x,y,-z
-x,-y,-z
x,y,-z
-x,y,z
x,-y,z
loop_
_atom_site_type_symbol
_atom_site_label
_atom_site_fract_x
_atom_site_fract_y
_atom_site_fract_z
Si Si1 0.159464 0.617381 0.813403
Si Si2 0.331944 0.890149 0.764607
Si Si3 0.831690 0.384208 0.675491
Si Si4 0.669965 0.884615 0.000000
Si Si5 0.330425 0.772748 0.120037
Si Si6 0.667890 0.200200 0.361014
Si Si7 0.330736 0.000000 0.569076
O O1 0.156658 0.500000 0.828614
O O2 0.217329 0.634427 0.745027
O O3 0.259860 0.664670 0.865496
O O4 0.000000 0.663026 0.818619
O O5 0.500000 0.902323 0.769844
O O6 0.272660 0.843404 0.826053
O O7 0.292941 0.822058 0.707939
O O8 0.260550 0.000000 0.755744
O O9 0.793047 0.500000 0.656803
O O10 0.750792 0.307003 0.628914
O O11 0.000000 0.366185 0.669309
O O12 0.725238 0.822824 0.058173
O O13 0.500000 0.890179 0.000000
O O14 0.730664 0.000000 0.000000
O O15 0.500000 0.759437 0.119233
O O16 0.500000 0.216672 0.373107
O O17 0.726240 0.104771 0.400660
O O18 0.500000 0.000000 0.576911
O O19 0.280784 0.000000 0.500000
#
# Coordination Sequence:
#
# PCOD8193615 Si02
#       7
#     8   8   8   4   8   8   4
#     4   9  18  32  48  67  94 126 156 191 244 301
#     4   9  15  24  41  68  96 120 149 194 241 279
#     4   9  18  32  49  71 102 135 163 202 258 304
#     4   9  18  32  48  69  94 124 157 189 236 297
#     4  10  18  29  48  70  92 121 158 199 239 281
#     4  10  17  28  49  76 102 128 166 205 238 286
#     4   9  18  32  51  77 111 144 166 195 244 295
#
# _framework density 17.574024999999999
#
# number of rings (size 3 to 8) (size 9 to 14) (size 15 to 20)
#    0.000    2.667    2.500    1.500    0.000    2.667 
#    0.000    2.917    0.000    7.500    0.000    3.500 
#    0.000    0.000    0.000    0.000    0.000    0.000 
#
# Total GULP energy -594764.153980 kJ/mol
# GULP energy per Si atom -12390.919875 kJ/mol
# Density = 1.753403 g / cm^3
# Si number density = 17.574025 Si / 1000 Ang^3
#
#
#
# Elastic Constant Matrix: (Units=GPa)
#
#
# Indices 1 2 3 4 5 6 
#
# 1 34.1521 42.1112 22.0228 0.0000 0.0000 0.0000
# 2 42.1112 130.7100 52.2061 0.0000 0.0000 0.0000
# 3 22.0228 52.2061 82.9034 0.0000 0.0000 0.0000
# 4 0.0000 0.0000 0.0000 23.6810 0.0000 0.0000
# 5 0.0000 0.0000 0.0000 0.0000 10.8418 0.0000
# 6 0.0000 0.0000 0.0000 0.0000 0.0000 12.1233
#
#
#
# Elastic Compliance Matrix: (Units=1/GPa)
#
#
# Indices 1 2 3 4 5 6 
#
# 1 0.049631 -0.014328 -0.004162 0.000000 0.000000 0.000000
# 2 -0.014328 0.014357 -0.005235 0.000000 0.000000 0.000000
# 3 -0.004162 -0.005235 0.016464 0.000000 0.000000 0.000000
# 4 0.000000 0.000000 0.000000 0.042228 0.000000 0.000000
# 5 0.000000 0.000000 0.000000 0.000000 0.092235 0.000000
# 6 0.000000 0.000000 0.000000 0.000000 0.000000 0.082486
#
#
# Mechanical properties :
#
#
# Convention : Reuss Voigt Hill
#
# Bulk Modulus (GPa) = 30.29941 53.38285 41.84113
# Shear Modulus (GPa) = 14.05077 18.09092 16.07084
#
# Velocity S-wave (km/s) = 2.83064 3.21193 3.02729
# Velocity P-wave (km/s) = 5.28790 6.64810 6.00662
#
# Compressibility (1/GPa) = 0.03300394
#
# Stress axis : x y z
#
# Youngs Moduli (GPa) = 20.14867 69.65048 60.73676
#
# Poissons Ratio (x) = 0.99792 0.25278
# Poissons Ratio (y) = 0.28868 0.31797
# Poissons Ratio (z) = 0.08386 0.36463
#
# Static dielectric constant tensor:
#      x y z
#    x 2.891760 0.000000 0.000000 
#    y 0.000000 3.438370 0.000000 
#    z 0.000000 0.000000 3.163000 
# 
# 
# High freq. dielectric constant tensor:
#      x y z
#    x 1.637130 0.000000 0.000000 
#    y 0.000000 1.693840 0.000000 
#    z 0.000000 0.000000 1.653750 
# 
# From -- ./inp_files/30448.got.cif
#   From: 2010.03.12/outbox.cif.g09.slc.cpg/sg47_16_cif.got.tgz:30448.got - 2010.04.14 03:12:58.
