data_PCOD8193927
_publ_section_title
;
Structure prediction by ZEFSAII (Michael W. Deem and Ramdas Pophale) SiO2 
 PCOD8193927
Probable space group: P M M M
;
_chemical_formula_sum "Si O2"
_cell_formula_units_Z 52
_cell_length_a 14.376968
_cell_length_b 7.671119
_cell_length_c 24.809759
_cell_angle_alpha 90.000000
_cell_angle_beta 90.000000
_cell_angle_gamma 90.000000
_cell_volume 2736.204618
_symmetry_space_group_name_H-M "P M M M"
_symmetry_group_IT_number 47
_symmetry_cell_setting 'orthorhombic'
loop_
_space_group_symop_operation_xyz
x,y,z
-x,-y,z
x,-y,-z
-x,y,-z
-x,-y,-z
x,y,-z
-x,y,z
x,-y,z
loop_
_atom_site_type_symbol
_atom_site_label
_atom_site_fract_x
_atom_site_fract_y
_atom_site_fract_z
Si Si1 0.101119 0.199795 0.168515
Si Si2 0.604809 0.292556 0.559386
Si Si3 0.102228 0.294578 0.289258
Si Si4 0.392310 0.295151 0.767256
Si Si5 0.293361 0.800609 0.873533
Si Si6 0.287590 0.706728 0.660932
Si Si7 0.606887 0.500000 0.063663
O O1 0.124012 0.212277 0.231596
O O2 0.187929 0.275565 0.134474
O O3 0.000000 0.290473 0.155746
O O4 0.093142 0.000000 0.152705
O O5 0.637452 0.227969 0.500000
O O6 0.500000 0.227444 0.570717
O O7 0.606922 0.500000 0.561168
O O8 0.672238 0.212688 0.605363
O O9 0.107850 0.500000 0.281242
O O10 0.180486 0.231251 0.331637
O O11 0.000000 0.237059 0.310396
O O12 0.500000 0.246760 0.765614
O O13 0.375642 0.500000 0.775872
O O14 0.344969 0.195259 0.816381
O O15 0.347868 0.227832 0.711533
O O16 0.344875 0.675504 0.915323
O O17 0.293004 0.000000 0.895607
O O18 0.294148 0.500000 0.657818
O O19 0.500000 0.500000 0.083506
O O20 0.614153 0.500000 0.000000
#
# Coordination Sequence:
#
# PCOD8193927 Si02
#       7
#     8   8   8   8   8   8   4
#     4   9  18  32  51  78 110 141 173 212 264 325
#     4   8  13  21  33  51  78 117 168 218 260 309
#     4   9  16  25  40  64  94 128 164 202 250 318
#     4  10  18  28  45  71 104 137 168 209 268 331
#     4  11  22  37  60  86 114 146 183 228 276 325
#     4   9  15  23  37  58  89 127 165 210 263 316
#     4  11  26  46  65  85 113 151 193 231 265 312
#
# _framework density 19.004427
#
# number of rings (size 3 to 8) (size 9 to 14) (size 15 to 20)
#    0.000    2.538    2.308    1.385    1.077    3.385 
#    0.000    0.769    0.000    1.385    0.000    5.385 
#    0.000    2.462    0.000   12.308    0.000   11.692 
#
# Total GULP energy -644398.840382 kJ/mol
# GULP energy per Si atom -12392.285392 kJ/mol
# Density = 1.896117 g / cm^3
# Si number density = 19.004427 Si / 1000 Ang^3
#
#
#
# Elastic Constant Matrix: (Units=GPa)
#
#
# Indices 1 2 3 4 5 6 
#
# 1 169.5275 29.9078 68.4280 0.0000 0.0000 0.0000
# 2 29.9078 44.5844 20.9712 0.0000 0.0000 0.0000
# 3 68.4280 20.9712 92.2304 0.0000 0.0000 0.0000
# 4 0.0000 0.0000 0.0000 -4.9229 0.0000 0.0000
# 5 0.0000 0.0000 0.0000 0.0000 23.0521 0.0000
# 6 0.0000 0.0000 0.0000 0.0000 0.0000 13.8092
#
#
#
# Elastic Compliance Matrix: (Units=1/GPa)
#
#
# Indices 1 2 3 4 5 6 
#
# 1 0.008804 -0.003173 -0.005810 0.000000 0.000000 0.000000
# 2 -0.003173 0.026259 -0.003617 0.000000 0.000000 0.000000
# 3 -0.005810 -0.003617 0.015976 0.000000 0.000000 0.000000
# 4 0.000000 0.000000 0.000000 -0.203131 0.000000 0.000000
# 5 0.000000 0.000000 0.000000 0.000000 0.043380 0.000000
# 6 0.000000 0.000000 0.000000 0.000000 0.000000 0.072416
#
#
# Mechanical properties :
#
#
# Convention : Reuss Voigt Hill
#
# Bulk Modulus (GPa) = 38.70174 60.55071 49.62623
# Shear Modulus (GPa) = -2012.60374 18.85669 -996.87353
#
# Velocity S-wave (km/s) = -32.57787 3.15338 -22.92786
# Velocity P-wave (km/s) = 37.34543 6.72227 25.97587
#
# Compressibility (1/GPa) = 0.02583863
#
# Stress axis : x y z
#
# Youngs Moduli (GPa) = 113.58809 38.08236 62.59532
#
# Poissons Ratio (x) = 0.12082 0.36370
# Poissons Ratio (y) = 0.36038 0.22640
# Poissons Ratio (z) = 0.65998 0.13774
#
# Static dielectric constant tensor:
#      x y z
#    x 4.054150 0.000000 0.000000 
#    y 0.000000 3.203900 0.000000 
#    z 0.000000 0.000000 3.385300 
# 
# 
# High freq. dielectric constant tensor:
#      x y z
#    x 1.752720 0.000000 0.000000 
#    y 0.000000 1.716760 0.000000 
#    z 0.000000 0.000000 1.702730 
# 
# From -- ./inp_files/12475.got.cif
#   From: 2010.03.12/outbox.cif.g09.slc.cpg/sg47_7_cif.got.tgz:12475.got - 2010.04.14 03:12:58.
