data_PCOD8193040
_publ_section_title
;
Structure prediction by ZEFSAII (Michael W. Deem and Ramdas Pophale) SiO2 
 PCOD8193040
Probable space group: I M A 2
;
_chemical_formula_sum "Si O2"
_cell_formula_units_Z 64
_cell_length_a 13.467626
_cell_length_b 19.098770
_cell_length_c 11.981935
_cell_angle_alpha 90.000000
_cell_angle_beta 90.000000
_cell_angle_gamma 90.000000
_cell_volume 3081.934506
_symmetry_space_group_name_H-M "I M A 2"
_symmetry_group_IT_number 46
_symmetry_cell_setting 'orthorhombic'
loop_
_space_group_symop_operation_xyz
x,y,z
-x,-y,z
1/2-x,y,z
1/2+x,-y,z
1/2+x,1/2+y,1/2+z
1/2-x,1/2-y,1/2+z
-x,1/2+y,1/2+z
x,1/2-y,1/2+z
loop_
_atom_site_type_symbol
_atom_site_label
_atom_site_fract_x
_atom_site_fract_y
_atom_site_fract_z
Si Si1 0.133067 0.452711 0.284320
Si Si2 0.549650 0.665069 0.877552
Si Si3 0.137628 0.524824 0.644862
Si Si4 0.546721 0.825140 0.917659
Si Si5 0.631534 0.872318 0.137882
Si Si6 0.637546 0.090141 0.912030
Si Si7 0.633339 0.949593 0.534080
Si Si8 0.367337 0.921366 0.379415
O O1 0.250000 0.461356 0.281341
O O2 0.112340 0.381532 0.351214
O O3 0.092777 0.522723 0.346671
O O4 0.087827 0.449869 0.159213
O O5 0.568881 0.747257 0.879388
O O6 0.596812 0.643444 0.761283
O O7 0.432429 0.648606 0.898153
O O8 0.606674 0.622776 0.973816
O O9 0.250000 0.505533 0.676607
O O10 0.089925 0.450624 0.610063
O O11 0.131671 0.578841 0.544463
O O12 0.092865 0.555607 0.757905
O O13 0.431696 0.842945 0.890544
O O14 0.574930 0.824691 0.048322
O O15 0.750000 0.863027 0.125046
O O16 0.750000 0.107548 0.874430
O O17 0.750000 0.953695 0.542499
O O18 0.597899 0.018926 0.466893
O O19 0.250000 0.903783 0.386594
#
# Coordination Sequence:
#
# PCOD8193040 Si02
#       8
#     8   8   8   8   8   8   8   8
#     4  10  22  41  64  90 118 157 204 251 301 351
#     4  12  26  39  59  92 124 163 201 237 300 367
#     4   9  17  35  65  92 111 143 196 250 302 342
#     4  12  26  39  59  92 124 163 201 237 300 367
#     4  11  23  41  64  92 122 153 197 251 304 357
#     4  10  21  40  65  90 119 155 202 255 297 345
#     4  10  22  41  64  90 118 157 204 251 301 351
#     4  10  21  40  65  90 119 155 202 255 297 345
#
# _framework density 20.766176999999999
#
# number of rings (size 3 to 8) (size 9 to 14) (size 15 to 20)
#    0.000    1.500    2.500    2.250    1.750    5.500 
#    0.000    0.000    0.000    0.000    0.000    0.000 
#    0.000    0.000    0.000    0.000    0.000    0.000 
#
# Total GULP energy -396685.571969 kJ/mol
# GULP energy per Si atom -12396.424124 kJ/mol
# Density = 2.071891 g / cm^3
# Si number density = 20.766177 Si / 1000 Ang^3
#
#
#
# Elastic Constant Matrix: (Units=GPa)
#
#
# Indices 1 2 3 4 5 6 
#
# 1 49.9022 12.0131 13.6307 0.0001 0.0000 0.0000
# 2 12.0131 84.2494 13.4480 -0.0001 0.0000 0.0000
# 3 13.6307 13.4480 114.7414 -0.0005 -0.0001 0.0000
# 4 0.0001 -0.0001 -0.0005 12.1025 0.0000 0.0000
# 5 0.0000 0.0000 -0.0001 0.0000 17.0026 0.0000
# 6 0.0000 0.0000 0.0000 0.0000 0.0000 22.4036
#
#
#
# Elastic Compliance Matrix: (Units=1/GPa)
#
#
# Indices 1 2 3 4 5 6 
#
# 1 0.021290 -0.002682 -0.002215 0.000000 0.000000 0.000000
# 2 -0.002682 0.012434 -0.001139 0.000000 0.000000 0.000000
# 3 -0.002215 -0.001139 0.009112 0.000000 0.000000 0.000000
# 4 0.000000 0.000000 0.000000 0.082627 0.000000 0.000000
# 5 0.000000 0.000000 0.000000 0.000000 0.058815 0.000000
# 6 0.000000 0.000000 0.000000 0.000000 0.000000 0.044636
#
#
# Mechanical properties :
#
#
# Convention : Reuss Voigt Hill
#
# Bulk Modulus (GPa) = 32.50533 36.34186 34.42360
# Shear Modulus (GPa) = 19.90139 24.28850 22.09494
#
# Velocity S-wave (km/s) = 3.09909 3.42368 3.26542
# Velocity P-wave (km/s) = 5.33787 5.75910 5.55248
#
# Compressibility (1/GPa) = 0.03076418
#
# Stress axis : x y z
#
# Youngs Moduli (GPa) = 46.97074 80.42641 109.74778
#
# Poissons Ratio (x) = 0.21572 0.24307
# Poissons Ratio (y) = 0.12598 0.12496
# Poissons Ratio (z) = 0.10403 0.09158
#
# Static dielectric constant tensor:
#      x y z
#    x 3.902660 0.000000 0.000000 
#    y 0.000000 3.625480 0.000000 
#    z 0.000000 0.000000 4.018320 
# 
# 
# High freq. dielectric constant tensor:
#      x y z
#    x 1.830640 0.000000 0.000000 
#    y 0.000000 1.782000 0.000000 
#    z 0.000000 0.000000 1.822440 
# 
# From -- ./inp_files/11353.got.cif
#   From: 2010.03.12/outbox.cif.g09.slc.cpg/sg46_6_cif.got.tgz:11353.got - 2010.04.14 02:56:35.
