data_PCOD8193520
_publ_section_title
;
Structure prediction by ZEFSAII (Michael W. Deem and Ramdas Pophale) SiO2 
 PCOD8193520
Probable space group: P M M M
;
_chemical_formula_sum "Si O2"
_cell_formula_units_Z 56
_cell_length_a 9.274727
_cell_length_b 23.078663
_cell_length_c 14.673319
_cell_angle_alpha 90.000000
_cell_angle_beta 90.000000
_cell_angle_gamma 90.000000
_cell_volume 3140.798970
_symmetry_space_group_name_H-M "P M M M"
_symmetry_group_IT_number 47
_symmetry_cell_setting 'orthorhombic'
loop_
_space_group_symop_operation_xyz
x,y,z
-x,-y,z
x,-y,-z
-x,y,-z
-x,-y,-z
x,y,-z
-x,y,z
x,-y,z
loop_
_atom_site_type_symbol
_atom_site_label
_atom_site_fract_x
_atom_site_fract_y
_atom_site_fract_z
Si Si1 0.671091 0.342052 0.279596
Si Si2 0.671238 0.284012 0.900152
Si Si3 0.329773 0.762466 0.400135
Si Si4 0.668361 0.892574 0.394909
Si Si5 0.165561 0.934660 0.769612
Si Si6 0.664719 0.845939 0.106567
Si Si7 0.167173 0.432604 0.397038
O O1 0.500000 0.348746 0.288278
O O2 0.719406 0.331762 0.174533
O O3 0.731547 0.285902 0.332612
O O4 0.742341 0.399124 0.320845
O O5 0.500000 0.280659 0.904254
O O6 0.723673 0.219179 0.874071
O O7 0.731761 0.302393 0.000000
O O8 0.261869 0.751633 0.500000
O O9 0.500000 0.756732 0.406885
O O10 0.291389 0.826748 0.365963
O O11 0.709965 0.904162 0.500000
O O12 0.500000 0.904993 0.380019
O O13 0.760671 0.933496 0.329863
O O14 0.239675 0.891678 0.840132
O O15 0.000000 0.916360 0.759034
O O16 0.180131 0.000000 0.807360
O O17 0.500000 0.851912 0.140780
O O18 0.675716 0.859945 0.000000
O O19 0.215441 0.415374 0.500000
O O20 0.196972 0.500000 0.380889
O O21 0.000000 0.418014 0.383754
#
# Coordination Sequence:
#
# PCOD8193520 Si02
#       7
#     8   8   8   8   8   8   8
#     4  10  17  26  48  77 100 125 158 196 236 280
#     4   8  15  29  50  77 105 128 152 190 243 294
#     4   8  14  25  43  70  99 120 143 186 245 295
#     4   9  18  34  55  74  93 123 164 206 244 287
#     4  11  24  37  48  67  98 133 163 196 245 300
#     4   9  18  35  59  80  96 121 160 202 242 289
#     4   9  19  35  50  65  94 136 172 201 238 280
#
# _framework density 17.829858000000002
#
# number of rings (size 3 to 8) (size 9 to 14) (size 15 to 20)
#    0.000    2.857    0.000    3.857    0.000    5.714 
#    0.000    6.429    0.000    2.571    0.000    3.000 
#    0.000    0.000    0.000    0.000    0.000    0.000 
#
# Total GULP energy -694130.751850 kJ/mol
# GULP energy per Si atom -12395.191997 kJ/mol
# Density = 1.778928 g / cm^3
# Si number density = 17.829858 Si / 1000 Ang^3
#
#
#
# Elastic Constant Matrix: (Units=GPa)
#
#
# Indices 1 2 3 4 5 6 
#
# 1 58.8820 39.1709 46.2457 0.0000 0.0000 0.0000
# 2 39.1709 83.4410 62.7880 0.0000 0.0000 0.0000
# 3 46.2457 62.7880 111.7996 0.0000 0.0000 0.0000
# 4 0.0000 0.0000 0.0000 26.4678 0.0000 0.0000
# 5 0.0000 0.0000 0.0000 0.0000 14.9445 0.0000
# 6 0.0000 0.0000 0.0000 0.0000 0.0000 -3.4393
#
#
#
# Elastic Compliance Matrix: (Units=1/GPa)
#
#
# Indices 1 2 3 4 5 6 
#
# 1 0.027673 -0.007581 -0.007189 0.000000 0.000000 0.000000
# 2 -0.007581 0.022833 -0.009687 0.000000 0.000000 0.000000
# 3 -0.007189 -0.009687 0.017359 0.000000 0.000000 0.000000
# 4 0.000000 0.000000 0.000000 0.037782 0.000000 0.000000
# 5 0.000000 0.000000 0.000000 0.000000 0.066914 0.000000
# 6 0.000000 0.000000 0.000000 0.000000 0.000000 -0.290760
#
#
# Mechanical properties :
#
#
# Convention : Reuss Voigt Hill
#
# Bulk Modulus (GPa) = 52.77210 61.17019 56.97114
# Shear Modulus (GPa) = -79.40549 14.65582 -32.37483
#
# Velocity S-wave (km/s) = -6.68070 2.87013 -4.26580
# Velocity P-wave (km/s) = 5.46326 6.73541 2.78555
#
# Compressibility (1/GPa) = 0.01894941
#
# Stress axis : x y z
#
# Youngs Moduli (GPa) = 36.13664 43.79616 57.60735
#
# Poissons Ratio (x) = 0.33202 0.41415
# Poissons Ratio (y) = 0.27396 0.55807
# Poissons Ratio (z) = 0.25979 0.42427
#
# Static dielectric constant tensor:
#      x y z
#    x 2.936850 0.000000 0.000000 
#    y 0.000000 3.203310 0.000000 
#    z 0.000000 0.000000 3.593710 
# 
# 
# High freq. dielectric constant tensor:
#      x y z
#    x 1.652040 0.000000 0.000000 
#    y 0.000000 1.678500 0.000000 
#    z 0.000000 0.000000 1.697820 
# 
# From -- ./inp_files/11252.got.cif
#   From: 2010.03.12/outbox.cif.g09.slc.cpg/sg47_6_cif.got.tgz:11252.got - 2010.04.14 03:12:58.
