data_PCOD8193011
_publ_section_title
;
Structure prediction by ZEFSAII (Michael W. Deem and Ramdas Pophale) SiO2 
 PCOD8193011
Probable space group: I M A 2
;
_chemical_formula_sum "Si O2"
_cell_formula_units_Z 48
_cell_length_a 16.157810
_cell_length_b 9.434126
_cell_length_c 14.325297
_cell_angle_alpha 90.000000
_cell_angle_beta 90.000000
_cell_angle_gamma 90.000000
_cell_volume 2183.674004
_symmetry_space_group_name_H-M "I M A 2"
_symmetry_group_IT_number 46
_symmetry_cell_setting 'orthorhombic'
loop_
_space_group_symop_operation_xyz
x,y,z
-x,-y,z
1/2-x,y,z
1/2+x,-y,z
1/2+x,1/2+y,1/2+z
1/2-x,1/2-y,1/2+z
-x,1/2+y,1/2+z
x,1/2-y,1/2+z
loop_
_atom_site_type_symbol
_atom_site_label
_atom_site_fract_x
_atom_site_fract_y
_atom_site_fract_z
Si Si1 0.348727 0.529710 0.213400
Si Si2 0.154824 0.880018 0.908002
Si Si3 0.923868 0.608251 0.906678
Si Si4 0.348959 0.295051 0.713412
Si Si5 0.345175 0.619996 0.018802
Si Si6 0.423865 0.391754 0.520151
O O1 0.250000 0.535318 0.213400
O O2 0.386215 0.606962 0.304925
O O3 0.376489 0.367434 0.213392
O O4 0.386214 0.606978 0.121879
O O5 0.250000 0.843023 0.893196
O O6 0.111400 0.750004 0.963400
O O7 0.147672 0.028491 0.961946
O O8 0.888791 0.633718 0.804058
O O9 0.000000 0.500000 0.902604
O O10 0.852323 0.528481 0.964861
O O11 0.947563 0.749994 0.963425
O O12 0.250000 0.316162 0.713429
O O13 0.388771 0.366324 0.622769
O O14 0.250000 0.657000 0.033603
O O15 0.500000 0.500000 0.524229
#
# Coordination Sequence:
#
# PCOD8193011 Si02
#       6
#     8   8   8   8   8   8
#     4   9  18  36  64  98 128 165 215 271 338 388
#     4  10  21  39  65  96 132 173 224 282 333 394
#     4  12  25  43  65  97 139 180 224 271 335 403
#     4  11  23  42  72 102 130 172 229 284 330 392
#     4  10  21  39  65  96 132 173 224 282 333 394
#     4  12  25  43  65  97 139 180 224 271 335 403
#
# _framework density 21.981304000000002
#
# number of rings (size 3 to 8) (size 9 to 14) (size 15 to 20)
#    0.000    1.333    3.333    2.500    0.000    2.667 
#    0.000   10.000    0.000    0.000    0.000    0.000 
#    0.000    0.000    0.000    0.000    0.000    0.000 
#
# Total GULP energy -297520.168828 kJ/mol
# GULP energy per Si atom -12396.673701 kJ/mol
# Density = 2.193127 g / cm^3
# Si number density = 21.981304 Si / 1000 Ang^3
#
#
#
# Elastic Constant Matrix: (Units=GPa)
#
#
# Indices 1 2 3 4 5 6 
#
# 1 47.6583 35.7235 33.1696 0.0000 0.0000 0.0000
# 2 35.7235 170.7242 108.9725 0.0000 0.0000 0.0000
# 3 33.1696 108.9725 252.1197 0.0000 0.0000 0.0000
# 4 0.0000 0.0000 0.0000 49.8766 0.0000 0.0000
# 5 0.0000 0.0000 0.0000 0.0000 13.1740 0.0000
# 6 0.0000 0.0000 0.0000 0.0000 0.0000 23.7249
#
#
#
# Elastic Compliance Matrix: (Units=1/GPa)
#
#
# Indices 1 2 3 4 5 6 
#
# 1 0.025256 -0.004369 -0.001434 0.000000 0.000000 0.000000
# 2 -0.004369 0.008845 -0.003248 0.000000 0.000000 0.000000
# 3 -0.001434 -0.003248 0.005559 0.000000 0.000000 0.000000
# 4 0.000000 0.000000 0.000000 0.020049 0.000000 0.000000
# 5 0.000000 0.000000 0.000000 0.000000 0.075907 0.000000
# 6 0.000000 0.000000 0.000000 0.000000 0.000000 0.042150
#
#
# Mechanical properties :
#
#
# Convention : Reuss Voigt Hill
#
# Bulk Modulus (GPa) = 46.38949 91.80371 69.09660
# Shear Modulus (GPa) = 24.62388 36.86423 30.74405
#
# Velocity S-wave (km/s) = 3.35060 4.09965 3.74390
# Velocity P-wave (km/s) = 6.00987 8.01652 7.08460
#
# Compressibility (1/GPa) = 0.02155661
#
# Stress axis : x y z
#
# Youngs Moduli (GPa) = 39.59449 113.05884 179.88826
#
# Poissons Ratio (x) = 0.49399 0.25800
# Poissons Ratio (y) = 0.17300 0.58431
# Poissons Ratio (z) = 0.05679 0.36724
#
# Static dielectric constant tensor:
#      x y z
#    x 3.641650 0.000000 0.000000 
#    y 0.000000 4.203260 0.000000 
#    z 0.000000 0.000000 4.510030 
# 
# 
# High freq. dielectric constant tensor:
#      x y z
#    x 1.848150 0.000000 0.000000 
#    y 0.000000 1.871400 0.000000 
#    z 0.000000 0.000000 1.885660 
# 
# From -- ./inp_files/16509.got.cif
#   From: 2010.03.12/outbox.cif.g09.slc.cpg/sg46_9_cif.got.tgz:16509.got - 2010.04.14 02:56:35.
