data_PCOD8193759
_publ_section_title
;
Structure prediction by ZEFSAII (Michael W. Deem and Ramdas Pophale) SiO2 
 PCOD8193759
Probable space group: P M M M
;
_chemical_formula_sum "Si O2"
_cell_formula_units_Z 64
_cell_length_a 18.333550
_cell_length_b 25.861240
_cell_length_c 9.100313
_cell_angle_alpha 90.000000
_cell_angle_beta 90.000000
_cell_angle_gamma 90.000000
_cell_volume 4314.716265
_symmetry_space_group_name_H-M "P M M M"
_symmetry_group_IT_number 47
_symmetry_cell_setting 'orthorhombic'
loop_
_space_group_symop_operation_xyz
x,y,z
-x,-y,z
x,-y,-z
-x,y,-z
-x,-y,-z
x,y,-z
-x,y,z
x,-y,z
loop_
_atom_site_type_symbol
_atom_site_label
_atom_site_fract_x
_atom_site_fract_y
_atom_site_fract_z
Si Si1 0.294991 0.305371 0.665356
Si Si2 0.582724 0.940816 0.329549
Si Si3 0.416057 0.251183 0.172397
Si Si4 0.083973 0.560000 0.331556
Si Si5 0.916689 0.262212 0.671433
Si Si6 0.334292 0.852531 0.171696
Si Si7 0.212789 0.802900 0.337621
Si Si8 0.165916 0.647020 0.174395
O O1 0.307581 0.326174 0.500000
O O2 0.373021 0.296616 0.743443
O O3 0.253087 0.251654 0.663542
O O4 0.246535 0.346043 0.756696
O O5 0.589596 0.926990 0.500000
O O6 0.500000 0.931164 0.275959
O O7 0.637344 0.905327 0.239882
O O8 0.605005 0.000000 0.300575
O O9 0.500000 0.254677 0.219210
O O10 0.386752 0.194643 0.219211
O O11 0.404597 0.259626 0.000000
O O12 0.100026 0.575812 0.500000
O O13 0.100947 0.500000 0.306584
O O14 0.135968 0.591335 0.222367
O O15 0.000000 0.572252 0.293764
O O16 0.905418 0.276973 0.500000
O O17 0.870553 0.210089 0.709118
O O18 0.890642 0.310082 0.768772
O O19 0.000000 0.249658 0.708860
O O20 0.251619 0.842169 0.226098
O O21 0.331970 0.860009 0.000000
O O22 0.215951 0.827787 0.500000
O O23 0.172142 0.650539 0.000000
#
# Coordination Sequence:
#
# PCOD8193759 Si02
#       8
#     8   8   8   8   8   8   8   8
#     4   9  17  29  43  58  78 107 143 176 203 238
#     4   9  18  31  44  58  78 105 137 172 206 238
#     4   9  17  28  41  60  87 113 136 167 208 249
#     4   9  18  32  47  61  80 109 143 176 208 242
#     4   9  17  29  44  61  82 109 141 173 203 240
#     4  10  18  27  41  60  82 109 138 167 201 241
#     4   8  15  27  41  57  78 106 137 168 201 236
#     4  11  20  28  41  61  85 112 140 171 210 250
#
# _framework density 14.832955999999999
#
# number of rings (size 3 to 8) (size 9 to 14) (size 15 to 20)
#    0.000    2.750    0.000    4.125    0.000    7.000 
#    0.000    1.250    0.000    0.000    0.000    0.000 
#    0.000    1.000    0.000   11.000    0.000    3.875 
#
# Total GULP energy -793475.651615 kJ/mol
# GULP energy per Si atom -12398.057056 kJ/mol
# Density = 1.479920 g / cm^3
# Si number density = 14.832956 Si / 1000 Ang^3
#
#
#
# Elastic Constant Matrix: (Units=GPa)
#
#
# Indices 1 2 3 4 5 6 
#
# 1 103.1563 44.8355 47.9971 0.0000 0.0000 0.0000
# 2 44.8355 62.7492 43.3280 0.0000 0.0000 0.0000
# 3 47.9971 43.3280 82.3966 0.0000 0.0000 0.0000
# 4 0.0000 0.0000 0.0000 20.2760 0.0000 0.0000
# 5 0.0000 0.0000 0.0000 0.0000 21.1624 0.0000
# 6 0.0000 0.0000 0.0000 0.0000 0.0000 25.8607
#
#
#
# Elastic Compliance Matrix: (Units=1/GPa)
#
#
# Indices 1 2 3 4 5 6 
#
# 1 0.015247 -0.007476 -0.004950 0.000000 0.000000 0.000000
# 2 -0.007476 0.028687 -0.010730 0.000000 0.000000 0.000000
# 3 -0.004950 -0.010730 0.020662 0.000000 0.000000 0.000000
# 4 0.000000 0.000000 0.000000 0.049319 0.000000 0.000000
# 5 0.000000 0.000000 0.000000 0.000000 0.047254 0.000000
# 6 0.000000 0.000000 0.000000 0.000000 0.000000 0.038669
#
#
# Mechanical properties :
#
#
# Convention : Reuss Voigt Hill
#
# Bulk Modulus (GPa) = 54.69380 57.84702 56.27041
# Shear Modulus (GPa) = 19.82198 20.93594 20.37896
#
# Velocity S-wave (km/s) = 3.65957 3.76100 3.71063
# Velocity P-wave (km/s) = 7.40337 7.61208 7.50845
#
# Compressibility (1/GPa) = 0.01828361
#
# Stress axis : x y z
#
# Youngs Moduli (GPa) = 65.58859 34.85849 48.39698
#
# Poissons Ratio (x) = 0.26060 0.23957
# Poissons Ratio (y) = 0.49034 0.51932
# Poissons Ratio (z) = 0.32467 0.37404
#
# Static dielectric constant tensor:
#      x y z
#    x 3.005650 0.000000 0.000000 
#    y 0.000000 2.622140 0.000000 
#    z 0.000000 0.000000 2.909260 
# 
# 
# High freq. dielectric constant tensor:
#      x y z
#    x 1.559170 0.000000 0.000000 
#    y 0.000000 1.530990 0.000000 
#    z 0.000000 0.000000 1.572930 
# 
# From -- ./inp_files/10246.got.cif
#   From: 2010.03.12/outbox.cif.g09.slc.cpg/sg47_6_cif.got.tgz:10246.got - 2010.04.14 03:12:58.
