data_PCOD8193399
_publ_section_title
;
Structure prediction by ZEFSAII (Michael W. Deem and Ramdas Pophale) SiO2 
 PCOD8193399
Probable space group: I M A 2
;
_chemical_formula_sum "Si O2"
_cell_formula_units_Z 40
_cell_length_a 10.501921
_cell_length_b 19.588921
_cell_length_c 9.052389
_cell_angle_alpha 90.000000
_cell_angle_beta 90.000000
_cell_angle_gamma 90.000000
_cell_volume 1862.269241
_symmetry_space_group_name_H-M "I M A 2"
_symmetry_group_IT_number 46
_symmetry_cell_setting 'orthorhombic'
loop_
_space_group_symop_operation_xyz
x,y,z
-x,-y,z
1/2-x,y,z
1/2+x,-y,z
1/2+x,1/2+y,1/2+z
1/2-x,1/2-y,1/2+z
-x,1/2+y,1/2+z
x,1/2-y,1/2+z
loop_
_atom_site_type_symbol
_atom_site_label
_atom_site_fract_x
_atom_site_fract_y
_atom_site_fract_z
Si Si1 0.510499 0.578003 0.500000
Si Si2 0.750000 0.343084 0.471201
Si Si3 0.514461 0.683906 0.026347
Si Si4 0.750000 0.289115 0.149138
Si Si5 0.106870 0.055943 0.683057
Si Si6 0.605511 0.688642 0.708768
O O1 0.500000 0.500000 0.551228
O O2 0.371135 0.608519 0.475994
O O3 0.587540 0.584639 0.347637
O O4 0.586604 0.616852 0.627100
O O5 0.750000 0.296305 0.325432
O O6 0.750000 0.291506 0.610116
O O7 0.371146 0.672517 0.080788
O O8 0.597189 0.618160 0.068887
O O9 0.572814 0.751734 0.095839
O O10 0.514083 0.693607 0.850204
O O11 0.250000 0.024894 0.669872
O O12 0.000000 0.000000 0.644445
O O13 0.750000 0.695082 0.763529
#
# Coordination Sequence:
#
# PCOD8193399 Si02
#       6
#     8   4   8   4   8   8
#     4  11  26  42  70  99 141 183 230 286 353 426
#     4  12  24  46  72 108 140 183 241 296 368 420
#     4  12  25  44  70  98 136 178 230 292 355 422
#     4  12  24  44  72 106 136 175 237 300 358 416
#     4  11  25  44  71 101 137 186 236 292 357 428
#     4  12  25  44  67  97 133 181 227 288 347 422
#
# _framework density 21.479171000000001
#
# number of rings (size 3 to 8) (size 9 to 14) (size 15 to 20)
#    0.000    0.400    4.000    4.800    8.400    0.800 
#    0.000    0.000    0.000    0.000    0.000    0.000 
#    0.000    0.000    0.000    0.000    0.000    0.000 
#
# Total GULP energy -248152.414246 kJ/mol
# GULP energy per Si atom -12407.620712 kJ/mol
# Density = 2.143028 g / cm^3
# Si number density = 21.479171 Si / 1000 Ang^3
#
#
#
# Elastic Constant Matrix: (Units=GPa)
#
#
# Indices 1 2 3 4 5 6 
#
# 1 144.1089 39.5752 8.8077 -0.0001 -0.0004 0.0001
# 2 39.5752 135.7661 65.2824 0.0009 0.0003 -0.0001
# 3 8.8077 65.2824 103.0613 0.0022 0.0031 -0.0007
# 4 -0.0001 0.0009 0.0022 37.6457 0.0009 -0.0003
# 5 -0.0004 0.0003 0.0031 0.0009 28.4690 0.0001
# 6 0.0001 -0.0001 -0.0007 -0.0003 0.0001 38.3579
#
#
#
# Elastic Compliance Matrix: (Units=1/GPa)
#
#
# Indices 1 2 3 4 5 6 
#
# 1 0.007627 -0.002746 0.001088 0.000000 0.000000 0.000000
# 2 -0.002746 0.011580 -0.007101 0.000000 0.000001 0.000000
# 3 0.001088 -0.007101 0.014108 -0.000001 -0.000001 0.000000
# 4 0.000000 0.000000 -0.000001 0.026563 -0.000001 0.000000
# 5 0.000000 0.000001 -0.000001 -0.000001 0.035126 0.000000
# 6 0.000000 0.000000 0.000000 0.000000 0.000000 0.026070
#
#
# Mechanical properties :
#
#
# Convention : Reuss Voigt Hill
#
# Bulk Modulus (GPa) = 63.30421 67.80743 65.55582
# Shear Modulus (GPa) = 34.75628 38.84593 36.80110
#
# Velocity S-wave (km/s) = 4.02697 4.25731 4.14374
# Velocity P-wave (km/s) = 7.15251 7.47018 7.31307
#
# Compressibility (1/GPa) = 0.01579674
#
# Stress axis : x y z
#
# Youngs Moduli (GPa) = 131.11506 86.35215 70.88252
#
# Poissons Ratio (x) = 0.23714 -0.07710
# Poissons Ratio (y) = 0.36007 0.50332
# Poissons Ratio (z) = -0.14262 0.61317
#
# Static dielectric constant tensor:
#      x y z
#    x 3.954480 0.000000 0.000000 
#    y 0.000000 3.855370 0.000000 
#    z 0.000000 0.000000 3.793190 
# 
# 
# High freq. dielectric constant tensor:
#      x y z
#    x 1.862720 0.000000 0.000000 
#    y 0.000000 1.844930 0.000000 
#    z 0.000000 0.000000 1.840200 
# 
# From -- ./inp_files/4468.got.cif
#   From: 2010.03.12/outbox.cif.g09.slc.cpg/sg46_3_cif.got.tgz:4468.got - 2010.04.14 02:56:35.
