data_PCOD8193444
_publ_section_title
;
Structure prediction by ZEFSAII (Michael W. Deem and Ramdas Pophale) SiO2 
 PCOD8193444
Probable space group: P M M M
;
_chemical_formula_sum "Si O2"
_cell_formula_units_Z 48
_cell_length_a 16.207935
_cell_length_b 9.025445
_cell_length_c 16.341004
_cell_angle_alpha 90.000000
_cell_angle_beta 90.000000
_cell_angle_gamma 90.000000
_cell_volume 2390.424584
_symmetry_space_group_name_H-M "P M M M"
_symmetry_group_IT_number 47
_symmetry_cell_setting 'orthorhombic'
loop_
_space_group_symop_operation_xyz
x,y,z
-x,-y,z
x,-y,-z
-x,y,-z
-x,-y,-z
x,y,-z
-x,y,z
x,-y,z
loop_
_atom_site_type_symbol
_atom_site_label
_atom_site_fract_x
_atom_site_fract_y
_atom_site_fract_z
Si Si1 0.659908 0.166879 0.148095
Si Si2 0.159248 0.673078 0.670404
Si Si3 0.500000 0.674776 0.840900
Si Si4 0.822583 0.673453 0.139933
Si Si5 0.905784 0.838731 0.000000
Si Si6 0.322162 0.835964 0.657637
Si Si7 0.500000 0.173929 0.329847
Si Si8 0.000000 0.170236 0.403452
O O1 0.579687 0.253512 0.116259
O O2 0.737045 0.254346 0.111888
O O3 0.663817 0.168249 0.245780
O O4 0.659005 0.000000 0.114055
O O5 0.151973 0.500000 0.652435
O O6 0.155363 0.710267 0.766384
O O7 0.247352 0.726976 0.632359
O O8 0.082511 0.753528 0.629361
O O9 0.500000 0.500000 0.853530
O O10 0.500000 0.713241 0.745263
O O11 0.817622 0.500000 0.125009
O O12 0.890147 0.744627 0.081678
O O13 0.000000 0.875256 0.000000
O O14 0.859566 0.000000 0.000000
O O15 0.413759 0.796039 0.619718
O O16 0.295432 0.000000 0.628632
O O17 0.500000 0.000000 0.300436
O O18 0.000000 0.185811 0.500000
O O19 0.000000 0.000000 0.375022
#
# Coordination Sequence:
#
# PCOD8193444 Si02
#       8
#     8   8   4   8   4   8   4   4
#     4   9  16  28  46  69 101 140 182 225 272 324
#     4  10  21  36  57  85 115 147 184 228 282 337
#     4  10  16  22  38  67 101 137 179 227 274 321
#     4  10  21  37  57  82 111 144 182 228 280 327
#     4  11  25  41  57  80 107 142 187 227 273 329
#     4   8  14  26  45  72 106 145 185 225 268 319
#     4   8  14  24  40  66 104 146 184 225 272 318
#     4  11  25  43  63  86 111 144 185 227 274 331
#
# _framework density 20.080116
#
# number of rings (size 3 to 8) (size 9 to 14) (size 15 to 20)
#    0.000    2.500    0.000    3.750    1.167    7.333 
#    0.000    0.000    0.000    0.500    0.000    4.083 
#    0.000    4.667    0.000    0.000    0.000    0.000 
#
# Total GULP energy -594855.165217 kJ/mol
# GULP energy per Si atom -12392.815942 kJ/mol
# Density = 2.003441 g / cm^3
# Si number density = 20.080116 Si / 1000 Ang^3
#
#
#
# Elastic Constant Matrix: (Units=GPa)
#
#
# Indices 1 2 3 4 5 6 
#
# 1 174.7973 80.7474 34.7444 0.0000 0.0000 0.0000
# 2 80.7474 151.6447 38.4289 0.0000 0.0000 0.0000
# 3 34.7444 38.4289 35.1262 0.0000 0.0000 0.0000
# 4 0.0000 0.0000 0.0000 14.8840 0.0000 0.0000
# 5 0.0000 0.0000 0.0000 0.0000 -13.7587 0.0000
# 6 0.0000 0.0000 0.0000 0.0000 0.0000 31.0462
#
#
#
# Elastic Compliance Matrix: (Units=1/GPa)
#
#
# Indices 1 2 3 4 5 6 
#
# 1 0.008080 -0.003150 -0.004545 0.000000 0.000000 0.000000
# 2 -0.003150 0.010352 -0.008209 0.000000 0.000000 0.000000
# 3 -0.004545 -0.008209 0.041946 0.000000 0.000000 0.000000
# 4 0.000000 0.000000 0.000000 0.067186 0.000000 0.000000
# 5 0.000000 0.000000 0.000000 0.000000 -0.072681 0.000000
# 6 0.000000 0.000000 0.000000 0.000000 0.000000 0.032210
#
#
# Mechanical properties :
#
#
# Convention : Reuss Voigt Hill
#
# Bulk Modulus (GPa) = 35.00462 74.37886 54.69174
# Shear Modulus (GPa) = 38.93296 20.27746 29.60521
#
# Velocity S-wave (km/s) = 4.40805 3.18123 3.84390
# Velocity P-wave (km/s) = 6.58621 7.11443 6.85541
#
# Compressibility (1/GPa) = 0.02856766
#
# Stress axis : x y z
#
# Youngs Moduli (GPa) = 123.76691 96.59704 23.84022
#
# Poissons Ratio (x) = 0.30432 0.10836
# Poissons Ratio (y) = 0.38992 0.19572
# Poissons Ratio (z) = 0.56255 0.79301
#
# Static dielectric constant tensor:
#      x y z
#    x 4.091890 0.000000 0.000000 
#    y 0.000000 3.726550 0.000000 
#    z 0.000000 0.000000 3.105960 
# 
# 
# High freq. dielectric constant tensor:
#      x y z
#    x 1.805430 0.000000 0.000000 
#    y 0.000000 1.792820 0.000000 
#    z 0.000000 0.000000 1.726040 
# 
# From -- ./inp_files/28106.got.cif
#   From: 2010.03.12/outbox.cif.g09.slc.cpg/sg47_15_cif.got.tgz:28106.got - 2010.04.14 03:12:58.
