data_PCOD8193385
_publ_section_title
;
Structure prediction by ZEFSAII (Michael W. Deem and Ramdas Pophale) SiO2 
 PCOD8193385
Probable space group: I M A 2
;
_chemical_formula_sum "Si O2"
_cell_formula_units_Z 56
_cell_length_a 21.428586
_cell_length_b 9.327710
_cell_length_c 13.589751
_cell_angle_alpha 90.000000
_cell_angle_beta 90.000000
_cell_angle_gamma 90.000000
_cell_volume 2716.314482
_symmetry_space_group_name_H-M "I M A 2"
_symmetry_group_IT_number 46
_symmetry_cell_setting 'orthorhombic'
loop_
_space_group_symop_operation_xyz
x,y,z
-x,-y,z
1/2-x,y,z
1/2+x,-y,z
1/2+x,1/2+y,1/2+z
1/2-x,1/2-y,1/2+z
-x,1/2+y,1/2+z
x,1/2-y,1/2+z
loop_
_atom_site_type_symbol
_atom_site_label
_atom_site_fract_x
_atom_site_fract_y
_atom_site_fract_z
Si Si1 0.071602 0.010807 0.567390
Si Si2 0.055022 0.255068 0.227192
Si Si3 0.682371 0.589191 0.514120
Si Si4 0.148871 0.018086 0.227192
Si Si5 0.182371 0.089191 0.440264
Si Si6 0.928398 0.989192 0.886994
Si Si7 0.413896 0.721055 0.227192
O O1 0.076166 0.155754 0.631167
O O2 0.121086 0.006347 0.478636
O O3 0.093125 0.875496 0.630784
O O4 0.000000 0.000000 0.528242
O O5 0.083361 0.098692 0.227192
O O6 0.076165 0.344244 0.323219
O O7 0.982939 0.217111 0.227191
O O8 0.750000 0.532196 0.473781
O O9 0.686443 0.569788 0.631488
O O10 0.674574 0.750000 0.477192
O O11 0.621086 0.506346 0.475748
O O12 0.186443 0.069788 0.322896
O O13 0.137341 0.846855 0.227192
O O14 0.250000 0.032197 0.480604
O O15 0.906875 0.124503 0.823599
O O16 0.000000 0.000000 0.926144
#
# Coordination Sequence:
#
# PCOD8193385 Si02
#       7
#     8   8   8   8   8   8   8
#     4   9  19  41  64  90 125 164 203 246 303 366
#     4   9  17  36  63  91 125 159 209 250 290 358
#     4  11  24  42  64  90 120 164 214 255 298 361
#     4  12  22  38  59  94 122 157 206 261 303 359
#     4  11  24  42  64  90 120 164 214 255 298 361
#     4   9  19  41  64  90 125 164 203 246 303 366
#     4   9  21  36  62  95 128 160 193 254 310 365
#
# _framework density 20.616167999999998
#
# number of rings (size 3 to 8) (size 9 to 14) (size 15 to 20)
#    0.000    2.000    2.857    2.571    0.000    3.429 
#    0.000    7.143    0.000    0.000    0.000    0.000 
#    0.000    0.000    0.000    0.000    0.000    0.000 
#
# Total GULP energy -346947.777825 kJ/mol
# GULP energy per Si atom -12390.992065 kJ/mol
# Density = 2.056924 g / cm^3
# Si number density = 20.616168 Si / 1000 Ang^3
#
#
#
# Elastic Constant Matrix: (Units=GPa)
#
#
# Indices 1 2 3 4 5 6 
#
# 1 149.0793 37.0362 68.5482 0.0000 0.0000 0.0000
# 2 37.0362 92.7603 24.9970 0.0000 0.0000 0.0000
# 3 68.5482 24.9970 110.5762 0.0000 0.0000 0.0000
# 4 0.0000 0.0000 0.0000 14.7982 0.0000 0.0000
# 5 0.0000 0.0000 0.0000 0.0000 -163.6415 0.0000
# 6 0.0000 0.0000 0.0000 0.0000 0.0000 9.4846
#
#
#
# Elastic Compliance Matrix: (Units=1/GPa)
#
#
# Indices 1 2 3 4 5 6 
#
# 1 0.009876 -0.002442 -0.005570 0.000000 0.000000 0.000000
# 2 -0.002442 0.012084 -0.001218 0.000000 0.000000 0.000000
# 3 -0.005570 -0.001218 0.012772 0.000000 0.000000 0.000000
# 4 0.000000 0.000000 0.000000 0.067576 0.000000 0.000000
# 5 0.000000 0.000000 0.000000 0.000000 -0.006111 0.000000
# 6 0.000000 0.000000 0.000000 0.000000 0.000000 0.105434
#
#
# Mechanical properties :
#
#
# Convention : Reuss Voigt Hill
#
# Bulk Modulus (GPa) = 61.45752 68.17538 64.81645
# Shear Modulus (GPa) = 22.17165 -13.08278 4.54443
#
# Velocity S-wave (km/s) = 3.28296 -2.52184 1.48630
# Velocity P-wave (km/s) = 6.65173 4.96600 5.86970
#
# Compressibility (1/GPa) = 0.01627140
#
# Stress axis : x y z
#
# Youngs Moduli (GPa) = 101.25861 82.75633 78.29730
#
# Poissons Ratio (x) = 0.20209 0.43612
# Poissons Ratio (y) = 0.24728 0.09535
# Poissons Ratio (z) = 0.56402 0.10078
#
# Static dielectric constant tensor:
#      x y z
#    x 3.781410 0.000000 0.000000 
#    y 0.000000 3.496210 0.000000 
#    z 0.000000 0.000000 3.687500 
# 
# 
# High freq. dielectric constant tensor:
#      x y z
#    x 1.811210 0.000000 0.000000 
#    y 0.000000 1.791540 0.000000 
#    z 0.000000 0.000000 1.799950 
# 
# From -- ./inp_files/17085.got.cif
#   From: 2010.03.12/outbox.cif.g09.slc.cpg/sg46_9_cif.got.tgz:17085.got - 2010.04.14 02:56:35.
