data_PCOD8193397
_publ_section_title
;
Structure prediction by ZEFSAII (Michael W. Deem and Ramdas Pophale) SiO2 
 PCOD8193397
Probable space group: I M A 2
;
_chemical_formula_sum "Si O2"
_cell_formula_units_Z 56
_cell_length_a 20.174709
_cell_length_b 14.680858
_cell_length_c 8.497093
_cell_angle_alpha 90.000000
_cell_angle_beta 90.000000
_cell_angle_gamma 90.000000
_cell_volume 2516.686322
_symmetry_space_group_name_H-M "I M A 2"
_symmetry_group_IT_number 46
_symmetry_cell_setting 'orthorhombic'
loop_
_space_group_symop_operation_xyz
x,y,z
-x,-y,z
1/2-x,y,z
1/2+x,-y,z
1/2+x,1/2+y,1/2+z
1/2-x,1/2-y,1/2+z
-x,1/2+y,1/2+z
x,1/2-y,1/2+z
loop_
_atom_site_type_symbol
_atom_site_label
_atom_site_fract_x
_atom_site_fract_y
_atom_site_fract_z
Si Si1 0.750000 0.264312 0.396370
Si Si2 0.616992 0.342958 0.264098
Si Si3 0.398950 0.162733 0.084829
Si Si4 0.172317 0.495128 0.076748
Si Si5 0.173798 0.315130 0.263480
Si Si6 0.250000 0.616191 0.683713
Si Si7 0.381134 0.973056 0.233157
Si Si8 0.951502 0.312910 0.585100
O O1 0.685538 0.300850 0.313676
O O2 0.750000 0.291399 0.578762
O O3 0.750000 0.154112 0.365427
O O4 0.632372 0.443441 0.200821
O O5 0.567641 0.348615 0.411923
O O6 0.586096 0.280736 0.125901
O O7 0.349317 0.218404 0.195943
O O8 0.470792 0.209663 0.085719
O O9 0.409240 0.061568 0.149486
O O10 0.370273 0.156791 0.910757
O O11 0.250000 0.521396 0.064665
O O12 0.165147 0.390476 0.128231
O O13 0.134618 0.506610 0.913082
O O14 0.250000 0.306001 0.317390
O O15 0.186463 0.555762 0.643565
O O16 0.433555 0.890547 0.214477
#
# Coordination Sequence:
#
# PCOD8193397 Si02
#       8
#     4   8   8   8   8   4   8   8
#     4  12  22  40  64 101 143 176 226 282 330 396
#     4  12  23  41  69  99 142 183 227 281 341 417
#     4  12  27  49  71  97 141 179 235 292 346 426
#     4  11  25  42  69 104 139 173 229 293 351 406
#     4  11  26  47  75 104 129 177 233 301 361 401
#     4  12  26  38  70 107 141 184 232 284 350 398
#     4  12  25  42  70 102 141 183 232 285 348 411
#     4  12  26  45  66 101 140 193 226 275 353 426
#
# _framework density 22.251481999999999
#
# number of rings (size 3 to 8) (size 9 to 14) (size 15 to 20)
#    0.000    0.286    4.286    4.286    4.000    1.143 
#    0.000    6.429    0.000    0.000    0.000    0.000 
#    0.000    0.000    0.000    0.000    0.000    0.000 
#
# Total GULP energy -347327.994810 kJ/mol
# GULP energy per Si atom -12404.571243 kJ/mol
# Density = 2.220084 g / cm^3
# Si number density = 22.251482 Si / 1000 Ang^3
#
#
#
# Elastic Constant Matrix: (Units=GPa)
#
#
# Indices 1 2 3 4 5 6 
#
# 1 117.1322 19.2805 31.6313 0.0000 0.0000 0.0000
# 2 19.2805 71.6198 -0.2964 0.0000 0.0000 0.0000
# 3 31.6313 -0.2964 96.8815 0.0000 0.0000 0.0000
# 4 0.0000 0.0000 0.0000 39.0565 0.0000 0.0000
# 5 0.0000 0.0000 0.0000 0.0000 26.9148 0.0000
# 6 0.0000 0.0000 0.0000 0.0000 0.0000 39.6848
#
#
#
# Elastic Compliance Matrix: (Units=1/GPa)
#
#
# Indices 1 2 3 4 5 6 
#
# 1 0.009846 -0.002664 -0.003223 0.000000 0.000000 0.000000
# 2 -0.002664 0.014684 0.000915 0.000000 0.000000 0.000000
# 3 -0.003223 0.000915 0.011377 0.000000 0.000000 0.000000
# 4 0.000000 0.000000 0.000000 0.025604 0.000000 0.000000
# 5 0.000000 0.000000 0.000000 0.000000 0.037154 0.000000
# 6 0.000000 0.000000 0.000000 0.000000 0.000000 0.025199
#
#
# Mechanical properties :
#
#
# Convention : Reuss Voigt Hill
#
# Bulk Modulus (GPa) = 38.51730 42.98492 40.75111
# Shear Modulus (GPa) = 35.09708 36.79909 35.94808
#
# Velocity S-wave (km/s) = 3.97582 4.07108 4.02373
# Velocity P-wave (km/s) = 6.19869 6.43879 6.31988
#
# Compressibility (1/GPa) = 0.02596236
#
# Stress axis : x y z
#
# Youngs Moduli (GPa) = 101.56203 68.10328 87.89711
#
# Poissons Ratio (x) = 0.18143 0.28328
# Poissons Ratio (y) = 0.27056 -0.08040
# Poissons Ratio (z) = 0.32732 -0.06229
#
# Static dielectric constant tensor:
#      x y z
#    x 4.026430 0.000000 0.000000 
#    y 0.000000 4.069660 0.000000 
#    z 0.000000 0.000000 4.129210 
# 
# 
# High freq. dielectric constant tensor:
#      x y z
#    x 1.879770 0.000000 0.000000 
#    y 0.000000 1.880000 0.000000 
#    z 0.000000 0.000000 1.883340 
# 
# From -- ./inp_files/7445.got.cif
#   From: 2010.03.12/outbox.cif.g09.slc.cpg/sg46_4_cif.got.tgz:7445.got - 2010.04.14 02:56:35.
