data_PCOD8193647
_publ_section_title
;
Structure prediction by ZEFSAII (Michael W. Deem and Ramdas Pophale) SiO2 
 PCOD8193647
Probable space group: P M M M
;
_chemical_formula_sum "Si O2"
_cell_formula_units_Z 56
_cell_length_a 14.532662
_cell_length_b 9.487800
_cell_length_c 20.862780
_cell_angle_alpha 90.000000
_cell_angle_beta 90.000000
_cell_angle_gamma 90.000000
_cell_volume 2876.622497
_symmetry_space_group_name_H-M "P M M M"
_symmetry_group_IT_number 47
_symmetry_cell_setting 'orthorhombic'
loop_
_space_group_symop_operation_xyz
x,y,z
-x,-y,z
x,-y,-z
-x,y,-z
-x,-y,-z
x,y,-z
-x,y,z
x,-y,z
loop_
_atom_site_type_symbol
_atom_site_label
_atom_site_fract_x
_atom_site_fract_y
_atom_site_fract_z
Si Si1 0.670580 0.667265 0.500000
Si Si2 0.773429 0.334388 0.714756
Si Si3 0.602299 0.658290 0.076116
Si Si4 0.892765 0.665936 0.834857
Si Si5 0.226024 0.161938 0.076082
Si Si6 0.154727 0.153456 0.500000
Si Si7 0.398514 0.667370 0.362174
Si Si8 0.100087 0.845365 0.363074
O O1 0.669003 0.500000 0.500000
O O2 0.773884 0.719836 0.500000
O O3 0.623682 0.724808 0.565946
O O4 0.778899 0.500000 0.715562
O O5 0.820602 0.279177 0.780378
O O6 0.670350 0.281847 0.695512
O O7 0.834421 0.279874 0.656903
O O8 0.500000 0.704552 0.099947
O O9 0.624279 0.500000 0.101533
O O10 0.679715 0.765227 0.102218
O O11 0.603436 0.657637 0.000000
O O12 0.880712 0.500000 0.848394
O O13 0.862833 0.754742 0.897192
O O14 0.000000 0.698810 0.817928
O O15 0.225348 0.000000 0.099153
O O16 0.220457 0.172021 0.000000
O O17 0.088934 0.164618 0.560905
O O18 0.205930 0.000000 0.500000
O O19 0.500000 0.721202 0.342869
O O20 0.394226 0.500000 0.365389
O O21 0.000000 0.823192 0.331847
O O22 0.138691 0.000000 0.342360
#
# Coordination Sequence:
#
# PCOD8193647 Si02
#       8
#     4   8   8   8   8   4   8   8
#     4  10  17  29  51  78 106 140 181 223 269 318
#     4  10  20  36  57  79 104 134 176 227 271 316
#     4   8  14  27  50  80 113 148 182 213 250 303
#     4  10  22  39  57  78 106 141 179 223 279 341
#     4  10  21  36  56  84 115 145 180 227 278 327
#     4  10  19  31  47  70 104 140 175 217 265 318
#     4   9  17  30  52  81 110 140 176 220 269 319
#     4  10  20  33  50  72 101 139 178 217 267 323
#
# _framework density 19.467274
#
# number of rings (size 3 to 8) (size 9 to 14) (size 15 to 20)
#    0.000    2.429    1.429    1.714    0.000    4.857 
#    0.000    3.571    0.000    6.000    0.000    0.000 
#    0.000    0.000    0.000    0.000    0.000    0.000 
#
# Total GULP energy -693751.255220 kJ/mol
# GULP energy per Si atom -12388.415272 kJ/mol
# Density = 1.942297 g / cm^3
# Si number density = 19.467274 Si / 1000 Ang^3
#
#
#
# Elastic Constant Matrix: (Units=GPa)
#
#
# Indices 1 2 3 4 5 6 
#
# 1 141.9301 40.5206 44.7736 0.0000 0.0000 0.0000
# 2 40.5206 36.3931 28.6244 0.0000 0.0000 0.0000
# 3 44.7736 28.6244 51.2643 0.0000 0.0000 0.0000
# 4 0.0000 0.0000 0.0000 20.2455 0.0000 0.0000
# 5 0.0000 0.0000 0.0000 0.0000 21.6703 0.0000
# 6 0.0000 0.0000 0.0000 0.0000 0.0000 19.7745
#
#
#
# Elastic Compliance Matrix: (Units=1/GPa)
#
#
# Indices 1 2 3 4 5 6 
#
# 1 0.010986 -0.008354 -0.004930 0.000000 0.000000 0.000000
# 2 -0.008354 0.055348 -0.023608 0.000000 0.000000 0.000000
# 3 -0.004930 -0.023608 0.036995 0.000000 0.000000 0.000000
# 4 0.000000 0.000000 0.000000 0.049394 0.000000 0.000000
# 5 0.000000 0.000000 0.000000 0.000000 0.046146 0.000000
# 6 0.000000 0.000000 0.000000 0.000000 0.000000 0.050570
#
#
# Mechanical properties :
#
#
# Convention : Reuss Voigt Hill
#
# Bulk Modulus (GPa) = 33.84831 50.82497 42.33664
# Shear Modulus (GPa) = 15.01172 20.04932 17.53052
#
# Velocity S-wave (km/s) = 2.77993 3.21269 3.00411
# Velocity P-wave (km/s) = 5.26584 6.31873 5.81616
#
# Compressibility (1/GPa) = 0.02954357
#
# Stress axis : x y z
#
# Youngs Moduli (GPa) = 91.02324 18.06745 27.03065
#
# Poissons Ratio (x) = 0.15094 0.13327
# Poissons Ratio (y) = 0.76043 0.63815
# Poissons Ratio (z) = 0.44879 0.42654
#
# Static dielectric constant tensor:
#      x y z
#    x 3.788770 0.000000 0.000000 
#    y 0.000000 3.402410 0.000000 
#    z 0.000000 0.000000 3.491870 
# 
# 
# High freq. dielectric constant tensor:
#      x y z
#    x 1.762480 0.000000 0.000000 
#    y 0.000000 1.733500 0.000000 
#    z 0.000000 0.000000 1.739550 
# 
# From -- ./inp_files/31007.got.cif
#   From: 2010.03.12/outbox.cif.g09.slc.cpg/sg47_16_cif.got.tgz:31007.got - 2010.04.14 03:12:58.
