data_PCOD8193147
_publ_section_title
;
Structure prediction by ZEFSAII (Michael W. Deem and Ramdas Pophale) SiO2 
 PCOD8193147
Probable space group: I M A 2
;
_chemical_formula_sum "Si O2"
_cell_formula_units_Z 64
_cell_length_a 8.740653
_cell_length_b 23.765461
_cell_length_c 15.397603
_cell_angle_alpha 90.000000
_cell_angle_beta 90.000000
_cell_angle_gamma 90.000000
_cell_volume 3198.477061
_symmetry_space_group_name_H-M "I M A 2"
_symmetry_group_IT_number 46
_symmetry_cell_setting 'orthorhombic'
loop_
_space_group_symop_operation_xyz
x,y,z
-x,-y,z
1/2-x,y,z
1/2+x,-y,z
1/2+x,1/2+y,1/2+z
1/2-x,1/2-y,1/2+z
-x,1/2+y,1/2+z
x,1/2-y,1/2+z
loop_
_atom_site_type_symbol
_atom_site_label
_atom_site_fract_x
_atom_site_fract_y
_atom_site_fract_z
Si Si1 0.069192 0.128756 0.893930
Si Si2 0.929794 0.626986 0.587296
Si Si3 0.929800 0.751029 0.830038
Si Si4 0.070006 0.560746 0.744369
Si Si5 0.072977 0.643787 0.896608
Si Si6 0.575761 0.135716 0.591011
Si Si7 0.070752 0.439920 0.232140
Si Si8 0.072591 0.760394 0.144256
O O1 0.250000 0.129168 0.886701
O O2 0.011484 0.191973 0.875515
O O3 0.001655 0.086359 0.821266
O O4 0.018959 0.108947 0.989937
O O5 0.750000 0.619321 0.601605
O O6 0.016938 0.587050 0.653770
O O7 0.971718 0.692164 0.598292
O O8 0.750000 0.752645 0.808323
O O9 0.968444 0.699213 0.892823
O O10 0.027549 0.742926 0.744002
O O11 0.250000 0.554550 0.742281
O O12 0.016148 0.599767 0.824141
O O13 0.000000 0.500000 0.758868
O O14 0.250000 0.660326 0.881835
O O15 0.050198 0.616419 0.991621
O O16 0.750000 0.124429 0.620816
O O17 0.463387 0.100934 0.651923
O O18 0.537189 0.201710 0.597323
O O19 0.250000 0.447302 0.240261
O O20 0.000000 0.500000 0.213349
O O21 0.250000 0.777393 0.137312
#
# Coordination Sequence:
#
# PCOD8193147 Si02
#       8
#     8   8   8   8   8   8   8   8
#     4   9  21  39  60  89 122 155 196 245 296 353
#     4  11  22  39  63  90 122 157 198 246 298 358
#     4  11  20  35  61  90 121 159 199 237 294 358
#     4  11  24  42  62  85 117 156 202 250 300 354
#     4  10  22  40  61  88 124 156 194 246 298 354
#     4  10  22  40  62  90 122 160 199 243 298 356
#     4  11  23  42  63  86 119 157 202 252 300 353
#     4  11  21  35  58  90 126 159 196 240 296 356
#
# _framework density 20.009523000000002
#
# number of rings (size 3 to 8) (size 9 to 14) (size 15 to 20)
#    0.000    1.500    2.500    2.625    0.000    2.500 
#    0.000    6.875    0.000    0.000    0.000    0.000 
#    0.000    0.000    0.000    0.000    0.000    0.000 
#
# Total GULP energy -396907.885314 kJ/mol
# GULP energy per Si atom -12403.371416 kJ/mol
# Density = 1.996398 g / cm^3
# Si number density = 20.009523 Si / 1000 Ang^3
#
#
#
# Elastic Constant Matrix: (Units=GPa)
#
#
# Indices 1 2 3 4 5 6 
#
# 1 45.5558 28.3244 21.3825 0.0001 0.0000 0.0000
# 2 28.3244 81.1497 26.3561 0.0000 0.0000 0.0000
# 3 21.3825 26.3561 120.0402 0.0001 0.0001 -0.0001
# 4 0.0001 0.0000 0.0001 8.0199 0.0000 0.0000
# 5 0.0000 0.0000 0.0001 0.0000 26.3947 0.0000
# 6 0.0000 0.0000 -0.0001 0.0000 0.0000 26.9729
#
#
#
# Elastic Compliance Matrix: (Units=1/GPa)
#
#
# Indices 1 2 3 4 5 6 
#
# 1 0.029122 -0.009131 -0.003183 0.000000 0.000000 0.000000
# 2 -0.009131 0.016132 -0.001915 0.000000 0.000000 0.000000
# 3 -0.003183 -0.001915 0.009318 0.000000 0.000000 0.000000
# 4 0.000000 0.000000 0.000000 0.124690 0.000000 0.000000
# 5 0.000000 0.000000 0.000000 0.000000 0.037886 0.000000
# 6 0.000000 0.000000 0.000000 0.000000 0.000000 0.037074
#
#
# Mechanical properties :
#
#
# Convention : Reuss Voigt Hill
#
# Bulk Modulus (GPa) = 38.29377 44.31909 41.30643
# Shear Modulus (GPa) = 17.15934 23.65633 20.40784
#
# Velocity S-wave (km/s) = 2.93159 3.44212 3.19706
# Velocity P-wave (km/s) = 5.53518 6.16398 5.85803
#
# Compressibility (1/GPa) = 0.02611391
#
# Stress axis : x y z
#
# Youngs Moduli (GPa) = 34.33800 61.98807 107.31882
#
# Poissons Ratio (x) = 0.56602 0.34156
# Poissons Ratio (y) = 0.31354 0.20557
# Poissons Ratio (z) = 0.10929 0.11874
#
# Static dielectric constant tensor:
#      x y z
#    x 3.526670 0.000000 0.000000 
#    y 0.000000 3.720370 0.000000 
#    z 0.000000 0.000000 3.857650 
# 
# 
# High freq. dielectric constant tensor:
#      x y z
#    x 1.773410 0.000000 0.000000 
#    y 0.000000 1.777710 0.000000 
#    z 0.000000 0.000000 1.794600 
# 
# From -- ./inp_files/14514.got.cif
#   From: 2010.03.12/outbox.cif.g09.slc.cpg/sg46_8_cif.got.tgz:14514.got - 2010.04.14 02:56:35.
