data_PCOD8193745
_publ_section_title
;
Structure prediction by ZEFSAII (Michael W. Deem and Ramdas Pophale) SiO2 
 PCOD8193745
Probable space group: P M M M
;
_chemical_formula_sum "Si O2"
_cell_formula_units_Z 60
_cell_length_a 24.750600
_cell_length_b 8.163063
_cell_length_c 18.450268
_cell_angle_alpha 90.000000
_cell_angle_beta 90.000000
_cell_angle_gamma 90.000000
_cell_volume 3727.705193
_symmetry_space_group_name_H-M "P M M M"
_symmetry_group_IT_number 47
_symmetry_cell_setting 'orthorhombic'
loop_
_space_group_symop_operation_xyz
x,y,z
-x,-y,z
x,-y,-z
-x,y,-z
-x,-y,-z
x,y,-z
-x,y,z
x,-y,z
loop_
_atom_site_type_symbol
_atom_site_label
_atom_site_fract_x
_atom_site_fract_y
_atom_site_fract_z
Si Si1 0.730152 0.193779 0.918550
Si Si2 0.838293 0.814767 0.845857
Si Si3 0.211620 0.681101 0.285674
Si Si4 0.436141 0.500000 0.417094
Si Si5 0.059026 0.308252 0.079831
Si Si6 0.378968 0.186617 0.650362
Si Si7 0.671827 0.682747 0.786384
Si Si8 0.273076 0.308585 0.581972
O O1 0.787569 0.266150 0.889223
O O2 0.680074 0.247060 0.867630
O O3 0.733774 0.000000 0.916994
O O4 0.720113 0.259829 0.000000
O O5 0.827387 0.800987 0.759396
O O6 0.894861 0.731047 0.862684
O O7 0.844029 0.000000 0.869772
O O8 0.186193 0.500000 0.280242
O O9 0.271199 0.683325 0.253029
O O10 0.219935 0.734805 0.369509
O O11 0.500000 0.500000 0.416451
O O12 0.413863 0.500000 0.500000
O O13 0.418041 0.668737 0.377893
O O14 0.054247 0.500000 0.073740
O O15 0.000000 0.238354 0.104380
O O16 0.073841 0.236591 0.000000
O O17 0.368972 0.210716 0.736932
O O18 0.323509 0.198617 0.605448
O O19 0.401947 0.000000 0.638947
O O20 0.648149 0.500000 0.792524
O O21 0.256961 0.269114 0.500000
O O22 0.289066 0.500000 0.593353
#
# Coordination Sequence:
#
# PCOD8193745 Si02
#       8
#     8   8   8   4   8   8   8   8
#     4   9  17  27  39  62  96 127 155 189 229 275
#     4  10  18  27  40  57  82 116 148 182 223 266
#     4   8  15  26  40  59  84 116 148 178 215 263
#     4  11  24  40  54  72 101 129 159 203 239 270
#     4   9  18  31  44  57  74 100 139 185 226 264
#     4  11  20  33  53  73  95 129 165 195 236 281
#     4   9  16  29  46  65  90 122 160 196 228 270
#     4   9  16  28  46  68  94 120 150 188 224 263
#
# _framework density 16.095694000000002
#
# number of rings (size 3 to 8) (size 9 to 14) (size 15 to 20)
#    0.000    2.600    1.333    2.800    0.000    6.400 
#    0.000    1.333    0.000    0.000    0.000    0.000 
#    0.000    1.600    0.000    8.933    0.000    1.733 
#
# Total GULP energy -743393.889930 kJ/mol
# GULP energy per Si atom -12389.898166 kJ/mol
# Density = 1.605906 g / cm^3
# Si number density = 16.095694 Si / 1000 Ang^3
#
#
#
# Elastic Constant Matrix: (Units=GPa)
#
#
# Indices 1 2 3 4 5 6 
#
# 1 50.1646 23.9040 36.4739 0.0000 0.0000 0.0000
# 2 23.9040 70.1104 26.8318 0.0000 0.0000 0.0000
# 3 36.4739 26.8318 118.9462 0.0000 0.0000 0.0000
# 4 0.0000 0.0000 0.0000 19.0589 0.0000 0.0000
# 5 0.0000 0.0000 0.0000 0.0000 17.8698 0.0000
# 6 0.0000 0.0000 0.0000 0.0000 0.0000 12.9239
#
#
#
# Elastic Compliance Matrix: (Units=1/GPa)
#
#
# Indices 1 2 3 4 5 6 
#
# 1 0.028455 -0.006963 -0.007155 0.000000 0.000000 0.000000
# 2 -0.006963 0.017315 -0.001771 0.000000 0.000000 0.000000
# 3 -0.007155 -0.001771 0.011000 0.000000 0.000000 0.000000
# 4 0.000000 0.000000 0.000000 0.052469 0.000000 0.000000
# 5 0.000000 0.000000 0.000000 0.000000 0.055960 0.000000
# 6 0.000000 0.000000 0.000000 0.000000 0.000000 0.077376
#
#
# Mechanical properties :
#
#
# Convention : Reuss Voigt Hill
#
# Bulk Modulus (GPa) = 40.01150 45.96007 42.98578
# Shear Modulus (GPa) = 17.68764 20.10462 18.89613
#
# Velocity S-wave (km/s) = 3.31857 3.53805 3.43007
# Velocity P-wave (km/s) = 6.29256 6.73102 6.51548
#
# Compressibility (1/GPa) = 0.02499281
#
# Stress axis : x y z
#
# Youngs Moduli (GPa) = 35.14382 57.75338 90.90520
#
# Poissons Ratio (x) = 0.40216 0.65039
# Poissons Ratio (y) = 0.24472 0.16096
# Poissons Ratio (z) = 0.25144 0.10226
#
# Static dielectric constant tensor:
#      x y z
#    x 2.779920 0.000000 0.000000 
#    y 0.000000 3.027480 0.000000 
#    z 0.000000 0.000000 3.373340 
# 
# 
# High freq. dielectric constant tensor:
#      x y z
#    x 1.564900 0.000000 0.000000 
#    y 0.000000 1.618570 0.000000 
#    z 0.000000 0.000000 1.617120 
# 
# From -- ./inp_files/28894.got.cif
#   From: 2010.03.12/outbox.cif.g09.slc.cpg/sg47_15_cif.got.tgz:28894.got - 2010.04.14 03:12:58.
