data_PCOD8193910
_publ_section_title
;
Structure prediction by ZEFSAII (Michael W. Deem and Ramdas Pophale) SiO2 
 PCOD8193910
Probable space group: P M M M
;
_chemical_formula_sum "Si O2"
_cell_formula_units_Z 56
_cell_length_a 9.173740
_cell_length_b 18.866283
_cell_length_c 19.110255
_cell_angle_alpha 90.000000
_cell_angle_beta 90.000000
_cell_angle_gamma 90.000000
_cell_volume 3307.495440
_symmetry_space_group_name_H-M "P M M M"
_symmetry_group_IT_number 47
_symmetry_cell_setting 'orthorhombic'
loop_
_space_group_symop_operation_xyz
x,y,z
-x,-y,z
x,-y,-z
-x,y,-z
-x,-y,-z
x,y,-z
-x,y,z
x,-y,z
loop_
_atom_site_type_symbol
_atom_site_label
_atom_site_fract_x
_atom_site_fract_y
_atom_site_fract_z
Si Si1 0.331612 0.919808 0.332023
Si Si2 0.836969 0.584173 0.076189
Si Si3 0.329868 0.421016 0.789908
Si Si4 0.172853 0.920650 0.922526
Si Si5 0.671954 0.283955 0.713218
Si Si6 0.329429 0.209656 0.576400
Si Si7 0.826434 0.840496 0.786509
O O1 0.500000 0.908740 0.309553
O O2 0.293672 0.869943 0.398051
O O3 0.229054 0.899962 0.267326
O O4 0.300074 0.000000 0.355211
O O5 0.836924 0.500000 0.076183
O O6 0.735696 0.611406 0.138679
O O7 0.000000 0.612973 0.089086
O O8 0.780566 0.611280 0.000000
O O9 0.500000 0.425629 0.802512
O O10 0.268566 0.500000 0.771578
O O11 0.291345 0.366513 0.727574
O O12 0.226143 0.865071 0.863760
O O13 0.000000 0.923786 0.920984
O O14 0.233214 0.000000 0.906667
O O15 0.226212 0.895955 0.000000
O O16 0.500000 0.268408 0.720196
O O17 0.728179 0.265473 0.634786
O O18 0.753985 0.235182 0.769719
O O19 0.255215 0.222409 0.500000
O O20 0.500000 0.220553 0.567874
O O21 0.000000 0.833820 0.780898
#
# Coordination Sequence:
#
# PCOD8193910 Si02
#       7
#     8   8   8   8   8   8   8
#     4   9  17  28  43  65  92 119 145 177 217 255
#     4   8  14  25  41  62  88 114 139 172 213 252
#     4   9  17  29  46  66  87 114 147 182 221 267
#     4   8  14  25  41  61  84 110 143 183 219 246
#     4   9  18  32  47  64  88 114 141 177 220 264
#     4   8  14  26  45  66  86 113 148 178 206 250
#     4  10  18  28  45  66  87 114 149 184 218 260
#
# _framework density 16.931239999999999
#
# number of rings (size 3 to 8) (size 9 to 14) (size 15 to 20)
#    0.000    3.286    0.000    2.571    0.000    2.000 
#    0.000    3.571    0.000   11.571    0.000   12.000 
#    0.000    0.000    0.000    8.714    0.000    9.429 
#
# Total GULP energy -693840.265490 kJ/mol
# GULP energy per Si atom -12390.004741 kJ/mol
# Density = 1.689270 g / cm^3
# Si number density = 16.931240 Si / 1000 Ang^3
#
#
#
# Elastic Constant Matrix: (Units=GPa)
#
#
# Indices 1 2 3 4 5 6 
#
# 1 30.1670 25.2158 29.1780 0.0000 0.0000 0.0000
# 2 25.2158 103.9595 73.1249 0.0000 0.0000 0.0000
# 3 29.1780 73.1249 146.8206 0.0000 0.0000 0.0000
# 4 0.0000 0.0000 0.0000 18.9412 0.0000 0.0000
# 5 0.0000 0.0000 0.0000 0.0000 15.1230 0.0000
# 6 0.0000 0.0000 0.0000 0.0000 0.0000 16.6405
#
#
#
# Elastic Compliance Matrix: (Units=1/GPa)
#
#
# Indices 1 2 3 4 5 6 
#
# 1 0.044095 -0.006975 -0.005289 0.000000 0.000000 0.000000
# 2 -0.006975 0.015910 -0.006538 0.000000 0.000000 0.000000
# 3 -0.005289 -0.006538 0.011118 0.000000 0.000000 0.000000
# 4 0.000000 0.000000 0.000000 0.052795 0.000000 0.000000
# 5 0.000000 0.000000 0.000000 0.000000 0.066125 0.000000
# 6 0.000000 0.000000 0.000000 0.000000 0.000000 0.060094
#
#
# Mechanical properties :
#
#
# Convention : Reuss Voigt Hill
#
# Bulk Modulus (GPa) = 29.83384 59.55383 44.69383
# Shear Modulus (GPa) = 16.72727 20.36949 18.54838
#
# Velocity S-wave (km/s) = 3.14658 3.47229 3.31344
# Velocity P-wave (km/s) = 5.55519 7.16422 6.41039
#
# Compressibility (1/GPa) = 0.03351898
#
# Stress axis : x y z
#
# Youngs Moduli (GPa) = 22.67844 62.85541 89.94191
#
# Poissons Ratio (x) = 0.43842 0.47571
# Poissons Ratio (y) = 0.15818 0.58801
# Poissons Ratio (z) = 0.11995 0.41093
#
# Static dielectric constant tensor:
#      x y z
#    x 2.938850 0.000000 0.000000 
#    y 0.000000 3.156230 0.000000 
#    z 0.000000 0.000000 3.559970 
# 
# 
# High freq. dielectric constant tensor:
#      x y z
#    x 1.621500 0.000000 0.000000 
#    y 0.000000 1.635840 0.000000 
#    z 0.000000 0.000000 1.650140 
# 
# From -- ./inp_files/26952.got.cif
#   From: 2010.03.12/outbox.cif.g09.slc.cpg/sg47_14_cif.got.tgz:26952.got - 2010.04.14 03:12:58.
