data_PCOD8193131
_publ_section_title
;
Structure prediction by ZEFSAII (Michael W. Deem and Ramdas Pophale) SiO2 
 PCOD8193131
Probable space group: I M A 2
;
_chemical_formula_sum "Si O2"
_cell_formula_units_Z 48
_cell_length_a 9.098198
_cell_length_b 22.941413
_cell_length_c 11.771671
_cell_angle_alpha 90.000000
_cell_angle_beta 90.000000
_cell_angle_gamma 90.000000
_cell_volume 2457.048126
_symmetry_space_group_name_H-M "I M A 2"
_symmetry_group_IT_number 46
_symmetry_cell_setting 'orthorhombic'
loop_
_space_group_symop_operation_xyz
x,y,z
-x,-y,z
1/2-x,y,z
1/2+x,-y,z
1/2+x,1/2+y,1/2+z
1/2-x,1/2-y,1/2+z
-x,1/2+y,1/2+z
x,1/2-y,1/2+z
loop_
_atom_site_type_symbol
_atom_site_label
_atom_site_fract_x
_atom_site_fract_y
_atom_site_fract_z
Si Si1 0.575479 0.367650 0.868120
Si Si2 0.090060 0.554273 0.666492
Si Si3 0.077757 0.660077 0.264481
Si Si4 0.413305 0.837282 0.023356
Si Si5 0.078319 0.937328 0.591126
Si Si6 0.575874 0.775839 0.221782
O O1 0.750000 0.356236 0.859104
O O2 0.519150 0.414265 0.775588
O O3 0.496138 0.306780 0.833759
O O4 0.528159 0.393469 0.989763
O O5 0.250000 0.531949 0.703299
O O6 0.098971 0.595937 0.559017
O O7 0.000000 0.500000 0.624611
O O8 0.250000 0.673821 0.247774
O O9 0.029822 0.660486 0.395284
O O10 0.040648 0.597489 0.206986
O O11 0.981305 0.710229 0.207254
O O12 0.250000 0.808158 0.033241
O O13 0.529563 0.805480 0.103568
O O14 0.250000 0.950551 0.578856
O O15 0.000000 0.000000 0.587661
O O16 0.750000 0.777628 0.235059
#
# Coordination Sequence:
#
# PCOD8193131 Si02
#       6
#     8   8   8   8   8   8
#     4   9  19  37  58  83 116 156 198 235 284 354
#     4   9  17  30  51  78 107 142 184 231 279 329
#     4  10  22  40  61  83 113 159 202 235 286 361
#     4   9  20  39  58  78 110 152 196 234 279 353
#     4  10  22  39  61  89 121 160 202 243 292 353
#     4  11  23  37  58  89 119 145 189 252 309 348
#
# _framework density 19.535634999999999
#
# number of rings (size 3 to 8) (size 9 to 14) (size 15 to 20)
#    0.000    2.333    0.000    3.000    2.333    5.333 
#    0.000    0.000    0.000    0.000    0.000    0.000 
#    0.000    0.000    0.000    0.000    0.000    0.000 
#
# Total GULP energy -297493.657242 kJ/mol
# GULP energy per Si atom -12395.569052 kJ/mol
# Density = 1.949117 g / cm^3
# Si number density = 19.535635 Si / 1000 Ang^3
#
#
#
# Elastic Constant Matrix: (Units=GPa)
#
#
# Indices 1 2 3 4 5 6 
#
# 1 82.0141 51.6321 34.4832 0.0000 0.0000 0.0000
# 2 51.6321 105.3358 41.5996 0.0000 0.0000 0.0000
# 3 34.4832 41.5996 113.4127 -0.0003 0.0003 0.0002
# 4 0.0000 0.0000 -0.0003 19.1401 0.0001 0.0000
# 5 0.0000 0.0000 0.0003 0.0001 18.2754 0.0000
# 6 0.0000 0.0000 0.0002 0.0000 0.0000 35.5635
#
#
#
# Elastic Compliance Matrix: (Units=1/GPa)
#
#
# Indices 1 2 3 4 5 6 
#
# 1 0.018296 -0.007918 -0.002658 0.000000 0.000000 0.000000
# 2 -0.007918 0.014528 -0.002922 0.000000 0.000000 0.000000
# 3 -0.002658 -0.002922 0.010697 0.000000 0.000000 0.000000
# 4 0.000000 0.000000 0.000000 0.052246 0.000000 0.000000
# 5 0.000000 0.000000 0.000000 0.000000 0.054718 0.000000
# 6 0.000000 0.000000 0.000000 0.000000 0.000000 0.028119
#
#
# Mechanical properties :
#
#
# Convention : Reuss Voigt Hill
#
# Bulk Modulus (GPa) = 60.51340 61.79913 61.15626
# Shear Modulus (GPa) = 23.68445 26.13231 24.90838
#
# Velocity S-wave (km/s) = 3.48569 3.66139 3.57462
# Velocity P-wave (km/s) = 6.87337 7.04110 6.95774
#
# Compressibility (1/GPa) = 0.01652527
#
# Stress axis : x y z
#
# Youngs Moduli (GPa) = 54.65802 68.83093 93.48183
#
# Poissons Ratio (x) = 0.54500 0.24852
# Poissons Ratio (y) = 0.43278 0.27311
# Poissons Ratio (z) = 0.14531 0.20109
#
# Static dielectric constant tensor:
#      x y z
#    x 3.394510 0.000000 0.000000 
#    y 0.000000 3.509580 0.000000 
#    z 0.000000 0.000000 3.597240 
# 
# 
# High freq. dielectric constant tensor:
#      x y z
#    x 1.742500 0.000000 0.000000 
#    y 0.000000 1.759570 0.000000 
#    z 0.000000 0.000000 1.762670 
# 
# From -- ./inp_files/9290.got.cif
#   From: 2010.03.12/outbox.cif.g09.slc.cpg/sg46_5_cif.got.tgz:9290.got - 2010.04.14 02:56:35.
