data_PCOD8193510
_publ_section_title
;
Structure prediction by ZEFSAII (Michael W. Deem and Ramdas Pophale) SiO2 
 PCOD8193510
Probable space group: P M M M
;
_chemical_formula_sum "Si O2"
_cell_formula_units_Z 52
_cell_length_a 14.671899
_cell_length_b 9.567470
_cell_length_c 23.121827
_cell_angle_alpha 90.000000
_cell_angle_beta 90.000000
_cell_angle_gamma 90.000000
_cell_volume 3245.679147
_symmetry_space_group_name_H-M "P M M M"
_symmetry_group_IT_number 47
_symmetry_cell_setting 'orthorhombic'
loop_
_space_group_symop_operation_xyz
x,y,z
-x,-y,z
x,-y,-z
-x,y,-z
-x,-y,-z
x,y,-z
-x,y,z
x,-y,z
loop_
_atom_site_type_symbol
_atom_site_label
_atom_site_fract_x
_atom_site_fract_y
_atom_site_fract_z
Si Si1 0.896890 0.334771 0.000000
Si Si2 0.773091 0.666440 0.893206
Si Si3 0.395948 0.162135 0.067598
Si Si4 0.763283 0.664781 0.434161
Si Si5 0.102441 0.334267 0.789224
Si Si6 0.899274 0.333968 0.338866
Si Si7 0.400576 0.154125 0.431489
O O1 0.840539 0.284499 0.055735
O O2 0.905480 0.500000 0.000000
O O3 0.000000 0.271121 0.000000
O O4 0.756479 0.500000 0.894406
O O5 0.675171 0.741943 0.897334
O O6 0.822684 0.719417 0.834755
O O7 0.500000 0.199015 0.086238
O O8 0.375680 0.000000 0.080869
O O9 0.383570 0.193601 0.000000
O O10 0.786502 0.710991 0.500000
O O11 0.753434 0.500000 0.429962
O O12 0.838901 0.726347 0.390962
O O13 0.669664 0.729441 0.410514
O O14 0.097318 0.500000 0.793031
O O15 0.134495 0.286647 0.724940
O O16 0.000000 0.276390 0.802542
O O17 0.899536 0.500000 0.342024
O O18 0.000000 0.274576 0.349308
O O19 0.406315 0.155365 0.500000
O O20 0.500000 0.190900 0.405585
O O21 0.369925 0.000000 0.410232
#
# Coordination Sequence:
#
# PCOD8193510 Si02
#       7
#     4   8   8   8   8   8   8
#     4   9  16  24  36  61  94 114 125 157 210 253
#     4  10  17  26  44  69  89 108 139 179 215 242
#     4   9  18  32  47  62  85 118 148 172 207 257
#     4   9  16  24  38  63  88 107 134 176 219 250
#     4   8  14  25  42  63  86 114 145 172 203 251
#     4   8  14  25  40  59  85 115 144 172 204 248
#     4   8  14  25  40  57  79 108 137 163 199 252
#
# _framework density 16.0213
#
# number of rings (size 3 to 8) (size 9 to 14) (size 15 to 20)
#    0.000    3.308    0.769    2.308    0.000    2.769 
#    0.000    3.846    0.000    4.615    0.000   10.769 
#    0.000    0.000    0.000    0.000    0.000    0.000 
#
# Total GULP energy -644298.830053 kJ/mol
# GULP energy per Si atom -12390.362116 kJ/mol
# Density = 1.598483 g / cm^3
# Si number density = 16.021300 Si / 1000 Ang^3
#
#
#
# Elastic Constant Matrix: (Units=GPa)
#
#
# Indices 1 2 3 4 5 6 
#
# 1 134.5079 39.2506 74.8064 0.0000 0.0000 0.0000
# 2 39.2506 27.3353 28.2266 0.0000 0.0000 0.0000
# 3 74.8064 28.2266 99.7383 0.0000 0.0000 0.0000
# 4 0.0000 0.0000 0.0000 7.8258 0.0000 0.0000
# 5 0.0000 0.0000 0.0000 0.0000 16.7199 0.0000
# 6 0.0000 0.0000 0.0000 0.0000 0.0000 -1.7290
#
#
#
# Elastic Compliance Matrix: (Units=1/GPa)
#
#
# Indices 1 2 3 4 5 6 
#
# 1 0.016259 -0.015194 -0.007895 0.000000 0.000000 0.000000
# 2 -0.015194 0.065887 -0.007250 0.000000 0.000000 0.000000
# 3 -0.007895 -0.007250 0.017999 0.000000 0.000000 0.000000
# 4 0.000000 0.000000 0.000000 0.127783 0.000000 0.000000
# 5 0.000000 0.000000 0.000000 0.000000 0.059809 0.000000
# 6 0.000000 0.000000 0.000000 0.000000 0.000000 -0.578362
#
#
# Mechanical properties :
#
#
# Convention : Reuss Voigt Hill
#
# Bulk Modulus (GPa) = 25.33779 60.68318 43.01049
# Shear Modulus (GPa) = -23.06362 12.51652 -5.27355
#
# Velocity S-wave (km/s) = -3.79827 2.79810 -1.81624
# Velocity P-wave (km/s) = 1.84022 6.95686 4.74403
#
# Compressibility (1/GPa) = 0.03946673
#
# Stress axis : x y z
#
# Youngs Moduli (GPa) = 61.50534 15.17759 55.55779
#
# Poissons Ratio (x) = 0.23061 0.43860
# Poissons Ratio (y) = 0.93451 0.40282
# Poissons Ratio (z) = 0.48555 0.11005
#
# Static dielectric constant tensor:
#      x y z
#    x 3.369460 0.000000 0.000000 
#    y 0.000000 2.681190 0.000000 
#    z 0.000000 0.000000 3.105230 
# 
# 
# High freq. dielectric constant tensor:
#      x y z
#    x 1.621180 0.000000 0.000000 
#    y 0.000000 1.573560 0.000000 
#    z 0.000000 0.000000 1.596160 
# 
# From -- ./inp_files/30498.got.cif
#   From: 2010.03.12/outbox.cif.g09.slc.cpg/sg47_16_cif.got.tgz:30498.got - 2010.04.14 03:12:58.
