data_PCOD8193735
_publ_section_title
;
Structure prediction by ZEFSAII (Michael W. Deem and Ramdas Pophale) SiO2 
 PCOD8193735
Probable space group: P M M M
;
_chemical_formula_sum "Si O2"
_cell_formula_units_Z 56
_cell_length_a 16.993993
_cell_length_b 13.922334
_cell_length_c 16.019645
_cell_angle_alpha 90.000000
_cell_angle_beta 90.000000
_cell_angle_gamma 90.000000
_cell_volume 3790.184674
_symmetry_space_group_name_H-M "P M M M"
_symmetry_group_IT_number 47
_symmetry_cell_setting 'orthorhombic'
loop_
_space_group_symop_operation_xyz
x,y,z
-x,-y,z
x,-y,-z
-x,y,-z
-x,-y,-z
x,y,-z
-x,y,z
x,-y,z
loop_
_atom_site_type_symbol
_atom_site_label
_atom_site_fract_x
_atom_site_fract_y
_atom_site_fract_z
Si Si1 0.911144 0.114524 0.247318
Si Si2 0.178838 0.111619 0.591285
Si Si3 0.339060 0.888454 0.673411
Si Si4 0.500000 0.114037 0.407614
Si Si5 0.657975 0.204000 0.156627
Si Si6 0.590856 0.391889 0.902285
Si Si7 0.500000 0.886553 0.906189
Si Si8 0.807199 0.111198 0.092942
O O1 0.870250 0.157051 0.331451
O O2 0.866919 0.150827 0.163540
O O3 0.000000 0.153666 0.244102
O O4 0.909192 0.000000 0.248966
O O5 0.156741 0.156688 0.500000
O O6 0.272193 0.126138 0.603901
O O7 0.158024 0.000000 0.588745
O O8 0.422254 0.850073 0.639514
O O9 0.313819 0.823073 0.751000
O O10 0.343865 0.000000 0.700877
O O11 0.500000 0.158812 0.500000
O O12 0.500000 0.000000 0.413346
O O13 0.645863 0.318429 0.148302
O O14 0.576858 0.149564 0.140227
O O15 0.725686 0.169698 0.093805
O O16 0.500000 0.370341 0.881363
O O17 0.613117 0.500000 0.874951
O O18 0.605831 0.377656 0.000000
O O19 0.500000 0.000000 0.905039
O O20 0.500000 0.845056 0.000000
O O21 0.787548 0.000000 0.110576
O O22 0.844214 0.124127 0.000000
#
# Coordination Sequence:
#
# PCOD8193735 Si02
#       8
#     8   8   8   4   8   8   4   8
#     4   9  17  29  42  57  80 112 151 188 216 249
#     4   9  16  27  42  58  80 113 149 184 220 252
#     4  10  18  27  39  58  86 117 145 175 212 253
#     4   9  17  27  37  52  78 115 152 176 201 246
#     4  12  19  28  43  60  84 113 145 177 218 254
#     4   9  18  32  46  59  78 107 145 185 221 255
#     4  11  21  27  34  55  84 114 147 176 202 242
#     4  10  19  29  41  59  86 119 149 177 210 254
#
# _framework density 14.775005
#
# number of rings (size 3 to 8) (size 9 to 14) (size 15 to 20)
#    0.000    2.143    2.143    3.857    0.000    4.000 
#    0.000    2.857    0.000    0.000    0.000    0.000 
#    0.000    3.429    0.000    3.000    0.000    1.857 
#
# Total GULP energy -694212.885689 kJ/mol
# GULP energy per Si atom -12396.658673 kJ/mol
# Density = 1.474138 g / cm^3
# Si number density = 14.775005 Si / 1000 Ang^3
#
#
#
# Elastic Constant Matrix: (Units=GPa)
#
#
# Indices 1 2 3 4 5 6 
#
# 1 91.7041 16.3711 40.3367 0.0000 0.0000 0.0000
# 2 16.3711 48.4794 23.5924 0.0000 0.0000 0.0000
# 3 40.3367 23.5924 110.1621 0.0000 0.0000 0.0000
# 4 0.0000 0.0000 0.0000 6.0417 0.0000 0.0000
# 5 0.0000 0.0000 0.0000 0.0000 16.2311 0.0000
# 6 0.0000 0.0000 0.0000 0.0000 0.0000 5.5795
#
#
#
# Elastic Compliance Matrix: (Units=1/GPa)
#
#
# Indices 1 2 3 4 5 6 
#
# 1 0.013235 -0.002357 -0.004341 0.000000 0.000000 0.000000
# 2 -0.002357 0.023447 -0.004158 0.000000 0.000000 0.000000
# 3 -0.004341 -0.004158 0.011558 0.000000 0.000000 0.000000
# 4 0.000000 0.000000 0.000000 0.165515 0.000000 0.000000
# 5 0.000000 0.000000 0.000000 0.000000 0.061610 0.000000
# 6 0.000000 0.000000 0.000000 0.000000 0.000000 0.179226
#
#
# Mechanical properties :
#
#
# Convention : Reuss Voigt Hill
#
# Bulk Modulus (GPa) = 37.69810 45.66066 41.67938
# Shear Modulus (GPa) = 10.30617 16.90683 13.60650
#
# Velocity S-wave (km/s) = 2.64396 3.38640 3.03795
# Velocity P-wave (km/s) = 5.90685 6.80157 6.36994
#
# Compressibility (1/GPa) = 0.02652653
#
# Stress axis : x y z
#
# Youngs Moduli (GPa) = 75.55767 42.64969 86.52206
#
# Poissons Ratio (x) = 0.10051 0.37562
# Poissons Ratio (y) = 0.17806 0.35980
# Poissons Ratio (z) = 0.32802 0.17736
#
# Static dielectric constant tensor:
#      x y z
#    x 2.888140 0.000000 0.000000 
#    y 0.000000 2.440900 0.000000 
#    z 0.000000 0.000000 3.043500 
# 
# 
# High freq. dielectric constant tensor:
#      x y z
#    x 1.562310 0.000000 0.000000 
#    y 0.000000 1.492560 0.000000 
#    z 0.000000 0.000000 1.575010 
# 
# From -- ./inp_files/24026.got.cif
#   From: 2010.03.12/outbox.cif.g09.slc.cpg/sg47_13_cif.got.tgz:24026.got - 2010.04.14 03:12:58.
