data_PCOD8193134
_publ_section_title
;
Structure prediction by ZEFSAII (Michael W. Deem and Ramdas Pophale) SiO2 
 PCOD8193134
Probable space group: I M A 2
;
_chemical_formula_sum "Si O2"
_cell_formula_units_Z 64
_cell_length_a 20.635729
_cell_length_b 9.545314
_cell_length_c 17.158539
_cell_angle_alpha 90.000000
_cell_angle_beta 90.000000
_cell_angle_gamma 90.000000
_cell_volume 3379.794862
_symmetry_space_group_name_H-M "I M A 2"
_symmetry_group_IT_number 46
_symmetry_cell_setting 'orthorhombic'
loop_
_space_group_symop_operation_xyz
x,y,z
-x,-y,z
1/2-x,y,z
1/2+x,-y,z
1/2+x,1/2+y,1/2+z
1/2-x,1/2-y,1/2+z
-x,1/2+y,1/2+z
x,1/2-y,1/2+z
loop_
_atom_site_type_symbol
_atom_site_label
_atom_site_fract_x
_atom_site_fract_y
_atom_site_fract_z
Si Si1 0.823444 0.516654 0.466900
Si Si2 0.008838 0.152503 0.158830
Si Si3 0.177803 0.971293 0.623433
Si Si4 0.900408 0.232560 0.041488
Si Si5 0.609143 0.734205 0.050574
Si Si6 0.466033 0.151351 0.794695
Si Si7 0.177361 0.068508 0.791441
Si Si8 0.498255 0.154218 0.435146
O O1 0.750000 0.525015 0.493862
O O2 0.853236 0.387600 0.512466
O O3 0.854659 0.665579 0.489439
O O4 0.830239 0.489013 0.374007
O O5 0.956149 0.161026 0.091294
O O6 0.079255 0.170968 0.119506
O O7 0.998385 0.269269 0.224518
O O8 0.000000 0.000000 0.197873
O O9 0.250000 0.947396 0.592354
O O10 0.155896 0.121498 0.590493
O O11 0.175779 0.964630 0.717718
O O12 0.135240 0.844196 0.594607
O O13 0.930467 0.310401 0.966944
O O14 0.552752 0.649777 0.006147
O O15 0.387948 0.161004 0.782080
O O16 0.479209 0.226563 0.875333
O O17 0.500000 0.000000 0.798248
O O18 0.250000 0.144748 0.791037
O O19 0.500000 0.000000 0.396322
#
# Coordination Sequence:
#
# PCOD8193134 Si02
#       8
#     8   8   8   8   8   8   8   8
#     4  11  22  40  63  89 124 165 210 257 311 379
#     4  11  23  38  60  88 127 160 201 262 318 371
#     4  11  22  40  63  89 124 165 210 257 311 379
#     4  11  23  38  60  92 123 159 208 260 318 371
#     4  11  21  38  62  86 119 163 210 250 314 369
#     4  12  23  39  66  93 121 168 214 261 322 383
#     4  10  22  39  62  93 126 164 208 257 310 380
#     4  11  23  38  60  88 127 160 201 262 318 371
#
# _framework density 18.936059
#
# number of rings (size 3 to 8) (size 9 to 14) (size 15 to 20)
#    0.000    1.000    5.000    2.625    0.000    0.000 
#    0.000    0.000    0.000    0.000    0.000    7.000 
#    0.000    0.000    0.000    0.000    0.000    0.000 
#
# Total GULP energy -396666.509822 kJ/mol
# GULP energy per Si atom -12395.828432 kJ/mol
# Density = 1.889296 g / cm^3
# Si number density = 18.936059 Si / 1000 Ang^3
#
#
#
# Elastic Constant Matrix: (Units=GPa)
#
#
# Indices 1 2 3 4 5 6 
#
# 1 96.5484 34.1473 22.4032 0.0000 0.0000 0.0000
# 2 34.1473 114.1086 30.3002 0.0000 0.0000 0.0000
# 3 22.4032 30.3002 85.3082 0.0000 0.0000 0.0000
# 4 0.0000 0.0000 0.0000 33.7063 0.0000 0.0000
# 5 0.0000 0.0000 0.0000 0.0000 29.3414 0.0000
# 6 0.0000 0.0000 0.0000 0.0000 0.0000 25.8793
#
#
#
# Elastic Compliance Matrix: (Units=1/GPa)
#
#
# Indices 1 2 3 4 5 6 
#
# 1 0.011901 -0.003016 -0.002054 0.000000 0.000000 0.000000
# 2 -0.003016 0.010440 -0.002916 0.000000 0.000000 0.000000
# 3 -0.002054 -0.002916 0.013297 0.000000 0.000000 0.000000
# 4 0.000000 0.000000 0.000000 0.029668 0.000000 0.000000
# 5 0.000000 0.000000 0.000000 0.000000 0.034082 0.000000
# 6 0.000000 0.000000 0.000000 0.000000 0.000000 0.038641
#
#
# Mechanical properties :
#
#
# Convention : Reuss Voigt Hill
#
# Bulk Modulus (GPa) = 50.84882 52.18519 51.51700
# Shear Modulus (GPa) = 31.14152 31.72635 31.43393
#
# Velocity S-wave (km/s) = 4.05972 4.09766 4.07873
# Velocity P-wave (km/s) = 6.99187 7.07151 7.03180
#
# Compressibility (1/GPa) = 0.01966614
#
# Stress axis : x y z
#
# Youngs Moduli (GPa) = 84.02796 95.78104 75.20224
#
# Poissons Ratio (x) = 0.28887 0.15447
# Poissons Ratio (y) = 0.25342 0.21931
# Poissons Ratio (z) = 0.17260 0.27933
#
# Static dielectric constant tensor:
#      x y z
#    x 3.755330 0.000000 0.000000 
#    y 0.000000 3.289360 0.000000 
#    z 0.000000 0.000000 3.531000 
# 
# 
# High freq. dielectric constant tensor:
#      x y z
#    x 1.748450 0.000000 0.000000 
#    y 0.000000 1.721420 0.000000 
#    z 0.000000 0.000000 1.745400 
# 
# From -- ./inp_files/20218.got.cif
#   From: 2010.03.12/outbox.cif.g09.slc.cpg/sg46_11_cif.got.tgz:20218.got - 2010.04.14 02:56:35.
