data_PCOD8193972
_publ_section_title
;
Structure prediction by ZEFSAII (Michael W. Deem and Ramdas Pophale) SiO2 
 PCOD8193972
Probable space group: P M M M
;
_chemical_formula_sum "Si O2"
_cell_formula_units_Z 52
_cell_length_a 23.894130
_cell_length_b 9.186597
_cell_length_c 13.834815
_cell_angle_alpha 90.000000
_cell_angle_beta 90.000000
_cell_angle_gamma 90.000000
_cell_volume 3036.821346
_symmetry_space_group_name_H-M "P M M M"
_symmetry_group_IT_number 47
_symmetry_cell_setting 'orthorhombic'
loop_
_space_group_symop_operation_xyz
x,y,z
-x,-y,z
x,-y,-z
-x,y,-z
-x,-y,-z
x,y,-z
-x,y,z
x,-y,z
loop_
_atom_site_type_symbol
_atom_site_label
_atom_site_fract_x
_atom_site_fract_y
_atom_site_fract_z
Si Si1 0.563201 0.326804 0.709437
Si Si2 0.937966 0.672739 0.607942
Si Si3 0.662467 0.164805 0.781502
Si Si4 0.258562 0.835321 0.608953
Si Si5 0.228019 0.828487 0.110779
Si Si6 0.434367 0.657471 0.500000
Si Si7 0.167912 0.327409 0.276324
O O1 0.500000 0.280328 0.737971
O O2 0.568541 0.500000 0.708881
O O3 0.606179 0.260894 0.787976
O O4 0.579550 0.262679 0.602045
O O5 0.923604 0.732192 0.500000
O O6 0.936642 0.500000 0.604034
O O7 0.892950 0.726800 0.686836
O O8 0.000000 0.727047 0.638999
O O9 0.686406 0.180263 0.673546
O O10 0.709640 0.221048 0.856829
O O11 0.645789 0.000000 0.806573
O O12 0.276227 0.797015 0.500000
O O13 0.211921 0.721909 0.642872
O O14 0.234669 0.000000 0.617883
O O15 0.180940 0.746895 0.173406
O O16 0.221669 0.000000 0.129561
O O17 0.218598 0.785611 0.000000
O O18 0.403879 0.500000 0.500000
O O19 0.500000 0.628957 0.500000
O O20 0.171052 0.500000 0.263779
#
# Coordination Sequence:
#
# PCOD8193972 Si02
#       7
#     8   8   8   8   8   4   8
#     4   9  17  29  44  62  88 122 154 182 219 270
#     4   8  14  25  42  67 102 140 168 189 220 265
#     4   9  18  30  46  68  88 110 148 194 233 271
#     4   9  18  31  44  61  93 133 162 188 229 279
#     4   9  19  37  56  69  87 120 156 191 241 299
#     4   7  12  24  39  55  79 115 153 177 196 239
#     4  10  18  28  47  75  99 119 155 203 242 276
#
# _framework density 17.123168
#
# number of rings (size 3 to 8) (size 9 to 14) (size 15 to 20)
#    0.000    3.154    0.000    3.231    1.077    4.000 
#    0.000    0.000    0.000    4.154    0.000   11.846 
#    0.000    0.000    0.000    0.000    0.000    0.000 
#
# Total GULP energy -644320.607689 kJ/mol
# GULP energy per Si atom -12390.780917 kJ/mol
# Density = 1.708419 g / cm^3
# Si number density = 17.123168 Si / 1000 Ang^3
#
#
#
# Elastic Constant Matrix: (Units=GPa)
#
#
# Indices 1 2 3 4 5 6 
#
# 1 113.8465 38.9404 49.9990 0.0000 0.0000 0.0000
# 2 38.9404 40.7672 28.7670 0.0000 0.0000 0.0000
# 3 49.9990 28.7670 100.8963 0.0000 0.0000 0.0000
# 4 0.0000 0.0000 0.0000 20.7640 0.0000 0.0000
# 5 0.0000 0.0000 0.0000 0.0000 20.0301 0.0000
# 6 0.0000 0.0000 0.0000 0.0000 0.0000 8.6314
#
#
#
# Elastic Compliance Matrix: (Units=1/GPa)
#
#
# Indices 1 2 3 4 5 6 
#
# 1 0.014213 -0.010774 -0.003971 0.000000 0.000000 0.000000
# 2 -0.010774 0.038874 -0.005745 0.000000 0.000000 0.000000
# 3 -0.003971 -0.005745 0.013517 0.000000 0.000000 0.000000
# 4 0.000000 0.000000 0.000000 0.048160 0.000000 0.000000
# 5 0.000000 0.000000 0.000000 0.000000 0.049925 0.000000
# 6 0.000000 0.000000 0.000000 0.000000 0.000000 0.115856
#
#
# Mechanical properties :
#
#
# Convention : Reuss Voigt Hill
#
# Bulk Modulus (GPa) = 39.02511 54.54698 46.78604
# Shear Modulus (GPa) = 15.14843 19.07199 17.11021
#
# Velocity S-wave (km/s) = 2.97757 3.34100 3.16451
# Velocity P-wave (km/s) = 5.88741 6.84163 6.38238
#
# Compressibility (1/GPa) = 0.02562453
#
# Stress axis : x y z
#
# Youngs Moduli (GPa) = 70.35804 25.72401 73.98016
#
# Poissons Ratio (x) = 0.27714 0.29381
# Poissons Ratio (y) = 0.75802 0.42500
# Poissons Ratio (z) = 0.27943 0.14778
#
# Static dielectric constant tensor:
#      x y z
#    x 3.218510 0.000000 0.000000 
#    y 0.000000 2.944020 0.000000 
#    z 0.000000 0.000000 3.143810 
# 
# 
# High freq. dielectric constant tensor:
#      x y z
#    x 1.652630 0.000000 0.000000 
#    y 0.000000 1.636640 0.000000 
#    z 0.000000 0.000000 1.640020 
# 
# From -- ./inp_files/25467.got.cif
#   From: 2010.03.12/outbox.cif.g09.slc.cpg/sg47_13_cif.got.tgz:25467.got - 2010.04.14 03:12:58.
