data_PCOD8193386
_publ_section_title
;
Structure prediction by ZEFSAII (Michael W. Deem and Ramdas Pophale) SiO2 
 PCOD8193386
Probable space group: I M A 2
;
_chemical_formula_sum "Si O2"
_cell_formula_units_Z 64
_cell_length_a 16.799046
_cell_length_b 17.859577
_cell_length_c 9.794444
_cell_angle_alpha 90.000000
_cell_angle_beta 90.000000
_cell_angle_gamma 90.000000
_cell_volume 2938.566852
_symmetry_space_group_name_H-M "I M A 2"
_symmetry_group_IT_number 46
_symmetry_cell_setting 'orthorhombic'
loop_
_space_group_symop_operation_xyz
x,y,z
-x,-y,z
1/2-x,y,z
1/2+x,-y,z
1/2+x,1/2+y,1/2+z
1/2-x,1/2-y,1/2+z
-x,1/2+y,1/2+z
x,1/2-y,1/2+z
loop_
_atom_site_type_symbol
_atom_site_label
_atom_site_fract_x
_atom_site_fract_y
_atom_site_fract_z
Si Si1 0.657535 0.517002 0.876070
Si Si2 0.340922 0.063797 0.840167
Si Si3 0.589180 0.292390 0.237649
Si Si4 0.157677 0.824123 0.027955
Si Si5 0.909451 0.484142 0.587249
Si Si6 0.083263 0.542770 0.130177
Si Si7 0.087877 0.215078 0.745137
Si Si8 0.340820 0.183770 0.463182
O O1 0.750000 0.504947 0.840883
O O2 0.605514 0.507973 0.741629
O O3 0.639782 0.596806 0.944350
O O4 0.627684 0.455944 0.984554
O O5 0.250000 0.089372 0.819639
O O6 0.398007 0.132918 0.806809
O O7 0.359377 0.994833 0.741134
O O8 0.353525 0.036114 0.994153
O O9 0.637604 0.241595 0.132938
O O10 0.639875 0.297184 0.375173
O O11 0.570316 0.372138 0.170897
O O12 0.502461 0.258064 0.269933
O O13 0.250000 0.845005 0.040504
O O14 0.106528 0.896775 0.065091
O O15 0.000000 0.500000 0.545500
O O16 0.000000 0.500000 0.121163
O O17 0.105685 0.217560 0.583877
O O18 0.143662 0.274191 0.821697
O O19 0.250000 0.194768 0.507126
#
# Coordination Sequence:
#
# PCOD8193386 Si02
#       8
#     8   8   8   8   8   8   8   8
#     4  11  25  43  68 101 139 180 231 288 349 413
#     4  12  23  42  71 101 136 181 228 285 350 414
#     4  12  27  46  74 102 140 186 235 286 352 416
#     4  12  28  49  71 104 145 186 235 288 349 421
#     4  12  27  46  73 102 138 181 238 295 351 410
#     4  12  23  45  72 102 134 182 233 294 346 414
#     4  12  25  44  70 101 143 181 234 284 348 419
#     4  11  24  42  65 101 146 186 228 280 347 424
#
# _framework density 21.779323000000002
#
# number of rings (size 3 to 8) (size 9 to 14) (size 15 to 20)
#    0.000    0.250    3.750    5.250    5.250    1.500 
#    0.000    0.000    0.000    0.000    0.000    0.000 
#    0.000    0.000    0.000    0.000    0.000    0.000 
#
# Total GULP energy -397102.519201 kJ/mol
# GULP energy per Si atom -12409.453725 kJ/mol
# Density = 2.172975 g / cm^3
# Si number density = 21.779323 Si / 1000 Ang^3
#
#
#
# Elastic Constant Matrix: (Units=GPa)
#
#
# Indices 1 2 3 4 5 6 
#
# 1 102.1183 46.1020 34.6600 0.0000 0.0000 0.0000
# 2 46.1020 63.0884 23.8180 0.0000 0.0000 0.0000
# 3 34.6600 23.8180 120.5389 0.0000 0.0000 0.0000
# 4 0.0000 0.0000 0.0000 28.8872 0.0000 0.0000
# 5 0.0000 0.0000 0.0000 0.0000 32.8078 0.0000
# 6 0.0000 0.0000 0.0000 0.0000 0.0000 33.6421
#
#
#
# Elastic Compliance Matrix: (Units=1/GPa)
#
#
# Indices 1 2 3 4 5 6 
#
# 1 0.015207 -0.010224 -0.002352 0.000000 0.000000 0.000000
# 2 -0.010224 0.024003 -0.001803 0.000000 0.000000 0.000000
# 3 -0.002352 -0.001803 0.009329 0.000000 0.000000 0.000000
# 4 0.000000 0.000000 0.000000 0.034617 0.000000 0.000000
# 5 0.000000 0.000000 0.000000 0.000000 0.030481 0.000000
# 6 0.000000 0.000000 0.000000 0.000000 0.000000 0.029725
#
#
# Mechanical properties :
#
#
# Convention : Reuss Voigt Hill
#
# Bulk Modulus (GPa) = 50.55805 54.98952 52.77379
# Shear Modulus (GPa) = 27.97776 31.14512 29.56144
#
# Velocity S-wave (km/s) = 3.58802 3.78568 3.68817
# Velocity P-wave (km/s) = 6.35841 6.66422 6.51311
#
# Compressibility (1/GPa) = 0.01977924
#
# Stress axis : x y z
#
# Youngs Moduli (GPa) = 65.75997 41.66161 107.19587
#
# Poissons Ratio (x) = 0.42596 0.25216
# Poissons Ratio (y) = 0.67235 0.19327
# Poissons Ratio (z) = 0.15469 0.07511
#
# Static dielectric constant tensor:
#      x y z
#    x 3.991480 0.000000 0.000000 
#    y 0.000000 3.913130 0.000000 
#    z 0.000000 0.000000 4.016420 
# 
# 
# High freq. dielectric constant tensor:
#      x y z
#    x 1.868090 0.000000 0.000000 
#    y 0.000000 1.854680 0.000000 
#    z 0.000000 0.000000 1.871440 
# 
# From -- ./inp_files/6918.got.cif
#   From: 2010.03.12/outbox.cif.g09.slc.cpg/sg46_4_cif.got.tgz:6918.got - 2010.04.14 02:56:35.
