data_PCOD8193248
_publ_section_title
;
Structure prediction by ZEFSAII (Michael W. Deem and Ramdas Pophale) SiO2 
 PCOD8193248
Probable space group: I M A 2
;
_chemical_formula_sum "Si O2"
_cell_formula_units_Z 48
_cell_length_a 16.886933
_cell_length_b 9.254564
_cell_length_c 13.442749
_cell_angle_alpha 90.000000
_cell_angle_beta 90.000000
_cell_angle_gamma 90.000000
_cell_volume 2100.848975
_symmetry_space_group_name_H-M "I M A 2"
_symmetry_group_IT_number 46
_symmetry_cell_setting 'orthorhombic'
loop_
_space_group_symop_operation_xyz
x,y,z
-x,-y,z
1/2-x,y,z
1/2+x,-y,z
1/2+x,1/2+y,1/2+z
1/2-x,1/2-y,1/2+z
-x,1/2+y,1/2+z
x,1/2-y,1/2+z
loop_
_atom_site_type_symbol
_atom_site_label
_atom_site_fract_x
_atom_site_fract_y
_atom_site_fract_z
Si Si1 0.567201 0.797578 0.402140
Si Si2 0.890630 0.279167 0.408484
Si Si3 0.841436 0.788153 0.595760
Si Si4 0.593186 0.030854 0.098569
Si Si5 0.587283 0.966120 0.773623
Si Si6 0.838614 0.467936 0.796038
O O1 0.473139 0.809413 0.410030
O O2 0.606668 0.846209 0.504871
O O3 0.583880 0.631212 0.373662
O O4 0.604009 0.897080 0.316950
O O5 0.875977 0.364359 0.510931
O O6 0.877261 0.384862 0.314280
O O7 0.830695 0.147397 0.386743
O O8 0.750000 0.808266 0.569086
O O9 0.859944 0.619528 0.608125
O O10 0.860436 0.887309 0.690939
O O11 0.500000 0.000000 0.085548
O O12 0.618423 0.109990 0.201107
O O13 0.500000 0.000000 0.730297
O O14 0.750000 0.524888 0.772209
#
# Coordination Sequence:
#
# PCOD8193248 Si02
#       6
#     8   8   8   8   8   8
#     4  11  22  46  69 100 135 182 242 281 344 421
#     4  11  24  46  73 102 136 185 239 293 343 412
#     4  12  25  41  72 107 143 184 231 294 353 416
#     4  12  23  46  73 102 133 184 244 285 349 421
#     4  10  23  43  70  99 135 183 240 286 338 413
#     4  12  28  44  68 106 147 185 226 291 360 415
#
# _framework density 22.847905999999998
#
# number of rings (size 3 to 8) (size 9 to 14) (size 15 to 20)
#    0.000    0.667    5.000    3.000    2.333    5.333 
#    0.000    0.000    0.000    0.000    0.000    0.000 
#    0.000    0.000    0.000    0.000    0.000    0.000 
#
# Total GULP energy -297484.192337 kJ/mol
# GULP energy per Si atom -12395.174681 kJ/mol
# Density = 2.279590 g / cm^3
# Si number density = 22.847906 Si / 1000 Ang^3
#
#
#
# Elastic Constant Matrix: (Units=GPa)
#
#
# Indices 1 2 3 4 5 6 
#
# 1 84.6109 31.5446 33.5009 0.0000 0.0000 0.0000
# 2 31.5446 86.7618 27.6932 0.0000 0.0000 0.0000
# 3 33.5009 27.6932 111.2634 0.0000 0.0000 0.0000
# 4 0.0000 0.0000 0.0000 41.0618 0.0000 0.0000
# 5 0.0000 0.0000 0.0000 0.0000 25.8500 0.0000
# 6 0.0000 0.0000 0.0000 0.0000 0.0000 26.3768
#
#
#
# Elastic Compliance Matrix: (Units=1/GPa)
#
#
# Indices 1 2 3 4 5 6 
#
# 1 0.014753 -0.004287 -0.003375 0.000000 0.000000 0.000000
# 2 -0.004287 0.013766 -0.002136 0.000000 0.000000 0.000000
# 3 -0.003375 -0.002136 0.010536 0.000000 0.000000 0.000000
# 4 0.000000 0.000000 0.000000 0.024354 0.000000 0.000000
# 5 0.000000 0.000000 0.000000 0.000000 0.038685 0.000000
# 6 0.000000 0.000000 0.000000 0.000000 0.000000 0.037912
#
#
# Mechanical properties :
#
#
# Convention : Reuss Voigt Hill
#
# Bulk Modulus (GPa) = 51.38792 52.01260 51.70026
# Shear Modulus (GPa) = 30.10473 31.31754 30.71113
#
# Velocity S-wave (km/s) = 3.63383 3.70631 3.67025
# Velocity P-wave (km/s) = 6.33612 6.41325 6.37480
#
# Compressibility (1/GPa) = 0.01945983
#
# Stress axis : x y z
#
# Youngs Moduli (GPa) = 67.78121 72.64265 94.91714
#
# Poissons Ratio (x) = 0.31139 0.32037
# Poissons Ratio (y) = 0.29056 0.20271
# Poissons Ratio (z) = 0.22878 0.15514
#
# Static dielectric constant tensor:
#      x y z
#    x 3.910530 0.000000 0.000000 
#    y 0.000000 4.067830 0.000000 
#    z 0.000000 0.000000 4.280320 
# 
# 
# High freq. dielectric constant tensor:
#      x y z
#    x 1.889300 0.000000 0.000000 
#    y 0.000000 1.906590 0.000000 
#    z 0.000000 0.000000 1.909550 
# 
# From -- ./inp_files/16534.got.cif
#   From: 2010.03.12/outbox.cif.g09.slc.cpg/sg46_9_cif.got.tgz:16534.got - 2010.04.14 02:56:35.
