data_PCOD8193436
_publ_section_title
;
Structure prediction by ZEFSAII (Michael W. Deem and Ramdas Pophale) SiO2 
 PCOD8193436
Probable space group: I M A 2
;
_chemical_formula_sum "Si O2"
_cell_formula_units_Z 24
_cell_length_a 9.000000
_cell_length_b 15.000000
_cell_length_c 18.000000
_cell_angle_alpha 90.000000
_cell_angle_beta 90.000000
_cell_angle_gamma 90.000000
_cell_volume 2430.000000
_symmetry_space_group_name_H-M "I M A 2"
_symmetry_group_IT_number 46
_symmetry_cell_setting 'orthorhombic'
loop_
_space_group_symop_operation_xyz
x,y,z
-x,-y,z
1/2-x,y,z
1/2+x,-y,z
1/2+x,1/2+y,1/2+z
1/2-x,1/2-y,1/2+z
-x,1/2+y,1/2+z
x,1/2-y,1/2+z
loop_
_atom_site_type_symbol
_atom_site_label
_atom_site_fract_x
_atom_site_fract_y
_atom_site_fract_z
Si Si1 0.075964 0.232631 0.450650
Si Si2 0.427560 0.589125 0.401705
Si Si3 0.587158 0.346356 0.247761
Si Si4 0.426107 0.086865 0.180289
Si Si5 0.583011 0.152431 0.318366
Si Si6 0.579592 0.726379 0.118838
O O1 0.250000 0.242507 0.431516
O O2 0.050483 0.198196 0.534377
O O3 0.998238 0.328339 0.444953
O O4 0.000264 0.159527 0.397530
O O5 0.500000 0.500000 0.435858
O O6 0.250000 0.591052 0.411871
O O7 0.473513 0.591446 0.314150
O O8 0.750000 0.378001 0.223471
O O9 0.591616 0.248802 0.282356
O O10 0.490251 0.348050 0.173065
O O11 0.250000 0.076461 0.180493
O O12 0.486986 0.089690 0.264791
O O13 0.481526 0.173721 0.134772
O O14 0.500000 0.000000 0.141778
O O15 0.750000 0.114103 0.329531
O O16 0.750000 0.727709 0.140097
#
# Coordination Sequence:
#
# PCOD8193436 Si02
#       6
#     8   8   8   8   8   8
#     4  10  19  32  49  72 100 129 159 196 238 284
#     4  10  20  33  49  72  98 128 162 197 238 285
#     4   8  16  30  48  68  91 120 159 199 236 278
#     4  10  19  32  49  71  98 129 161 198 240 284
#     4   9  17  31  49  70  93 123 163 202 236 279
#     4   9  19  32  48  71  98 127 160 194 236 284
#
# _framework density 9.8765429999999999
#
# number of rings (size 3 to 8) (size 9 to 14) (size 15 to 20)
#    0.000    2.667    0.000    3.000    0.000    7.333 
#    0.000    1.667    0.000    1.000    0.000    2.333 
#    0.000    0.000    0.000    0.000    0.000    0.000 
#
# Total GULP energy -297471.459487 kJ/mol
# GULP energy per Si atom -12394.644145 kJ/mol
# Density = 0.985406 g / cm^3
# Si number density = 9.876543 Si / 1000 Ang^3
#
#
#
# Elastic Constant Matrix: (Units=GPa)
#
#
# Indices 1 2 3 4 5 6 
#
# 1 85.4001 -0.2366 29.7441 0.0000 0.0000 0.0000
# 2 -0.2366 11.0804 -13.2064 0.0000 0.0000 0.0000
# 3 29.7441 -13.2064 71.2093 0.0000 0.0000 0.0000
# 4 0.0000 0.0000 0.0000 14.8179 0.0000 0.0000
# 5 0.0000 0.0000 0.0000 0.0000 30.2871 0.0000
# 6 0.0000 0.0000 0.0000 0.0000 0.0000 24.6443
#
#
#
# Elastic Compliance Matrix: (Units=1/GPa)
#
#
# Indices 1 2 3 4 5 6 
#
# 1 0.014338 -0.008770 -0.007615 0.000000 0.000000 0.000000
# 2 -0.008770 0.121225 0.026146 0.000000 0.000000 0.000000
# 3 -0.007615 0.026146 0.022073 0.000000 0.000000 0.000000
# 4 0.000000 0.000000 0.000000 0.067486 0.000000 0.000000
# 5 0.000000 0.000000 0.000000 0.000000 0.033017 0.000000
# 6 0.000000 0.000000 0.000000 0.000000 0.000000 0.040577
#
#
# Mechanical properties :
#
#
# Convention : Reuss Voigt Hill
#
# Bulk Modulus (GPa) = 5.64477 22.25466 13.94971
# Shear Modulus (GPa) = 14.78204 24.04244 19.41224
#
# Velocity S-wave (km/s) = 2.73855 3.49255 3.13828
# Velocity P-wave (km/s) = 3.58656 5.24926 4.49545
#
# Compressibility (1/GPa) = 0.17715517
#
# Stress axis : x y z
#
# Youngs Moduli (GPa) = 69.74640 8.24914 45.30421
#
# Poissons Ratio (x) = 0.07235 0.34501
# Poissons Ratio (y) = 0.61171 -1.18451
# Poissons Ratio (z) = 0.53115 -0.21568
#
# Static dielectric constant tensor:
#      x y z
#    x 3.678180 0.000000 0.000000 
#    y 0.000000 3.370350 0.000000 
#    z 0.000000 0.000000 3.569660 
# 
# 
# High freq. dielectric constant tensor:
#      x y z
#    x 1.775830 0.000000 0.000000 
#    y 0.000000 1.734740 0.000000 
#    z 0.000000 0.000000 1.759290 
# 
# From -- ./inp_files/13901.got.cif
#   From: 2010.03.12/outbox.ucp.g09.slc.cvg/sg46_7_cif.got.tgz:13901.got - 2010.05.04 21:24:43.
