data_PCOD8193088
_publ_section_title
;
Structure prediction by ZEFSAII (Michael W. Deem and Ramdas Pophale) SiO2 
 PCOD8193088
Probable space group: I M A 2
;
_chemical_formula_sum "Si O2"
_cell_formula_units_Z 48
_cell_length_a 23.173111
_cell_length_b 7.522724
_cell_length_c 13.393792
_cell_angle_alpha 90.000000
_cell_angle_beta 90.000000
_cell_angle_gamma 90.000000
_cell_volume 2334.871696
_symmetry_space_group_name_H-M "I M A 2"
_symmetry_group_IT_number 46
_symmetry_cell_setting 'orthorhombic'
loop_
_space_group_symop_operation_xyz
x,y,z
-x,-y,z
1/2-x,y,z
1/2+x,-y,z
1/2+x,1/2+y,1/2+z
1/2-x,1/2-y,1/2+z
-x,1/2+y,1/2+z
x,1/2-y,1/2+z
loop_
_atom_site_type_symbol
_atom_site_label
_atom_site_fract_x
_atom_site_fract_y
_atom_site_fract_z
Si Si1 0.250000 0.928788 0.195460
Si Si2 0.250000 0.247201 0.323337
Si Si3 0.157557 0.933392 0.031612
Si Si4 0.074550 0.625780 0.026744
Si Si5 0.986818 0.813724 0.346635
Si Si6 0.750000 0.363702 0.366121
Si Si7 0.634050 0.800517 0.441274
Si Si8 0.000000 0.500000 0.198524
O O1 0.193379 0.896390 0.131091
O O2 0.250000 0.805369 0.293699
O O3 0.250000 0.137519 0.221592
O O4 0.250000 0.456940 0.299024
O O5 0.306201 0.188937 0.383837
O O6 0.100526 0.818477 0.047153
O O7 0.192819 0.867944 0.934304
O O8 0.138603 0.139460 0.021251
O O9 0.124616 0.494954 0.987904
O O10 0.022360 0.668800 0.950496
O O11 0.054664 0.522508 0.126272
O O12 0.920195 0.768404 0.368422
O O13 0.006227 0.667559 0.269647
O O14 0.000000 0.000000 0.290409
#
# Coordination Sequence:
#
# PCOD8193088 Si02
#       8
#     4   4   8   8   8   4   8   4
#     4  11  23  39  58  98 127 163 219 264 313 394
#     4  10  22  38  66  92 124 174 212 260 332 375
#     4  10  23  38  64  91 127 171 212 263 323 379
#     4  11  23  43  63  94 130 168 217 272 326 387
#     4  10  23  44  64  92 131 165 219 272 320 389
#     4   9  21  43  60  90 131 171 209 258 323 377
#     4  10  21  43  65  89 131 167 210 274 324 379
#     4  12  24  40  68  96 122 174 220 256 338 386
#
# _framework density 20.557874999999999
#
# number of rings (size 3 to 8) (size 9 to 14) (size 15 to 20)
#    0.000    1.667    2.500    2.500    0.000   11.333 
#    1.500    1.667    0.000    0.000    0.000    0.000 
#    0.000    0.000    0.000    0.000    0.000    0.000 
#
# Total GULP energy -297411.020691 kJ/mol
# GULP energy per Si atom -12392.125862 kJ/mol
# Density = 2.051108 g / cm^3
# Si number density = 20.557875 Si / 1000 Ang^3
#
#
#
# Elastic Constant Matrix: (Units=GPa)
#
#
# Indices 1 2 3 4 5 6 
#
# 1 100.6319 31.2178 14.6381 0.0000 0.0000 0.0000
# 2 31.2178 114.4586 49.7155 0.0000 0.0000 0.0000
# 3 14.6381 49.7155 87.5631 0.0000 0.0000 0.0000
# 4 0.0000 0.0000 0.0000 52.4563 0.0000 0.0000
# 5 0.0000 0.0000 0.0000 0.0000 5.6412 0.0000
# 6 0.0000 0.0000 0.0000 0.0000 0.0000 36.7182
#
#
#
# Elastic Compliance Matrix: (Units=1/GPa)
#
#
# Indices 1 2 3 4 5 6 
#
# 1 0.010858 -0.002884 -0.000178 0.000000 0.000000 0.000000
# 2 -0.002884 0.012363 -0.006537 0.000000 0.000000 0.000000
# 3 -0.000178 -0.006537 0.015162 0.000000 0.000000 0.000000
# 4 0.000000 0.000000 0.000000 0.019063 0.000000 0.000000
# 5 0.000000 0.000000 0.000000 0.000000 0.177268 0.000000
# 6 0.000000 0.000000 0.000000 0.000000 0.000000 0.027234
#
#
# Mechanical properties :
#
#
# Convention : Reuss Voigt Hill
#
# Bulk Modulus (GPa) = 52.12552 54.86628 53.49590
# Shear Modulus (GPa) = 17.38885 32.76862 25.07874
#
# Velocity S-wave (km/s) = 2.91150 3.99679 3.49651
# Velocity P-wave (km/s) = 6.05913 6.93150 6.50994
#
# Compressibility (1/GPa) = 0.01918446
#
# Stress axis : x y z
#
# Youngs Moduli (GPa) = 92.09984 80.88758 65.95638
#
# Poissons Ratio (x) = 0.23330 0.01171
# Poissons Ratio (y) = 0.26564 0.43116
# Poissons Ratio (z) = 0.01635 0.52877
#
# Static dielectric constant tensor:
#      x y z
#    x 3.728210 0.000000 0.000000 
#    y 0.000000 3.933830 0.000000 
#    z 0.000000 0.000000 3.584240 
# 
# 
# High freq. dielectric constant tensor:
#      x y z
#    x 1.811240 0.000000 0.000000 
#    y 0.000000 1.821580 0.000000 
#    z 0.000000 0.000000 1.790190 
# 
# From -- ./inp_files/12755.got.cif
#   From: 2010.03.12/outbox.cif.g09.slc.cpg/sg46_7_cif.got.tgz:12755.got - 2010.04.14 02:56:35.
