data_PCOD8193823
_publ_section_title
;
Structure prediction by ZEFSAII (Michael W. Deem and Ramdas Pophale) SiO2 
 PCOD8193823
Probable space group: P M M M
;
_chemical_formula_sum "Si O2"
_cell_formula_units_Z 48
_cell_length_a 19.357218
_cell_length_b 20.976216
_cell_length_c 9.391003
_cell_angle_alpha 90.000000
_cell_angle_beta 90.000000
_cell_angle_gamma 90.000000
_cell_volume 3813.133995
_symmetry_space_group_name_H-M "P M M M"
_symmetry_group_IT_number 47
_symmetry_cell_setting 'orthorhombic'
loop_
_space_group_symop_operation_xyz
x,y,z
-x,-y,z
x,-y,-z
-x,y,-z
-x,-y,-z
x,y,-z
-x,y,z
x,-y,z
loop_
_atom_site_type_symbol
_atom_site_label
_atom_site_fract_x
_atom_site_fract_y
_atom_site_fract_z
Si Si1 0.582549 0.863630 0.840332
Si Si2 0.578906 0.743612 0.333538
Si Si3 0.664670 0.380169 0.668348
Si Si4 0.424163 0.000000 0.169404
Si Si5 0.206424 0.425129 0.833357
Si Si6 0.576638 0.500000 0.668736
Si Si7 0.076224 0.575603 0.659339
O O1 0.500000 0.868095 0.836047
O O2 0.609324 0.806846 0.740548
O O3 0.612926 0.932875 0.786795
O O4 0.608214 0.848872 0.000000
O O5 0.582207 0.755818 0.500000
O O6 0.500000 0.729472 0.285559
O O7 0.626411 0.684664 0.288570
O O8 0.679388 0.384597 0.500000
O O9 0.735927 0.383983 0.753248
O O10 0.616301 0.437540 0.721754
O O11 0.500000 0.000000 0.240020
O O12 0.431695 0.000000 0.000000
O O13 0.217825 0.500000 0.801509
O O14 0.133014 0.400649 0.772286
O O15 0.208733 0.410334 0.000000
O O16 0.500000 0.500000 0.735866
O O17 0.571160 0.500000 0.500000
O O18 0.095261 0.599615 0.500000
O O19 0.074413 0.500000 0.659841
O O20 0.000000 0.601511 0.703208
#
# Coordination Sequence:
#
# PCOD8193823 Si02
#       7
#     8   8   8   4   8   4   8
#     4   8  13  22  36  51  66  86 109 133 165 207
#     4   9  17  27  37  51  69  86 110 148 188 220
#     4  10  18  28  41  52  64  87 117 149 182 219
#     4   7  10  18  33  51  67  83 107 133 156 195
#     4  10  19  28  38  53  73  91 109 139 177 214
#     4   9  16  26  41  55  60  73 112 157 189 218
#     4   8  14  25  41  58  73  89 109 131 158 200
#
# _framework density 12.588070999999999
#
# number of rings (size 3 to 8) (size 9 to 14) (size 15 to 20)
#    0.000    3.167    0.833    2.500    0.000    3.667 
#    0.000    2.083    0.000    4.500    0.000    0.000 
#    0.000    0.000    0.000    0.000    0.000    0.000 
#
# Total GULP energy -594771.834959 kJ/mol
# GULP energy per Si atom -12391.079895 kJ/mol
# Density = 1.255942 g / cm^3
# Si number density = 12.588071 Si / 1000 Ang^3
#
#
#
# Elastic Constant Matrix: (Units=GPa)
#
#
# Indices 1 2 3 4 5 6 
#
# 1 75.3551 36.3061 36.4261 0.0000 0.0000 0.0000
# 2 36.3061 96.5730 36.0305 0.0000 0.0000 0.0000
# 3 36.4261 36.0305 46.7566 0.0000 0.0000 0.0000
# 4 0.0000 0.0000 0.0000 17.8670 0.0000 0.0000
# 5 0.0000 0.0000 0.0000 0.0000 11.8859 0.0000
# 6 0.0000 0.0000 0.0000 0.0000 0.0000 2.2752
#
#
#
# Elastic Compliance Matrix: (Units=1/GPa)
#
#
# Indices 1 2 3 4 5 6 
#
# 1 0.021743 -0.002603 -0.014934 0.000000 0.000000 0.000000
# 2 -0.002603 0.014845 -0.009412 0.000000 0.000000 0.000000
# 3 -0.014934 -0.009412 0.040274 0.000000 0.000000 0.000000
# 4 0.000000 0.000000 0.000000 0.055969 0.000000 0.000000
# 5 0.000000 0.000000 0.000000 0.000000 0.084133 0.000000
# 6 0.000000 0.000000 0.000000 0.000000 0.000000 0.439518
#
#
# Mechanical properties :
#
#
# Convention : Reuss Voigt Hill
#
# Bulk Modulus (GPa) = 43.54233 48.46779 46.00506
# Shear Modulus (GPa) = 6.96346 13.73376 10.34861
#
# Velocity S-wave (km/s) = 2.35453 3.30663 2.87033
# Velocity P-wave (km/s) = 6.48514 7.29143 6.90007
#
# Compressibility (1/GPa) = 0.02296616
#
# Stress axis : x y z
#
# Youngs Moduli (GPa) = 45.99119 67.36393 24.82979
#
# Poissons Ratio (x) = 0.17533 0.37080
# Poissons Ratio (y) = 0.11970 0.23369
# Poissons Ratio (z) = 0.68682 0.63401
#
# Static dielectric constant tensor:
#      x y z
#    x 2.490210 0.000000 0.000000 
#    y 0.000000 2.596130 0.000000 
#    z 0.000000 0.000000 2.489690 
# 
# 
# High freq. dielectric constant tensor:
#      x y z
#    x 1.445780 0.000000 0.000000 
#    y 0.000000 1.454740 0.000000 
#    z 0.000000 0.000000 1.470310 
# 
# From -- ./inp_files/11694.got.cif
#   From: 2010.03.12/outbox.cif.g09.slc.cpg/sg47_6_cif.got.tgz:11694.got - 2010.04.14 03:12:58.
