data_PCOD8193646
_publ_section_title
;
Structure prediction by ZEFSAII (Michael W. Deem and Ramdas Pophale) SiO2 
 PCOD8193646
Probable space group: P M M M
;
_chemical_formula_sum "Si O2"
_cell_formula_units_Z 52
_cell_length_a 9.653740
_cell_length_b 14.231954
_cell_length_c 22.134206
_cell_angle_alpha 90.000000
_cell_angle_beta 90.000000
_cell_angle_gamma 90.000000
_cell_volume 3041.053614
_symmetry_space_group_name_H-M "P M M M"
_symmetry_group_IT_number 47
_symmetry_cell_setting 'orthorhombic'
loop_
_space_group_symop_operation_xyz
x,y,z
-x,-y,z
x,-y,-z
-x,y,-z
-x,-y,-z
x,y,-z
-x,y,z
x,-y,z
loop_
_atom_site_type_symbol
_atom_site_label
_atom_site_fract_x
_atom_site_fract_y
_atom_site_fract_z
Si Si1 0.661768 0.608466 0.843571
Si Si2 0.335615 0.707116 0.621702
Si Si3 0.746075 0.230340 0.071439
Si Si4 0.000000 0.892998 0.071695
Si Si5 0.500000 0.896789 0.928409
Si Si6 0.336291 0.102682 0.567161
Si Si7 0.161920 0.390782 0.275054
Si Si8 0.663402 0.396173 0.500000
O O1 0.500000 0.632932 0.831160
O O2 0.676704 0.500000 0.862551
O O3 0.726454 0.668561 0.898103
O O4 0.755584 0.631679 0.785981
O O5 0.500000 0.692209 0.635574
O O6 0.293977 0.816750 0.614554
O O7 0.239556 0.667775 0.673992
O O8 0.288990 0.657350 0.559909
O O9 0.628561 0.161327 0.094558
O O10 0.875462 0.171061 0.094588
O O11 0.747051 0.248566 0.000000
O O12 0.000000 0.000000 0.098735
O O13 0.000000 0.903142 0.000000
O O14 0.500000 0.000000 0.898596
O O15 0.500000 0.906885 0.000000
O O16 0.274454 0.121897 0.500000
O O17 0.500000 0.104477 0.560734
O O18 0.285993 0.000000 0.590711
O O19 0.174347 0.500000 0.291684
O O20 0.000000 0.361400 0.269035
O O21 0.730267 0.500000 0.500000
O O22 0.500000 0.403167 0.500000
#
# Coordination Sequence:
#
# PCOD8193646 Si02
#       8
#     8   8   8   4   4   8   8   4
#     4  10  21  37  56  78 104 138 179 219 263 316
#     4  10  17  29  51  78 103 132 170 209 255 302
#     4  10  19  32  52  82 112 139 174 215 264 315
#     4   9  18  32  51  77 111 147 178 209 253 314
#     4   9  16  28  49  77 109 139 170 213 263 312
#     4   8  13  23  43  74 107 133 163 203 245 294
#     4  10  22  38  54  72  97 134 177 217 258 310
#     4   9  16  24  40  72 108 131 155 203 258 303
#
# _framework density 17.099337999999999
#
# number of rings (size 3 to 8) (size 9 to 14) (size 15 to 20)
#    0.000    2.538    1.538    1.846    1.077    3.692 
#    0.000    1.154    0.000    5.077    0.000    1.077 
#    0.000    0.000    0.000    0.000    0.000    0.000 
#
# Total GULP energy -644320.954312 kJ/mol
# GULP energy per Si atom -12390.787583 kJ/mol
# Density = 1.706042 g / cm^3
# Si number density = 17.099338 Si / 1000 Ang^3
#
#
#
# Elastic Constant Matrix: (Units=GPa)
#
#
# Indices 1 2 3 4 5 6 
#
# 1 114.7735 59.9583 48.2189 0.0000 0.0000 0.0000
# 2 59.9583 135.1414 66.3498 0.0000 0.0000 0.0000
# 3 48.2189 66.3498 79.1338 0.0000 0.0000 0.0000
# 4 0.0000 0.0000 0.0000 10.9023 0.0000 0.0000
# 5 0.0000 0.0000 0.0000 0.0000 16.6198 0.0000
# 6 0.0000 0.0000 0.0000 0.0000 0.0000 31.0158
#
#
#
# Elastic Compliance Matrix: (Units=1/GPa)
#
#
# Indices 1 2 3 4 5 6 
#
# 1 0.012408 -0.003048 -0.005005 0.000000 0.000000 0.000000
# 2 -0.003048 0.013325 -0.009316 0.000000 0.000000 0.000000
# 3 -0.005005 -0.009316 0.023497 0.000000 0.000000 0.000000
# 4 0.000000 0.000000 0.000000 0.091724 0.000000 0.000000
# 5 0.000000 0.000000 0.000000 0.000000 0.060169 0.000000
# 6 0.000000 0.000000 0.000000 0.000000 0.000000 0.032242
#
#
# Mechanical properties :
#
#
# Convention : Reuss Voigt Hill
#
# Bulk Modulus (GPa) = 68.99606 75.34474 72.17040
# Shear Modulus (GPa) = 18.31949 22.00903 20.16426
#
# Velocity S-wave (km/s) = 3.27671 3.59155 3.43774
# Velocity P-wave (km/s) = 7.39956 7.83311 7.61942
#
# Compressibility (1/GPa) = 0.01449358
#
# Stress axis : x y z
#
# Youngs Moduli (GPa) = 80.59541 75.04410 42.55773
#
# Poissons Ratio (x) = 0.22870 0.21301
# Poissons Ratio (y) = 0.24562 0.39646
# Poissons Ratio (z) = 0.40340 0.69910
#
# Static dielectric constant tensor:
#      x y z
#    x 3.139660 0.000000 0.000000 
#    y 0.000000 3.590240 0.000000 
#    z 0.000000 0.000000 2.949970 
# 
# 
# High freq. dielectric constant tensor:
#      x y z
#    x 1.643870 0.000000 0.000000 
#    y 0.000000 1.673780 0.000000 
#    z 0.000000 0.000000 1.628620 
# 
# From -- ./inp_files/29669.got.cif
#   From: 2010.03.12/outbox.cif.g09.slc.cpg/sg47_15_cif.got.tgz:29669.got - 2010.04.14 03:12:58.
