data_PCOD8193802
_publ_section_title
;
Structure prediction by ZEFSAII (Michael W. Deem and Ramdas Pophale) SiO2 
 PCOD8193802
Probable space group: P M M M
;
_chemical_formula_sum "Si O2"
_cell_formula_units_Z 64
_cell_length_a 8.866168
_cell_length_b 24.017833
_cell_length_c 19.088549
_cell_angle_alpha 90.000000
_cell_angle_beta 90.000000
_cell_angle_gamma 90.000000
_cell_volume 4064.832873
_symmetry_space_group_name_H-M "P M M M"
_symmetry_group_IT_number 47
_symmetry_cell_setting 'orthorhombic'
loop_
_space_group_symop_operation_xyz
x,y,z
-x,-y,z
x,-y,-z
-x,y,-z
-x,-y,-z
x,y,-z
-x,y,z
x,-y,z
loop_
_atom_site_type_symbol
_atom_site_label
_atom_site_fract_x
_atom_site_fract_y
_atom_site_fract_z
Si Si1 0.676823 0.165976 0.791828
Si Si2 0.821252 0.332592 0.839093
Si Si3 0.321736 0.061131 0.712627
Si Si4 0.327174 0.126553 0.578189
Si Si5 0.321826 0.723908 0.713485
Si Si6 0.179070 0.438456 0.078317
Si Si7 0.676286 0.766199 0.920440
Si Si8 0.823705 0.756702 0.421231
O O1 0.500000 0.161403 0.780413
O O2 0.747610 0.106915 0.766911
O O3 0.734944 0.216380 0.742972
O O4 0.717237 0.179825 0.872681
O O5 0.747724 0.323773 0.762951
O O6 0.761538 0.392022 0.867644
O O7 0.771144 0.286408 0.895219
O O8 0.000000 0.330625 0.831646
O O9 0.500000 0.057151 0.722064
O O10 0.281234 0.079003 0.633259
O O11 0.250158 0.000000 0.727048
O O12 0.305384 0.102065 0.500000
O O13 0.500000 0.145821 0.590596
O O14 0.222896 0.179626 0.590404
O O15 0.500000 0.717743 0.715180
O O16 0.261954 0.717138 0.634218
O O17 0.233305 0.500000 0.102834
O O18 0.000000 0.436356 0.075961
O O19 0.241255 0.426055 0.000000
O O20 0.500000 0.751523 0.911534
O O21 0.718494 0.781149 0.000000
O O22 0.780151 0.737459 0.500000
O O23 0.000000 0.751187 0.407948
#
# Coordination Sequence:
#
# PCOD8193802 Si02
#       8
#     8   8   8   8   8   8   8   8
#     4   8  14  25  39  56  77 102 133 171 216 261
#     4  10  18  27  43  68  93 115 146 188 222 250
#     4   9  15  23  38  59  79 101 136 181 219 254
#     4   9  16  26  40  58  80 107 138 171 211 260
#     4  10  18  30  46  62  86 118 147 176 215 264
#     4   8  14  25  41  62  91 127 160 186 214 249
#     4   9  17  28  42  59  82 113 144 177 221 270
#     4  10  19  29  43  64  88 113 142 178 218 258
#
# _framework density 15.744804
#
# number of rings (size 3 to 8) (size 9 to 14) (size 15 to 20)
#    0.000    2.875    1.250    2.625    0.000    1.750 
#    0.000    1.250    0.000    2.250    0.000    8.750 
#    0.000    0.500    0.000    9.000    0.000    5.875 
#
# Total GULP energy -793160.430339 kJ/mol
# GULP energy per Si atom -12393.131724 kJ/mol
# Density = 1.570897 g / cm^3
# Si number density = 15.744804 Si / 1000 Ang^3
#
#
#
# Elastic Constant Matrix: (Units=GPa)
#
#
# Indices 1 2 3 4 5 6 
#
# 1 39.2506 23.0365 33.3388 0.0000 0.0000 0.0000
# 2 23.0365 109.9570 70.0308 0.0000 0.0000 0.0000
# 3 33.3388 70.0308 130.1167 0.0000 0.0000 0.0000
# 4 0.0000 0.0000 0.0000 25.9311 0.0000 0.0000
# 5 0.0000 0.0000 0.0000 0.0000 19.8889 0.0000
# 6 0.0000 0.0000 0.0000 0.0000 0.0000 13.6802
#
#
#
# Elastic Compliance Matrix: (Units=1/GPa)
#
#
# Indices 1 2 3 4 5 6 
#
# 1 0.032949 -0.002322 -0.007193 0.000000 0.000000 0.000000
# 2 -0.002322 0.014002 -0.006941 0.000000 0.000000 0.000000
# 3 -0.007193 -0.006941 0.013264 0.000000 0.000000 0.000000
# 4 0.000000 0.000000 0.000000 0.038564 0.000000 0.000000
# 5 0.000000 0.000000 0.000000 0.000000 0.050279 0.000000
# 6 0.000000 0.000000 0.000000 0.000000 0.000000 0.073098
#
#
# Mechanical properties :
#
#
# Convention : Reuss Voigt Hill
#
# Bulk Modulus (GPa) = 36.62492 59.12627 47.87560
# Shear Modulus (GPa) = 18.92731 22.09460 20.51096
#
# Velocity S-wave (km/s) = 3.47094 3.75012 3.61323
# Velocity P-wave (km/s) = 6.27497 7.50904 6.91957
#
# Compressibility (1/GPa) = 0.02730381
#
# Stress axis : x y z
#
# Youngs Moduli (GPa) = 30.34954 71.42065 75.39226
#
# Poissons Ratio (x) = 0.16585 0.54226
# Poissons Ratio (y) = 0.07048 0.52329
# Poissons Ratio (z) = 0.21829 0.49572
#
# Static dielectric constant tensor:
#      x y z
#    x 2.745560 0.000000 0.000000 
#    y 0.000000 3.061160 0.000000 
#    z 0.000000 0.000000 3.237480 
# 
# 
# High freq. dielectric constant tensor:
#      x y z
#    x 1.578800 0.000000 0.000000 
#    y 0.000000 1.572890 0.000000 
#    z 0.000000 0.000000 1.607650 
# 
# From -- ./inp_files/12933.got.cif
#   From: 2010.03.12/outbox.cif.g09.slc.cpg/sg47_7_cif.got.tgz:12933.got - 2010.04.14 03:12:58.
