data_PCOD8193099
_publ_section_title
;
Structure prediction by ZEFSAII (Michael W. Deem and Ramdas Pophale) SiO2 
 PCOD8193099
Probable space group: I M A 2
;
_chemical_formula_sum "Si O2"
_cell_formula_units_Z 40
_cell_length_a 9.049106
_cell_length_b 22.995621
_cell_length_c 10.204174
_cell_angle_alpha 90.000000
_cell_angle_beta 90.000000
_cell_angle_gamma 90.000000
_cell_volume 2123.384649
_symmetry_space_group_name_H-M "I M A 2"
_symmetry_group_IT_number 46
_symmetry_cell_setting 'orthorhombic'
loop_
_space_group_symop_operation_xyz
x,y,z
-x,-y,z
1/2-x,y,z
1/2+x,-y,z
1/2+x,1/2+y,1/2+z
1/2-x,1/2-y,1/2+z
-x,1/2+y,1/2+z
x,1/2-y,1/2+z
loop_
_atom_site_type_symbol
_atom_site_label
_atom_site_fract_x
_atom_site_fract_y
_atom_site_fract_z
Si Si1 0.421988 0.647151 0.381100
Si Si2 0.921682 0.061244 0.351677
Si Si3 0.918934 0.142231 0.587039
Si Si4 0.583223 0.627808 0.627190
Si Si5 0.583331 0.756325 0.003722
O O1 0.250000 0.646495 0.415847
O O2 0.453785 0.622940 0.235787
O O3 0.508564 0.607364 0.488566
O O4 0.482987 0.713891 0.389879
O O5 0.750000 0.053164 0.320802
O O6 0.949040 0.086347 0.496774
O O7 0.988717 0.106402 0.248926
O O8 0.000000 0.000000 0.338245
O O9 0.750000 0.163689 0.574423
O O10 0.023474 0.194278 0.544569
O O11 0.750000 0.603066 0.634967
O O12 0.582339 0.698650 0.627850
O O13 0.750000 0.748312 0.950746
#
# Coordination Sequence:
#
# PCOD8193099 Si02
#       5
#     8   8   8   8   8
#     4   9  18  35  57  83 115 150 190 236 292 354
#     4  11  24  42  62  86 117 160 206 250 299 354
#     4  10  22  37  58  86 119 157 198 244 301 360
#     4   9  20  37  57  85 117 151 195 243 292 351
#     4   9  20  33  54  86 121 152 190 238 296 353
#
# _framework density 18.837848999999999
#
# number of rings (size 3 to 8) (size 9 to 14) (size 15 to 20)
#    1.200    1.200    0.000    1.800    2.800    3.200 
#    0.000    1.000    0.000    2.400    0.000    0.000 
#    0.000    0.000    0.000    0.000    0.000    0.000 
#
# Total GULP energy -247846.150784 kJ/mol
# GULP energy per Si atom -12392.307539 kJ/mol
# Density = 1.879497 g / cm^3
# Si number density = 18.837849 Si / 1000 Ang^3
#
#
#
# Elastic Constant Matrix: (Units=GPa)
#
#
# Indices 1 2 3 4 5 6 
#
# 1 121.4613 24.8045 41.6694 0.0000 0.0004 0.0001
# 2 24.8045 43.8940 4.8780 0.0000 0.0007 -0.0001
# 3 41.6694 4.8780 90.5568 0.0001 -0.0007 0.0008
# 4 0.0000 0.0000 0.0001 13.7304 0.0000 -0.0001
# 5 0.0004 0.0007 -0.0007 0.0000 16.0669 0.0003
# 6 0.0001 -0.0001 0.0008 -0.0001 0.0003 27.8294
#
#
#
# Elastic Compliance Matrix: (Units=1/GPa)
#
#
# Indices 1 2 3 4 5 6 
#
# 1 0.011035 -0.005706 -0.004770 0.000000 0.000000 0.000000
# 2 -0.005706 0.025870 0.001232 0.000000 -0.000001 0.000000
# 3 -0.004770 0.001232 0.013171 0.000000 0.000001 0.000000
# 4 0.000000 0.000000 0.000000 0.072831 0.000000 0.000000
# 5 0.000000 -0.000001 0.000001 0.000000 0.062240 -0.000001
# 6 0.000000 0.000000 0.000000 0.000000 -0.000001 0.035933
#
#
# Mechanical properties :
#
#
# Convention : Reuss Voigt Hill
#
# Bulk Modulus (GPa) = 31.65782 44.29066 37.97424
# Shear Modulus (GPa) = 19.99226 23.82937 21.91081
#
# Velocity S-wave (km/s) = 3.26127 3.56050 3.41417
# Velocity P-wave (km/s) = 5.56983 6.36125 5.97865
#
# Compressibility (1/GPa) = 0.03158777
#
# Stress axis : x y z
#
# Youngs Moduli (GPa) = 90.62243 38.65555 75.92167
#
# Poissons Ratio (x) = 0.22055 0.36217
# Poissons Ratio (y) = 0.51706 -0.09353
# Poissons Ratio (z) = 0.43229 -0.04762
#
# Static dielectric constant tensor:
#      x y z
#    x 3.581730 0.000000 0.000000 
#    y 0.000000 3.040690 0.000000 
#    z 0.000000 0.000000 3.441260 
# 
# 
# High freq. dielectric constant tensor:
#      x y z
#    x 1.749240 0.000000 0.000000 
#    y 0.000000 1.693780 0.000000 
#    z 0.000000 0.000000 1.730030 
# 
# From -- ./inp_files/9168.got.cif
#   From: 2010.03.12/outbox.cif.g09.slc.cpg/sg46_5_cif.got.tgz:9168.got - 2010.04.14 02:56:35.
