data_PCOD8193683
_publ_section_title
;
Structure prediction by ZEFSAII (Michael W. Deem and Ramdas Pophale) SiO2 
 PCOD8193683
Probable space group: P M M M
;
_chemical_formula_sum "Si O2"
_cell_formula_units_Z 52
_cell_length_a 19.059364
_cell_length_b 17.051422
_cell_length_c 8.041770
_cell_angle_alpha 90.000000
_cell_angle_beta 90.000000
_cell_angle_gamma 90.000000
_cell_volume 2613.488870
_symmetry_space_group_name_H-M "P M M M"
_symmetry_group_IT_number 47
_symmetry_cell_setting 'orthorhombic'
loop_
_space_group_symop_operation_xyz
x,y,z
-x,-y,z
x,-y,-z
-x,y,-z
-x,-y,-z
x,y,-z
-x,y,z
x,-y,z
loop_
_atom_site_type_symbol
_atom_site_label
_atom_site_fract_x
_atom_site_fract_y
_atom_site_fract_z
Si Si1 0.855660 0.000000 0.305461
Si Si2 0.417223 0.590067 0.500000
Si Si3 0.303948 0.000000 0.303202
Si Si4 0.658667 0.667600 0.190471
Si Si5 0.689803 0.831152 0.309752
Si Si6 0.157847 0.159707 0.186470
Si Si7 0.804856 0.588446 0.806854
Si Si8 0.078654 0.695931 0.310645
O O1 0.886926 0.919021 0.231748
O O2 0.867417 0.000000 0.500000
O O3 0.775598 0.000000 0.241263
O O4 0.392177 0.500000 0.500000
O O5 0.500000 0.597279 0.500000
O O6 0.391618 0.629965 0.671429
O O7 0.338826 0.917104 0.244456
O O8 0.303180 0.000000 0.500000
O O9 0.655573 0.762218 0.200582
O O10 0.737230 0.640815 0.234529
O O11 0.637934 0.642669 0.000000
O O12 0.667248 0.817049 0.500000
O O13 0.774595 0.830174 0.304810
O O14 0.105899 0.232755 0.199637
O O15 0.186716 0.155819 0.000000
O O16 0.789409 0.500000 0.747921
O O17 0.872054 0.620173 0.709005
O O18 0.822798 0.592102 0.000000
O O19 0.079688 0.724116 0.500000
O O20 0.000000 0.673201 0.254065
#
# Coordination Sequence:
#
# PCOD8193683 Si02
#       8
#     4   4   4   8   8   8   8   8
#     4   9  17  31  50  72 103 145 188 237 298 357
#     4  11  26  46  68  97 130 168 208 244 296 364
#     4   7  14  25  45  78 118 157 193 240 295 348
#     4  11  22  39  64  97 129 162 204 253 303 357
#     4  10  17  31  54  85 123 161 201 247 300 356
#     4  11  20  32  51  78 109 145 192 246 300 357
#     4  10  22  39  59  84 112 145 191 245 301 357
#     4  11  24  39  54  75 106 147 193 242 301 364
#
# _framework density 19.896774000000001
#
# number of rings (size 3 to 8) (size 9 to 14) (size 15 to 20)
#    0.000    1.769    2.308    3.923    1.077    3.077 
#    0.000    3.846    0.000    2.308    0.000    1.077 
#    0.000    1.231    0.000    0.000    0.000    0.000 
#
# Total GULP energy -644540.854579 kJ/mol
# GULP energy per Si atom -12395.016434 kJ/mol
# Density = 1.985149 g / cm^3
# Si number density = 19.896774 Si / 1000 Ang^3
#
#
#
# Elastic Constant Matrix: (Units=GPa)
#
#
# Indices 1 2 3 4 5 6 
#
# 1 54.3960 31.6672 24.8427 0.0000 0.0000 0.0000
# 2 31.6672 158.5991 36.4754 0.0000 0.0000 0.0000
# 3 24.8427 36.4754 87.4915 0.0000 0.0000 0.0000
# 4 0.0000 0.0000 0.0000 29.7841 0.0000 0.0000
# 5 0.0000 0.0000 0.0000 0.0000 18.5715 0.0000
# 6 0.0000 0.0000 0.0000 0.0000 0.0000 17.8654
#
#
#
# Elastic Compliance Matrix: (Units=1/GPa)
#
#
# Indices 1 2 3 4 5 6 
#
# 1 0.022637 -0.003364 -0.005025 0.000000 0.000000 0.000000
# 2 -0.003364 0.007474 -0.002161 0.000000 0.000000 0.000000
# 3 -0.005025 -0.002161 0.013757 0.000000 0.000000 0.000000
# 4 0.000000 0.000000 0.000000 0.033575 0.000000 0.000000
# 5 0.000000 0.000000 0.000000 0.000000 0.053846 0.000000
# 6 0.000000 0.000000 0.000000 0.000000 0.000000 0.055974
#
#
# Mechanical properties :
#
#
# Convention : Reuss Voigt Hill
#
# Bulk Modulus (GPa) = 43.92052 54.05080 48.98566
# Shear Modulus (GPa) = 23.15321 27.07762 25.11542
#
# Velocity S-wave (km/s) = 3.41496 3.69305 3.55672
# Velocity P-wave (km/s) = 6.13770 6.73865 6.44518
#
# Compressibility (1/GPa) = 0.02276840
#
# Stress axis : x y z
#
# Youngs Moduli (GPa) = 44.17507 133.79999 72.68867
#
# Poissons Ratio (x) = 0.45013 0.36527
# Poissons Ratio (y) = 0.14861 0.15705
# Poissons Ratio (z) = 0.22199 0.28909
#
# Static dielectric constant tensor:
#      x y z
#    x 3.086100 0.000000 0.000000 
#    y 0.000000 4.105120 0.000000 
#    z 0.000000 0.000000 3.563000 
# 
# 
# High freq. dielectric constant tensor:
#      x y z
#    x 1.710450 0.000000 0.000000 
#    y 0.000000 1.800170 0.000000 
#    z 0.000000 0.000000 1.778690 
# 
# From -- ./inp_files/9650.got.cif
#   From: 2010.03.12/outbox.cif.g09.slc.cpg/sg47_5_cif.got.tgz:9650.got - 2010.04.14 03:12:58.
