data_PCOD8193362
_publ_section_title
;
Structure prediction by ZEFSAII (Michael W. Deem and Ramdas Pophale) SiO2 
 PCOD8193362
Probable space group: I M A 2
;
_chemical_formula_sum "Si O2"
_cell_formula_units_Z 48
_cell_length_a 16.693917
_cell_length_b 14.179965
_cell_length_c 9.758908
_cell_angle_alpha 90.000000
_cell_angle_beta 90.000000
_cell_angle_gamma 90.000000
_cell_volume 2310.120492
_symmetry_space_group_name_H-M "I M A 2"
_symmetry_group_IT_number 46
_symmetry_cell_setting 'orthorhombic'
loop_
_space_group_symop_operation_xyz
x,y,z
-x,-y,z
1/2-x,y,z
1/2+x,-y,z
1/2+x,1/2+y,1/2+z
1/2-x,1/2-y,1/2+z
-x,1/2+y,1/2+z
x,1/2-y,1/2+z
loop_
_atom_site_type_symbol
_atom_site_label
_atom_site_fract_x
_atom_site_fract_y
_atom_site_fract_z
Si Si1 0.909965 0.968152 0.090080
Si Si2 0.844244 0.668249 0.803676
Si Si3 0.658906 0.161872 0.159442
Si Si4 0.069374 0.751560 0.416333
Si Si5 0.045572 0.092674 0.521464
Si Si6 0.573725 0.634103 0.322825
O O1 0.890645 0.872117 0.171744
O O2 0.850318 0.050106 0.137800
O O3 0.895638 0.943577 0.930816
O O4 0.000000 0.000000 0.121787
O O5 0.750000 0.656130 0.787422
O O6 0.865993 0.777796 0.817549
O O7 0.873615 0.608520 0.934650
O O8 0.750000 0.185374 0.195100
O O9 0.605533 0.195575 0.286059
O O10 0.637139 0.214351 0.018404
O O11 0.013239 0.819692 0.504018
O O12 0.016050 0.664033 0.365560
O O13 0.071905 0.081366 0.678182
O O14 0.000000 0.000000 0.468992
#
# Coordination Sequence:
#
# PCOD8193362 Si02
#       6
#     8   8   8   8   8   8
#     4  12  23  42  68  96 128 173 227 270 322 402
#     4  11  24  42  64  96 132 168 212 270 336 389
#     4  12  25  41  67  98 134 176 222 280 340 397
#     4  11  22  44  64  94 132 173 225 268 328 403
#     4  11  23  40  66  94 125 173 218 266 321 392
#     4  11  23  40  68  93 124 173 220 268 323 390
#
# _framework density 20.778137000000001
#
# number of rings (size 3 to 8) (size 9 to 14) (size 15 to 20)
#    0.000    0.667    3.333    7.000    0.000    3.333 
#    0.000    0.833    0.000    0.000    0.000    0.000 
#    0.000    0.000    0.000    0.000    0.000    0.000 
#
# Total GULP energy -297758.446493 kJ/mol
# GULP energy per Si atom -12406.601937 kJ/mol
# Density = 2.073085 g / cm^3
# Si number density = 20.778137 Si / 1000 Ang^3
#
#
#
# Elastic Constant Matrix: (Units=GPa)
#
#
# Indices 1 2 3 4 5 6 
#
# 1 103.7685 18.1295 25.7555 0.0000 0.0000 0.0000
# 2 18.1295 70.3425 19.9896 0.0000 0.0000 0.0000
# 3 25.7555 19.9896 124.9323 0.0000 0.0000 0.0000
# 4 0.0000 0.0000 0.0000 35.2347 0.0000 0.0000
# 5 0.0000 0.0000 0.0000 0.0000 15.4294 0.0000
# 6 0.0000 0.0000 0.0000 0.0000 0.0000 25.5839
#
#
#
# Elastic Compliance Matrix: (Units=1/GPa)
#
#
# Indices 1 2 3 4 5 6 
#
# 1 0.010467 -0.002184 -0.001808 0.000000 0.000000 0.000000
# 2 -0.002184 0.015349 -0.002006 0.000000 0.000000 0.000000
# 3 -0.001808 -0.002006 0.008698 0.000000 0.000000 0.000000
# 4 0.000000 0.000000 0.000000 0.028381 0.000000 0.000000
# 5 0.000000 0.000000 0.000000 0.000000 0.064811 0.000000
# 6 0.000000 0.000000 0.000000 0.000000 0.000000 0.039087
#
#
# Mechanical properties :
#
#
# Convention : Reuss Voigt Hill
#
# Bulk Modulus (GPa) = 44.40823 47.42139 45.91481
# Shear Modulus (GPa) = 26.83905 30.92751 28.88328
#
# Velocity S-wave (km/s) = 3.59792 3.86225 3.73242
# Velocity P-wave (km/s) = 6.21924 6.53923 6.38124
#
# Compressibility (1/GPa) = 0.02251835
#
# Stress axis : x y z
#
# Youngs Moduli (GPa) = 95.53620 65.15100 114.96793
#
# Poissons Ratio (x) = 0.14228 0.20792
# Poissons Ratio (y) = 0.20863 0.23059
# Poissons Ratio (z) = 0.17277 0.13067
#
# Static dielectric constant tensor:
#      x y z
#    x 3.592200 0.000000 0.000000 
#    y 0.000000 3.774280 0.000000 
#    z 0.000000 0.000000 3.888500 
# 
# 
# High freq. dielectric constant tensor:
#      x y z
#    x 1.799820 0.000000 0.000000 
#    y 0.000000 1.817990 0.000000 
#    z 0.000000 0.000000 1.830310 
# 
# From -- ./inp_files/6583.got.cif
#   From: 2010.03.12/outbox.cif.g09.slc.cpg/sg46_4_cif.got.tgz:6583.got - 2010.04.14 02:56:35.
