data_PCOD8193711
_publ_section_title
;
Structure prediction by ZEFSAII (Michael W. Deem and Ramdas Pophale) SiO2 
 PCOD8193711
Probable space group: P M M M
;
_chemical_formula_sum "Si O2"
_cell_formula_units_Z 64
_cell_length_a 23.887411
_cell_length_b 9.084974
_cell_length_c 19.102857
_cell_angle_alpha 90.000000
_cell_angle_beta 90.000000
_cell_angle_gamma 90.000000
_cell_volume 4145.635316
_symmetry_space_group_name_H-M "P M M M"
_symmetry_group_IT_number 47
_symmetry_cell_setting 'orthorhombic'
loop_
_space_group_symop_operation_xyz
x,y,z
-x,-y,z
x,-y,-z
-x,y,-z
-x,-y,-z
x,y,-z
-x,y,z
x,-y,z
loop_
_atom_site_type_symbol
_atom_site_label
_atom_site_fract_x
_atom_site_fract_y
_atom_site_fract_z
Si Si1 0.669953 0.174561 0.657098
Si Si2 0.561695 0.174620 0.421740
Si Si3 0.721745 0.331912 0.780443
Si Si4 0.937133 0.673044 0.203510
Si Si5 0.767463 0.330138 0.077814
Si Si6 0.230401 0.674196 0.579474
Si Si7 0.837515 0.669314 0.293928
Si Si8 0.883191 0.170631 0.920376
O O1 0.608523 0.229303 0.632944
O O2 0.679777 0.229047 0.736651
O O3 0.713418 0.244653 0.602831
O O4 0.676247 0.000000 0.654544
O O5 0.575006 0.234369 0.500000
O O6 0.500000 0.230713 0.397758
O O7 0.562048 0.000000 0.424027
O O8 0.704232 0.500000 0.765761
O O9 0.719977 0.293941 0.863611
O O10 0.785505 0.303154 0.757341
O O11 0.927133 0.500000 0.193298
O O12 0.893398 0.741842 0.260520
O O13 0.927682 0.748302 0.128668
O O14 0.000000 0.707035 0.229487
O O15 0.786106 0.500000 0.085996
O O16 0.821195 0.231442 0.092020
O O17 0.742654 0.299994 0.000000
O O18 0.215639 0.715498 0.500000
O O19 0.240224 0.500000 0.589655
O O20 0.179017 0.730150 0.628764
O O21 0.851739 0.500000 0.302607
O O22 0.882290 0.000000 0.901147
O O23 0.902469 0.197874 0.000000
#
# Coordination Sequence:
#
# PCOD8193711 Si02
#       8
#     8   8   8   8   8   8   8   8
#     4  10  18  26  41  66  91 113 143 181 210 242
#     4   8  14  25  40  58  84 119 153 182 211 240
#     4   9  16  28  44  61  86 115 138 168 212 256
#     4  10  19  31  47  62  77 104 144 182 208 243
#     4   9  16  28  47  65  82 110 146 175 201 246
#     4   9  17  29  45  62  83 112 139 168 213 262
#     4   8  14  27  43  60  79 101 131 166 207 251
#     4  10  20  31  43  61  86 111 134 168 213 255
#
# _framework density 15.437924000000001
#
# number of rings (size 3 to 8) (size 9 to 14) (size 15 to 20)
#    0.000    2.875    1.250    2.250    0.000    2.500 
#    0.000    1.250    0.000    1.875    0.000    7.000 
#    0.000    0.500    0.000   10.625    0.000    5.500 
#
# Total GULP energy -793104.224148 kJ/mol
# GULP energy per Si atom -12392.253502 kJ/mol
# Density = 1.540279 g / cm^3
# Si number density = 15.437924 Si / 1000 Ang^3
#
#
#
# Elastic Constant Matrix: (Units=GPa)
#
#
# Indices 1 2 3 4 5 6 
#
# 1 100.7788 31.2100 62.4150 0.0000 0.0000 0.0000
# 2 31.2100 40.2752 32.6282 0.0000 0.0000 0.0000
# 3 62.4150 32.6282 121.5701 0.0000 0.0000 0.0000
# 4 0.0000 0.0000 0.0000 18.8735 0.0000 0.0000
# 5 0.0000 0.0000 0.0000 0.0000 24.7528 0.0000
# 6 0.0000 0.0000 0.0000 0.0000 0.0000 15.0785
#
#
#
# Elastic Compliance Matrix: (Units=1/GPa)
#
#
# Indices 1 2 3 4 5 6 
#
# 1 0.016103 -0.007387 -0.006285 0.000000 0.000000 0.000000
# 2 -0.007387 0.035116 -0.005632 0.000000 0.000000 0.000000
# 3 -0.006285 -0.005632 0.012964 0.000000 0.000000 0.000000
# 4 0.000000 0.000000 0.000000 0.052984 0.000000 0.000000
# 5 0.000000 0.000000 0.000000 0.000000 0.040399 0.000000
# 6 0.000000 0.000000 0.000000 0.000000 0.000000 0.066320
#
#
# Mechanical properties :
#
#
# Convention : Reuss Voigt Hill
#
# Bulk Modulus (GPa) = 39.10045 57.23673 48.16859
# Shear Modulus (GPa) = 18.44887 20.83234 19.64061
#
# Velocity S-wave (km/s) = 3.46068 3.67744 3.57070
# Velocity P-wave (km/s) = 6.43047 7.42882 6.94760
#
# Compressibility (1/GPa) = 0.02557515
#
# Stress axis : x y z
#
# Youngs Moduli (GPa) = 62.10178 28.47675 77.13679
#
# Poissons Ratio (x) = 0.21035 0.48478
# Poissons Ratio (y) = 0.45873 0.43447
# Poissons Ratio (z) = 0.39029 0.16039
#
# Static dielectric constant tensor:
#      x y z
#    x 2.926750 0.000000 0.000000 
#    y 0.000000 2.792330 0.000000 
#    z 0.000000 0.000000 3.254690 
# 
# 
# High freq. dielectric constant tensor:
#      x y z
#    x 1.559610 0.000000 0.000000 
#    y 0.000000 1.573350 0.000000 
#    z 0.000000 0.000000 1.594630 
# 
# From -- ./inp_files/31562.got.cif
#   From: 2010.03.12/outbox.cif.g09.slc.cpg/sg47_16_cif.got.tgz:31562.got - 2010.04.14 03:12:58.
