data_PCOD8193689
_publ_section_title
;
Structure prediction by ZEFSAII (Michael W. Deem and Ramdas Pophale) SiO2 
 PCOD8193689
Probable space group: P M M M
;
_chemical_formula_sum "Si O2"
_cell_formula_units_Z 56
_cell_length_a 15.444563
_cell_length_b 21.406951
_cell_length_c 8.870198
_cell_angle_alpha 90.000000
_cell_angle_beta 90.000000
_cell_angle_gamma 90.000000
_cell_volume 2932.673763
_symmetry_space_group_name_H-M "P M M M"
_symmetry_group_IT_number 47
_symmetry_cell_setting 'orthorhombic'
loop_
_space_group_symop_operation_xyz
x,y,z
-x,-y,z
x,-y,-z
-x,y,-z
-x,-y,-z
x,y,-z
-x,y,z
x,-y,z
loop_
_atom_site_type_symbol
_atom_site_label
_atom_site_fract_x
_atom_site_fract_y
_atom_site_fract_z
Si Si1 0.095386 0.631575 0.679092
Si Si2 0.400619 0.072266 0.326269
Si Si3 0.160439 0.500000 0.320950
Si Si4 0.254746 0.848896 0.822107
Si Si5 0.403332 0.621752 0.327887
Si Si6 0.653877 0.500000 0.823209
Si Si7 0.096108 0.070099 0.179147
Si Si8 0.252959 0.285628 0.321796
O O1 0.100703 0.629788 0.500000
O O2 0.113059 0.561845 0.741737
O O3 0.166853 0.679837 0.740481
O O4 0.000000 0.653054 0.733799
O O5 0.379555 0.087094 0.500000
O O6 0.500000 0.089159 0.290383
O O7 0.340568 0.113452 0.220139
O O8 0.382913 0.000000 0.290394
O O9 0.160054 0.500000 0.500000
O O10 0.257679 0.500000 0.266651
O O11 0.169412 0.883693 0.755608
O O12 0.259884 0.780689 0.754581
O O13 0.248929 0.843757 0.000000
O O14 0.381456 0.602271 0.500000
O O15 0.500000 0.650034 0.316013
O O16 0.399496 0.561183 0.222643
O O17 0.336085 0.674025 0.272187
O O18 0.671065 0.500000 0.000000
O O19 0.000000 0.092193 0.231979
O O20 0.114109 0.000000 0.239777
O O21 0.100304 0.069457 0.000000
O O22 0.249759 0.276394 0.500000
#
# Coordination Sequence:
#
# PCOD8193689 Si02
#       8
#     8   8   4   8   8   4   8   8
#     4   9  17  31  56  85 107 133 178 233 278 316
#     4   9  19  37  60  84 110 142 180 222 272 330
#     4  10  17  33  59  83 108 139 180 223 269 325
#     4  11  22  34  53  82 114 147 185 225 272 322
#     4  10  21  39  61  80 100 136 185 227 266 320
#     4  12  23  34  55  85 116 140 166 214 280 332
#     4   8  15  30  52  77 106 142 183 222 261 313
#     4  10  21  37  54  76 108 146 187 226 265 315
#
# _framework density 19.095203999999999
#
# number of rings (size 3 to 8) (size 9 to 14) (size 15 to 20)
#    0.000    2.286    1.429    2.786    0.000    4.857 
#    0.000    2.143    0.000    3.000    0.000    5.000 
#    0.000    0.000    0.000    0.000    0.000    0.000 
#
# Total GULP energy -694353.258533 kJ/mol
# GULP energy per Si atom -12399.165331 kJ/mol
# Density = 1.905174 g / cm^3
# Si number density = 19.095204 Si / 1000 Ang^3
#
#
#
# Elastic Constant Matrix: (Units=GPa)
#
#
# Indices 1 2 3 4 5 6 
#
# 1 151.6486 78.1919 17.0578 0.0000 0.0000 0.0000
# 2 78.1919 137.9238 31.1053 0.0000 0.0000 0.0000
# 3 17.0578 31.1053 21.1270 0.0000 0.0000 0.0000
# 4 0.0000 0.0000 0.0000 15.8054 0.0000 0.0000
# 5 0.0000 0.0000 0.0000 0.0000 14.4344 0.0000
# 6 0.0000 0.0000 0.0000 0.0000 0.0000 15.6402
#
#
#
# Elastic Compliance Matrix: (Units=1/GPa)
#
#
# Indices 1 2 3 4 5 6 
#
# 1 0.009320 -0.005370 0.000381 0.000000 0.000000 0.000000
# 2 -0.005370 0.013948 -0.016200 0.000000 0.000000 0.000000
# 3 0.000381 -0.016200 0.070877 0.000000 0.000000 0.000000
# 4 0.000000 0.000000 0.000000 0.063269 0.000000 0.000000
# 5 0.000000 0.000000 0.000000 0.000000 0.069279 0.000000
# 6 0.000000 0.000000 0.000000 0.000000 0.000000 0.063938
#
#
# Mechanical properties :
#
#
# Convention : Reuss Voigt Hill
#
# Bulk Modulus (GPa) = 19.31743 62.60105 40.95924
# Shear Modulus (GPa) = 14.27489 21.46564 17.87027
#
# Velocity S-wave (km/s) = 2.73713 3.35645 3.06249
# Velocity P-wave (km/s) = 4.48637 6.91924 5.83110
#
# Compressibility (1/GPa) = 0.05176673
#
# Stress axis : x y z
#
# Youngs Moduli (GPa) = 107.29641 71.69431 14.10891
#
# Poissons Ratio (x) = 0.38497 -0.00537
# Poissons Ratio (y) = 0.57613 0.22857
# Poissons Ratio (z) = -0.04085 1.16148
#
# Static dielectric constant tensor:
#      x y z
#    x 3.783460 0.000000 0.000000 
#    y 0.000000 3.556330 0.000000 
#    z 0.000000 0.000000 3.092580 
# 
# 
# High freq. dielectric constant tensor:
#      x y z
#    x 1.760800 0.000000 0.000000 
#    y 0.000000 1.740160 0.000000 
#    z 0.000000 0.000000 1.702200 
# 
# From -- ./inp_files/7421.got.cif
#   From: 2010.03.12/outbox.cif.g09.slc.cpg/sg47_4_cif.got.tgz:7421.got - 2010.04.14 03:12:58.
