data_PCOD8193392
_publ_section_title
;
Structure prediction by ZEFSAII (Michael W. Deem and Ramdas Pophale) SiO2 
 PCOD8193392
Probable space group: I M A 2
;
_chemical_formula_sum "Si O2"
_cell_formula_units_Z 48
_cell_length_a 30.429374
_cell_length_b 7.621440
_cell_length_c 9.105338
_cell_angle_alpha 90.000000
_cell_angle_beta 90.000000
_cell_angle_gamma 90.000000
_cell_volume 2111.670364
_symmetry_space_group_name_H-M "I M A 2"
_symmetry_group_IT_number 46
_symmetry_cell_setting 'orthorhombic'
loop_
_space_group_symop_operation_xyz
x,y,z
-x,-y,z
1/2-x,y,z
1/2+x,-y,z
1/2+x,1/2+y,1/2+z
1/2-x,1/2-y,1/2+z
-x,1/2+y,1/2+z
x,1/2-y,1/2+z
loop_
_atom_site_type_symbol
_atom_site_label
_atom_site_fract_x
_atom_site_fract_y
_atom_site_fract_z
Si Si1 0.162183 0.077430 0.412620
Si Si2 0.513306 0.822487 0.218839
Si Si3 0.930835 0.874021 0.494669
Si Si4 0.418880 0.811271 0.694607
Si Si5 0.301012 0.382809 0.588034
Si Si6 0.361166 0.674016 0.471070
O O1 0.115265 0.181803 0.422874
O O2 0.192725 0.184738 0.526635
O O3 0.180080 0.102971 0.250600
O O4 0.159944 0.869994 0.454671
O O5 0.530134 0.874545 0.379076
O O6 0.553402 0.734960 0.134813
O O7 0.469121 0.712636 0.244054
O O8 0.500000 0.000000 0.132871
O O9 0.920921 0.066856 0.552124
O O10 0.391246 0.651622 0.620522
O O11 0.391704 0.880672 0.833214
O O12 0.250000 0.427800 0.592326
O O13 0.323007 0.529726 0.482537
#
# Coordination Sequence:
#
# PCOD8193392 Si02
#       6
#     8   8   8   8   8   8
#     4  11  26  50  74 109 150 192 241 305 375 441
#     4  12  24  40  65 104 142 190 241 302 347 427
#     4  11  26  44  66 102 141 195 247 295 362 433
#     4  11  24  46  68 101 147 188 247 292 361 427
#     4  12  28  48  77 111 142 189 248 307 378 451
#     4  11  25  48  75 106 144 204 236 304 370 442
#
# _framework density 22.730819
#
# number of rings (size 3 to 8) (size 9 to 14) (size 15 to 20)
#    0.000    0.667    1.667    6.000    9.333    2.667 
#    0.000    0.000    0.000    0.000    0.000    0.000 
#    0.000    0.000    0.000    0.000    0.000    0.000 
#
# Total GULP energy -297440.022502 kJ/mol
# GULP energy per Si atom -12393.334271 kJ/mol
# Density = 2.267908 g / cm^3
# Si number density = 22.730819 Si / 1000 Ang^3
#
#
#
# Elastic Constant Matrix: (Units=GPa)
#
#
# Indices 1 2 3 4 5 6 
#
# 1 172.6139 46.0637 93.2406 0.0000 0.0000 0.0000
# 2 46.0637 86.1093 21.2661 0.0000 0.0000 0.0000
# 3 93.2406 21.2661 71.6832 0.0000 0.0000 0.0000
# 4 0.0000 0.0000 0.0000 31.8646 0.0000 0.0000
# 5 0.0000 0.0000 0.0000 0.0000 40.4473 0.0000
# 6 0.0000 0.0000 0.0000 0.0000 0.0000 27.6775
#
#
#
# Elastic Compliance Matrix: (Units=1/GPa)
#
#
# Indices 1 2 3 4 5 6 
#
# 1 0.021236 -0.004897 -0.026170 0.000000 0.000000 0.000000
# 2 -0.004897 0.013661 0.002317 0.000000 0.000000 0.000000
# 3 -0.026170 0.002317 0.047303 0.000000 0.000000 0.000000
# 4 0.000000 0.000000 0.000000 0.031383 0.000000 0.000000
# 5 0.000000 0.000000 0.000000 0.000000 0.024724 0.000000
# 6 0.000000 0.000000 0.000000 0.000000 0.000000 0.036130
#
#
# Mechanical properties :
#
#
# Convention : Reuss Voigt Hill
#
# Bulk Modulus (GPa) = 40.48575 72.39413 56.43994
# Shear Modulus (GPa) = 20.81866 31.32027 26.06947
#
# Velocity S-wave (km/s) = 3.02963 3.71600 3.39023
# Velocity P-wave (km/s) = 5.48524 7.09431 6.34102
#
# Compressibility (1/GPa) = 0.02470005
#
# Stress axis : x y z
#
# Youngs Moduli (GPa) = 47.08932 73.20333 21.14044
#
# Poissons Ratio (x) = 0.35849 0.55324
# Poissons Ratio (y) = 0.23060 -0.04899
# Poissons Ratio (z) = 1.23232 -0.16963
#
# Static dielectric constant tensor:
#      x y z
#    x 4.379170 0.000000 0.000000 
#    y 0.000000 4.181660 0.000000 
#    z 0.000000 0.000000 4.096040 
# 
# 
# High freq. dielectric constant tensor:
#      x y z
#    x 1.903670 0.000000 0.000000 
#    y 0.000000 1.891100 0.000000 
#    z 0.000000 0.000000 1.908630 
# 
# From -- ./inp_files/8393.got.cif
#   From: 2010.03.12/outbox.cif.g09.slc.cpg/sg46_5_cif.got.tgz:8393.got - 2010.04.14 02:56:35.
