data_PCOD8193259
_publ_section_title
;
Structure prediction by ZEFSAII (Michael W. Deem and Ramdas Pophale) SiO2 
 PCOD8193259
Probable space group: I M A 2
;
_chemical_formula_sum "Si O2"
_cell_formula_units_Z 48
_cell_length_a 23.071420
_cell_length_b 8.139169
_cell_length_c 12.328206
_cell_angle_alpha 90.000000
_cell_angle_beta 90.000000
_cell_angle_gamma 90.000000
_cell_volume 2315.017478
_symmetry_space_group_name_H-M "I M A 2"
_symmetry_group_IT_number 46
_symmetry_cell_setting 'orthorhombic'
loop_
_space_group_symop_operation_xyz
x,y,z
-x,-y,z
1/2-x,y,z
1/2+x,-y,z
1/2+x,1/2+y,1/2+z
1/2-x,1/2-y,1/2+z
-x,1/2+y,1/2+z
x,1/2-y,1/2+z
loop_
_atom_site_type_symbol
_atom_site_label
_atom_site_fract_x
_atom_site_fract_y
_atom_site_fract_z
Si Si1 0.250000 0.377598 0.390700
Si Si2 0.000000 0.500000 0.472055
Si Si3 0.509181 0.319565 0.831071
Si Si4 0.344854 0.160582 0.503442
Si Si5 0.750000 0.273074 0.320086
Si Si6 0.632788 0.423756 0.816540
Si Si7 0.079573 0.383438 0.640479
Si Si8 0.250000 0.467728 0.155439
O O1 0.307331 0.302694 0.445002
O O2 0.250000 0.576155 0.406990
O O3 0.250000 0.342771 0.259843
O O4 0.990792 0.664864 0.402663
O O5 0.055636 0.512387 0.551009
O O6 0.500000 0.500000 0.886989
O O7 0.578289 0.298789 0.809261
O O8 0.471922 0.321003 0.720022
O O9 0.395747 0.228298 0.577826
O O10 0.306007 0.051069 0.581915
O O11 0.376480 0.049705 0.414915
O O12 0.806584 0.164066 0.336063
O O13 0.750000 0.344970 0.198261
O O14 0.631872 0.528898 0.705457
#
# Coordination Sequence:
#
# PCOD8193259 Si02
#       8
#     4   4   8   8   4   8   8   4
#     4   9  22  42  62 103 137 169 234 276 335 436
#     4  12  24  44  74  94 140 196 224 292 378 398
#     4  10  24  47  66 104 144 175 243 295 340 436
#     4  11  22  41  74  94 134 191 223 284 354 416
#     4  10  24  41  63  97 141 172 221 289 339 414
#     4  11  23  45  67  97 146 171 228 297 336 414
#     4  11  23  44  68 103 134 179 244 283 349 425
#     4   9  22  41  61 100 134 169 239 261 352 422
#
# _framework density 20.734183999999999
#
# number of rings (size 3 to 8) (size 9 to 14) (size 15 to 20)
#    0.500    1.000    2.500    4.000    2.333    4.000 
#    7.500    0.000    0.000    0.000    0.000    0.000 
#    0.000    0.000    0.000    0.000    0.000    0.000 
#
# Total GULP energy -297411.260624 kJ/mol
# GULP energy per Si atom -12392.135859 kJ/mol
# Density = 2.068699 g / cm^3
# Si number density = 20.734184 Si / 1000 Ang^3
#
#
#
# Elastic Constant Matrix: (Units=GPa)
#
#
# Indices 1 2 3 4 5 6 
#
# 1 113.6013 37.4975 30.3678 0.0000 0.0000 0.0000
# 2 37.4975 111.2530 58.8385 0.0000 0.0000 0.0000
# 3 30.3678 58.8385 113.5456 0.0000 0.0000 0.0000
# 4 0.0000 0.0000 0.0000 26.6049 0.0000 0.0000
# 5 0.0000 0.0000 0.0000 0.0000 34.4323 0.0000
# 6 0.0000 0.0000 0.0000 0.0000 0.0000 14.4400
#
#
#
# Elastic Compliance Matrix: (Units=1/GPa)
#
#
# Indices 1 2 3 4 5 6 
#
# 1 0.010039 -0.002705 -0.001283 0.000000 0.000000 0.000000
# 2 -0.002705 0.013111 -0.006070 0.000000 0.000000 0.000000
# 3 -0.001283 -0.006070 0.012296 0.000000 0.000000 0.000000
# 4 0.000000 0.000000 0.000000 0.037587 0.000000 0.000000
# 5 0.000000 0.000000 0.000000 0.000000 0.029042 0.000000
# 6 0.000000 0.000000 0.000000 0.000000 0.000000 0.069252
#
#
# Mechanical properties :
#
#
# Convention : Reuss Voigt Hill
#
# Bulk Modulus (GPa) = 65.23933 65.75638 65.49785
# Shear Modulus (GPa) = 25.43844 29.20852 27.32348
#
# Velocity S-wave (km/s) = 3.50649 3.75735 3.63409
# Velocity P-wave (km/s) = 6.92293 7.11382 7.01902
#
# Compressibility (1/GPa) = 0.01532818
#
# Stress axis : x y z
#
# Youngs Moduli (GPa) = 99.61597 76.27389 81.32805
#
# Poissons Ratio (x) = 0.20631 0.10436
# Poissons Ratio (y) = 0.26944 0.49370
# Poissons Ratio (z) = 0.12783 0.46302
#
# Static dielectric constant tensor:
#      x y z
#    x 4.004630 0.000000 0.000000 
#    y 0.000000 3.568180 0.000000 
#    z 0.000000 0.000000 3.872340 
# 
# 
# High freq. dielectric constant tensor:
#      x y z
#    x 1.822270 0.000000 0.000000 
#    y 0.000000 1.793500 0.000000 
#    z 0.000000 0.000000 1.817980 
# 
# From -- ./inp_files/12763.got.cif
#   From: 2010.03.12/outbox.cif.g09.slc.cpg/sg46_7_cif.got.tgz:12763.got - 2010.04.14 02:56:35.
