data_PCOD8193213
_publ_section_title
;
Structure prediction by ZEFSAII (Michael W. Deem and Ramdas Pophale) SiO2 
 PCOD8193213
Probable space group: I M A 2
;
_chemical_formula_sum "Si O2"
_cell_formula_units_Z 40
_cell_length_a 20.596356
_cell_length_b 9.261409
_cell_length_c 8.885823
_cell_angle_alpha 90.000000
_cell_angle_beta 90.000000
_cell_angle_gamma 90.000000
_cell_volume 1694.982083
_symmetry_space_group_name_H-M "I M A 2"
_symmetry_group_IT_number 46
_symmetry_cell_setting 'orthorhombic'
loop_
_space_group_symop_operation_xyz
x,y,z
-x,-y,z
1/2-x,y,z
1/2+x,-y,z
1/2+x,1/2+y,1/2+z
1/2-x,1/2-y,1/2+z
-x,1/2+y,1/2+z
x,1/2-y,1/2+z
loop_
_atom_site_type_symbol
_atom_site_label
_atom_site_fract_x
_atom_site_fract_y
_atom_site_fract_z
Si Si1 0.463595 0.153683 0.261840
Si Si2 0.545668 0.347737 0.469747
Si Si3 0.114428 0.930505 0.451509
Si Si4 0.250000 0.348003 0.251170
Si Si5 0.250000 0.060624 0.414148
Si Si6 0.110410 0.424274 0.265717
O O1 0.490162 0.260611 0.387297
O O2 0.403907 0.257872 0.213343
O O3 0.437709 0.002834 0.335310
O O4 0.518352 0.121172 0.136112
O O5 0.608347 0.242946 0.461752
O O6 0.565687 0.503746 0.398268
O O7 0.186852 0.961333 0.396514
O O8 0.097963 0.982366 0.618251
O O9 0.250000 0.178702 0.284427
O O10 0.185836 0.426966 0.317394
O O11 0.250000 0.356461 0.071501
#
# Coordination Sequence:
#
# PCOD8193213 Si02
#       6
#     8   8   8   4   4   8
#     4  12  24  43  70  98 144 182 230 287 353 427
#     4  12  26  43  68 104 142 185 234 286 361 419
#     4  11  24  46  70 103 142 186 234 296 351 422
#     4  10  22  45  72 102 136 186 240 293 351 421
#     4  10  22  45  72 100 140 184 238 293 353 423
#     4  11  24  46  70 102 144 184 235 297 350 423
#
# _framework density 23.599069
#
# number of rings (size 3 to 8) (size 9 to 14) (size 15 to 20)
#    0.000    0.800    6.000    1.200    0.000    4.000 
#    3.600    0.000    0.000    0.000    0.000    0.000 
#    0.000    0.000    0.000    0.000    0.000    0.000 
#
# Total GULP energy -247885.912005 kJ/mol
# GULP energy per Si atom -12394.295600 kJ/mol
# Density = 2.354536 g / cm^3
# Si number density = 23.599069 Si / 1000 Ang^3
#
#
#
# Elastic Constant Matrix: (Units=GPa)
#
#
# Indices 1 2 3 4 5 6 
#
# 1 152.7160 50.7827 56.7238 0.0000 0.0000 0.0000
# 2 50.7827 176.3839 39.6474 0.0000 0.0000 0.0000
# 3 56.7238 39.6474 86.1862 0.0000 0.0000 0.0000
# 4 0.0000 0.0000 0.0000 40.6906 0.0000 0.0000
# 5 0.0000 0.0000 0.0000 0.0000 27.1466 0.0000
# 6 0.0000 0.0000 0.0000 0.0000 0.0000 36.2659
#
#
#
# Elastic Compliance Matrix: (Units=1/GPa)
#
#
# Indices 1 2 3 4 5 6 
#
# 1 0.008966 -0.001400 -0.005257 0.000000 0.000000 0.000000
# 2 -0.001400 0.006542 -0.002088 0.000000 0.000000 0.000000
# 3 -0.005257 -0.002088 0.016023 0.000000 0.000000 0.000000
# 4 0.000000 0.000000 0.000000 0.024576 0.000000 0.000000
# 5 0.000000 0.000000 0.000000 0.000000 0.036837 0.000000
# 6 0.000000 0.000000 0.000000 0.000000 0.000000 0.027574
#
#
# Mechanical properties :
#
#
# Convention : Reuss Voigt Hill
#
# Bulk Modulus (GPa) = 71.21866 78.84378 75.03122
# Shear Modulus (GPa) = 35.04121 38.69610 36.86866
#
# Velocity S-wave (km/s) = 3.85756 4.05375 3.95687
# Velocity P-wave (km/s) = 7.07709 7.44263 7.26216
#
# Compressibility (1/GPa) = 0.01404126
#
# Stress axis : x y z
#
# Youngs Moduli (GPa) = 111.52879 152.86267 62.40843
#
# Poissons Ratio (x) = 0.21397 0.32810
# Poissons Ratio (y) = 0.15611 0.13032
# Poissons Ratio (z) = 0.58634 0.31919
#
# Static dielectric constant tensor:
#      x y z
#    x 4.530390 0.000000 0.000000 
#    y 0.000000 4.821210 0.000000 
#    z 0.000000 0.000000 4.160760 
# 
# 
# High freq. dielectric constant tensor:
#      x y z
#    x 1.942070 0.000000 0.000000 
#    y 0.000000 1.952400 0.000000 
#    z 0.000000 0.000000 1.932820 
# 
# From -- ./inp_files/7741.got.cif
#   From: 2010.03.12/outbox.cif.g09.slc.cpg/sg46_4_cif.got.tgz:7741.got - 2010.04.14 02:56:35.
