data_PCOD8193919
_publ_section_title
;
Structure prediction by ZEFSAII (Michael W. Deem and Ramdas Pophale) SiO2 
 PCOD8193919
Probable space group: P M M M
;
_chemical_formula_sum "Si O2"
_cell_formula_units_Z 64
_cell_length_a 14.311382
_cell_length_b 29.036862
_cell_length_c 9.170954
_cell_angle_alpha 90.000000
_cell_angle_beta 90.000000
_cell_angle_gamma 90.000000
_cell_volume 3811.059856
_symmetry_space_group_name_H-M "P M M M"
_symmetry_group_IT_number 47
_symmetry_cell_setting 'orthorhombic'
loop_
_space_group_symop_operation_xyz
x,y,z
-x,-y,z
x,-y,-z
-x,y,-z
-x,-y,-z
x,y,-z
-x,y,z
x,-y,z
loop_
_atom_site_type_symbol
_atom_site_label
_atom_site_fract_x
_atom_site_fract_y
_atom_site_fract_z
Si Si1 0.234960 0.052121 0.831713
Si Si2 0.392357 0.097065 0.328486
Si Si3 0.389028 0.550271 0.835728
Si Si4 0.897818 0.774110 0.327724
Si Si5 0.109445 0.877082 0.665251
Si Si6 0.610532 0.188198 0.165022
Si Si7 0.393497 0.361188 0.670946
Si Si8 0.291116 0.269313 0.328038
O O1 0.331879 0.056526 0.742713
O O2 0.157485 0.086326 0.769843
O O3 0.198612 0.000000 0.812870
O O4 0.253834 0.063951 0.000000
O O5 0.375574 0.099734 0.500000
O O6 0.500000 0.087560 0.290303
O O7 0.354968 0.144482 0.257843
O O8 0.500000 0.550726 0.829919
O O9 0.353592 0.500000 0.778833
O O10 0.350503 0.592075 0.738458
O O11 0.353576 0.557924 0.000000
O O12 0.907231 0.776739 0.500000
O O13 0.869652 0.825466 0.274513
O O14 0.817725 0.737615 0.282303
O O15 0.000000 0.759472 0.263206
O O16 0.147822 0.882877 0.500000
O O17 0.000000 0.886798 0.668896
O O18 0.500000 0.190355 0.165722
O O19 0.645998 0.233965 0.240987
O O20 0.649046 0.184575 0.000000
O O21 0.392810 0.368033 0.500000
O O22 0.500000 0.351359 0.724883
O O23 0.325235 0.319903 0.718927
O O24 0.305951 0.261117 0.500000
#
# Coordination Sequence:
#
# PCOD8193919 Si02
#       8
#     8   8   8   8   8   8   8   8
#     4  11  24  38  52  73 100 126 150 182 228 279
#     4  10  21  37  56  74  92 119 156 194 228 266
#     4   8  14  25  40  56  76 109 154 196 230 268
#     4   8  15  29  49  71  91 113 146 186 224 262
#     4   9  18  34  56  78  97 120 154 193 229 270
#     4  10  20  32  47  69  96 124 153 185 223 268
#     4   9  17  26  36  57  90 123 154 188 226 268
#     4  10  18  28  45  67  93 125 157 189 225 268
#
# _framework density 16.793227999999999
#
# number of rings (size 3 to 8) (size 9 to 14) (size 15 to 20)
#    0.000    2.625    0.000    3.375    0.000    5.500 
#    0.000    5.000    0.000    1.125    0.000    0.000 
#    0.000    0.500    0.000    6.250    0.000    1.250 
#
# Total GULP energy -793363.778509 kJ/mol
# GULP energy per Si atom -12396.309039 kJ/mol
# Density = 1.675501 g / cm^3
# Si number density = 16.793228 Si / 1000 Ang^3
#
#
#
# Elastic Constant Matrix: (Units=GPa)
#
#
# Indices 1 2 3 4 5 6 
#
# 1 59.4139 53.6481 25.4311 0.0000 0.0000 0.0000
# 2 53.6481 122.8382 43.4870 0.0000 0.0000 0.0000
# 3 25.4311 43.4870 61.4498 0.0000 0.0000 0.0000
# 4 0.0000 0.0000 0.0000 22.8792 0.0000 0.0000
# 5 0.0000 0.0000 0.0000 0.0000 16.6772 0.0000
# 6 0.0000 0.0000 0.0000 0.0000 0.0000 17.5314
#
#
#
# Elastic Compliance Matrix: (Units=1/GPa)
#
#
# Indices 1 2 3 4 5 6 
#
# 1 0.028503 -0.011038 -0.003985 0.000000 0.000000 0.000000
# 2 -0.011038 0.015136 -0.006144 0.000000 0.000000 0.000000
# 3 -0.003985 -0.006144 0.022270 0.000000 0.000000 0.000000
# 4 0.000000 0.000000 0.000000 0.043708 0.000000 0.000000
# 5 0.000000 0.000000 0.000000 0.000000 0.059962 0.000000
# 6 0.000000 0.000000 0.000000 0.000000 0.000000 0.057040
#
#
# Mechanical properties :
#
#
# Convention : Reuss Voigt Hill
#
# Bulk Modulus (GPa) = 42.41370 54.31492 48.36431
# Shear Modulus (GPa) = 18.06276 19.49328 18.77802
#
# Velocity S-wave (km/s) = 3.28319 3.41072 3.34756
# Velocity P-wave (km/s) = 6.29950 6.92273 6.61846
#
# Compressibility (1/GPa) = 0.02357729
#
# Stress axis : x y z
#
# Youngs Moduli (GPa) = 35.08364 66.06592 44.90246
#
# Poissons Ratio (x) = 0.72922 0.17893
# Poissons Ratio (y) = 0.38724 0.27587
# Poissons Ratio (z) = 0.13981 0.40590
#
# Static dielectric constant tensor:
#      x y z
#    x 3.231720 0.000000 0.000000 
#    y 0.000000 3.284990 0.000000 
#    z 0.000000 0.000000 3.120410 
# 
# 
# High freq. dielectric constant tensor:
#      x y z
#    x 1.627560 0.000000 0.000000 
#    y 0.000000 1.638170 0.000000 
#    z 0.000000 0.000000 1.639610 
# 
# From -- ./inp_files/8345.got.cif
#   From: 2010.03.12/outbox.cif.g09.slc.cpg/sg47_5_cif.got.tgz:8345.got - 2010.04.14 03:12:58.
