data_PCOD8193050
_publ_section_title
;
Structure prediction by ZEFSAII (Michael W. Deem and Ramdas Pophale) SiO2 
 PCOD8193050
Probable space group: I M A 2
;
_chemical_formula_sum "Si O2"
_cell_formula_units_Z 32
_cell_length_a 16.029696
_cell_length_b 5.197425
_cell_length_c 16.717646
_cell_angle_alpha 90.000000
_cell_angle_beta 90.000000
_cell_angle_gamma 90.000000
_cell_volume 1392.799627
_symmetry_space_group_name_H-M "I M A 2"
_symmetry_group_IT_number 46
_symmetry_cell_setting 'orthorhombic'
loop_
_space_group_symop_operation_xyz
x,y,z
-x,-y,z
1/2-x,y,z
1/2+x,-y,z
1/2+x,1/2+y,1/2+z
1/2-x,1/2-y,1/2+z
-x,1/2+y,1/2+z
x,1/2-y,1/2+z
loop_
_atom_site_type_symbol
_atom_site_label
_atom_site_fract_x
_atom_site_fract_y
_atom_site_fract_z
Si Si1 0.845818 0.855222 0.653810
Si Si2 0.410521 0.759149 0.412065
Si Si3 0.086773 0.621544 0.727590
Si Si4 0.596254 0.755870 0.981601
O O1 0.750000 0.921926 0.637080
O O2 0.849637 0.620080 0.718359
O O3 0.891510 0.738441 0.576296
O O4 0.890132 0.122647 0.677991
O O5 0.420917 0.778701 0.317666
O O6 0.361104 0.503083 0.439004
O O7 0.499415 0.750776 0.456738
O O8 0.359096 0.003117 0.445164
O O9 0.000000 0.500000 0.697455
#
# Coordination Sequence:
#
# PCOD8193050 Si02
#       4
#     8   8   8   8
#     4  12  28  46  67 106 152 191 226 289 373 436
#     4  10  21  40  67 103 129 170 243 300 336 393
#     4  12  25  44  77 106 137 186 247 301 344 419
#     4  10  21  40  65  97 140 173 229 292 345 411
#
# _framework density 22.975307999999998
#
# number of rings (size 3 to 8) (size 9 to 14) (size 15 to 20)
#    0.000    1.000    2.500    4.500   14.000    0.000 
#    0.000    7.500    0.000    0.000    0.000    0.000 
#    0.000    0.000    0.000    0.000    0.000    0.000 
#
# Total GULP energy -198250.102938 kJ/mol
# GULP energy per Si atom -12390.631434 kJ/mol
# Density = 2.292302 g / cm^3
# Si number density = 22.975308 Si / 1000 Ang^3
#
#
#
# Elastic Constant Matrix: (Units=GPa)
#
#
# Indices 1 2 3 4 5 6 
#
# 1 69.6362 39.4300 65.4388 0.0000 0.0000 0.0000
# 2 39.4300 269.0925 74.5551 0.0000 0.0000 0.0000
# 3 65.4388 74.5551 136.4251 0.0000 0.0000 0.0000
# 4 0.0000 0.0000 0.0000 50.7634 0.0000 0.0000
# 5 0.0000 0.0000 0.0000 0.0000 19.9073 0.0000
# 6 0.0000 0.0000 0.0000 0.0000 0.0000 20.7542
#
#
#
# Elastic Compliance Matrix: (Units=1/GPa)
#
#
# Indices 1 2 3 4 5 6 
#
# 1 0.026186 -0.000421 -0.012331 0.000000 0.000000 0.000000
# 2 -0.000421 0.004386 -0.002195 0.000000 0.000000 0.000000
# 3 -0.012331 -0.002195 0.014444 0.000000 0.000000 0.000000
# 4 0.000000 0.000000 0.000000 0.019699 0.000000 0.000000
# 5 0.000000 0.000000 0.000000 0.000000 0.050233 0.000000
# 6 0.000000 0.000000 0.000000 0.000000 0.000000 0.048183
#
#
# Mechanical properties :
#
#
# Convention : Reuss Voigt Hill
#
# Bulk Modulus (GPa) = 66.12311 92.66683 79.39497
# Shear Modulus (GPa) = 25.24418 38.00032 31.62225
#
# Velocity S-wave (km/s) = 3.31834 4.07131 3.71395
# Velocity P-wave (km/s) = 6.59730 7.90705 7.28169
#
# Compressibility (1/GPa) = 0.01512331
#
# Stress axis : x y z
#
# Youngs Moduli (GPa) = 38.18836 227.99692 69.23146
#
# Poissons Ratio (x) = 0.09591 0.85367
# Poissons Ratio (y) = 0.01606 0.15197
# Poissons Ratio (z) = 0.47089 0.50049
#
# Static dielectric constant tensor:
#      x y z
#    x 3.602480 0.000000 0.000000 
#    y 0.000000 3.680780 0.000000 
#    z 0.000000 0.000000 4.026740 
# 
# 
# High freq. dielectric constant tensor:
#      x y z
#    x 1.855590 0.000000 0.000000 
#    y 0.000000 1.956070 0.000000 
#    z 0.000000 0.000000 1.909920 
# 
# From -- ./inp_files/16279.got.cif
#   From: 2010.03.12/outbox.cif.g09.slc.cpg/sg46_9_cif.got.tgz:16279.got - 2010.04.14 02:56:35.
