data_PCOD8193495
_publ_section_title
;
Structure prediction by ZEFSAII (Michael W. Deem and Ramdas Pophale) SiO2 
 PCOD8193495
Probable space group: P M M M
;
_chemical_formula_sum "Si O2"
_cell_formula_units_Z 64
_cell_length_a 9.169483
_cell_length_b 14.325273
_cell_length_c 31.297714
_cell_angle_alpha 90.000000
_cell_angle_beta 90.000000
_cell_angle_gamma 90.000000
_cell_volume 4111.122090
_symmetry_space_group_name_H-M "P M M M"
_symmetry_group_IT_number 47
_symmetry_cell_setting 'orthorhombic'
loop_
_space_group_symop_operation_xyz
x,y,z
-x,-y,z
x,-y,-z
-x,y,-z
-x,-y,-z
x,y,-z
-x,y,z
x,-y,z
loop_
_atom_site_type_symbol
_atom_site_label
_atom_site_fract_x
_atom_site_fract_y
_atom_site_fract_z
Si Si1 0.826357 0.294106 0.779486
Si Si2 0.173026 0.101026 0.254643
Si Si3 0.836460 0.389052 0.954764
Si Si4 0.833296 0.392316 0.450836
Si Si5 0.328056 0.721134 0.619087
Si Si6 0.330676 0.608354 0.297426
Si Si7 0.830877 0.105705 0.648546
Si Si8 0.825675 0.394929 0.136550
O O1 0.771026 0.187067 0.774194
O O2 0.761072 0.359890 0.743285
O O3 0.769292 0.328264 0.825648
O O4 0.000000 0.301422 0.776023
O O5 0.227158 0.116223 0.302979
O O6 0.000000 0.098254 0.254935
O O7 0.231431 0.000000 0.237480
O O8 0.842065 0.500000 0.952439
O O9 0.763549 0.356580 0.909608
O O10 0.000000 0.349064 0.956768
O O11 0.757414 0.358387 0.000000
O O12 0.809538 0.364708 0.500000
O O13 0.793216 0.500000 0.443496
O O14 0.725864 0.330449 0.423011
O O15 0.000000 0.373413 0.437262
O O16 0.500000 0.728934 0.616885
O O17 0.276720 0.664664 0.661059
O O18 0.261098 0.824774 0.619150
O O19 0.500000 0.627441 0.288042
O O20 0.299958 0.500000 0.306206
O O21 0.000000 0.133222 0.645576
O O22 0.805911 0.000000 0.632355
O O23 0.769432 0.500000 0.145755
O O24 0.000000 0.395053 0.134212
#
# Coordination Sequence:
#
# PCOD8193495 Si02
#       8
#     8   8   8   8   8   8   8   8
#     4  10  17  26  42  60  79 105 140 179 213 246
#     4   8  14  25  41  60  81 105 136 176 216 251
#     4   7   9  14  24  38  62  97 128 156 201 256
#     4   9  19  36  56  76  97 122 153 187 220 257
#     4  11  21  32  49  72  97 122 149 182 219 260
#     4  10  21  33  41  56  88 123 147 168 199 245
#     4   9  17  31  50  69  90 117 150 186 221 258
#     4   8  13  19  28  48  75  99 129 170 210 247
#
# _framework density 15.567527
#
# number of rings (size 3 to 8) (size 9 to 14) (size 15 to 20)
#    0.000    3.000    1.250    3.375    0.000    2.500 
#    0.000    0.625    0.000    0.750    0.000    2.625 
#    0.000    1.000    0.000   11.625    0.000    4.000 
#
# Total GULP energy -792970.743464 kJ/mol
# GULP energy per Si atom -12390.167867 kJ/mol
# Density = 1.553209 g / cm^3
# Si number density = 15.567527 Si / 1000 Ang^3
#
#
#
# Elastic Constant Matrix: (Units=GPa)
#
#
# Indices 1 2 3 4 5 6 
#
# 1 32.5303 29.2868 31.5104 0.0000 0.0000 0.0000
# 2 29.2868 93.1646 53.4641 0.0000 0.0000 0.0000
# 3 31.5104 53.4641 109.2318 0.0000 0.0000 0.0000
# 4 0.0000 0.0000 0.0000 11.6962 0.0000 0.0000
# 5 0.0000 0.0000 0.0000 0.0000 8.5764 0.0000
# 6 0.0000 0.0000 0.0000 0.0000 0.0000 14.3204
#
#
#
# Elastic Compliance Matrix: (Units=1/GPa)
#
#
# Indices 1 2 3 4 5 6 
#
# 1 0.048611 -0.010059 -0.009099 0.000000 0.000000 0.000000
# 2 -0.010059 0.017008 -0.005423 0.000000 0.000000 0.000000
# 3 -0.009099 -0.005423 0.014434 0.000000 0.000000 0.000000
# 4 0.000000 0.000000 0.000000 0.085498 0.000000 0.000000
# 5 0.000000 0.000000 0.000000 0.000000 0.116599 0.000000
# 6 0.000000 0.000000 0.000000 0.000000 0.000000 0.069831
#
#
# Mechanical properties :
#
#
# Convention : Reuss Voigt Hill
#
# Bulk Modulus (GPa) = 32.37302 51.49436 41.93369
# Shear Modulus (GPa) = 12.15246 14.96296 13.55771
#
# Velocity S-wave (km/s) = 2.79700 3.10363 2.95430
# Velocity P-wave (km/s) = 5.59208 6.78183 6.21549
#
# Compressibility (1/GPa) = 0.03088992
#
# Stress axis : x y z
#
# Youngs Moduli (GPa) = 20.57152 58.79649 69.28123
#
# Poissons Ratio (x) = 0.59145 0.63041
# Poissons Ratio (y) = 0.20694 0.37569
# Poissons Ratio (z) = 0.18719 0.31884
#
# Static dielectric constant tensor:
#      x y z
#    x 2.607090 0.000000 0.000000 
#    y 0.000000 3.071550 0.000000 
#    z 0.000000 0.000000 3.212240 
# 
# 
# High freq. dielectric constant tensor:
#      x y z
#    x 1.559780 0.000000 0.000000 
#    y 0.000000 1.581820 0.000000 
#    z 0.000000 0.000000 1.593520 
# 
# From -- ./inp_files/34474.got.cif
#   From: 2010.03.12/outbox.cif.g09.slc.cpg/sg47_18_cif.got.tgz:34474.got - 2010.04.14 03:12:58.
