data_PCOD8193602
_publ_section_title
;
Structure prediction by ZEFSAII (Michael W. Deem and Ramdas Pophale) SiO2 
 PCOD8193602
Probable space group: P M M M
;
_chemical_formula_sum "Si O2"
_cell_formula_units_Z 64
_cell_length_a 14.480548
_cell_length_b 31.184992
_cell_length_c 8.806353
_cell_angle_alpha 90.000000
_cell_angle_beta 90.000000
_cell_angle_gamma 90.000000
_cell_volume 3976.735668
_symmetry_space_group_name_H-M "P M M M"
_symmetry_group_IT_number 47
_symmetry_cell_setting 'orthorhombic'
loop_
_space_group_symop_operation_xyz
x,y,z
-x,-y,z
x,-y,-z
-x,y,-z
-x,-y,-z
x,y,-z
-x,y,z
x,-y,z
loop_
_atom_site_type_symbol
_atom_site_label
_atom_site_fract_x
_atom_site_fract_y
_atom_site_fract_z
Si Si1 0.210249 0.371204 0.680768
Si Si2 0.891645 0.132141 0.824987
Si Si3 0.108238 0.708331 0.176288
Si Si4 0.399583 0.663019 0.319592
Si Si5 0.600197 0.240447 0.320134
Si Si6 0.896177 0.547243 0.319420
Si Si7 0.205497 0.789275 0.679130
Si Si8 0.109532 0.953072 0.670454
O O1 0.206675 0.370999 0.500000
O O2 0.148699 0.332028 0.735883
O O3 0.315748 0.366471 0.741059
O O4 0.170907 0.416006 0.746991
O O5 0.835651 0.165005 0.722086
O O6 0.856101 0.084404 0.782466
O O7 0.000000 0.137417 0.789851
O O8 0.869829 0.140987 0.000000
O O9 0.150038 0.752336 0.236722
O O10 0.000000 0.709892 0.207076
O O11 0.131885 0.703737 0.000000
O O12 0.397681 0.663552 0.500000
O O13 0.500000 0.645637 0.263179
O O14 0.384199 0.711275 0.258469
O O15 0.596899 0.241933 0.500000
O O16 0.500000 0.222989 0.260052
O O17 0.686732 0.211540 0.267298
O O18 0.895461 0.548629 0.500000
O O19 0.863013 0.500000 0.263933
O O20 0.000000 0.556038 0.260389
O O21 0.196682 0.781722 0.500000
O O22 0.145512 0.943702 0.500000
O O23 0.000000 0.954017 0.670327
O O24 0.146140 0.000000 0.725346
#
# Coordination Sequence:
#
# PCOD8193602 Si02
#       8
#     8   8   8   8   8   8   8   8
#     4  10  17  28  48  68  82 107 149 182 206 251
#     4  10  20  31  42  60  91 128 157 183 223 268
#     4  11  23  34  42  58  89 121 143 173 219 259
#     4   8  13  23  41  65  88 106 132 175 222 260
#     4   8  14  26  44  65  86 106 135 179 225 262
#     4   8  14  24  39  62  89 111 135 176 222 253
#     4  11  20  31  48  66  84 114 154 186 212 254
#     4   8  14  26  44  64  85 112 152 199 234 259
#
# _framework density 16.093602000000001
#
# number of rings (size 3 to 8) (size 9 to 14) (size 15 to 20)
#    0.000    2.750    1.250    3.375    0.000    4.000 
#    0.000    1.250    0.000    3.375    0.000    4.375 
#    0.000    0.500    0.000    6.875    0.000    3.250 
#
# Total GULP energy -793060.300812 kJ/mol
# GULP energy per Si atom -12391.567200 kJ/mol
# Density = 1.605697 g / cm^3
# Si number density = 16.093602 Si / 1000 Ang^3
#
#
#
# Elastic Constant Matrix: (Units=GPa)
#
#
# Indices 1 2 3 4 5 6 
#
# 1 102.6323 53.4391 20.3293 0.0000 0.0000 0.0000
# 2 53.4391 101.3694 5.9849 0.0000 0.0000 0.0000
# 3 20.3293 5.9849 13.6743 0.0000 0.0000 0.0000
# 4 0.0000 0.0000 0.0000 6.3771 0.0000 0.0000
# 5 0.0000 0.0000 0.0000 0.0000 7.2817 0.0000
# 6 0.0000 0.0000 0.0000 0.0000 0.0000 7.6533
#
#
#
# Elastic Compliance Matrix: (Units=1/GPa)
#
#
# Indices 1 2 3 4 5 6 
#
# 1 0.019114 -0.008621 -0.024643 0.000000 0.000000 0.000000
# 2 -0.008621 0.014015 0.006683 0.000000 0.000000 0.000000
# 3 -0.024643 0.006683 0.106841 0.000000 0.000000 0.000000
# 4 0.000000 0.000000 0.000000 0.156810 0.000000 0.000000
# 5 0.000000 0.000000 0.000000 0.000000 0.137330 0.000000
# 6 0.000000 0.000000 0.000000 0.000000 0.000000 0.130662
#
#
# Mechanical properties :
#
#
# Convention : Reuss Voigt Hill
#
# Bulk Modulus (GPa) = 11.51972 41.90919 26.71445
# Shear Modulus (GPa) = 7.72954 13.45729 10.59341
#
# Velocity S-wave (km/s) = 2.19392 2.89483 2.56840
# Velocity P-wave (km/s) = 3.68663 6.10498 5.04292
#
# Compressibility (1/GPa) = 0.08680767
#
# Stress axis : x y z
#
# Youngs Moduli (GPa) = 52.31861 71.35098 9.35973
#
# Poissons Ratio (x) = 0.61514 0.23065
# Poissons Ratio (y) = 0.45105 -0.06255
# Poissons Ratio (z) = 1.28926 -0.47683
#
# Static dielectric constant tensor:
#      x y z
#    x 3.336590 0.000000 0.000000 
#    y 0.000000 3.275230 0.000000 
#    z 0.000000 0.000000 2.783620 
# 
# 
# High freq. dielectric constant tensor:
#      x y z
#    x 1.605040 0.000000 0.000000 
#    y 0.000000 1.609770 0.000000 
#    z 0.000000 0.000000 1.589890 
# 
# From -- ./inp_files/8349.got.cif
#   From: 2010.03.12/outbox.cif.g09.slc.cpg/sg47_5_cif.got.tgz:8349.got - 2010.04.14 03:12:58.
