data_PCOD8193289
_publ_section_title
;
Structure prediction by ZEFSAII (Michael W. Deem and Ramdas Pophale) SiO2 
 PCOD8193289
Probable space group: I M A 2
;
_chemical_formula_sum "Si O2"
_cell_formula_units_Z 36
_cell_length_a 21.123481
_cell_length_b 15.534177
_cell_length_c 5.149214
_cell_angle_alpha 90.000000
_cell_angle_beta 90.000000
_cell_angle_gamma 90.000000
_cell_volume 1689.641933
_symmetry_space_group_name_H-M "I M A 2"
_symmetry_group_IT_number 46
_symmetry_cell_setting 'orthorhombic'
loop_
_space_group_symop_operation_xyz
x,y,z
-x,-y,z
1/2-x,y,z
1/2+x,-y,z
1/2+x,1/2+y,1/2+z
1/2-x,1/2-y,1/2+z
-x,1/2+y,1/2+z
x,1/2-y,1/2+z
loop_
_atom_site_type_symbol
_atom_site_label
_atom_site_fract_x
_atom_site_fract_y
_atom_site_fract_z
Si Si1 0.250000 0.573355 0.076770
Si Si2 0.750000 0.328394 0.575810
Si Si3 0.250000 0.194341 0.601660
Si Si4 0.425360 0.997623 0.148463
Si Si5 0.389017 0.797282 0.146970
Si Si6 0.357883 0.443816 0.148488
O O1 0.250000 0.654775 0.267728
O O2 0.313547 0.526015 0.151847
O O3 0.250000 0.588505 0.767457
O O4 0.813646 0.277458 0.651244
O O5 0.250000 0.229192 0.308939
O O6 0.185658 0.140620 0.638309
O O7 0.402060 0.898963 0.144926
O O8 0.500000 0.000000 0.130228
O O9 0.404600 0.049277 0.404505
O O10 0.398265 0.053294 0.910604
O O11 0.419428 0.750484 0.397526
#
# Coordination Sequence:
#
# PCOD8193289 Si02
#       6
#     4   4   4   8   8   8
#     4  11  18  35  64  91 121 158 198 259 308 381
#     4  12  20  36  59  93 132 158 196 246 324 388
#     4  11  24  43  69 108 137 162 216 291 366 399
#     4  12  25  45  67  92 126 183 236 257 310 397
#     4  12  24  40  61  95 134 163 204 268 323 374
#     4  11  22  42  68  94 129 171 215 278 323 391
#
# _framework density 21.306289
#
# number of rings (size 3 to 8) (size 9 to 14) (size 15 to 20)
#    0.000    0.444    4.444    5.333    0.000    3.556 
#    0.000    6.667    0.000    0.000    0.000    0.000 
#    0.000    0.000    0.000    0.000    0.000    0.000 
#
# Total GULP energy -223149.557775 kJ/mol
# GULP energy per Si atom -12397.197654 kJ/mol
# Density = 2.125780 g / cm^3
# Si number density = 21.306289 Si / 1000 Ang^3
#
#
#
# Elastic Constant Matrix: (Units=GPa)
#
#
# Indices 1 2 3 4 5 6 
#
# 1 81.9286 18.5373 -1.3630 0.0000 0.0000 0.0000
# 2 18.5373 88.2223 30.6123 0.0000 0.0000 0.0000
# 3 -1.3630 30.6123 97.0538 0.0000 0.0000 0.0000
# 4 0.0000 0.0000 0.0000 33.5616 0.0000 0.0000
# 5 0.0000 0.0000 0.0000 0.0000 22.9108 0.0000
# 6 0.0000 0.0000 0.0000 0.0000 0.0000 25.4715
#
#
#
# Elastic Compliance Matrix: (Units=1/GPa)
#
#
# Indices 1 2 3 4 5 6 
#
# 1 0.012932 -0.003122 0.001166 0.000000 0.000000 0.000000
# 2 -0.003122 0.013482 -0.004296 0.000000 0.000000 0.000000
# 3 0.001166 -0.004296 0.011675 0.000000 0.000000 0.000000
# 4 0.000000 0.000000 0.000000 0.029796 0.000000 0.000000
# 5 0.000000 0.000000 0.000000 0.000000 0.043648 0.000000
# 6 0.000000 0.000000 0.000000 0.000000 0.000000 0.039260
#
#
# Mechanical properties :
#
#
# Convention : Reuss Voigt Hill
#
# Bulk Modulus (GPa) = 39.08582 40.30866 39.69724
# Shear Modulus (GPa) = 29.09968 31.01664 30.05816
#
# Velocity S-wave (km/s) = 3.69965 3.81957 3.76009
# Velocity P-wave (km/s) = 6.05264 6.19773 6.12562
#
# Compressibility (1/GPa) = 0.02558472
#
# Stress axis : x y z
#
# Youngs Moduli (GPa) = 77.33047 74.17463 85.65296
#
# Poissons Ratio (x) = 0.23156 -0.09990
# Poissons Ratio (y) = 0.24142 0.36798
# Poissons Ratio (z) = -0.09019 0.31867
#
# Static dielectric constant tensor:
#      x y z
#    x 3.773380 0.000000 0.000000 
#    y 0.000000 3.675220 0.000000 
#    z 0.000000 0.000000 4.328390 
# 
# 
# High freq. dielectric constant tensor:
#      x y z
#    x 1.820730 0.000000 0.000000 
#    y 0.000000 1.827930 0.000000 
#    z 0.000000 0.000000 1.864870 
# 
# From -- ./inp_files/1960.got.cif
#   From: 2010.03.12/outbox.cif.g09.slc.cpg/sg46_1_cif.got.tgz:1960.got - 2010.04.14 02:56:35.
