data_PCOD8193068
_publ_section_title
;
Structure prediction by ZEFSAII (Michael W. Deem and Ramdas Pophale) SiO2 
 PCOD8193068
Probable space group: I M A 2
;
_chemical_formula_sum "Si O2"
_cell_formula_units_Z 64
_cell_length_a 17.069426
_cell_length_b 19.490052
_cell_length_c 9.095303
_cell_angle_alpha 90.000000
_cell_angle_beta 90.000000
_cell_angle_gamma 90.000000
_cell_volume 3025.861786
_symmetry_space_group_name_H-M "I M A 2"
_symmetry_group_IT_number 46
_symmetry_cell_setting 'orthorhombic'
loop_
_space_group_symop_operation_xyz
x,y,z
-x,-y,z
1/2-x,y,z
1/2+x,-y,z
1/2+x,1/2+y,1/2+z
1/2-x,1/2-y,1/2+z
-x,1/2+y,1/2+z
x,1/2-y,1/2+z
loop_
_atom_site_type_symbol
_atom_site_label
_atom_site_fract_x
_atom_site_fract_y
_atom_site_fract_z
Si Si1 0.340519 0.696012 0.884480
Si Si2 0.837233 0.816580 0.938804
Si Si3 0.913829 0.440020 0.931045
Si Si4 0.339866 0.468330 0.385739
Si Si5 0.919811 0.934550 0.587140
Si Si6 0.937267 0.444718 0.583903
Si Si7 0.409830 0.282686 0.145708
Si Si8 0.931755 0.207310 0.086367
O O1 0.250000 0.705775 0.851453
O O2 0.356165 0.623419 0.966512
O O3 0.387633 0.692883 0.735668
O O4 0.369464 0.760763 0.975912
O O5 0.750000 0.803722 0.877017
O O6 0.848648 0.896697 0.974301
O O7 0.900040 0.788272 0.820754
O O8 0.849705 0.774108 0.087533
O O9 0.933677 0.444850 0.759695
O O10 0.874923 0.513498 0.974920
O O11 0.988519 0.432805 0.040579
O O12 0.250000 0.478130 0.330621
O O13 0.400750 0.464434 0.249445
O O14 0.358595 0.530425 0.499438
O O15 0.889343 0.856446 0.572841
O O16 0.959921 0.367729 0.528624
O O17 0.000000 0.500000 0.528555
O O18 0.497745 0.259941 0.109431
#
# Coordination Sequence:
#
# PCOD8193068 Si02
#       8
#     8   8   8   8   8   8   8   8
#     4  11  24  43  63  92 132 170 214 270 321 381
#     4  10  22  39  61  94 131 166 207 263 326 383
#     4  10  22  42  65  93 123 164 218 264 323 376
#     4  10  24  42  61  93 132 171 212 261 328 389
#     4  10  21  41  67  90 125 163 215 268 317 386
#     4  11  23  39  66  93 128 168 217 270 318 381
#     4  11  21  38  66  92 128 166 213 263 316 391
#     4  11  24  40  65  95 127 173 222 258 322 383
#
# _framework density 21.150998999999999
#
# number of rings (size 3 to 8) (size 9 to 14) (size 15 to 20)
#    0.000    1.500    2.500    2.250    3.500    6.500 
#    0.000    0.000    0.000    0.000    0.000    0.000 
#    0.000    0.000    0.000    0.000    0.000    0.000 
#
# Total GULP energy -396591.480607 kJ/mol
# GULP energy per Si atom -12393.483769 kJ/mol
# Density = 2.110286 g / cm^3
# Si number density = 21.150999 Si / 1000 Ang^3
#
#
#
# Elastic Constant Matrix: (Units=GPa)
#
#
# Indices 1 2 3 4 5 6 
#
# 1 87.3280 20.4069 19.7501 0.0000 0.0000 0.0000
# 2 20.4069 149.2355 37.9719 0.0000 0.0000 0.0000
# 3 19.7501 37.9719 63.2199 0.0000 0.0000 0.0000
# 4 0.0000 0.0000 0.0000 35.1656 0.0000 0.0000
# 5 0.0000 0.0000 0.0000 0.0000 32.4326 0.0000
# 6 0.0000 0.0000 0.0000 0.0000 0.0000 29.0696
#
#
#
# Elastic Compliance Matrix: (Units=1/GPa)
#
#
# Indices 1 2 3 4 5 6 
#
# 1 0.012410 -0.000839 -0.003373 0.000000 0.000000 0.000000
# 2 -0.000839 0.007966 -0.004523 0.000000 0.000000 0.000000
# 3 -0.003373 -0.004523 0.019588 0.000000 0.000000 0.000000
# 4 0.000000 0.000000 0.000000 0.028437 0.000000 0.000000
# 5 0.000000 0.000000 0.000000 0.000000 0.030833 0.000000
# 6 0.000000 0.000000 0.000000 0.000000 0.000000 0.034400
#
#
# Mechanical properties :
#
#
# Convention : Reuss Voigt Hill
#
# Bulk Modulus (GPa) = 44.45421 50.67123 47.56272
# Shear Modulus (GPa) = 31.52540 34.11053 32.81797
#
# Velocity S-wave (km/s) = 3.86488 4.02022 3.94331
# Velocity P-wave (km/s) = 6.40153 6.74970 6.57792
#
# Compressibility (1/GPa) = 0.02249506
#
# Stress axis : x y z
#
# Youngs Moduli (GPa) = 80.58054 125.52888 51.05135
#
# Poissons Ratio (x) = 0.10528 0.17220
# Poissons Ratio (y) = 0.06758 0.23089
# Poissons Ratio (z) = 0.27181 0.56774
#
# Static dielectric constant tensor:
#      x y z
#    x 3.638150 0.000000 0.000000 
#    y 0.000000 4.528670 0.000000 
#    z 0.000000 0.000000 3.578010 
# 
# 
# High freq. dielectric constant tensor:
#      x y z
#    x 1.812040 0.000000 0.000000 
#    y 0.000000 1.852950 0.000000 
#    z 0.000000 0.000000 1.818200 
# 
# From -- ./inp_files/6906.got.cif
#   From: 2010.03.12/outbox.cif.g09.slc.cpg/sg46_4_cif.got.tgz:6906.got - 2010.04.14 02:56:35.
