data_PCOD8193290
_publ_section_title
;
Structure prediction by ZEFSAII (Michael W. Deem and Ramdas Pophale) SiO2 
 PCOD8193290
Probable space group: I M A 2
;
_chemical_formula_sum "Si O2"
_cell_formula_units_Z 64
_cell_length_a 8.695431
_cell_length_b 23.041153
_cell_length_c 19.135560
_cell_angle_alpha 90.000000
_cell_angle_beta 90.000000
_cell_angle_gamma 90.000000
_cell_volume 3833.862185
_symmetry_space_group_name_H-M "I M A 2"
_symmetry_group_IT_number 46
_symmetry_cell_setting 'orthorhombic'
loop_
_space_group_symop_operation_xyz
x,y,z
-x,-y,z
1/2-x,y,z
1/2+x,-y,z
1/2+x,1/2+y,1/2+z
1/2-x,1/2-y,1/2+z
-x,1/2+y,1/2+z
x,1/2-y,1/2+z
loop_
_atom_site_type_symbol
_atom_site_label
_atom_site_fract_x
_atom_site_fract_y
_atom_site_fract_z
Si Si1 0.569951 0.234267 0.444530
Si Si2 0.929198 0.062668 0.926996
Si Si3 0.929271 0.327250 0.078846
Si Si4 0.427810 0.658805 0.533575
Si Si5 0.567981 0.878884 0.793017
Si Si6 0.568685 0.439511 0.162066
Si Si7 0.567635 0.247449 0.792311
Si Si8 0.570293 0.719028 0.655471
O O1 0.750000 0.241201 0.434584
O O2 0.530025 0.180230 0.496057
O O3 0.506382 0.293319 0.479402
O O4 0.501121 0.227922 0.366395
O O5 0.750000 0.059047 0.906646
O O6 0.018626 0.097505 0.867940
O O7 0.952885 0.095478 0.000749
O O8 0.000000 0.000000 0.937060
O O9 0.750000 0.313865 0.091816
O O10 0.972543 0.391830 0.103006
O O11 0.023453 0.280953 0.123527
O O12 0.250000 0.671643 0.549196
O O13 0.518025 0.665462 0.606495
O O14 0.750000 0.872714 0.789408
O O15 0.510949 0.924167 0.735111
O O16 0.491255 0.817305 0.778308
O O17 0.500000 0.500000 0.134591
O O18 0.750000 0.444629 0.173917
O O19 0.750000 0.246206 0.790530
O O20 0.506482 0.289273 0.731381
O O21 0.750000 0.716994 0.665625
#
# Coordination Sequence:
#
# PCOD8193290 Si02
#       8
#     8   8   8   8   8   8   8   8
#     4   8  15  30  52  73  92 122 166 204 241 296
#     4  11  22  37  54  73 100 136 176 212 252 299
#     4   9  18  34  52  70  94 130 167 204 249 299
#     4   9  18  35  53  70  96 133 171 205 247 301
#     4  12  23  34  48  71 104 136 174 212 246 293
#     4  11  22  35  52  70  98 136 174 210 248 294
#     4  11  19  32  52  74 101 135 168 203 251 304
#     4  11  21  31  48  75 103 129 163 209 254 297
#
# _framework density 16.693349999999999
#
# number of rings (size 3 to 8) (size 9 to 14) (size 15 to 20)
#    0.000    1.750    2.500    4.500    0.000    1.500 
#    0.000    0.625    0.000    0.000    0.000    0.875 
#    0.000    2.000    0.000    0.000    0.000    0.000 
#
# Total GULP energy -396759.942193 kJ/mol
# GULP energy per Si atom -12398.748194 kJ/mol
# Density = 1.665535 g / cm^3
# Si number density = 16.693350 Si / 1000 Ang^3
#
#
#
# Elastic Constant Matrix: (Units=GPa)
#
#
# Indices 1 2 3 4 5 6 
#
# 1 87.0398 22.0564 37.5622 0.0000 0.0000 0.0000
# 2 22.0564 47.0653 24.8381 0.0000 0.0000 0.0000
# 3 37.5622 24.8381 105.9233 0.0000 0.0000 0.0000
# 4 0.0000 0.0000 0.0000 9.7191 0.0000 0.0000
# 5 0.0000 0.0000 0.0000 0.0000 14.9718 0.0000
# 6 0.0000 0.0000 0.0000 0.0000 0.0000 23.0580
#
#
#
# Elastic Compliance Matrix: (Units=1/GPa)
#
#
# Indices 1 2 3 4 5 6 
#
# 1 0.014396 -0.004625 -0.004021 0.000000 0.000000 0.000000
# 2 -0.004625 0.025733 -0.004394 0.000000 0.000000 0.000000
# 3 -0.004021 -0.004394 0.011897 0.000000 0.000000 0.000000
# 4 0.000000 0.000000 0.000000 0.102890 0.000000 0.000000
# 5 0.000000 0.000000 0.000000 0.000000 0.066792 0.000000
# 6 0.000000 0.000000 0.000000 0.000000 0.000000 0.043369
#
#
# Mechanical properties :
#
#
# Convention : Reuss Voigt Hill
#
# Bulk Modulus (GPa) = 38.53968 45.43798 41.98883
# Shear Modulus (GPa) = 16.67744 19.92122 18.29933
#
# Velocity S-wave (km/s) = 3.16420 3.45826 3.31449
# Velocity P-wave (km/s) = 6.04041 6.57452 6.31312
#
# Compressibility (1/GPa) = 0.02594728
#
# Stress axis : x y z
#
# Youngs Moduli (GPa) = 69.46364 38.86013 84.05485
#
# Poissons Ratio (x) = 0.17971 0.33795
# Poissons Ratio (y) = 0.32124 0.36936
# Poissons Ratio (z) = 0.27929 0.17076
#
# Static dielectric constant tensor:
#      x y z
#    x 3.097600 0.000000 0.000000 
#    y 0.000000 2.997320 0.000000 
#    z 0.000000 0.000000 3.457320 
# 
# 
# High freq. dielectric constant tensor:
#      x y z
#    x 1.643450 0.000000 0.000000 
#    y 0.000000 1.611640 0.000000 
#    z 0.000000 0.000000 1.645130 
# 
# From -- ./inp_files/21479.got.cif
#   From: 2010.03.12/outbox.cif.g09.slc.cpg/sg46_11_cif.got.tgz:21479.got - 2010.04.14 02:56:35.
