data_PCOD8193723
_publ_section_title
;
Structure prediction by ZEFSAII (Michael W. Deem and Ramdas Pophale) SiO2 
 PCOD8193723
Probable space group: P M M M
;
_chemical_formula_sum "Si O2"
_cell_formula_units_Z 52
_cell_length_a 19.119021
_cell_length_b 13.192247
_cell_length_c 15.878643
_cell_angle_alpha 90.000000
_cell_angle_beta 90.000000
_cell_angle_gamma 90.000000
_cell_volume 4004.956551
_symmetry_space_group_name_H-M "P M M M"
_symmetry_group_IT_number 47
_symmetry_cell_setting 'orthorhombic'
loop_
_space_group_symop_operation_xyz
x,y,z
-x,-y,z
x,-y,-z
-x,y,-z
-x,-y,-z
x,y,-z
-x,y,z
x,-y,z
loop_
_atom_site_type_symbol
_atom_site_label
_atom_site_fract_x
_atom_site_fract_y
_atom_site_fract_z
Si Si1 0.160923 0.694988 0.099894
Si Si2 0.576592 0.879663 0.500000
Si Si3 0.416465 0.113319 0.319632
Si Si4 0.079155 0.500000 0.100461
Si Si5 0.417323 0.759298 0.160396
Si Si6 0.308940 0.384050 0.901397
Si Si7 0.417318 0.112254 0.000000
Si Si8 0.920914 0.112309 0.100142
O O1 0.117004 0.600297 0.136431
O O2 0.241888 0.682732 0.125611
O O3 0.130598 0.800876 0.136979
O O4 0.153586 0.694237 0.000000
O O5 0.500000 0.828640 0.500000
O O6 0.614108 0.849083 0.411247
O O7 0.568571 0.000000 0.500000
O O8 0.500000 0.110820 0.324885
O O9 0.392133 0.189207 0.246910
O O10 0.389262 0.000000 0.298239
O O11 0.000000 0.500000 0.133403
O O12 0.082517 0.500000 0.000000
O O13 0.500000 0.738057 0.158440
O O14 0.376440 0.653678 0.150655
O O15 0.392391 0.830502 0.083660
O O16 0.294151 0.500000 0.877260
O O17 0.324963 0.373484 0.000000
O O18 0.500000 0.103549 0.000000
O O19 0.383798 0.000000 0.000000
O O20 0.000000 0.135215 0.130578
O O21 0.897486 0.000000 0.131895
O O22 0.918645 0.114384 0.000000
#
# Coordination Sequence:
#
# PCOD8193723 Si02
#       8
#     8   4   8   4   8   8   4   8
#     4   9  15  24  35  47  63  84 109 142 186 226
#     4   7  10  18  34  56  77  93 105 125 172 229
#     4   8  13  22  37  56  76  92 108 138 180 226
#     4   9  14  20  34  54  65  75 103 144 184 221
#     4  10  18  27  38  52  66  90 125 157 189 225
#     4  10  19  30  39  45  61  89 120 163 205 226
#     4   9  16  26  37  49  67  87 112 151 192 221
#     4   8  13  21  33  48  66  85 102 127 167 216
#
# _framework density 12.983911000000001
#
# number of rings (size 3 to 8) (size 9 to 14) (size 15 to 20)
#    0.000    3.154    1.538    2.308    0.000    4.000 
#    0.000    2.308    0.000    0.000    0.000    0.538 
#    0.000    3.077    0.000    0.000    0.000    0.000 
#
# Total GULP energy -644261.392851 kJ/mol
# GULP energy per Si atom -12389.642170 kJ/mol
# Density = 1.295436 g / cm^3
# Si number density = 12.983911 Si / 1000 Ang^3
#
#
#
# Elastic Constant Matrix: (Units=GPa)
#
#
# Indices 1 2 3 4 5 6 
#
# 1 54.0404 42.9181 17.7718 0.0000 0.0000 0.0000
# 2 42.9181 93.3221 24.9911 0.0000 0.0000 0.0000
# 3 17.7718 24.9911 61.5983 0.0000 0.0000 0.0000
# 4 0.0000 0.0000 0.0000 7.3229 0.0000 0.0000
# 5 0.0000 0.0000 0.0000 0.0000 2.1664 0.0000
# 6 0.0000 0.0000 0.0000 0.0000 0.0000 21.0524
#
#
#
# Elastic Compliance Matrix: (Units=1/GPa)
#
#
# Indices 1 2 3 4 5 6 
#
# 1 0.029775 -0.012782 -0.003405 0.000000 0.000000 0.000000
# 2 -0.012782 0.017508 -0.003416 0.000000 0.000000 0.000000
# 3 -0.003405 -0.003416 0.018602 0.000000 0.000000 0.000000
# 4 0.000000 0.000000 0.000000 0.136559 0.000000 0.000000
# 5 0.000000 0.000000 0.000000 0.000000 0.461598 0.000000
# 6 0.000000 0.000000 0.000000 0.000000 0.000000 0.047500
#
#
# Mechanical properties :
#
#
# Convention : Reuss Voigt Hill
#
# Bulk Modulus (GPa) = 37.47886 42.25807 39.86847
# Shear Modulus (GPa) = 6.58205 14.32699 10.45452
#
# Velocity S-wave (km/s) = 2.25397 3.32541 2.84067
# Velocity P-wave (km/s) = 5.97513 6.88198 6.44452
#
# Compressibility (1/GPa) = 0.02668171
#
# Stress axis : x y z
#
# Youngs Moduli (GPa) = 33.58469 57.11519 53.75662
#
# Poissons Ratio (x) = 0.73003 0.18304
# Poissons Ratio (y) = 0.42927 0.18362
# Poissons Ratio (z) = 0.11435 0.19509
#
# Static dielectric constant tensor:
#      x y z
#    x 2.442400 0.000000 0.000000 
#    y 0.000000 2.755950 0.000000 
#    z 0.000000 0.000000 2.439630 
# 
# 
# High freq. dielectric constant tensor:
#      x y z
#    x 1.469580 0.000000 0.000000 
#    y 0.000000 1.494660 0.000000 
#    z 0.000000 0.000000 1.436880 
# 
# From -- ./inp_files/25307.got.cif
#   From: 2010.03.12/outbox.cif.g09.slc.cpg/sg47_13_cif.got.tgz:25307.got - 2010.04.14 03:12:58.
