data_PCOD8193971
_publ_section_title
;
Structure prediction by ZEFSAII (Michael W. Deem and Ramdas Pophale) SiO2 
 PCOD8193971
Probable space group: P M M M
;
_chemical_formula_sum "Si O2"
_cell_formula_units_Z 52
_cell_length_a 23.316899
_cell_length_b 8.946230
_cell_length_c 14.210214
_cell_angle_alpha 90.000000
_cell_angle_beta 90.000000
_cell_angle_gamma 90.000000
_cell_volume 2964.227070
_symmetry_space_group_name_H-M "P M M M"
_symmetry_group_IT_number 47
_symmetry_cell_setting 'orthorhombic'
loop_
_space_group_symop_operation_xyz
x,y,z
-x,-y,z
x,-y,-z
-x,y,-z
-x,-y,-z
x,y,-z
-x,y,z
x,-y,z
loop_
_atom_site_type_symbol
_atom_site_label
_atom_site_fract_x
_atom_site_fract_y
_atom_site_fract_z
Si Si1 0.783039 0.172469 0.610211
Si Si2 0.890528 0.676876 0.298611
Si Si3 0.563300 0.822289 0.605521
Si Si4 0.669898 0.176411 0.279456
Si Si5 0.155109 0.677220 0.897553
Si Si6 0.000000 0.823014 0.608337
Si Si7 0.283914 0.327388 0.106510
O O1 0.773903 0.195008 0.500000
O O2 0.834332 0.277203 0.644333
O O3 0.725214 0.226862 0.660852
O O4 0.797538 0.000000 0.633948
O O5 0.899330 0.500000 0.307213
O O6 0.885015 0.728187 0.188933
O O7 0.944469 0.760182 0.340931
O O8 0.573509 0.761415 0.500000
O O9 0.500000 0.772441 0.641396
O O10 0.612577 0.755666 0.672924
O O11 0.567415 0.000000 0.603976
O O12 0.673315 0.238522 0.174004
O O13 0.665919 0.000000 0.275114
O O14 0.159084 0.500000 0.900425
O O15 0.219512 0.738338 0.881563
O O16 0.131657 0.734422 0.000000
O O17 0.000000 0.771096 0.500000
O O18 0.000000 0.000000 0.616308
O O19 0.285124 0.500000 0.135324
O O20 0.305322 0.304042 0.000000
#
# Coordination Sequence:
#
# PCOD8193971 Si02
#       7
#     8   8   8   8   8   4   8
#     4  10  20  32  46  69 104 137 159 191 250 310
#     4  11  21  35  57  80  99 125 168 213 243 281
#     4   8  14  26  45  69  98 134 174 211 248 295
#     4  10  18  28  47  75 102 127 164 211 253 294
#     4   8  15  30  52  76 101 128 158 195 243 296
#     4  11  25  43  58  71  98 140 173 199 244 301
#     4   9  17  31  50  71  99 134 166 197 244 306
#
# _framework density 17.542515000000002
#
# number of rings (size 3 to 8) (size 9 to 14) (size 15 to 20)
#    0.000    2.538    1.538    3.000    0.000    4.923 
#    0.000    0.385    0.000    6.462    0.000    4.308 
#    0.000    0.000    0.000    0.000    0.000    0.000 
#
# Total GULP energy -644613.508680 kJ/mol
# GULP energy per Si atom -12396.413628 kJ/mol
# Density = 1.750259 g / cm^3
# Si number density = 17.542515 Si / 1000 Ang^3
#
#
#
# Elastic Constant Matrix: (Units=GPa)
#
#
# Indices 1 2 3 4 5 6 
#
# 1 132.4055 30.5208 75.7228 0.0000 0.0000 0.0000
# 2 30.5208 25.6304 28.1741 0.0000 0.0000 0.0000
# 3 75.7228 28.1741 133.3172 0.0000 0.0000 0.0000
# 4 0.0000 0.0000 0.0000 25.5724 0.0000 0.0000
# 5 0.0000 0.0000 0.0000 0.0000 70.2874 0.0000
# 6 0.0000 0.0000 0.0000 0.0000 0.0000 -3.5642
#
#
#
# Elastic Compliance Matrix: (Units=1/GPa)
#
#
# Indices 1 2 3 4 5 6 
#
# 1 0.012709 -0.009377 -0.005237 0.000000 0.000000 0.000000
# 2 -0.009377 0.057741 -0.006876 0.000000 0.000000 0.000000
# 3 -0.005237 -0.006876 0.011929 0.000000 0.000000 0.000000
# 4 0.000000 0.000000 0.000000 0.039105 0.000000 0.000000
# 5 0.000000 0.000000 0.000000 0.000000 0.014227 0.000000
# 6 0.000000 0.000000 0.000000 0.000000 0.000000 -0.280569
#
#
# Mechanical properties :
#
#
# Convention : Reuss Voigt Hill
#
# Bulk Modulus (GPa) = 25.38204 62.24315 43.81259
# Shear Modulus (GPa) = -56.34161 28.92150 -13.71005
#
# Velocity S-wave (km/s) = -5.67335 4.06476 -2.79862
# Velocity P-wave (km/s) = 5.33063 7.58868 3.81920
#
# Compressibility (1/GPa) = 0.03939794
#
# Stress axis : x y z
#
# Youngs Moduli (GPa) = 78.68353 17.31858 83.83219
#
# Poissons Ratio (x) = 0.16240 0.43902
# Poissons Ratio (y) = 0.73785 0.57645
# Poissons Ratio (z) = 0.41206 0.11909
#
# Static dielectric constant tensor:
#      x y z
#    x 4.503570 0.000000 0.000000 
#    y 0.000000 2.954230 0.000000 
#    z 0.000000 0.000000 3.603120 
# 
# 
# High freq. dielectric constant tensor:
#      x y z
#    x 1.665100 0.000000 0.000000 
#    y 0.000000 1.647130 0.000000 
#    z 0.000000 0.000000 1.689270 
# 
# From -- ./inp_files/25022.got.cif
#   From: 2010.03.12/outbox.cif.g09.slc.cpg/sg47_13_cif.got.tgz:25022.got - 2010.04.14 03:12:58.
