data_PCOD8193300
_publ_section_title
;
Structure prediction by ZEFSAII (Michael W. Deem and Ramdas Pophale) SiO2 
 PCOD8193300
Probable space group: I M A 2
;
_chemical_formula_sum "Si O2"
_cell_formula_units_Z 48
_cell_length_a 14.212463
_cell_length_b 17.261082
_cell_length_c 9.706719
_cell_angle_alpha 90.000000
_cell_angle_beta 90.000000
_cell_angle_gamma 90.000000
_cell_volume 2381.276468
_symmetry_space_group_name_H-M "I M A 2"
_symmetry_group_IT_number 46
_symmetry_cell_setting 'orthorhombic'
loop_
_space_group_symop_operation_xyz
x,y,z
-x,-y,z
1/2-x,y,z
1/2+x,-y,z
1/2+x,1/2+y,1/2+z
1/2-x,1/2-y,1/2+z
-x,1/2+y,1/2+z
x,1/2-y,1/2+z
loop_
_atom_site_type_symbol
_atom_site_label
_atom_site_fract_x
_atom_site_fract_y
_atom_site_fract_z
Si Si1 0.041975 0.419250 0.000000
Si Si2 0.750000 0.110517 0.351081
Si Si3 0.452155 0.701717 0.203192
Si Si4 0.750000 0.313646 0.122530
Si Si5 0.750000 0.958930 0.543092
Si Si6 0.952869 0.373423 0.727500
Si Si7 0.943936 0.427006 0.425335
Si Si8 0.750000 0.459503 0.310110
O O1 0.000000 0.500000 0.063506
O O2 0.994121 0.345879 0.074933
O O3 0.154573 0.411930 0.010659
O O4 0.013309 0.418509 0.840562
O O5 0.750000 0.182832 0.456728
O O6 0.657936 0.117012 0.257420
O O7 0.750000 0.033830 0.445079
O O8 0.344418 0.727983 0.172512
O O9 0.496329 0.786067 0.225873
O O10 0.464902 0.650599 0.339527
O O11 0.750000 0.397898 0.188161
O O12 0.750000 0.965643 0.711026
O O13 0.973924 0.412191 0.581299
O O14 0.836140 0.451803 0.413285
O O15 0.000000 0.500000 0.364267
#
# Coordination Sequence:
#
# PCOD8193300 Si02
#       8
#     8   4   8   4   4   8   8   4
#     4  12  22  42  68  91 122 171 230 268 310 397
#     4  11  20  37  63  92 130 155 205 259 324 392
#     4  11  22  40  63  89 129 169 210 259 321 397
#     4   9  17  34  61  90 118 162 203 241 306 394
#     4  11  22  39  70  95 112 173 238 270 301 381
#     4  12  24  38  60  98 132 164 199 274 341 383
#     4  11  23  38  58  90 125 162 202 252 323 379
#     4   9  19  38  58  89 118 156 208 256 301 373
#
# _framework density 20.157256
#
# number of rings (size 3 to 8) (size 9 to 14) (size 15 to 20)
#    0.000    1.000    3.333    6.000    0.000    0.000 
#    0.000    0.833    0.000    2.000    0.000    0.000 
#    0.000    0.000    0.000    0.000    0.000    0.000 
#
# Total GULP energy -297505.256505 kJ/mol
# GULP energy per Si atom -12396.052354 kJ/mol
# Density = 2.011138 g / cm^3
# Si number density = 20.157256 Si / 1000 Ang^3
#
#
#
# Elastic Constant Matrix: (Units=GPa)
#
#
# Indices 1 2 3 4 5 6 
#
# 1 107.5510 29.7742 24.3693 0.0000 0.0000 0.0000
# 2 29.7742 88.0265 15.7400 0.0000 0.0000 0.0000
# 3 24.3693 15.7400 104.9627 0.0000 0.0000 0.0000
# 4 0.0000 0.0000 0.0000 27.7211 0.0000 0.0000
# 5 0.0000 0.0000 0.0000 0.0000 27.8661 0.0000
# 6 0.0000 0.0000 0.0000 0.0000 0.0000 13.4800
#
#
#
# Elastic Compliance Matrix: (Units=1/GPa)
#
#
# Indices 1 2 3 4 5 6 
#
# 1 0.010646 -0.003246 -0.001985 0.000000 0.000000 0.000000
# 2 -0.003246 0.012663 -0.001145 0.000000 0.000000 0.000000
# 3 -0.001985 -0.001145 0.010160 0.000000 0.000000 0.000000
# 4 0.000000 0.000000 0.000000 0.036074 0.000000 0.000000
# 5 0.000000 0.000000 0.000000 0.000000 0.035886 0.000000
# 6 0.000000 0.000000 0.000000 0.000000 0.000000 0.074184
#
#
# Mechanical properties :
#
#
# Convention : Reuss Voigt Hill
#
# Bulk Modulus (GPa) = 48.27099 48.92304 48.59701
# Shear Modulus (GPa) = 25.09147 29.19054 27.14101
#
# Velocity S-wave (km/s) = 3.53198 3.80957 3.67340
# Velocity P-wave (km/s) = 6.37435 6.60862 6.49254
#
# Compressibility (1/GPa) = 0.02071638
#
# Stress axis : x y z
#
# Youngs Moduli (GPa) = 93.92913 78.97044 98.42721
#
# Poissons Ratio (x) = 0.25635 0.19538
# Poissons Ratio (y) = 0.30490 0.11273
# Poissons Ratio (z) = 0.18645 0.09044
#
# Static dielectric constant tensor:
#      x y z
#    x 3.506950 0.000000 0.000000 
#    y 0.000000 3.513620 0.000000 
#    z 0.000000 0.000000 3.634090 
# 
# 
# High freq. dielectric constant tensor:
#      x y z
#    x 1.770730 0.000000 0.000000 
#    y 0.000000 1.775300 0.000000 
#    z 0.000000 0.000000 1.799490 
# 
# From -- ./inp_files/5745.got.cif
#   From: 2010.03.12/outbox.cif.g09.slc.cpg/sg46_3_cif.got.tgz:5745.got - 2010.04.14 02:56:35.
