data_PCOD8193004
_publ_section_title
;
Structure prediction by ZEFSAII (Michael W. Deem and Ramdas Pophale) SiO2 
 PCOD8193004
Probable space group: I M A 2
;
_chemical_formula_sum "Si O2"
_cell_formula_units_Z 40
_cell_length_a 8.722528
_cell_length_b 29.702268
_cell_length_c 7.608890
_cell_angle_alpha 90.000000
_cell_angle_beta 90.000000
_cell_angle_gamma 90.000000
_cell_volume 1971.302580
_symmetry_space_group_name_H-M "I M A 2"
_symmetry_group_IT_number 46
_symmetry_cell_setting 'orthorhombic'
loop_
_space_group_symop_operation_xyz
x,y,z
-x,-y,z
1/2-x,y,z
1/2+x,-y,z
1/2+x,1/2+y,1/2+z
1/2-x,1/2-y,1/2+z
-x,1/2+y,1/2+z
x,1/2-y,1/2+z
loop_
_atom_site_type_symbol
_atom_site_label
_atom_site_fract_x
_atom_site_fract_y
_atom_site_fract_z
Si Si1 0.933519 0.604725 0.062160
Si Si2 0.070423 0.613617 0.682929
Si Si3 0.430836 0.951797 0.866412
Si Si4 0.420030 0.295453 0.687893
Si Si5 0.917946 0.700972 0.097566
O O1 0.750000 0.604294 0.061500
O O2 0.994973 0.652778 0.145622
O O3 0.998238 0.565407 0.183515
O O4 0.989231 0.597811 0.862394
O O5 0.250000 0.613973 0.718613
O O6 0.022508 0.579689 0.529084
O O7 0.019790 0.663217 0.614814
O O8 0.250000 0.954963 0.842750
O O9 0.500000 0.000000 0.910118
O O10 0.250000 0.295946 0.598166
O O11 0.505706 0.247146 0.651125
O O12 0.400745 0.302158 0.891356
O O13 0.750000 0.704140 0.187393
#
# Coordination Sequence:
#
# PCOD8193004 Si02
#       5
#     8   8   8   8   8
#     4  10  21  39  64  90 120 158 200 249 303 356
#     4  10  22  40  59  85 124 161 197 247 302 359
#     4  11  25  43  64  90 119 155 202 251 305 363
#     4   9  17  31  52  80 113 153 202 245 287 346
#     4   8  16  29  50  81 112 149 196 242 286 342
#
# _framework density 20.291153999999999
#
# number of rings (size 3 to 8) (size 9 to 14) (size 15 to 20)
#    0.000    2.400    0.000    3.000    2.800    4.000 
#    0.000    7.000    0.000    0.000    0.000    0.000 
#    0.000    0.000    0.000    0.000    0.000    0.000 
#
# Total GULP energy -247815.819446 kJ/mol
# GULP energy per Si atom -12390.790972 kJ/mol
# Density = 2.024497 g / cm^3
# Si number density = 20.291154 Si / 1000 Ang^3
#
#
#
# Elastic Constant Matrix: (Units=GPa)
#
#
# Indices 1 2 3 4 5 6 
#
# 1 60.8657 21.7827 20.8922 0.0044 0.0025 0.0044
# 2 21.7827 108.3370 19.6947 0.0128 0.0039 0.0068
# 3 20.8922 19.6947 57.3557 0.0249 0.0041 0.0139
# 4 0.0044 0.0128 0.0249 15.8246 -0.0013 -0.0007
# 5 0.0025 0.0039 0.0041 -0.0013 25.0345 0.0012
# 6 0.0044 0.0068 0.0139 -0.0007 0.0012 25.4944
#
#
#
# Elastic Compliance Matrix: (Units=1/GPa)
#
#
# Indices 1 2 3 4 5 6 
#
# 1 0.019549 -0.002812 -0.006155 0.000007 0.000000 0.000001
# 2 -0.002812 0.010249 -0.002495 -0.000004 -0.000001 -0.000001
# 3 -0.006155 -0.002495 0.020534 -0.000029 -0.000002 -0.000009
# 4 0.000007 -0.000004 -0.000029 0.063193 0.000003 0.000002
# 5 0.000000 -0.000001 -0.000002 0.000003 0.039945 -0.000002
# 6 0.000001 -0.000001 -0.000009 0.000002 -0.000002 0.039224
#
#
# Mechanical properties :
#
#
# Convention : Reuss Voigt Hill
#
# Bulk Modulus (GPa) = 36.48605 39.03309 37.75957
# Shear Modulus (GPa) = 22.24653 24.21662 23.23158
#
# Velocity S-wave (km/s) = 3.31473 3.45839 3.38732
# Velocity P-wave (km/s) = 5.71579 5.93511 5.82648
#
# Compressibility (1/GPa) = 0.02740774
#
# Stress axis : x y z
#
# Youngs Moduli (GPa) = 51.15450 97.56688 48.69971
#
# Poissons Ratio (x) = 0.27431 0.29976
# Poissons Ratio (y) = 0.14382 0.12152
# Poissons Ratio (z) = 0.31487 0.24346
#
# Static dielectric constant tensor:
#      x y z
#    x 3.567790 0.000000 0.000000 
#    y 0.000000 4.294710 -0.000020 
#    z 0.000000 -0.000020 3.517600 
# 
# 
# High freq. dielectric constant tensor:
#      x y z
#    x 1.764030 0.000000 0.000000 
#    y 0.000000 1.808320 0.000000 
#    z 0.000000 0.000000 1.789470 
# 
# From -- ./inp_files/3664.got.cif
#   From: 2010.03.12/outbox.cif.g09.slc.cpg/sg46_2_cif.got.tgz:3664.got - 2010.04.14 02:56:35.
