data_PCOD8193740
_publ_section_title
;
Structure prediction by ZEFSAII (Michael W. Deem and Ramdas Pophale) SiO2 
 PCOD8193740
Probable space group: P M M M
;
_chemical_formula_sum "Si O2"
_cell_formula_units_Z 64
_cell_length_a 9.198826
_cell_length_b 26.230386
_cell_length_c 18.326431
_cell_angle_alpha 90.000000
_cell_angle_beta 90.000000
_cell_angle_gamma 90.000000
_cell_volume 4421.961751
_symmetry_space_group_name_H-M "P M M M"
_symmetry_group_IT_number 47
_symmetry_cell_setting 'orthorhombic'
loop_
_space_group_symop_operation_xyz
x,y,z
-x,-y,z
x,-y,-z
-x,y,-z
-x,-y,-z
x,y,-z
-x,y,z
x,-y,z
loop_
_atom_site_type_symbol
_atom_site_label
_atom_site_fract_x
_atom_site_fract_y
_atom_site_fract_z
Si Si1 0.163073 0.943956 0.413428
Si Si2 0.168573 0.650898 0.416502
Si Si3 0.833010 0.442022 0.831900
Si Si4 0.662656 0.399457 0.703588
Si Si5 0.338980 0.707103 0.214049
Si Si6 0.169027 0.755452 0.335161
Si Si7 0.669958 0.357230 0.916831
Si Si8 0.330248 0.845977 0.585294
O O1 0.164804 0.945065 0.500000
O O2 0.272985 0.900573 0.385420
O O3 0.000000 0.931458 0.385817
O O4 0.211725 0.000000 0.384173
O O5 0.218768 0.650049 0.500000
O O6 0.259592 0.607627 0.374463
O O7 0.201397 0.706979 0.385733
O O8 0.000000 0.637481 0.407362
O O9 0.821372 0.500000 0.859495
O O10 0.753926 0.438008 0.753642
O O11 0.759581 0.406843 0.893062
O O12 0.000000 0.425051 0.821955
O O13 0.500000 0.420995 0.691562
O O14 0.657694 0.345513 0.742852
O O15 0.500000 0.731914 0.213871
O O16 0.227723 0.745742 0.252922
O O17 0.288191 0.692594 0.131744
O O18 0.250988 0.802676 0.369644
O O19 0.000000 0.768290 0.330211
O O20 0.500000 0.370048 0.905525
O O21 0.707585 0.343810 0.000000
O O22 0.294181 0.838656 0.500000
O O23 0.500000 0.842838 0.600936
#
# Coordination Sequence:
#
# PCOD8193740 Si02
#       8
#     8   8   8   8   8   8   8   8
#     4   8  14  25  39  52  68  95 132 172 212 252
#     4   9  17  28  42  60  81 104 129 160 200 243
#     4  10  20  32  46  64  85 108 132 158 190 227
#     4   9  17  29  45  62  79 102 131 161 193 232
#     4   8  15  28  43  59  80 104 129 156 187 226
#     4  10  18  27  40  57  78 104 134 165 197 236
#     4   9  18  32  49  68  88 109 132 157 186 223
#     4  10  19  27  36  53  77 104 135 174 216 250
#
# _framework density 14.473215
#
# number of rings (size 3 to 8) (size 9 to 14) (size 15 to 20)
#    0.000    2.875    0.000    3.000    0.000    6.750 
#    0.000    2.500    0.000    0.375    0.000    2.625 
#    0.000    0.000    0.000    0.000    0.000    0.625 
#
# Total GULP energy -793364.611076 kJ/mol
# GULP energy per Si atom -12396.322048 kJ/mol
# Density = 1.444027 g / cm^3
# Si number density = 14.473215 Si / 1000 Ang^3
#
#
#
# Elastic Constant Matrix: (Units=GPa)
#
#
# Indices 1 2 3 4 5 6 
#
# 1 89.7517 44.9813 47.6254 0.0000 0.0000 0.0000
# 2 44.9813 56.9034 36.5892 0.0000 0.0000 0.0000
# 3 47.6254 36.5892 96.5367 0.0000 0.0000 0.0000
# 4 0.0000 0.0000 0.0000 9.7768 0.0000 0.0000
# 5 0.0000 0.0000 0.0000 0.0000 19.5631 0.0000
# 6 0.0000 0.0000 0.0000 0.0000 0.0000 22.3521
#
#
#
# Elastic Compliance Matrix: (Units=1/GPa)
#
#
# Indices 1 2 3 4 5 6 
#
# 1 0.020241 -0.012666 -0.005185 0.000000 0.000000 0.000000
# 2 -0.012666 0.031163 -0.005563 0.000000 0.000000 0.000000
# 3 -0.005185 -0.005563 0.015025 0.000000 0.000000 0.000000
# 4 0.000000 0.000000 0.000000 0.102283 0.000000 0.000000
# 5 0.000000 0.000000 0.000000 0.000000 0.051117 0.000000
# 6 0.000000 0.000000 0.000000 0.000000 0.000000 0.044739
#
#
# Mechanical properties :
#
#
# Convention : Reuss Voigt Hill
#
# Bulk Modulus (GPa) = 51.01679 55.73151 53.37415
# Shear Modulus (GPa) = 15.72678 17.93813 16.83245
#
# Velocity S-wave (km/s) = 3.29996 3.52433 3.41399
# Velocity P-wave (km/s) = 7.06012 7.42640 7.24558
#
# Compressibility (1/GPa) = 0.01960139
#
# Stress axis : x y z
#
# Youngs Moduli (GPa) = 49.40403 32.08937 66.55569
#
# Poissons Ratio (x) = 0.40646 0.34509
# Poissons Ratio (y) = 0.62577 0.37022
# Poissons Ratio (z) = 0.25616 0.17850
#
# Static dielectric constant tensor:
#      x y z
#    x 2.997150 0.000000 0.000000 
#    y 0.000000 2.741490 0.000000 
#    z 0.000000 0.000000 2.821850 
# 
# 
# High freq. dielectric constant tensor:
#      x y z
#    x 1.565890 0.000000 0.000000 
#    y 0.000000 1.524310 0.000000 
#    z 0.000000 0.000000 1.524800 
# 
# From -- ./inp_files/13499.got.cif
#   From: 2010.03.12/outbox.cif.g09.slc.cpg/sg47_7_cif.got.tgz:13499.got - 2010.04.14 03:12:58.
