data_PCOD8193493
_publ_section_title
;
Structure prediction by ZEFSAII (Michael W. Deem and Ramdas Pophale) SiO2 
 PCOD8193493
Probable space group: P M M M
;
_chemical_formula_sum "Si O2"
_cell_formula_units_Z 60
_cell_length_a 25.193928
_cell_length_b 8.198660
_cell_length_c 18.570659
_cell_angle_alpha 90.000000
_cell_angle_beta 90.000000
_cell_angle_gamma 90.000000
_cell_volume 3835.889392
_symmetry_space_group_name_H-M "P M M M"
_symmetry_group_IT_number 47
_symmetry_cell_setting 'orthorhombic'
loop_
_space_group_symop_operation_xyz
x,y,z
-x,-y,z
x,-y,-z
-x,y,-z
-x,-y,-z
x,y,-z
-x,y,z
x,-y,z
loop_
_atom_site_type_symbol
_atom_site_label
_atom_site_fract_x
_atom_site_fract_y
_atom_site_fract_z
Si Si1 0.373677 0.185421 0.415921
Si Si2 0.440695 0.500000 0.414753
Si Si3 0.059320 0.687640 0.155766
Si Si4 0.160847 0.808875 0.920666
Si Si5 0.728639 0.688154 0.654710
Si Si6 0.892354 0.180167 0.290716
Si Si7 0.780126 0.817762 0.213501
Si Si8 0.163636 0.692396 0.419961
O O1 0.360967 0.211079 0.500000
O O2 0.412868 0.330573 0.388964
O O3 0.319823 0.201017 0.370818
O O4 0.396481 0.000000 0.403091
O O5 0.500000 0.500000 0.382068
O O6 0.443077 0.500000 0.500000
O O7 0.065895 0.500000 0.136423
O O8 0.100951 0.784511 0.107031
O O9 0.069241 0.711096 0.241279
O O10 0.000000 0.748859 0.137104
O O11 0.205337 0.738183 0.864865
O O12 0.170332 0.000000 0.924627
O O13 0.168294 0.729508 0.000000
O O14 0.715900 0.500000 0.637961
O O15 0.738361 0.710122 0.740893
O O16 0.780039 0.752407 0.611585
O O17 0.834863 0.175794 0.255711
O O18 0.885949 0.250620 0.371230
O O19 0.917042 0.000000 0.295276
O O20 0.756629 0.000000 0.205015
O O21 0.156363 0.765253 0.500000
O O22 0.163913 0.500000 0.421471
#
# Coordination Sequence:
#
# PCOD8193493 Si02
#       8
#     8   4   8   8   8   8   8   8
#     4  10  19  29  43  63  87 117 154 197 240 274
#     4   9  18  32  46  60  84 118 157 201 240 275
#     4  10  20  32  46  63  81 102 130 166 208 250
#     4   9  18  32  48  65  86 111 138 168 201 243
#     4  10  17  26  41  61  87 114 143 179 217 257
#     4   9  17  29  44  60  79 103 132 166 202 247
#     4   8  15  27  41  59  82 108 138 167 201 250
#     4   9  17  27  41  61  85 112 136 163 205 256
#
# _framework density 15.641743999999999
#
# number of rings (size 3 to 8) (size 9 to 14) (size 15 to 20)
#    0.000    2.733    0.667    2.400    0.000    6.400 
#    0.000    2.667    0.000    0.400    0.000    2.800 
#    0.000    0.000    0.000    0.000    0.000    1.333 
#
# Total GULP energy -743468.884840 kJ/mol
# GULP energy per Si atom -12391.148081 kJ/mol
# Density = 1.560614 g / cm^3
# Si number density = 15.641744 Si / 1000 Ang^3
#
#
#
# Elastic Constant Matrix: (Units=GPa)
#
#
# Indices 1 2 3 4 5 6 
#
# 1 42.8951 19.3873 28.7503 0.0000 0.0000 0.0000
# 2 19.3873 53.8953 15.6706 0.0000 0.0000 0.0000
# 3 28.7503 15.6706 106.5183 0.0000 0.0000 0.0000
# 4 0.0000 0.0000 0.0000 16.8352 0.0000 0.0000
# 5 0.0000 0.0000 0.0000 0.0000 10.5894 0.0000
# 6 0.0000 0.0000 0.0000 0.0000 0.0000 17.1662
#
#
#
# Elastic Compliance Matrix: (Units=1/GPa)
#
#
# Indices 1 2 3 4 5 6 
#
# 1 0.032593 -0.009576 -0.007388 0.000000 0.000000 0.000000
# 2 -0.009576 0.022197 -0.000681 0.000000 0.000000 0.000000
# 3 -0.007388 -0.000681 0.011482 0.000000 0.000000 0.000000
# 4 0.000000 0.000000 0.000000 0.059399 0.000000 0.000000
# 5 0.000000 0.000000 0.000000 0.000000 0.094434 0.000000
# 6 0.000000 0.000000 0.000000 0.000000 0.000000 0.058254
#
#
# Mechanical properties :
#
#
# Convention : Reuss Voigt Hill
#
# Bulk Modulus (GPa) = 32.27701 36.76946 34.52324
# Shear Modulus (GPa) = 15.43314 18.21817 16.82565
#
# Velocity S-wave (km/s) = 3.14453 3.41649 3.28333
# Velocity P-wave (km/s) = 5.81928 6.25472 6.04093
#
# Compressibility (1/GPa) = 0.03098180
#
# Stress axis : x y z
#
# Youngs Moduli (GPa) = 30.68164 45.05073 87.08975
#
# Poissons Ratio (x) = 0.43141 0.64345
# Poissons Ratio (y) = 0.29381 0.05930
# Poissons Ratio (z) = 0.22669 0.03067
#
# Static dielectric constant tensor:
#      x y z
#    x 2.744720 0.000000 0.000000 
#    y 0.000000 3.042640 0.000000 
#    z 0.000000 0.000000 3.329690 
# 
# 
# High freq. dielectric constant tensor:
#      x y z
#    x 1.551880 0.000000 0.000000 
#    y 0.000000 1.605780 0.000000 
#    z 0.000000 0.000000 1.584080 
# 
# From -- ./inp_files/28889.got.cif
#   From: 2010.03.12/outbox.cif.g09.slc.cpg/sg47_15_cif.got.tgz:28889.got - 2010.04.14 03:12:58.
