data_PCOD8193431
_publ_section_title
;
Structure prediction by ZEFSAII (Michael W. Deem and Ramdas Pophale) SiO2 
 PCOD8193431
Probable space group: I M A 2
;
_chemical_formula_sum "Si O2"
_cell_formula_units_Z 48
_cell_length_a 24.350784
_cell_length_b 15.173725
_cell_length_c 8.329038
_cell_angle_alpha 90.000000
_cell_angle_beta 90.000000
_cell_angle_gamma 90.000000
_cell_volume 3077.513741
_symmetry_space_group_name_H-M "I M A 2"
_symmetry_group_IT_number 46
_symmetry_cell_setting 'orthorhombic'
loop_
_space_group_symop_operation_xyz
x,y,z
-x,-y,z
1/2-x,y,z
1/2+x,-y,z
1/2+x,1/2+y,1/2+z
1/2-x,1/2-y,1/2+z
-x,1/2+y,1/2+z
x,1/2-y,1/2+z
loop_
_atom_site_type_symbol
_atom_site_label
_atom_site_fract_x
_atom_site_fract_y
_atom_site_fract_z
Si Si1 0.689281 0.781897 0.420140
Si Si2 0.486862 0.209803 0.072495
Si Si3 0.189604 0.118262 0.741389
Si Si4 0.422337 0.150349 0.363968
Si Si5 0.580905 0.967301 0.655145
Si Si6 0.979242 0.133487 0.766303
O O1 0.750000 0.809863 0.355360
O O2 0.683568 0.806080 0.606484
O O3 0.682151 0.675450 0.403707
O O4 0.641728 0.833861 0.323696
O O5 0.455801 0.144619 0.197440
O O6 0.526543 0.275673 0.169423
O O7 0.443300 0.265972 0.968182
O O8 0.526829 0.152262 0.956968
O O9 0.250000 0.072456 0.734923
O O10 0.143090 0.044638 0.717794
O O11 0.427324 0.059328 0.467060
O O12 0.540772 0.904905 0.755678
O O13 0.565783 0.068538 0.689772
#
# Coordination Sequence:
#
# PCOD8193431 Si02
#       6
#     8   8   8   8   8   8
#     4   9  15  22  35  57  84 113 142 161 182 231
#     4   9  16  27  43  57  76 108 142 169 207 251
#     4   9  16  25  39  59  83 113 142 166 196 237
#     4   9  15  25  41  59  83 113 139 168 202 240
#     4   9  17  28  41  60  87 107 131 173 212 243
#     4   9  17  29  42  59  81 106 136 175 211 247
#
# _framework density 15.597004999999999
#
# number of rings (size 3 to 8) (size 9 to 14) (size 15 to 20)
#    0.000    3.000    0.000    4.000    0.000    0.000 
#    0.000   10.000    0.000    0.000    0.000    1.167 
#    0.000    0.000    0.000    0.000    0.000    0.000 
#
# Total GULP energy -297331.894458 kJ/mol
# GULP energy per Si atom -12388.828936 kJ/mol
# Density = 1.556151 g / cm^3
# Si number density = 15.597005 Si / 1000 Ang^3
#
#
#
# Elastic Constant Matrix: (Units=GPa)
#
#
# Indices 1 2 3 4 5 6 
#
# 1 90.4850 42.1605 33.7615 0.0000 0.0000 0.0000
# 2 42.1605 60.6866 38.4088 0.0000 0.0000 0.0000
# 3 33.7615 38.4088 78.5326 0.0000 0.0000 0.0000
# 4 0.0000 0.0000 0.0000 17.8662 0.0000 0.0000
# 5 0.0000 0.0000 0.0000 0.0000 16.8979 0.0000
# 6 0.0000 0.0000 0.0000 0.0000 0.0000 19.5157
#
#
#
# Elastic Compliance Matrix: (Units=1/GPa)
#
#
# Indices 1 2 3 4 5 6 
#
# 1 0.016592 -0.010156 -0.002166 0.000000 0.000000 0.000000
# 2 -0.010156 0.030082 -0.010346 0.000000 0.000000 0.000000
# 3 -0.002166 -0.010346 0.018725 0.000000 0.000000 0.000000
# 4 0.000000 0.000000 0.000000 0.055972 0.000000 0.000000
# 5 0.000000 0.000000 0.000000 0.000000 0.059179 0.000000
# 6 0.000000 0.000000 0.000000 0.000000 0.000000 0.051241
#
#
# Mechanical properties :
#
#
# Convention : Reuss Voigt Hill
#
# Bulk Modulus (GPa) = 49.84481 50.92954 50.38718
# Shear Modulus (GPa) = 17.61722 18.54754 18.08238
#
# Velocity S-wave (km/s) = 3.36449 3.45218 3.40862
# Velocity P-wave (km/s) = 6.86443 6.97240 6.91862
#
# Compressibility (1/GPa) = 0.02006227
#
# Stress axis : x y z
#
# Youngs Moduli (GPa) = 60.27120 33.24254 53.40489
#
# Poissons Ratio (x) = 0.33761 0.11566
# Poissons Ratio (y) = 0.61211 0.55255
# Poissons Ratio (z) = 0.13053 0.34394
#
# Static dielectric constant tensor:
#      x y z
#    x 2.959710 0.000000 0.000000 
#    y 0.000000 2.685630 0.000000 
#    z 0.000000 0.000000 3.094360 
# 
# 
# High freq. dielectric constant tensor:
#      x y z
#    x 1.581170 0.000000 0.000000 
#    y 0.000000 1.549170 0.000000 
#    z 0.000000 0.000000 1.602320 
# 
# From -- ./inp_files/7309.got.cif
#   From: 2010.03.12/outbox.cif.g09.slc.cpg/sg46_4_cif.got.tgz:7309.got - 2010.04.14 02:56:35.
