data_PCOD8193530
_publ_section_title
;
Structure prediction by ZEFSAII (Michael W. Deem and Ramdas Pophale) SiO2 
 PCOD8193530
Probable space group: P M M M
;
_chemical_formula_sum "Si O2"
_cell_formula_units_Z 36
_cell_length_a 14.421392
_cell_length_b 9.212492
_cell_length_c 18.136150
_cell_angle_alpha 90.000000
_cell_angle_beta 90.000000
_cell_angle_gamma 90.000000
_cell_volume 2409.513727
_symmetry_space_group_name_H-M "P M M M"
_symmetry_group_IT_number 47
_symmetry_cell_setting 'orthorhombic'
loop_
_space_group_symop_operation_xyz
x,y,z
-x,-y,z
x,-y,-z
-x,y,-z
-x,-y,-z
x,y,-z
-x,y,z
x,-y,z
loop_
_atom_site_type_symbol
_atom_site_label
_atom_site_fract_x
_atom_site_fract_y
_atom_site_fract_z
Si Si1 0.396357 0.827817 0.500000
Si Si2 0.390015 0.162655 0.081064
Si Si3 0.898536 0.172071 0.417459
Si Si4 0.391695 0.330396 0.777296
Si Si5 0.708969 0.172228 0.645632
O O1 0.500000 0.763144 0.500000
O O2 0.344481 0.772803 0.572925
O O3 0.398057 0.000000 0.500000
O O4 0.500000 0.163479 0.079317
O O5 0.354946 0.272960 0.143684
O O6 0.354513 0.000000 0.099295
O O7 0.352814 0.211152 0.000000
O O8 0.882305 0.234451 0.500000
O O9 0.816390 0.222546 0.362983
O O10 0.000000 0.223252 0.387768
O O11 0.895240 0.000000 0.422881
O O12 0.500000 0.293791 0.765767
O O13 0.372343 0.500000 0.773486
O O14 0.332984 0.251071 0.715453
O O15 0.698798 0.000000 0.656360
#
# Coordination Sequence:
#
# PCOD8193530 Si02
#       5
#     4   8   8   8   8
#     4   9  16  24  36  56  78 103 141 181 206 231
#     4   8  14  26  44  63  81 104 137 174 208 242
#     4   8  13  23  41  64  84  99 126 175 227 264
#     4  10  20  30  39  56  85 118 146 172 205 243
#     4  10  17  27  43  61  80 107 142 177 213 250
#
# _framework density 14.940773999999999
#
# number of rings (size 3 to 8) (size 9 to 14) (size 15 to 20)
#    0.000    3.000    1.111    2.667    0.000    2.667 
#    0.000    2.778    0.000    2.667    0.000    1.556 
#    0.000    0.889    0.000   10.222    0.000    3.333 
#
# Total GULP energy -446106.459785 kJ/mol
# GULP energy per Si atom -12391.846105 kJ/mol
# Density = 1.490677 g / cm^3
# Si number density = 14.940774 Si / 1000 Ang^3
#
#
#
# Elastic Constant Matrix: (Units=GPa)
#
#
# Indices 1 2 3 4 5 6 
#
# 1 95.5481 35.3893 59.9675 0.0000 0.0000 0.0000
# 2 35.3893 47.9250 48.4329 0.0000 0.0000 0.0000
# 3 59.9675 48.4329 129.4012 0.0000 0.0000 0.0000
# 4 0.0000 0.0000 0.0000 -1.7287 0.0000 0.0000
# 5 0.0000 0.0000 0.0000 0.0000 4.5822 0.0000
# 6 0.0000 0.0000 0.0000 0.0000 0.0000 9.0314
#
#
#
# Elastic Compliance Matrix: (Units=1/GPa)
#
#
# Indices 1 2 3 4 5 6 
#
# 1 0.016094 -0.006992 -0.004842 0.000000 0.000000 0.000000
# 2 -0.006992 0.036597 -0.010458 0.000000 0.000000 0.000000
# 3 -0.004842 -0.010458 0.013886 0.000000 0.000000 0.000000
# 4 0.000000 0.000000 0.000000 -0.578463 0.000000 0.000000
# 5 0.000000 0.000000 0.000000 0.000000 0.218236 0.000000
# 6 0.000000 0.000000 0.000000 0.000000 0.000000 0.110724
#
#
# Mechanical properties :
#
#
# Convention : Reuss Voigt Hill
#
# Bulk Modulus (GPa) = 45.46389 62.27264 53.86826
# Shear Modulus (GPa) = -38.16436 10.98262 -13.59087
#
# Velocity S-wave (km/s) = -5.05957 2.71417 -3.01931
# Velocity P-wave (km/s) = 1.90704 7.18279 4.89671
#
# Compressibility (1/GPa) = 0.02199548
#
# Stress axis : x y z
#
# Youngs Moduli (GPa) = 62.13454 27.32438 72.01612
#
# Poissons Ratio (x) = 0.19104 0.34867
# Poissons Ratio (y) = 0.43442 0.75313
# Poissons Ratio (z) = 0.30083 0.28575
#
# Static dielectric constant tensor:
#      x y z
#    x 2.965630 0.000000 0.000000 
#    y 0.000000 2.629130 0.000000 
#    z 0.000000 0.000000 3.079760 
# 
# 
# High freq. dielectric constant tensor:
#      x y z
#    x 1.544000 0.000000 0.000000 
#    y 0.000000 1.542230 0.000000 
#    z 0.000000 0.000000 1.568170 
# 
# From -- ./inp_files/5945.got.cif
#   From: 2010.03.12/outbox.cif.g09.slc.cpg/sg47_3_cif.got.tgz:5945.got - 2010.04.14 03:12:58.
