data_PCOD8193732
_publ_section_title
;
Structure prediction by ZEFSAII (Michael W. Deem and Ramdas Pophale) SiO2 
 PCOD8193732
Probable space group: P M M M
;
_chemical_formula_sum "Si O2"
_cell_formula_units_Z 64
_cell_length_a 18.265611
_cell_length_b 9.311172
_cell_length_c 26.599627
_cell_angle_alpha 90.000000
_cell_angle_beta 90.000000
_cell_angle_gamma 90.000000
_cell_volume 4523.911498
_symmetry_space_group_name_H-M "P M M M"
_symmetry_group_IT_number 47
_symmetry_cell_setting 'orthorhombic'
loop_
_space_group_symop_operation_xyz
x,y,z
-x,-y,z
x,-y,-z
-x,y,-z
-x,-y,-z
x,y,-z
-x,y,z
x,-y,z
loop_
_atom_site_type_symbol
_atom_site_label
_atom_site_fract_x
_atom_site_fract_y
_atom_site_fract_z
Si Si1 0.712842 0.657918 0.600823
Si Si2 0.795413 0.662609 0.293937
Si Si3 0.084519 0.168779 0.345806
Si Si4 0.332710 0.170197 0.250427
Si Si5 0.583838 0.332997 0.664607
Si Si6 0.586970 0.338180 0.055006
Si Si7 0.167139 0.832664 0.555425
Si Si8 0.416759 0.167288 0.149751
O O1 0.716762 0.500000 0.576453
O O2 0.752943 0.660102 0.654088
O O3 0.628986 0.701782 0.613266
O O4 0.752324 0.765183 0.562740
O O5 0.809529 0.500000 0.274356
O O6 0.872401 0.744230 0.302699
O O7 0.746183 0.751788 0.254356
O O8 0.110254 0.218159 0.401783
O O9 0.000000 0.208951 0.340542
O O10 0.098740 0.000000 0.338130
O O11 0.390228 0.230739 0.290627
O O12 0.365208 0.207688 0.196130
O O13 0.323228 0.000000 0.258910
O O14 0.500000 0.299876 0.652530
O O15 0.596683 0.500000 0.680062
O O16 0.500000 0.331479 0.055432
O O17 0.614329 0.500000 0.064091
O O18 0.617619 0.240980 0.100153
O O19 0.614986 0.284118 0.000000
O O20 0.136814 0.789962 0.500000
O O21 0.179818 0.000000 0.559407
O O22 0.500000 0.220003 0.160853
O O23 0.416477 0.000000 0.139028
#
# Coordination Sequence:
#
# PCOD8193732 Si02
#       8
#     8   8   8   8   8   8   8   8
#     4   8  15  27  41  56  73  95 123 153 184 222
#     4   9  17  29  43  58  77 102 130 156 184 221
#     4   9  17  29  45  64  84 104 125 150 181 217
#     4  10  18  27  39  56  79 103 129 161 196 235
#     4   9  17  28  41  57  76  97 123 157 196 235
#     4   8  14  24  36  49  66  92 129 170 207 241
#     4   9  17  28  42  60  80 101 124 150 181 217
#     4   9  17  26  35  51  75 101 130 166 206 242
#
# _framework density 14.14705
#
# number of rings (size 3 to 8) (size 9 to 14) (size 15 to 20)
#    0.000    3.125    0.000    2.250    0.000    5.750 
#    0.000    3.750    0.000    0.375    0.000    6.125 
#    0.000    0.000    0.000    0.000    0.000    0.625 
#
# Total GULP energy -793167.494982 kJ/mol
# GULP energy per Si atom -12393.242109 kJ/mol
# Density = 1.411485 g / cm^3
# Si number density = 14.147050 Si / 1000 Ang^3
#
#
#
# Elastic Constant Matrix: (Units=GPa)
#
#
# Indices 1 2 3 4 5 6 
#
# 1 92.3137 38.8361 39.5910 0.0000 0.0000 0.0000
# 2 38.8361 55.9059 36.1303 0.0000 0.0000 0.0000
# 3 39.5910 36.1303 61.2667 0.0000 0.0000 0.0000
# 4 0.0000 0.0000 0.0000 20.4785 0.0000 0.0000
# 5 0.0000 0.0000 0.0000 0.0000 11.9283 0.0000
# 6 0.0000 0.0000 0.0000 0.0000 0.0000 19.2338
#
#
#
# Elastic Compliance Matrix: (Units=1/GPa)
#
#
# Indices 1 2 3 4 5 6 
#
# 1 0.016723 -0.007486 -0.006392 0.000000 0.000000 0.000000
# 2 -0.007486 0.032254 -0.014183 0.000000 0.000000 0.000000
# 3 -0.006392 -0.014183 0.028817 0.000000 0.000000 0.000000
# 4 0.000000 0.000000 0.000000 0.048832 0.000000 0.000000
# 5 0.000000 0.000000 0.000000 0.000000 0.083834 0.000000
# 6 0.000000 0.000000 0.000000 0.000000 0.000000 0.051992
#
#
# Mechanical properties :
#
#
# Convention : Reuss Voigt Hill
#
# Bulk Modulus (GPa) = 46.14412 48.73346 47.43879
# Shear Modulus (GPa) = 15.34690 16.65669 16.00179
#
# Velocity S-wave (km/s) = 3.29722 3.43504 3.36684
# Velocity P-wave (km/s) = 6.86905 7.08910 6.97994
#
# Compressibility (1/GPa) = 0.02167123
#
# Stress axis : x y z
#
# Youngs Moduli (GPa) = 59.79622 31.00404 34.70210
#
# Poissons Ratio (x) = 0.23211 0.22181
# Poissons Ratio (y) = 0.44766 0.49218
# Poissons Ratio (z) = 0.38222 0.43973
#
# Static dielectric constant tensor:
#      x y z
#    x 2.738950 0.000000 0.000000 
#    y 0.000000 2.891240 0.000000 
#    z 0.000000 0.000000 2.782690 
# 
# 
# High freq. dielectric constant tensor:
#      x y z
#    x 1.512440 0.000000 0.000000 
#    y 0.000000 1.546900 0.000000 
#    z 0.000000 0.000000 1.513040 
# 
# From -- ./inp_files/13504.got.cif
#   From: 2010.03.12/outbox.cif.g09.slc.cpg/sg47_7_cif.got.tgz:13504.got - 2010.04.14 03:12:58.
