data_PCOD8193384
_publ_section_title
;
Structure prediction by ZEFSAII (Michael W. Deem and Ramdas Pophale) SiO2 
 PCOD8193384
Probable space group: I M A 2
;
_chemical_formula_sum "Si O2"
_cell_formula_units_Z 60
_cell_length_a 16.910243
_cell_length_b 11.124182
_cell_length_c 15.773747
_cell_angle_alpha 90.000000
_cell_angle_beta 90.000000
_cell_angle_gamma 90.000000
_cell_volume 2967.240888
_symmetry_space_group_name_H-M "I M A 2"
_symmetry_group_IT_number 46
_symmetry_cell_setting 'orthorhombic'
loop_
_space_group_symop_operation_xyz
x,y,z
-x,-y,z
1/2-x,y,z
1/2+x,-y,z
1/2+x,1/2+y,1/2+z
1/2-x,1/2-y,1/2+z
-x,1/2+y,1/2+z
x,1/2-y,1/2+z
loop_
_atom_site_type_symbol
_atom_site_label
_atom_site_fract_x
_atom_site_fract_y
_atom_site_fract_z
Si Si1 0.570066 0.823675 0.246190
Si Si2 0.572320 0.209864 0.011073
Si Si3 0.000000 0.500000 0.607612
Si Si4 0.838820 0.979948 0.362377
Si Si5 0.160999 0.120292 0.662610
Si Si6 0.409184 0.775966 0.327510
Si Si7 0.339563 0.837347 0.664229
Si Si8 0.442509 0.398730 0.013011
O O1 0.544934 0.901305 0.164171
O O2 0.646255 0.887041 0.286674
O O3 0.599069 0.689716 0.222956
O O4 0.500132 0.817880 0.315719
O O5 0.625828 0.289272 0.074949
O O6 0.489558 0.276819 0.995468
O O7 0.560531 0.075381 0.048040
O O8 0.607506 0.202142 0.915118
O O9 0.750000 0.962906 0.397630
O O10 0.906320 0.962993 0.431703
O O11 0.849461 0.112916 0.326284
O O12 0.250000 0.169662 0.674388
O O13 0.131868 0.143512 0.567790
O O14 0.157312 0.979039 0.675275
O O15 0.391455 0.702786 0.243152
O O16 0.250000 0.789799 0.669758
O O17 0.500000 0.500000 0.055987
#
# Coordination Sequence:
#
# PCOD8193384 Si02
#       8
#     8   8   4   8   8   8   8   8
#     4  12  22  41  67  92 133 175 230 271 332 411
#     4  12  24  41  69  96 131 172 228 283 334 404
#     4  12  24  42  66  98 130 178 224 280 330 400
#     4  12  23  38  63  96 131 169 223 288 336 386
#     4  11  24  40  64  96 131 171 217 279 343 397
#     4  12  23  41  69  96 128 182 233 274 329 418
#     4  11  24  43  66  98 137 178 223 280 349 403
#     4  12  20  39  65  93 122 166 223 273 329 400
#
# _framework density 20.220803
#
# number of rings (size 3 to 8) (size 9 to 14) (size 15 to 20)
#    0.000    0.267    8.000    1.200    0.000    3.200 
#    0.000    0.667    0.000    0.000    0.000    0.000 
#    0.000    0.000    0.000    0.000    0.000    0.000 
#
# Total GULP energy -371863.526541 kJ/mol
# GULP energy per Si atom -12395.450885 kJ/mol
# Density = 2.017478 g / cm^3
# Si number density = 20.220803 Si / 1000 Ang^3
#
#
#
# Elastic Constant Matrix: (Units=GPa)
#
#
# Indices 1 2 3 4 5 6 
#
# 1 106.2674 29.1904 31.4678 0.0000 0.0000 0.0000
# 2 29.1904 70.9269 24.4807 0.0000 0.0000 0.0000
# 3 31.4678 24.4807 112.6861 0.0000 0.0000 0.0000
# 4 0.0000 0.0000 0.0000 28.8017 0.0000 0.0000
# 5 0.0000 0.0000 0.0000 0.0000 18.6724 0.0000
# 6 0.0000 0.0000 0.0000 0.0000 0.0000 29.6679
#
#
#
# Elastic Compliance Matrix: (Units=1/GPa)
#
#
# Indices 1 2 3 4 5 6 
#
# 1 0.011128 -0.003792 -0.002284 0.000000 0.000000 0.000000
# 2 -0.003792 0.016534 -0.002533 0.000000 0.000000 0.000000
# 3 -0.002284 -0.002533 0.010062 0.000000 0.000000 0.000000
# 4 0.000000 0.000000 0.000000 0.034720 0.000000 0.000000
# 5 0.000000 0.000000 0.000000 0.000000 0.053555 0.000000
# 6 0.000000 0.000000 0.000000 0.000000 0.000000 0.033706
#
#
# Mechanical properties :
#
#
# Convention : Reuss Voigt Hill
#
# Bulk Modulus (GPa) = 48.76353 51.12866 49.94610
# Shear Modulus (GPa) = 27.20966 29.07784 28.14375
#
# Velocity S-wave (km/s) = 3.67226 3.79623 3.73476
# Velocity P-wave (km/s) = 6.49219 6.67497 6.58421
#
# Compressibility (1/GPa) = 0.02050713
#
# Stress axis : x y z
#
# Youngs Moduli (GPa) = 89.86349 60.48232 99.38105
#
# Poissons Ratio (x) = 0.22932 0.22697
# Poissons Ratio (y) = 0.34072 0.25174
# Poissons Ratio (z) = 0.20523 0.15321
#
# Static dielectric constant tensor:
#      x y z
#    x 3.715140 0.000000 0.000000 
#    y 0.000000 3.700350 0.000000 
#    z 0.000000 0.000000 3.713530 
# 
# 
# High freq. dielectric constant tensor:
#      x y z
#    x 1.789210 0.000000 0.000000 
#    y 0.000000 1.784920 0.000000 
#    z 0.000000 0.000000 1.793780 
# 
# From -- ./inp_files/16712.got.cif
#   From: 2010.03.12/outbox.cif.g09.slc.cpg/sg46_9_cif.got.tgz:16712.got - 2010.04.14 02:56:35.
