data_PCOD8193398
_publ_section_title
;
Structure prediction by ZEFSAII (Michael W. Deem and Ramdas Pophale) SiO2 
 PCOD8193398
Probable space group: I M A 2
;
_chemical_formula_sum "Si O2"
_cell_formula_units_Z 56
_cell_length_a 19.078290
_cell_length_b 14.349268
_cell_length_c 9.287951
_cell_angle_alpha 90.000000
_cell_angle_beta 90.000000
_cell_angle_gamma 90.000000
_cell_volume 2542.664786
_symmetry_space_group_name_H-M "I M A 2"
_symmetry_group_IT_number 46
_symmetry_cell_setting 'orthorhombic'
loop_
_space_group_symop_operation_xyz
x,y,z
-x,-y,z
1/2-x,y,z
1/2+x,-y,z
1/2+x,1/2+y,1/2+z
1/2-x,1/2-y,1/2+z
-x,1/2+y,1/2+z
x,1/2-y,1/2+z
loop_
_atom_site_type_symbol
_atom_site_label
_atom_site_fract_x
_atom_site_fract_y
_atom_site_fract_z
Si Si1 0.392981 0.209281 0.491700
Si Si2 0.038793 0.814815 0.025276
Si Si3 0.078601 0.501615 0.995533
Si Si4 0.250000 0.796272 0.819862
Si Si5 0.750000 0.364098 0.622495
Si Si6 0.169357 0.336747 0.697717
Si Si7 0.897110 0.340419 0.215255
Si Si8 0.386154 0.967182 0.183433
O O1 0.462736 0.267625 0.531173
O O2 0.397751 0.101791 0.540781
O O3 0.329149 0.259300 0.573718
O O4 0.372014 0.213362 0.326329
O O5 0.093067 0.746124 0.106409
O O6 0.046154 0.914598 0.111086
O O7 0.056390 0.826820 0.857551
O O8 0.083109 0.563935 0.137210
O O9 0.000000 0.500000 0.936948
O O10 0.119546 0.544231 0.857608
O O11 0.250000 0.688957 0.773722
O O12 0.316579 0.850371 0.757579
O O13 0.250000 0.791279 0.991511
O O14 0.818416 0.425787 0.606959
O O15 0.250000 0.366111 0.734831
O O16 0.119860 0.423130 0.648776
#
# Coordination Sequence:
#
# PCOD8193398 Si02
#       8
#     8   8   8   4   4   8   8   8
#     4  11  26  45  72 103 135 185 237 293 363 412
#     4  12  24  43  72 102 146 180 235 298 357 426
#     4  11  26  46  70  99 140 182 238 294 357 432
#     4  12  24  40  66 101 147 190 238 283 357 423
#     4  12  24  44  64 103 145 192 240 281 359 433
#     4  11  25  49  73 101 139 185 238 295 352 437
#     4  12  24  42  66 102 144 187 230 292 351 426
#     4  11  25  43  72 101 139 189 234 295 358 427
#
# _framework density 22.024137
#
# number of rings (size 3 to 8) (size 9 to 14) (size 15 to 20)
#    0.000    0.571    5.000    2.143    6.000    1.143 
#    2.571    0.000    0.000    0.000    0.000    0.000 
#    0.000    0.000    0.000    0.000    0.000    0.000 
#
# Total GULP energy -347133.041326 kJ/mol
# GULP energy per Si atom -12397.608619 kJ/mol
# Density = 2.197401 g / cm^3
# Si number density = 22.024137 Si / 1000 Ang^3
#
#
#
# Elastic Constant Matrix: (Units=GPa)
#
#
# Indices 1 2 3 4 5 6 
#
# 1 80.0028 25.7207 16.8766 0.0000 0.0000 0.0000
# 2 25.7207 132.6864 81.3223 0.0000 0.0000 0.0000
# 3 16.8766 81.3223 126.2239 0.0000 0.0000 0.0000
# 4 0.0000 0.0000 0.0000 44.5250 0.0000 0.0000
# 5 0.0000 0.0000 0.0000 0.0000 34.2545 0.0000
# 6 0.0000 0.0000 0.0000 0.0000 0.0000 28.6432
#
#
#
# Elastic Compliance Matrix: (Units=1/GPa)
#
#
# Indices 1 2 3 4 5 6 
#
# 1 0.013333 -0.002466 -0.000194 0.000000 0.000000 0.000000
# 2 -0.002466 0.012910 -0.007988 0.000000 0.000000 0.000000
# 3 -0.000194 -0.007988 0.013095 0.000000 0.000000 0.000000
# 4 0.000000 0.000000 0.000000 0.022459 0.000000 0.000000
# 5 0.000000 0.000000 0.000000 0.000000 0.029193 0.000000
# 6 0.000000 0.000000 0.000000 0.000000 0.000000 0.034912
#
#
# Mechanical properties :
#
#
# Convention : Reuss Voigt Hill
#
# Bulk Modulus (GPa) = 55.42407 65.19470 60.30938
# Shear Modulus (GPa) = 32.63425 35.81742 34.22583
#
# Velocity S-wave (km/s) = 3.85353 4.03709 3.94638
# Velocity P-wave (km/s) = 6.70964 7.16914 6.94319
#
# Compressibility (1/GPa) = 0.01804270
#
# Stress axis : x y z
#
# Youngs Moduli (GPa) = 75.00074 77.45736 76.36571
#
# Poissons Ratio (x) = 0.19098 0.01483
# Poissons Ratio (y) = 0.18492 0.61002
# Poissons Ratio (z) = 0.01457 0.61874
#
# Static dielectric constant tensor:
#      x y z
#    x 3.955740 0.000000 0.000000 
#    y 0.000000 4.051650 0.000000 
#    z 0.000000 0.000000 3.909380 
# 
# 
# High freq. dielectric constant tensor:
#      x y z
#    x 1.871140 0.000000 0.000000 
#    y 0.000000 1.869310 0.000000 
#    z 0.000000 0.000000 1.868980 
# 
# From -- ./inp_files/7436.got.cif
#   From: 2010.03.12/outbox.cif.g09.slc.cpg/sg46_4_cif.got.tgz:7436.got - 2010.04.14 02:56:35.
