data_PCOD8193123
_publ_section_title
;
Structure prediction by ZEFSAII (Michael W. Deem and Ramdas Pophale) SiO2 
 PCOD8193123
Probable space group: I M A 2
;
_chemical_formula_sum "Si O2"
_cell_formula_units_Z 36
_cell_length_a 20.613237
_cell_length_b 9.431025
_cell_length_c 8.210436
_cell_angle_alpha 90.000000
_cell_angle_beta 90.000000
_cell_angle_gamma 90.000000
_cell_volume 1596.141218
_symmetry_space_group_name_H-M "I M A 2"
_symmetry_group_IT_number 46
_symmetry_cell_setting 'orthorhombic'
loop_
_space_group_symop_operation_xyz
x,y,z
-x,-y,z
1/2-x,y,z
1/2+x,-y,z
1/2+x,1/2+y,1/2+z
1/2-x,1/2-y,1/2+z
-x,1/2+y,1/2+z
x,1/2-y,1/2+z
loop_
_atom_site_type_symbol
_atom_site_label
_atom_site_fract_x
_atom_site_fract_y
_atom_site_fract_z
Si Si1 0.116158 0.345572 0.473940
Si Si2 0.823510 0.590483 0.804217
Si Si3 0.428378 0.942767 0.752594
Si Si4 0.907264 0.350210 0.888580
Si Si5 0.000000 0.000000 0.144833
O O1 0.168983 0.380402 0.611626
O O2 0.125853 0.183219 0.414241
O O3 0.123498 0.435080 0.304629
O O4 0.044726 0.389909 0.541453
O O5 0.750000 0.624828 0.854764
O O6 0.839186 0.425458 0.841021
O O7 0.406793 0.819031 0.878623
O O8 0.424496 0.894074 0.569678
O O9 0.500000 0.000000 0.789495
O O10 0.959830 0.397616 0.758685
#
# Coordination Sequence:
#
# PCOD8193123 Si02
#       5
#     8   8   8   8   4
#     4  11  24  40  70 102 138 179 234 286 355 410
#     4  11  25  46  70 100 139 190 242 288 338 418
#     4  12  26  42  66 103 140 177 221 285 363 430
#     4  11  25  41  67  99 138 181 226 284 354 417
#     4  10  22  38  66 104 138 180 216 288 356 424
#
# _framework density 22.554395
#
# number of rings (size 3 to 8) (size 9 to 14) (size 15 to 20)
#    0.000    0.889    2.222    4.667    9.333    0.000 
#    0.000    6.667    0.000    0.000    0.000    0.000 
#    0.000    0.000    0.000    0.000    0.000    0.000 
#
# Total GULP energy -223019.303796 kJ/mol
# GULP energy per Si atom -12389.961322 kJ/mol
# Density = 2.250306 g / cm^3
# Si number density = 22.554395 Si / 1000 Ang^3
#
#
#
# Elastic Constant Matrix: (Units=GPa)
#
#
# Indices 1 2 3 4 5 6 
#
# 1 107.7644 43.9989 39.6911 0.0000 0.0000 0.0000
# 2 43.9989 115.0208 33.9970 0.0000 0.0000 0.0000
# 3 39.6911 33.9970 125.8042 0.0000 0.0000 0.0000
# 4 0.0000 0.0000 0.0000 45.2540 0.0000 0.0000
# 5 0.0000 0.0000 0.0000 0.0000 -4.6654 0.0000
# 6 0.0000 0.0000 0.0000 0.0000 0.0000 23.0061
#
#
#
# Elastic Compliance Matrix: (Units=1/GPa)
#
#
# Indices 1 2 3 4 5 6 
#
# 1 0.011795 -0.003708 -0.002719 0.000000 0.000000 0.000000
# 2 -0.003708 0.010615 -0.001699 0.000000 0.000000 0.000000
# 3 -0.002719 -0.001699 0.009266 0.000000 0.000000 0.000000
# 4 0.000000 0.000000 0.000000 0.022098 0.000000 0.000000
# 5 0.000000 0.000000 0.000000 0.000000 -0.214346 0.000000
# 6 0.000000 0.000000 0.000000 0.000000 0.000000 0.043467
#
#
# Mechanical properties :
#
#
# Convention : Reuss Voigt Hill
#
# Bulk Modulus (GPa) = 64.83612 64.88479 64.86046
# Shear Modulus (GPa) = -52.23953 28.11245 -12.06354
#
# Velocity S-wave (km/s) = -4.81787 3.53431 -2.31522
# Velocity P-wave (km/s) = 1.46293 6.74431 4.65540
#
# Compressibility (1/GPa) = 0.01542350
#
# Stress axis : x y z
#
# Youngs Moduli (GPa) = 84.78125 94.20961 107.92402
#
# Poissons Ratio (x) = 0.34935 0.29347
# Poissons Ratio (y) = 0.31439 0.18331
# Poissons Ratio (z) = 0.23054 0.16002
#
# Static dielectric constant tensor:
#      x y z
#    x 3.688960 0.000000 0.000000 
#    y 0.000000 4.485530 0.000000 
#    z 0.000000 0.000000 4.416800 
# 
# 
# High freq. dielectric constant tensor:
#      x y z
#    x 1.845350 0.000000 0.000000 
#    y 0.000000 1.898760 0.000000 
#    z 0.000000 0.000000 1.923100 
# 
# From -- ./inp_files/7140.got.cif
#   From: 2010.03.12/outbox.cif.g09.slc.cpg/sg46_4_cif.got.tgz:7140.got - 2010.04.14 02:56:35.
