data_PCOD8193307
_publ_section_title
;
Structure prediction by ZEFSAII (Michael W. Deem and Ramdas Pophale) SiO2 
 PCOD8193307
Probable space group: I M A 2
;
_chemical_formula_sum "Si O2"
_cell_formula_units_Z 40
_cell_length_a 8.682526
_cell_length_b 21.086364
_cell_length_c 12.662045
_cell_angle_alpha 90.000000
_cell_angle_beta 90.000000
_cell_angle_gamma 90.000000
_cell_volume 2318.203965
_symmetry_space_group_name_H-M "I M A 2"
_symmetry_group_IT_number 46
_symmetry_cell_setting 'orthorhombic'
loop_
_space_group_symop_operation_xyz
x,y,z
-x,-y,z
1/2-x,y,z
1/2+x,-y,z
1/2+x,1/2+y,1/2+z
1/2-x,1/2-y,1/2+z
-x,1/2+y,1/2+z
x,1/2-y,1/2+z
loop_
_atom_site_type_symbol
_atom_site_label
_atom_site_fract_x
_atom_site_fract_y
_atom_site_fract_z
Si Si1 0.432560 0.430583 0.814780
Si Si2 0.569733 0.836298 0.487783
Si Si3 0.430085 0.207267 0.707069
Si Si4 0.930255 0.340066 0.647280
Si Si5 0.569990 0.804359 0.938927
O O1 0.500000 0.500000 0.819330
O O2 0.250000 0.434685 0.817274
O O3 0.483600 0.396166 0.707854
O O4 0.502172 0.392163 0.916372
O O5 0.750000 0.840644 0.471198
O O6 0.525786 0.841624 0.612516
O O7 0.512622 0.768255 0.446284
O O8 0.250000 0.225832 0.700553
O O9 0.522731 0.272304 0.694847
O O10 0.466916 0.173406 0.818919
O O11 0.750000 0.350053 0.659804
O O12 0.976512 0.345900 0.523534
O O13 0.750000 0.810142 0.966162
#
# Coordination Sequence:
#
# PCOD8193307 Si02
#       5
#     8   8   8   8   8
#     4  11  21  36  53  73 101 137 176 213 251 303
#     4   8  15  28  49  74  98 126 166 208 251 300
#     4   9  16  31  53  75  99 133 170 208 254 306
#     4  11  21  31  46  74 107 135 167 210 258 305
#     4   9  16  30  52  74  99 132 167 208 253 305
#
# _framework density 17.254736000000001
#
# number of rings (size 3 to 8) (size 9 to 14) (size 15 to 20)
#    0.000    2.400    2.000    3.600    0.000    0.800 
#    0.000    1.000    0.000    1.200    0.000    2.800 
#    0.000    0.000    0.000    0.000    0.000    0.000 
#
# Total GULP energy -247876.057372 kJ/mol
# GULP energy per Si atom -12393.802869 kJ/mol
# Density = 1.721546 g / cm^3
# Si number density = 17.254736 Si / 1000 Ang^3
#
#
#
# Elastic Constant Matrix: (Units=GPa)
#
#
# Indices 1 2 3 4 5 6 
#
# 1 60.8088 26.4017 32.1183 -0.0001 0.0000 0.0000
# 2 26.4017 93.1401 60.4186 -0.0002 0.0000 0.0000
# 3 32.1183 60.4186 164.8488 -0.0002 0.0000 0.0000
# 4 -0.0001 -0.0002 -0.0002 18.3725 0.0000 0.0000
# 5 0.0000 0.0000 0.0000 0.0000 16.6509 0.0000
# 6 0.0000 0.0000 0.0000 0.0000 0.0000 22.3416
#
#
#
# Elastic Compliance Matrix: (Units=1/GPa)
#
#
# Indices 1 2 3 4 5 6 
#
# 1 0.019404 -0.003999 -0.002315 0.000000 0.000000 0.000000
# 2 -0.003999 0.014909 -0.004685 0.000000 0.000000 0.000000
# 3 -0.002315 -0.004685 0.008234 0.000000 0.000000 0.000000
# 4 0.000000 0.000000 0.000000 0.054429 0.000000 0.000000
# 5 0.000000 0.000000 0.000000 0.000000 0.060057 0.000000
# 6 0.000000 0.000000 0.000000 0.000000 0.000000 0.044759
#
#
# Mechanical properties :
#
#
# Convention : Reuss Voigt Hill
#
# Bulk Modulus (GPa) = 48.66249 61.85278 55.25763
# Shear Modulus (GPa) = 21.67875 24.79695 23.23785
#
# Velocity S-wave (km/s) = 3.54841 3.79504 3.67379
# Velocity P-wave (km/s) = 6.71207 7.42480 7.07742
#
# Compressibility (1/GPa) = 0.02054971
#
# Stress axis : x y z
#
# Youngs Moduli (GPa) = 51.53626 67.07246 121.44123
#
# Poissons Ratio (x) = 0.26819 0.28114
# Poissons Ratio (y) = 0.20607 0.56899
# Poissons Ratio (z) = 0.11931 0.31426
#
# Static dielectric constant tensor:
#      x y z
#    x 3.010930 0.000000 0.000000 
#    y 0.000000 2.939350 0.000000 
#    z 0.000000 0.000000 3.742240 
# 
# 
# High freq. dielectric constant tensor:
#      x y z
#    x 1.648830 0.000000 0.000000 
#    y 0.000000 1.615720 0.000000 
#    z 0.000000 0.000000 1.688910 
# 
# From -- ./inp_files/9046.got.cif
#   From: 2010.03.12/outbox.cif.g09.slc.cpg/sg46_5_cif.got.tgz:9046.got - 2010.04.14 02:56:35.
