data_PCOD8193245
_publ_section_title
;
Structure prediction by ZEFSAII (Michael W. Deem and Ramdas Pophale) SiO2 
 PCOD8193245
Probable space group: I M A 2
;
_chemical_formula_sum "Si O2"
_cell_formula_units_Z 48
_cell_length_a 17.731170
_cell_length_b 8.302121
_cell_length_c 14.253815
_cell_angle_alpha 90.000000
_cell_angle_beta 90.000000
_cell_angle_gamma 90.000000
_cell_volume 2098.251635
_symmetry_space_group_name_H-M "I M A 2"
_symmetry_group_IT_number 46
_symmetry_cell_setting 'orthorhombic'
loop_
_space_group_symop_operation_xyz
x,y,z
-x,-y,z
1/2-x,y,z
1/2+x,-y,z
1/2+x,1/2+y,1/2+z
1/2-x,1/2-y,1/2+z
-x,1/2+y,1/2+z
x,1/2-y,1/2+z
loop_
_atom_site_type_symbol
_atom_site_label
_atom_site_fract_x
_atom_site_fract_y
_atom_site_fract_z
Si Si1 0.917358 0.818389 0.346340
Si Si2 0.074915 0.112783 0.028412
Si Si3 0.082187 0.829861 0.294835
Si Si4 0.835059 0.160694 0.948271
Si Si5 0.836025 0.172156 0.635171
Si Si6 0.338502 0.189510 0.680095
O O1 0.936058 0.753460 0.450490
O O2 0.853856 0.715792 0.291188
O O3 0.993198 0.812447 0.285020
O O4 0.890950 0.004805 0.345229
O O5 0.104260 0.192805 0.124400
O O6 0.145004 0.008896 0.993728
O O7 0.000000 0.000000 0.041901
O O8 0.112669 0.685154 0.358593
O O9 0.115186 0.806111 0.190514
O O10 0.750000 0.156252 0.912034
O O11 0.847752 0.300887 0.024830
O O12 0.750000 0.199664 0.665535
O O13 0.862346 0.991698 0.656076
O O14 0.250000 0.221395 0.657041
#
# Coordination Sequence:
#
# PCOD8193245 Si02
#       6
#     8   8   8   8   8   8
#     4  11  26  42  67  99 138 177 230 285 350 411
#     4  12  25  45  68 104 141 186 230 291 354 420
#     4  11  23  42  65  97 134 178 225 280 343 415
#     4  11  23  41  67  95 131 178 226 278 340 416
#     4  10  23  43  67  97 134 179 230 283 347 415
#     4  11  26  45  70 103 138 183 235 293 354 419
#
# _framework density 22.876189
#
# number of rings (size 3 to 8) (size 9 to 14) (size 15 to 20)
#    0.000    1.000    1.667    4.000    4.667    5.333 
#    0.000    0.000    0.000    0.000    0.000    0.000 
#    0.000    0.000    0.000    0.000    0.000    0.000 
#
# Total GULP energy -297621.498298 kJ/mol
# GULP energy per Si atom -12400.895762 kJ/mol
# Density = 2.282412 g / cm^3
# Si number density = 22.876189 Si / 1000 Ang^3
#
#
#
# Elastic Constant Matrix: (Units=GPa)
#
#
# Indices 1 2 3 4 5 6 
#
# 1 78.2458 32.0145 33.4589 0.0000 0.0000 0.0000
# 2 32.0145 81.1424 -0.3144 0.0000 0.0000 0.0000
# 3 33.4589 -0.3144 56.4169 0.0000 0.0000 0.0000
# 4 0.0000 0.0000 0.0000 41.1505 0.0000 0.0000
# 5 0.0000 0.0000 0.0000 0.0000 38.0499 0.0000
# 6 0.0000 0.0000 0.0000 0.0000 0.0000 35.9148
#
#
#
# Elastic Compliance Matrix: (Units=1/GPa)
#
#
# Indices 1 2 3 4 5 6 
#
# 1 0.021919 -0.008698 -0.013048 0.000000 0.000000 0.000000
# 2 -0.008698 0.015776 0.005247 0.000000 0.000000 0.000000
# 3 -0.013048 0.005247 0.025492 0.000000 0.000000 0.000000
# 4 0.000000 0.000000 0.000000 0.024301 0.000000 0.000000
# 5 0.000000 0.000000 0.000000 0.000000 0.026281 0.000000
# 6 0.000000 0.000000 0.000000 0.000000 0.000000 0.027844
#
#
# Mechanical properties :
#
#
# Convention : Reuss Voigt Hill
#
# Bulk Modulus (GPa) = 33.12516 38.45814 35.79165
# Shear Modulus (GPa) = 27.07461 33.06610 30.07035
#
# Velocity S-wave (km/s) = 3.44398 3.80602 3.62951
# Velocity P-wave (km/s) = 5.50693 6.01351 5.76578
#
# Compressibility (1/GPa) = 0.03018853
#
# Stress axis : x y z
#
# Youngs Moduli (GPa) = 45.62349 63.38627 39.22729
#
# Poissons Ratio (x) = 0.55136 0.51182
# Poissons Ratio (y) = 0.39685 -0.20581
# Poissons Ratio (z) = 0.59528 -0.33257
#
# Static dielectric constant tensor:
#      x y z
#    x 4.009570 0.000000 0.000000 
#    y 0.000000 4.203600 0.000000 
#    z 0.000000 0.000000 4.105800 
# 
# 
# High freq. dielectric constant tensor:
#      x y z
#    x 1.901910 0.000000 0.000000 
#    y 0.000000 1.908630 0.000000 
#    z 0.000000 0.000000 1.907400 
# 
# From -- ./inp_files/16563.got.cif
#   From: 2010.03.12/outbox.cif.g09.slc.cpg/sg46_9_cif.got.tgz:16563.got - 2010.04.14 02:56:35.
