data_PCOD8193697
_publ_section_title
;
Structure prediction by ZEFSAII (Michael W. Deem and Ramdas Pophale) SiO2 
 PCOD8193697
Probable space group: P M M M
;
_chemical_formula_sum "Si O2"
_cell_formula_units_Z 64
_cell_length_a 26.224372
_cell_length_b 18.520660
_cell_length_c 9.147366
_cell_angle_alpha 90.000000
_cell_angle_beta 90.000000
_cell_angle_gamma 90.000000
_cell_volume 4442.808685
_symmetry_space_group_name_H-M "P M M M"
_symmetry_group_IT_number 47
_symmetry_cell_setting 'orthorhombic'
loop_
_space_group_symop_operation_xyz
x,y,z
-x,-y,z
x,-y,-z
-x,y,-z
-x,-y,-z
x,y,-z
-x,y,z
x,-y,z
loop_
_atom_site_type_symbol
_atom_site_label
_atom_site_fract_x
_atom_site_fract_y
_atom_site_fract_z
Si Si1 0.857062 0.331109 0.172684
Si Si2 0.711619 0.717975 0.833281
Si Si3 0.647605 0.152409 0.832228
Si Si4 0.741526 0.081896 0.330946
Si Si5 0.940901 0.582323 0.668462
Si Si6 0.240503 0.421378 0.169562
Si Si7 0.442097 0.917749 0.670918
Si Si8 0.802500 0.214823 0.668699
O O1 0.909603 0.363031 0.231470
O O2 0.810601 0.382037 0.228266
O O3 0.848211 0.250125 0.236844
O O4 0.860202 0.325283 0.000000
O O5 0.658307 0.760848 0.816402
O O6 0.710069 0.631076 0.803885
O O7 0.749275 0.749405 0.713207
O O8 0.732855 0.730112 0.000000
O O9 0.693605 0.106400 0.765098
O O10 0.594312 0.137195 0.754630
O O11 0.642759 0.129531 0.000000
O O12 0.724991 0.089890 0.500000
O O13 0.792836 0.129360 0.300814
O O14 0.755699 0.000000 0.290765
O O15 0.926283 0.594569 0.500000
O O16 0.928631 0.500000 0.714225
O O17 0.000000 0.599305 0.694828
O O18 0.248320 0.500000 0.246492
O O19 0.232536 0.435159 0.000000
O O20 0.435745 0.904346 0.500000
O O21 0.500000 0.902155 0.719856
O O22 0.427121 0.000000 0.709924
O O23 0.814426 0.230165 0.500000
#
# Coordination Sequence:
#
# PCOD8193697 Si02
#       8
#     8   8   8   8   8   8   8   8
#     4  10  18  27  40  58  81 107 135 166 198 234
#     4   8  15  26  37  53  78 102 125 157 193 228
#     4  10  18  26  38  57  80 104 128 156 194 235
#     4   9  17  28  41  57  78 105 136 166 194 229
#     4   9  18  31  44  59  81 107 135 169 204 233
#     4   8  13  22  37  55  74  99 130 158 183 216
#     4   9  18  31  43  54  71  97 129 163 194 224
#     4   9  16  26  40  56  75 102 134 164 195 231
#
# _framework density 14.405302000000001
#
# number of rings (size 3 to 8) (size 9 to 14) (size 15 to 20)
#    0.000    3.000    0.000    3.375    0.000    4.250 
#    0.000    1.250    0.000    3.375    0.000    0.000 
#    0.000    1.000    0.000   12.000    0.000    2.625 
#
# Total GULP energy -792917.697498 kJ/mol
# GULP energy per Si atom -12389.339023 kJ/mol
# Density = 1.437252 g / cm^3
# Si number density = 14.405302 Si / 1000 Ang^3
#
#
#
# Elastic Constant Matrix: (Units=GPa)
#
#
# Indices 1 2 3 4 5 6 
#
# 1 68.9141 47.8267 37.8331 0.0000 0.0000 0.0000
# 2 47.8267 102.7735 36.5128 0.0000 0.0000 0.0000
# 3 37.8331 36.5128 57.9225 0.0000 0.0000 0.0000
# 4 0.0000 0.0000 0.0000 16.4339 0.0000 0.0000
# 5 0.0000 0.0000 0.0000 0.0000 20.3519 0.0000
# 6 0.0000 0.0000 0.0000 0.0000 0.0000 26.1559
#
#
#
# Elastic Compliance Matrix: (Units=1/GPa)
#
#
# Indices 1 2 3 4 5 6 
#
# 1 0.027031 -0.008127 -0.012533 0.000000 0.000000 0.000000
# 2 -0.008127 0.014981 -0.004136 0.000000 0.000000 0.000000
# 3 -0.012533 -0.004136 0.028058 0.000000 0.000000 0.000000
# 4 0.000000 0.000000 0.000000 0.060850 0.000000 0.000000
# 5 0.000000 0.000000 0.000000 0.000000 0.049135 0.000000
# 6 0.000000 0.000000 0.000000 0.000000 0.000000 0.038232
#
#
# Mechanical properties :
#
#
# Convention : Reuss Voigt Hill
#
# Bulk Modulus (GPa) = 48.82982 52.66169 50.74576
# Shear Modulus (GPa) = 18.20133 19.75084 18.97609
#
# Velocity S-wave (km/s) = 3.55845 3.70683 3.63340
# Velocity P-wave (km/s) = 7.13121 7.41332 7.27363
#
# Compressibility (1/GPa) = 0.02047929
#
# Stress axis : x y z
#
# Youngs Moduli (GPa) = 36.99425 66.75015 35.64077
#
# Poissons Ratio (x) = 0.54245 0.44669
# Poissons Ratio (y) = 0.30064 0.14740
# Poissons Ratio (z) = 0.46365 0.27606
#
# Static dielectric constant tensor:
#      x y z
#    x 2.599880 0.000000 0.000000 
#    y 0.000000 3.131800 0.000000 
#    z 0.000000 0.000000 2.784620 
# 
# 
# High freq. dielectric constant tensor:
#      x y z
#    x 1.512930 0.000000 0.000000 
#    y 0.000000 1.545100 0.000000 
#    z 0.000000 0.000000 1.551750 
# 
# From -- ./inp_files/12927.got.cif
#   From: 2010.03.12/outbox.cif.g09.slc.cpg/sg47_7_cif.got.tgz:12927.got - 2010.04.14 03:12:58.
