data_PCOD8193143
_publ_section_title
;
Structure prediction by ZEFSAII (Michael W. Deem and Ramdas Pophale) SiO2 
 PCOD8193143
Probable space group: I M A 2
;
_chemical_formula_sum "Si O2"
_cell_formula_units_Z 64
_cell_length_a 8.742770
_cell_length_b 30.751553
_cell_length_c 11.911856
_cell_angle_alpha 90.000000
_cell_angle_beta 90.000000
_cell_angle_gamma 90.000000
_cell_volume 3202.547215
_symmetry_space_group_name_H-M "I M A 2"
_symmetry_group_IT_number 46
_symmetry_cell_setting 'orthorhombic'
loop_
_space_group_symop_operation_xyz
x,y,z
-x,-y,z
1/2-x,y,z
1/2+x,-y,z
1/2+x,1/2+y,1/2+z
1/2-x,1/2-y,1/2+z
-x,1/2+y,1/2+z
x,1/2-y,1/2+z
loop_
_atom_site_type_symbol
_atom_site_label
_atom_site_fract_x
_atom_site_fract_y
_atom_site_fract_z
Si Si1 0.576212 0.336314 0.783900
Si Si2 0.072719 0.201710 0.069863
Si Si3 0.574503 0.209064 0.516964
Si Si4 0.430560 0.544301 0.022840
Si Si5 0.430751 0.627087 0.158571
Si Si6 0.430709 0.454962 0.551556
Si Si7 0.928967 0.927252 0.297031
Si Si8 0.928676 0.625274 0.401523
O O1 0.750000 0.353788 0.774034
O O2 0.532510 0.308975 0.675236
O O3 0.461484 0.376128 0.799402
O O4 0.560480 0.304480 0.888427
O O5 0.250000 0.197526 0.103858
O O6 0.035767 0.250165 0.031540
O O7 0.033314 0.168965 0.969132
O O8 0.750000 0.220907 0.547208
O O9 0.511212 0.170551 0.596642
O O10 0.500000 0.500000 0.073801
O O11 0.250000 0.541941 0.031220
O O12 0.497156 0.584818 0.094061
O O13 0.477929 0.548338 0.893219
O O14 0.250000 0.625445 0.150660
O O15 0.481404 0.627114 0.286178
O O16 0.500000 0.500000 0.506527
O O17 0.250000 0.457443 0.546870
O O18 0.486320 0.446259 0.678353
O O19 0.489173 0.415940 0.472524
O O20 0.750000 0.935081 0.315860
O O21 0.750000 0.621051 0.375731
#
# Coordination Sequence:
#
# PCOD8193143 Si02
#       8
#     8   8   8   8   8   8   8   8
#     4  11  22  40  66  93 125 163 202 251 307 366
#     4  11  24  42  63  92 126 160 203 253 304 364
#     4  10  23  43  63  90 124 160 203 252 302 360
#     4  11  23  41  62  91 125 161 205 254 307 367
#     4  10  23  43  63  86 121 160 204 252 302 364
#     4  10  22  40  60  87 122 156 196 248 298 356
#     4  11  21  38  63  92 127 162 200 252 308 363
#     4  10  23  43  61  85 123 160 201 252 303 358
#
# _framework density 19.984093999999999
#
# number of rings (size 3 to 8) (size 9 to 14) (size 15 to 20)
#    0.000    1.500    2.500    1.875    1.750    6.500 
#    0.000    2.500    0.000    0.000    0.000    0.000 
#    0.000    0.000    0.000    0.000    0.000    0.000 
#
# Total GULP energy -396964.348024 kJ/mol
# GULP energy per Si atom -12405.135876 kJ/mol
# Density = 1.993861 g / cm^3
# Si number density = 19.984094 Si / 1000 Ang^3
#
#
#
# Elastic Constant Matrix: (Units=GPa)
#
#
# Indices 1 2 3 4 5 6 
#
# 1 34.2553 27.3027 20.1875 -0.0057 -0.0004 -0.0001
# 2 27.3027 155.9593 48.4997 -0.0119 -0.0006 -0.0002
# 3 20.1875 48.4997 108.6858 -0.0233 -0.0014 -0.0005
# 4 -0.0057 -0.0119 -0.0233 75.8398 0.0094 -0.0048
# 5 -0.0004 -0.0006 -0.0014 0.0094 34.7266 -0.0001
# 6 -0.0001 -0.0002 -0.0005 -0.0048 -0.0001 34.9884
#
#
#
# Elastic Compliance Matrix: (Units=1/GPa)
#
#
# Indices 1 2 3 4 5 6 
#
# 1 0.035697 -0.004862 -0.004461 0.000001 0.000000 0.000000
# 2 -0.004862 0.008107 -0.002715 0.000000 0.000000 0.000000
# 3 -0.004461 -0.002715 0.011241 0.000003 0.000000 0.000000
# 4 0.000001 0.000000 0.000003 0.013186 -0.000004 0.000002
# 5 0.000000 0.000000 0.000000 -0.000004 0.028796 0.000000
# 6 0.000000 0.000000 0.000000 0.000002 0.000000 0.028581
#
#
# Mechanical properties :
#
#
# Convention : Reuss Voigt Hill
#
# Bulk Modulus (GPa) = 32.28952 54.54224 43.41588
# Shear Modulus (GPa) = 31.24890 42.63834 36.94362
#
# Velocity S-wave (km/s) = 3.95864 4.62412 4.30426
# Velocity P-wave (km/s) = 6.08992 7.47409 6.81723
#
# Compressibility (1/GPa) = 0.03096980
#
# Stress axis : x y z
#
# Youngs Moduli (GPa) = 28.01390 123.34584 88.96175
#
# Poissons Ratio (x) = 0.59970 0.39684
# Poissons Ratio (y) = 0.13620 0.24151
# Poissons Ratio (z) = 0.12496 0.33485
#
# Static dielectric constant tensor:
#      x y z
#    x 3.500950 0.000040 0.000000 
#    y 0.000040 3.684690 0.000020 
#    z 0.000000 0.000020 3.672090 
# 
# 
# High freq. dielectric constant tensor:
#      x y z
#    x 1.773780 0.000000 0.000000 
#    y 0.000000 1.794030 0.000000 
#    z 0.000000 0.000000 1.783240 
# 
# From -- ./inp_files/9678.got.cif
#   From: 2010.03.12/outbox.cif.g09.slc.cpg/sg46_5_cif.got.tgz:9678.got - 2010.04.14 02:56:35.
