data_PCOD8193721
_publ_section_title
;
Structure prediction by ZEFSAII (Michael W. Deem and Ramdas Pophale) SiO2 
 PCOD8193721
Probable space group: P M M M
;
_chemical_formula_sum "Si O2"
_cell_formula_units_Z 60
_cell_length_a 13.854348
_cell_length_b 23.580334
_cell_length_c 13.133414
_cell_angle_alpha 90.000000
_cell_angle_beta 90.000000
_cell_angle_gamma 90.000000
_cell_volume 4290.557032
_symmetry_space_group_name_H-M "P M M M"
_symmetry_group_IT_number 47
_symmetry_cell_setting 'orthorhombic'
loop_
_space_group_symop_operation_xyz
x,y,z
-x,-y,z
x,-y,-z
-x,y,-z
-x,-y,-z
x,y,-z
-x,y,z
x,-y,z
loop_
_atom_site_type_symbol
_atom_site_label
_atom_site_fract_x
_atom_site_fract_y
_atom_site_fract_z
Si Si1 0.282592 0.653036 0.614888
Si Si2 0.792015 0.825930 0.378830
Si Si3 0.000000 0.433156 0.613589
Si Si4 0.888498 0.649577 0.886657
Si Si5 0.109956 0.280682 0.307817
Si Si6 0.891674 0.937674 0.379203
Si Si7 0.188637 0.433296 0.259777
Si Si8 0.393659 0.761046 0.620838
O O1 0.305973 0.634089 0.500000
O O2 0.179184 0.684511 0.616996
O O3 0.280482 0.596411 0.684946
O O4 0.361362 0.698063 0.657228
O O5 0.804776 0.819002 0.500000
O O6 0.868887 0.785811 0.321785
O O7 0.815962 0.889848 0.341795
O O8 0.683137 0.809030 0.344118
O O9 0.904825 0.414496 0.674370
O O10 0.000000 0.500000 0.604820
O O11 0.000000 0.406676 0.500000
O O12 0.869450 0.701912 0.809917
O O13 0.827609 0.594038 0.851294
O O14 0.000000 0.631943 0.888056
O O15 0.853819 0.666971 0.000000
O O16 0.000000 0.294633 0.338403
O O17 0.893391 0.938232 0.500000
O O18 0.000000 0.924123 0.339394
O O19 0.858661 0.000000 0.339170
O O20 0.206242 0.500000 0.251399
O O21 0.396932 0.760281 0.500000
O O22 0.500000 0.774901 0.665940
#
# Coordination Sequence:
#
# PCOD8193721 Si02
#       8
#     8   8   4   8   8   8   8   8
#     4   9  17  25  35  52  71  93 115 140 180 223
#     4   9  15  22  35  55  76  99 125 152 184 217
#     4   9  16  24  33  47  69  95 116 136 166 205
#     4   9  17  28  38  47  65  94 125 155 183 209
#     4   9  16  24  34  51  73  93 118 150 180 214
#     4   8  13  20  30  47  75 110 139 156 172 200
#     4  10  18  27  36  50  69  90 120 147 172 216
#     4   8  14  25  38  50  66  91 124 157 187 219
#
# _framework density 13.984199
#
# number of rings (size 3 to 8) (size 9 to 14) (size 15 to 20)
#    0.000    3.133    0.667    2.400    0.933    2.667 
#    0.000    0.667    0.000    0.800    0.000    4.667 
#    0.000   43.733    0.000   15.733    0.000    0.133 
#
# Total GULP energy -743427.034702 kJ/mol
# GULP energy per Si atom -12390.450578 kJ/mol
# Density = 1.395237 g / cm^3
# Si number density = 13.984199 Si / 1000 Ang^3
#
#
#
# Elastic Constant Matrix: (Units=GPa)
#
#
# Indices 1 2 3 4 5 6 
#
# 1 64.0677 34.1464 7.5956 0.0000 0.0000 0.0000
# 2 34.1464 99.5704 17.8706 0.0000 0.0000 0.0000
# 3 7.5956 17.8706 46.5947 0.0000 0.0000 0.0000
# 4 0.0000 0.0000 0.0000 9.3571 0.0000 0.0000
# 5 0.0000 0.0000 0.0000 0.0000 6.8956 0.0000
# 6 0.0000 0.0000 0.0000 0.0000 0.0000 15.5139
#
#
#
# Elastic Compliance Matrix: (Units=1/GPa)
#
#
# Indices 1 2 3 4 5 6 
#
# 1 0.019118 -0.006440 -0.000646 0.000000 0.000000 0.000000
# 2 -0.006440 0.012955 -0.003919 0.000000 0.000000 0.000000
# 3 -0.000646 -0.003919 0.023070 0.000000 0.000000 0.000000
# 4 0.000000 0.000000 0.000000 0.106870 0.000000 0.000000
# 5 0.000000 0.000000 0.000000 0.000000 0.145021 0.000000
# 6 0.000000 0.000000 0.000000 0.000000 0.000000 0.064458
#
#
# Mechanical properties :
#
#
# Convention : Reuss Voigt Hill
#
# Bulk Modulus (GPa) = 30.18245 36.60644 33.39445
# Shear Modulus (GPa) = 12.35950 16.39466 14.37708
#
# Velocity S-wave (km/s) = 2.97613 3.42770 3.20987
# Velocity P-wave (km/s) = 5.78273 6.47297 6.13756
#
# Compressibility (1/GPa) = 0.03313183
#
# Stress axis : x y z
#
# Youngs Moduli (GPa) = 52.30800 77.19004 43.34627
#
# Poissons Ratio (x) = 0.49711 0.02802
# Poissons Ratio (y) = 0.33687 0.16987
# Poissons Ratio (z) = 0.03381 0.30250
#
# Static dielectric constant tensor:
#      x y z
#    x 2.799330 0.000000 0.000000 
#    y 0.000000 2.904590 0.000000 
#    z 0.000000 0.000000 2.511620 
# 
# 
# High freq. dielectric constant tensor:
#      x y z
#    x 1.506410 0.000000 0.000000 
#    y 0.000000 1.530690 0.000000 
#    z 0.000000 0.000000 1.487930 
# 
# From -- ./inp_files/18092.got.cif
#   From: 2010.03.12/outbox.cif.g09.slc.cpg/sg47_10_cif.got.tgz:18092.got - 2010.04.14 03:12:58.
