data_PCOD8193024
_publ_section_title
;
Structure prediction by ZEFSAII (Michael W. Deem and Ramdas Pophale) SiO2 
 PCOD8193024
Probable space group: I M A 2
;
_chemical_formula_sum "Si O2"
_cell_formula_units_Z 64
_cell_length_a 20.332181
_cell_length_b 4.951308
_cell_length_c 29.587358
_cell_angle_alpha 90.000000
_cell_angle_beta 90.000000
_cell_angle_gamma 90.000000
_cell_volume 2978.585676
_symmetry_space_group_name_H-M "I M A 2"
_symmetry_group_IT_number 46
_symmetry_cell_setting 'orthorhombic'
loop_
_space_group_symop_operation_xyz
x,y,z
-x,-y,z
1/2-x,y,z
1/2+x,-y,z
1/2+x,1/2+y,1/2+z
1/2-x,1/2-y,1/2+z
-x,1/2+y,1/2+z
x,1/2-y,1/2+z
loop_
_atom_site_type_symbol
_atom_site_label
_atom_site_fract_x
_atom_site_fract_y
_atom_site_fract_z
Si Si1 0.142016 0.012827 0.250000
Si Si2 0.678375 0.229704 0.836106
Si Si3 0.325017 0.522757 0.194106
Si Si4 0.175413 0.048833 0.595037
Si Si5 0.938604 0.681159 0.314998
Si Si6 0.572264 0.039339 0.959843
Si Si7 0.325606 0.968440 0.036720
Si Si8 0.908844 0.965644 0.400047
O O1 0.177352 0.254835 0.224006
O O2 0.073902 0.123753 0.271877
O O3 0.186592 0.914502 0.291656
O O4 0.130480 0.757959 0.216629
O O5 0.750000 0.102293 0.846703
O O6 0.658819 0.420129 0.878531
O O7 0.625712 0.995389 0.826930
O O8 0.250000 0.631636 0.189023
O O9 0.356717 0.453659 0.145035
O O10 0.250000 0.149504 0.601015
O O11 0.170585 0.751752 0.575601
O O12 0.144062 0.260665 0.559520
O O13 0.954924 0.863142 0.358822
O O14 0.000000 0.500000 0.301989
O O15 0.557025 0.283965 0.925336
O O16 0.500000 0.000000 0.982251
O O17 0.602988 0.779226 0.934777
O O18 0.626842 0.123159 0.996273
O O19 0.250000 0.002345 0.019159
#
# Coordination Sequence:
#
# PCOD8193024 Si02
#       8
#     8   8   8   8   8   8   8   8
#     4  11  23  37  59  96 127 166 214 268 313 367
#     4  11  24  41  62  94 132 168 212 267 322 369
#     4  11  20  35  61  96 131 165 208 263 319 381
#     4   9  19  36  62  92 126 164 203 247 316 393
#     4  11  25  44  67  88 127 182 222 261 317 384
#     4  12  25  41  67  94 122 163 217 266 311 384
#     4  10  21  40  62  92 128 161 200 259 325 386
#     4  11  25  42  62  90 123 165 215 264 312 370
#
# _framework density 21.486709000000001
#
# number of rings (size 3 to 8) (size 9 to 14) (size 15 to 20)
#    0.000    1.250    2.500    3.375    1.750    7.000 
#    0.000    0.000    0.000    3.000    0.000    0.000 
#    0.000    0.000    0.000    0.000    0.000    0.000 
#
# Total GULP energy -396663.931788 kJ/mol
# GULP energy per Si atom -12395.747868 kJ/mol
# Density = 2.143780 g / cm^3
# Si number density = 21.486709 Si / 1000 Ang^3
#
#
#
# Elastic Constant Matrix: (Units=GPa)
#
#
# Indices 1 2 3 4 5 6 
#
# 1 91.2309 32.2094 44.9991 0.0000 0.0000 0.0000
# 2 32.2094 125.4755 34.9270 0.0000 0.0000 0.0000
# 3 44.9991 34.9270 111.5089 0.0000 0.0000 0.0000
# 4 0.0000 0.0000 0.0000 39.1997 0.0000 0.0000
# 5 0.0000 0.0000 0.0000 0.0000 5.8187 0.0000
# 6 0.0000 0.0000 0.0000 0.0000 0.0000 28.8887
#
#
#
# Elastic Compliance Matrix: (Units=1/GPa)
#
#
# Indices 1 2 3 4 5 6 
#
# 1 0.014244 -0.002253 -0.005042 0.000000 0.000000 0.000000
# 2 -0.002253 0.009087 -0.001937 0.000000 0.000000 0.000000
# 3 -0.005042 -0.001937 0.011610 0.000000 0.000000 0.000000
# 4 0.000000 0.000000 0.000000 0.025510 0.000000 0.000000
# 5 0.000000 0.000000 0.000000 0.000000 0.171859 0.000000
# 6 0.000000 0.000000 0.000000 0.000000 0.000000 0.034616
#
#
# Mechanical properties :
#
#
# Convention : Reuss Voigt Hill
#
# Bulk Modulus (GPa) = 60.69551 61.38735 61.04143
# Shear Modulus (GPa) = 17.18910 29.18675 23.18793
#
# Velocity S-wave (km/s) = 2.83147 3.68960 3.28864
# Velocity P-wave (km/s) = 6.24491 6.83979 6.54911
#
# Compressibility (1/GPa) = 0.01647568
#
# Stress axis : x y z
#
# Youngs Moduli (GPa) = 70.20672 110.04497 86.13629
#
# Poissons Ratio (x) = 0.24790 0.43433
# Poissons Ratio (y) = 0.15816 0.16686
# Poissons Ratio (z) = 0.35401 0.21318
#
# Static dielectric constant tensor:
#      x y z
#    x 3.497330 0.000000 0.000000 
#    y 0.000000 4.123180 0.000000 
#    z 0.000000 0.000000 3.948550 
# 
# 
# High freq. dielectric constant tensor:
#      x y z
#    x 1.804610 0.000000 0.000000 
#    y 0.000000 1.866220 0.000000 
#    z 0.000000 0.000000 1.839750 
# 
# From -- ./inp_files/24731.got.cif
#   From: 2010.03.12/outbox.cif.g09.slc.cpg/sg46_13_cif.got.tgz:24731.got - 2010.04.14 02:56:35.
