data_PCOD8193808
_publ_section_title
;
Structure prediction by ZEFSAII (Michael W. Deem and Ramdas Pophale) SiO2 
 PCOD8193808
Probable space group: P M M M
;
_chemical_formula_sum "Si O2"
_cell_formula_units_Z 56
_cell_length_a 28.948442
_cell_length_b 9.239973
_cell_length_c 13.717300
_cell_angle_alpha 90.000000
_cell_angle_beta 90.000000
_cell_angle_gamma 90.000000
_cell_volume 3669.142121
_symmetry_space_group_name_H-M "P M M M"
_symmetry_group_IT_number 47
_symmetry_cell_setting 'orthorhombic'
loop_
_space_group_symop_operation_xyz
x,y,z
-x,-y,z
x,-y,-z
-x,y,-z
-x,-y,-z
x,y,-z
-x,y,z
x,-y,z
loop_
_atom_site_type_symbol
_atom_site_label
_atom_site_fract_x
_atom_site_fract_y
_atom_site_fract_z
Si Si1 0.639162 0.670147 0.612440
Si Si2 0.721318 0.834900 0.706998
Si Si3 0.220797 0.833575 0.110643
Si Si4 0.550680 0.162569 0.615698
Si Si5 0.141031 0.327845 0.784258
Si Si6 0.949218 0.671680 0.891050
Si Si7 0.182391 0.832335 0.388911
O O1 0.647071 0.716813 0.500000
O O2 0.637471 0.500000 0.623806
O O3 0.680104 0.729809 0.678660
O O4 0.590845 0.732142 0.654160
O O5 0.735526 0.803459 0.819107
O O6 0.764576 0.800290 0.637431
O O7 0.704935 0.000000 0.692834
O O8 0.178326 0.731690 0.139215
O O9 0.204831 0.000000 0.124188
O O10 0.235989 0.800510 0.000000
O O11 0.549931 0.166161 0.500000
O O12 0.500000 0.213094 0.654400
O O13 0.561056 0.000000 0.652471
O O14 0.145162 0.500000 0.781046
O O15 0.090553 0.273165 0.818442
O O16 0.148709 0.264321 0.676713
O O17 0.947992 0.500000 0.894989
O O18 0.000000 0.724046 0.854509
O O19 0.939964 0.732279 0.000000
O O20 0.173621 0.787716 0.500000
O O21 0.171086 0.000000 0.369642
#
# Coordination Sequence:
#
# PCOD8193808 Si02
#       7
#     8   8   8   8   8   8   8
#     4  10  19  27  37  57  85 114 140 170 209 246
#     4   9  17  29  44  60  78 105 141 174 203 240
#     4   9  18  32  47  62  84 114 143 171 207 252
#     4   8  14  25  40  56  75 104 142 177 206 240
#     4  10  18  27  44  69  90 108 136 174 213 251
#     4   8  14  25  41  62  88 114 137 164 203 252
#     4   9  18  32  47  61  81 113 148 177 208 248
#
# _framework density 15.262423
#
# number of rings (size 3 to 8) (size 9 to 14) (size 15 to 20)
#    0.000    3.000    0.000    3.429    0.000    5.143 
#    0.000    1.429    0.000    2.143    0.000    8.000 
#    0.000    0.571    0.000    6.571    0.000    2.143 
#
# Total GULP energy -694162.891812 kJ/mol
# GULP energy per Si atom -12395.765925 kJ/mol
# Density = 1.522769 g / cm^3
# Si number density = 15.262423 Si / 1000 Ang^3
#
#
#
# Elastic Constant Matrix: (Units=GPa)
#
#
# Indices 1 2 3 4 5 6 
#
# 1 125.9712 55.7728 58.5220 0.0000 0.0000 0.0000
# 2 55.7728 62.2614 39.2193 0.0000 0.0000 0.0000
# 3 58.5220 39.2193 97.1097 0.0000 0.0000 0.0000
# 4 0.0000 0.0000 0.0000 20.2141 0.0000 0.0000
# 5 0.0000 0.0000 0.0000 0.0000 18.0586 0.0000
# 6 0.0000 0.0000 0.0000 0.0000 0.0000 18.9417
#
#
#
# Elastic Compliance Matrix: (Units=1/GPa)
#
#
# Indices 1 2 3 4 5 6 
#
# 1 0.014608 -0.010113 -0.004719 0.000000 0.000000 0.000000
# 2 -0.010113 0.028543 -0.005433 0.000000 0.000000 0.000000
# 3 -0.004719 -0.005433 0.015336 0.000000 0.000000 0.000000
# 4 0.000000 0.000000 0.000000 0.049471 0.000000 0.000000
# 5 0.000000 0.000000 0.000000 0.000000 0.055375 0.000000
# 6 0.000000 0.000000 0.000000 0.000000 0.000000 0.052794
#
#
# Mechanical properties :
#
#
# Convention : Reuss Voigt Hill
#
# Bulk Modulus (GPa) = 55.69045 65.81894 60.75469
# Shear Modulus (GPa) = 19.03734 20.23141 19.63438
#
# Velocity S-wave (km/s) = 3.53559 3.64479 3.59061
# Velocity P-wave (km/s) = 7.29623 7.80584 7.55533
#
# Compressibility (1/GPa) = 0.01795640
#
# Stress axis : x y z
#
# Youngs Moduli (GPa) = 68.45480 35.03515 65.20743
#
# Poissons Ratio (x) = 0.35432 0.30772
# Poissons Ratio (y) = 0.69229 0.35426
# Poissons Ratio (z) = 0.32304 0.19034
#
# Static dielectric constant tensor:
#      x y z
#    x 3.097330 0.000000 0.000000 
#    y 0.000000 2.837050 0.000000 
#    z 0.000000 0.000000 2.862570 
# 
# 
# High freq. dielectric constant tensor:
#      x y z
#    x 1.580220 0.000000 0.000000 
#    y 0.000000 1.577840 0.000000 
#    z 0.000000 0.000000 1.558010 
# 
# From -- ./inp_files/22097.got.cif
#   From: 2010.03.12/outbox.cif.g09.slc.cpg/sg47_12_cif.got.tgz:22097.got - 2010.04.14 03:12:58.
