data_PCOD8193119
_publ_section_title
;
Structure prediction by ZEFSAII (Michael W. Deem and Ramdas Pophale) SiO2 
 PCOD8193119
Probable space group: I M A 2
;
_chemical_formula_sum "Si O2"
_cell_formula_units_Z 56
_cell_length_a 17.108331
_cell_length_b 11.653716
_cell_length_c 12.983682
_cell_angle_alpha 90.000000
_cell_angle_beta 90.000000
_cell_angle_gamma 90.000000
_cell_volume 2588.629788
_symmetry_space_group_name_H-M "I M A 2"
_symmetry_group_IT_number 46
_symmetry_cell_setting 'orthorhombic'
loop_
_space_group_symop_operation_xyz
x,y,z
-x,-y,z
1/2-x,y,z
1/2+x,-y,z
1/2+x,1/2+y,1/2+z
1/2-x,1/2-y,1/2+z
-x,1/2+y,1/2+z
x,1/2-y,1/2+z
loop_
_atom_site_type_symbol
_atom_site_label
_atom_site_fract_x
_atom_site_fract_y
_atom_site_fract_z
Si Si1 0.840862 0.346810 0.441280
Si Si2 0.660396 0.384179 0.050819
Si Si3 0.556143 0.391765 0.242783
Si Si4 0.337777 0.240160 0.825346
Si Si5 0.422496 0.432118 0.938300
Si Si6 0.427117 0.274296 0.135674
Si Si7 0.338793 0.090549 0.020659
O O1 0.750000 0.337138 0.406131
O O2 0.868023 0.238955 0.508870
O O3 0.896358 0.353819 0.342683
O O4 0.853388 0.455195 0.516245
O O5 0.750000 0.379201 0.081573
O O6 0.614514 0.424968 0.151585
O O7 0.646008 0.476664 0.960760
O O8 0.500000 0.500000 0.266702
O O9 0.505696 0.281007 0.204747
O O10 0.250000 0.286527 0.830057
O O11 0.356801 0.188766 0.712860
O O12 0.394646 0.348007 0.847945
O O13 0.350807 0.137913 0.905580
O O14 0.500000 0.500000 0.904281
O O15 0.438153 0.361122 0.042145
O O16 0.403701 0.147511 0.094913
O O17 0.250000 0.118083 0.058802
#
# Coordination Sequence:
#
# PCOD8193119 Si02
#       7
#     8   8   8   8   8   8   8
#     4  10  24  44  66  91 125 170 213 258 311 377
#     4  11  23  42  66  90 127 173 215 258 308 382
#     4  12  23  41  64  98 125 163 213 264 319 374
#     4  10  22  38  64  96 126 167 212 263 322 375
#     4  11  22  42  64  93 131 164 209 265 320 375
#     4  11  21  38  64  93 127 161 202 265 322 369
#     4   9  20  39  61  91 126 162 210 260 313 370
#
# _framework density 21.633065999999999
#
# number of rings (size 3 to 8) (size 9 to 14) (size 15 to 20)
#    0.000    1.429    2.857    2.143    2.000    2.857 
#    2.571    0.000    0.000    0.000    0.000    0.000 
#    0.000    0.000    0.000    0.000    0.000    0.000 
#
# Total GULP energy -347136.548260 kJ/mol
# GULP energy per Si atom -12397.733866 kJ/mol
# Density = 2.158383 g / cm^3
# Si number density = 21.633066 Si / 1000 Ang^3
#
#
#
# Elastic Constant Matrix: (Units=GPa)
#
#
# Indices 1 2 3 4 5 6 
#
# 1 84.8433 22.3036 28.0384 0.0000 0.0000 0.0000
# 2 22.3036 72.1512 -9.2152 0.0000 0.0000 0.0000
# 3 28.0384 -9.2152 44.1320 0.0000 0.0000 0.0000
# 4 0.0000 0.0000 0.0000 19.9195 0.0000 0.0000
# 5 0.0000 0.0000 0.0000 0.0000 38.9043 0.0000
# 6 0.0000 0.0000 0.0000 0.0000 0.0000 39.1200
#
#
#
# Elastic Compliance Matrix: (Units=1/GPa)
#
#
# Indices 1 2 3 4 5 6 
#
# 1 0.017941 -0.007194 -0.012900 0.000000 0.000000 0.000000
# 2 -0.007194 0.017124 0.008146 0.000000 0.000000 0.000000
# 3 -0.012900 0.008146 0.032556 0.000000 0.000000 0.000000
# 4 0.000000 0.000000 0.000000 0.050202 0.000000 0.000000
# 5 0.000000 0.000000 0.000000 0.000000 0.025704 0.000000
# 6 0.000000 0.000000 0.000000 0.000000 0.000000 0.025562
#
#
# Mechanical properties :
#
#
# Convention : Reuss Voigt Hill
#
# Bulk Modulus (GPa) = 22.87027 31.48668 27.17848
# Shear Modulus (GPa) = 24.08938 30.25541 27.17240
#
# Velocity S-wave (km/s) = 3.34060 3.74381 3.54794
# Velocity P-wave (km/s) = 5.04721 5.76841 5.41982
#
# Compressibility (1/GPa) = 0.04372488
#
# Stress axis : x y z
#
# Youngs Moduli (GPa) = 55.73920 58.39793 30.71607
#
# Poissons Ratio (x) = 0.42009 0.39625
# Poissons Ratio (y) = 0.40096 -0.25021
# Poissons Ratio (z) = 0.71906 -0.47571
#
# Static dielectric constant tensor:
#      x y z
#    x 4.033500 0.000000 0.000000 
#    y 0.000000 3.923710 0.000000 
#    z 0.000000 0.000000 3.754950 
# 
# 
# High freq. dielectric constant tensor:
#      x y z
#    x 1.857090 0.000000 0.000000 
#    y 0.000000 1.847240 0.000000 
#    z 0.000000 0.000000 1.838560 
# 
# From -- ./inp_files/15926.got.cif
#   From: 2010.03.12/outbox.cif.g09.slc.cpg/sg46_8_cif.got.tgz:15926.got - 2010.04.14 02:56:35.
