data_PCOD8193161
_publ_section_title
;
Structure prediction by ZEFSAII (Michael W. Deem and Ramdas Pophale) SiO2 
 PCOD8193161
Probable space group: I M A 2
;
_chemical_formula_sum "Si O2"
_cell_formula_units_Z 48
_cell_length_a 8.479384
_cell_length_b 20.270860
_cell_length_c 14.344775
_cell_angle_alpha 90.000000
_cell_angle_beta 90.000000
_cell_angle_gamma 90.000000
_cell_volume 2465.643129
_symmetry_space_group_name_H-M "I M A 2"
_symmetry_group_IT_number 46
_symmetry_cell_setting 'orthorhombic'
loop_
_space_group_symop_operation_xyz
x,y,z
-x,-y,z
1/2-x,y,z
1/2+x,-y,z
1/2+x,1/2+y,1/2+z
1/2-x,1/2-y,1/2+z
-x,1/2+y,1/2+z
x,1/2-y,1/2+z
loop_
_atom_site_type_symbol
_atom_site_label
_atom_site_fract_x
_atom_site_fract_y
_atom_site_fract_z
Si Si1 0.567960 0.621571 0.856440
Si Si2 0.068160 0.803203 0.055376
Si Si3 0.935054 0.431364 0.668058
Si Si4 0.931960 0.814278 0.669875
Si Si5 0.934031 0.427882 0.045487
Si Si6 0.068940 0.763111 0.850463
O O1 0.750000 0.609390 0.881380
O O2 0.524927 0.582057 0.764004
O O3 0.539162 0.698850 0.841138
O O4 0.461806 0.594390 0.939744
O O5 0.250000 0.785928 0.076879
O O6 0.023600 0.875387 0.092621
O O7 0.962229 0.749132 0.105734
O O8 0.032713 0.802170 0.945460
O O9 0.750000 0.434833 0.687722
O O10 0.000000 0.500000 0.626697
O O11 0.750000 0.816580 0.696613
O O12 0.977361 0.879857 0.615694
O O13 0.031435 0.811532 0.765124
O O14 0.750000 0.425442 0.066803
O O15 0.000000 0.500000 0.063596
O O16 0.250000 0.740002 0.845985
#
# Coordination Sequence:
#
# PCOD8193161 Si02
#       6
#     8   8   8   8   8   8
#     4  12  23  37  60  94 128 161 203 255 312 370
#     4  10  22  40  64  88 120 164 208 254 308 365
#     4  11  23  40  61  89 125 165 207 252 311 370
#     4  12  24  39  63  93 125 162 207 256 307 367
#     4  12  25  43  64  90 126 166 207 256 313 374
#     4  11  22  39  63  92 124 162 208 255 307 364
#
# _framework density 19.467535999999999
#
# number of rings (size 3 to 8) (size 9 to 14) (size 15 to 20)
#    0.000    0.667    3.333    6.000    0.000    1.333 
#    0.000    0.833    0.000    2.000    0.000    0.000 
#    0.000    0.000    0.000    0.000    0.000    0.000 
#
# Total GULP energy -297788.687590 kJ/mol
# GULP energy per Si atom -12407.861983 kJ/mol
# Density = 1.942323 g / cm^3
# Si number density = 19.467536 Si / 1000 Ang^3
#
#
#
# Elastic Constant Matrix: (Units=GPa)
#
#
# Indices 1 2 3 4 5 6 
#
# 1 75.0942 19.7086 21.3320 0.0000 -0.0004 0.0000
# 2 19.7086 127.5957 51.3858 0.0000 -0.0009 0.0000
# 3 21.3320 51.3858 121.3325 -0.0001 -0.0048 0.0000
# 4 0.0000 0.0000 -0.0001 19.2920 -0.0010 0.0000
# 5 -0.0004 -0.0009 -0.0048 -0.0010 -331.9504 0.0008
# 6 0.0000 0.0000 0.0000 0.0000 0.0008 28.0925
#
#
#
# Elastic Compliance Matrix: (Units=1/GPa)
#
#
# Indices 1 2 3 4 5 6 
#
# 1 0.014231 -0.001435 -0.001894 0.000000 0.000000 0.000000
# 2 -0.001435 0.009594 -0.003811 0.000000 0.000000 0.000000
# 3 -0.001894 -0.003811 0.010189 0.000000 0.000000 0.000000
# 4 0.000000 0.000000 0.000000 0.051835 0.000000 0.000000
# 5 0.000000 0.000000 0.000000 0.000000 -0.003012 0.000000
# 6 0.000000 0.000000 0.000000 0.000000 0.000000 0.035597
#
#
# Mechanical properties :
#
#
# Convention : Reuss Voigt Hill
#
# Bulk Modulus (GPa) = 50.67580 56.54170 53.60875
# Shear Modulus (GPa) = 35.89607 -41.47346 -2.78869
#
# Velocity S-wave (km/s) = 4.29872 -4.62062 -1.19816
# Velocity P-wave (km/s) = 7.12222 0.80017 5.06786
#
# Compressibility (1/GPa) = 0.01973329
#
# Stress axis : x y z
#
# Youngs Moduli (GPa) = 70.26719 104.23613 98.14796
#
# Poissons Ratio (x) = 0.14962 0.18591
# Poissons Ratio (y) = 0.10086 0.37401
# Poissons Ratio (z) = 0.13310 0.39721
#
# Static dielectric constant tensor:
#      x y z
#    x 13.666220 0.000010 0.000000 
#    y 0.000010 3.634900 0.000000 
#    z 0.000000 0.000000 3.646240 
# 
# 
# High freq. dielectric constant tensor:
#      x y z
#    x 1.770860 0.000000 0.000000 
#    y 0.000000 1.757050 0.000000 
#    z 0.000000 0.000000 1.759150 
# 
# From -- ./inp_files/13896.got.cif
#   From: 2010.03.12/outbox.cif.g09.slc.cpg/sg46_7_cif.got.tgz:13896.got - 2010.04.14 02:56:35.
