data_PCOD8193001
_publ_section_title
;
Structure prediction by ZEFSAII (Michael W. Deem and Ramdas Pophale) SiO2 
 PCOD8193001
Probable space group: I M A 2
;
_chemical_formula_sum "Si O2"
_cell_formula_units_Z 56
_cell_length_a 9.040434
_cell_length_b 17.914173
_cell_length_c 17.026325
_cell_angle_alpha 90.000000
_cell_angle_beta 90.000000
_cell_angle_gamma 90.000000
_cell_volume 2757.445661
_symmetry_space_group_name_H-M "I M A 2"
_symmetry_group_IT_number 46
_symmetry_cell_setting 'orthorhombic'
loop_
_space_group_symop_operation_xyz
x,y,z
-x,-y,z
1/2-x,y,z
1/2+x,-y,z
1/2+x,1/2+y,1/2+z
1/2-x,1/2-y,1/2+z
-x,1/2+y,1/2+z
x,1/2-y,1/2+z
loop_
_atom_site_type_symbol
_atom_site_label
_atom_site_fract_x
_atom_site_fract_y
_atom_site_fract_z
Si Si1 0.421144 0.922517 0.942180
Si Si2 0.577536 0.577506 0.724561
Si Si3 0.575693 0.671537 0.133344
Si Si4 0.576248 0.077372 0.506012
Si Si5 0.082002 0.668600 0.853225
Si Si6 0.416882 0.670291 0.295218
Si Si7 0.576903 0.666868 0.571503
O O1 0.250000 0.931471 0.963535
O O2 0.444287 0.900912 0.851110
O O3 0.500000 0.000000 0.960873
O O4 0.487698 0.856434 0.994788
O O5 0.500000 0.500000 0.740039
O O6 0.750000 0.564898 0.732525
O O7 0.529137 0.635416 0.790231
O O8 0.533977 0.609205 0.639898
O O9 0.750000 0.658965 0.126633
O O10 0.532073 0.667869 0.224487
O O11 0.526808 0.750852 0.097815
O O12 0.492355 0.605872 0.087513
O O13 0.750000 0.064184 0.517100
O O14 0.540740 0.138738 0.439478
O O15 0.500000 0.000000 0.481142
O O16 0.250000 0.645387 0.832044
O O17 0.060556 0.757417 0.850464
O O18 0.250000 0.669353 0.260958
O O19 0.750000 0.664938 0.552720
#
# Coordination Sequence:
#
# PCOD8193001 Si02
#       7
#     8   8   8   8   8   8   8
#     4  11  24  41  63  91 123 162 206 254 308 364
#     4  11  22  36  56  87 125 162 201 246 301 362
#     4  11  23  41  65  94 124 161 206 253 306 365
#     4  11  24  42  63  91 125 164 207 255 308 363
#     4  10  21  39  63  90 120 157 204 252 305 364
#     4  10  22  41  64  91 123 161 206 253 305 365
#     4  10  22  40  61  90 124 159 204 251 303 364
#
# _framework density 20.30865
#
# number of rings (size 3 to 8) (size 9 to 14) (size 15 to 20)
#    0.000    1.429    1.429    3.429    0.000    8.571 
#    0.000    1.429    0.000    0.000    0.000    0.000 
#    0.000    0.000    0.000    0.000    0.000    0.000 
#
# Total GULP energy -347366.486686 kJ/mol
# GULP energy per Si atom -12405.945953 kJ/mol
# Density = 2.026243 g / cm^3
# Si number density = 20.308650 Si / 1000 Ang^3
#
#
#
# Elastic Constant Matrix: (Units=GPa)
#
#
# Indices 1 2 3 4 5 6 
#
# 1 79.0230 31.5158 48.0585 0.0000 0.0000 0.0000
# 2 31.5158 50.8683 20.1341 0.0000 0.0000 0.0000
# 3 48.0585 20.1341 95.5546 0.0000 0.0000 0.0000
# 4 0.0000 0.0000 0.0000 35.5783 0.0000 0.0000
# 5 0.0000 0.0000 0.0000 0.0000 35.1035 0.0000
# 6 0.0000 0.0000 0.0000 0.0000 0.0000 31.5657
#
#
#
# Elastic Compliance Matrix: (Units=1/GPa)
#
#
# Indices 1 2 3 4 5 6 
#
# 1 0.022203 -0.010185 -0.009020 0.000000 0.000000 0.000000
# 2 -0.010185 0.026120 -0.000381 0.000000 0.000000 0.000000
# 3 -0.009020 -0.000381 0.015082 0.000000 0.000000 0.000000
# 4 0.000000 0.000000 0.000000 0.028107 0.000000 0.000000
# 5 0.000000 0.000000 0.000000 0.000000 0.028487 0.000000
# 6 0.000000 0.000000 0.000000 0.000000 0.000000 0.031680
#
#
# Mechanical properties :
#
#
# Convention : Reuss Voigt Hill
#
# Bulk Modulus (GPa) = 41.26948 47.20696 44.23822
# Shear Modulus (GPa) = 25.13455 28.83200 26.98328
#
# Velocity S-wave (km/s) = 3.52181 3.77197 3.64903
# Velocity P-wave (km/s) = 6.07477 6.50119 6.29159
#
# Compressibility (1/GPa) = 0.02423098
#
# Stress axis : x y z
#
# Youngs Moduli (GPa) = 45.03995 38.28512 66.30300
#
# Poissons Ratio (x) = 0.38995 0.59808
# Poissons Ratio (y) = 0.45875 0.02526
# Poissons Ratio (z) = 0.40628 0.01459
#
# Static dielectric constant tensor:
#      x y z
#    x 3.669250 0.000000 0.000000 
#    y 0.000000 3.693720 0.000000 
#    z 0.000000 0.000000 3.586500 
# 
# 
# High freq. dielectric constant tensor:
#      x y z
#    x 1.797830 0.000000 0.000000 
#    y 0.000000 1.800120 0.000000 
#    z 0.000000 0.000000 1.796550 
# 
# From -- ./inp_files/14223.got.cif
#   From: 2010.03.12/outbox.cif.g09.slc.cpg/sg46_8_cif.got.tgz:14223.got - 2010.04.14 02:56:35.
