data_PCOD8193199
_publ_section_title
;
Structure prediction by ZEFSAII (Michael W. Deem and Ramdas Pophale) SiO2 
 PCOD8193199
Probable space group: I M A 2
;
_chemical_formula_sum "Si O2"
_cell_formula_units_Z 40
_cell_length_a 13.054449
_cell_length_b 5.499528
_cell_length_c 21.925629
_cell_angle_alpha 90.000000
_cell_angle_beta 90.000000
_cell_angle_gamma 90.000000
_cell_volume 1574.113432
_symmetry_space_group_name_H-M "I M A 2"
_symmetry_group_IT_number 46
_symmetry_cell_setting 'orthorhombic'
loop_
_space_group_symop_operation_xyz
x,y,z
-x,-y,z
1/2-x,y,z
1/2+x,-y,z
1/2+x,1/2+y,1/2+z
1/2-x,1/2-y,1/2+z
-x,1/2+y,1/2+z
x,1/2-y,1/2+z
loop_
_atom_site_type_symbol
_atom_site_label
_atom_site_fract_x
_atom_site_fract_y
_atom_site_fract_z
Si Si1 0.137583 0.597153 0.160030
Si Si2 0.000000 0.500000 0.688057
Si Si3 0.500000 0.000000 0.873462
Si Si4 0.865413 0.780945 0.773481
Si Si5 0.872760 0.145879 0.981784
Si Si6 0.632625 0.853702 0.540837
O O1 0.250000 0.712125 0.145907
O O2 0.129598 0.519797 0.230503
O O3 0.122355 0.365207 0.114742
O O4 0.045977 0.785521 0.146085
O O5 0.095260 0.437822 0.731912
O O6 0.564004 0.812528 0.832401
O O7 0.418998 0.847776 0.913744
O O8 0.750000 0.725375 0.794937
O O9 0.750000 0.146360 0.979388
O O10 0.914482 0.388668 0.016106
O O11 0.915964 0.895816 0.014083
O O12 0.750000 0.847764 0.519941
#
# Coordination Sequence:
#
# PCOD8193199 Si02
#       6
#     8   4   4   8   8   8
#     4  10  22  42  69 102 142 183 230 300 375 445
#     4  12  22  41  66 110 139 184 240 296 368 456
#     4  12  24  47  64 100 135 188 242 294 348 432
#     4  11  25  46  69 100 143 185 235 302 368 438
#     4  10  23  44  69  99 137 186 238 291 352 425
#     4   9  21  43  70 101 139 182 229 292 366 431
#
# _framework density 25.411131000000001
#
# number of rings (size 3 to 8) (size 9 to 14) (size 15 to 20)
#    0.000    1.600    2.000    1.200    2.800    3.200 
#    3.600    2.000    0.000    0.000    0.000    0.000 
#    0.000    0.000    0.000    0.000    0.000    0.000 
#
# Total GULP energy -247950.837939 kJ/mol
# GULP energy per Si atom -12397.541897 kJ/mol
# Density = 2.535329 g / cm^3
# Si number density = 25.411131 Si / 1000 Ang^3
#
#
#
# Elastic Constant Matrix: (Units=GPa)
#
#
# Indices 1 2 3 4 5 6 
#
# 1 110.8817 57.2809 38.7049 0.0000 0.0000 0.0000
# 2 57.2809 133.9164 39.9663 0.0000 0.0000 0.0000
# 3 38.7049 39.9663 127.9090 0.0000 0.0000 0.0000
# 4 0.0000 0.0000 0.0000 23.7818 0.0000 0.0000
# 5 0.0000 0.0000 0.0000 0.0000 36.7862 0.0000
# 6 0.0000 0.0000 0.0000 0.0000 0.0000 42.8477
#
#
#
# Elastic Compliance Matrix: (Units=1/GPa)
#
#
# Indices 1 2 3 4 5 6 
#
# 1 0.012143 -0.004519 -0.002262 0.000000 0.000000 0.000000
# 2 -0.004519 0.009917 -0.001731 0.000000 0.000000 0.000000
# 3 -0.002262 -0.001731 0.009044 0.000000 0.000000 0.000000
# 4 0.000000 0.000000 0.000000 0.042049 0.000000 0.000000
# 5 0.000000 0.000000 0.000000 0.000000 0.027184 0.000000
# 6 0.000000 0.000000 0.000000 0.000000 0.000000 0.023338
#
#
# Mechanical properties :
#
#
# Convention : Reuss Voigt Hill
#
# Bulk Modulus (GPa) = 71.03090 71.62348 71.32719
# Shear Modulus (GPa) = 34.38972 36.46679 35.42825
#
# Velocity S-wave (km/s) = 3.68276 3.79234 3.73795
# Velocity P-wave (km/s) = 6.78947 6.88643 6.83812
#
# Compressibility (1/GPa) = 0.01407838
#
# Stress axis : x y z
#
# Youngs Moduli (GPa) = 82.35416 100.83877 110.57520
#
# Poissons Ratio (x) = 0.45566 0.25017
# Poissons Ratio (y) = 0.37213 0.19143
# Poissons Ratio (z) = 0.18632 0.17458
#
# Static dielectric constant tensor:
#      x y z
#    x 4.917670 0.000000 0.000000 
#    y 0.000000 4.499960 0.000000 
#    z 0.000000 0.000000 4.333940 
# 
# 
# High freq. dielectric constant tensor:
#      x y z
#    x 2.053740 0.000000 0.000000 
#    y 0.000000 1.999080 0.000000 
#    z 0.000000 0.000000 1.997790 
# 
# From -- ./inp_files/23564.got.cif
#   From: 2010.03.12/outbox.cif.g09.slc.cpg/sg46_12_cif.got.tgz:23564.got - 2010.04.14 02:56:35.
