data_PCOD8193361
_publ_section_title
;
Structure prediction by ZEFSAII (Michael W. Deem and Ramdas Pophale) SiO2 
 PCOD8193361
Probable space group: I M A 2
;
_chemical_formula_sum "Si O2"
_cell_formula_units_Z 32
_cell_length_a 9.934712
_cell_length_b 7.400452
_cell_length_c 20.294095
_cell_angle_alpha 90.000000
_cell_angle_beta 90.000000
_cell_angle_gamma 90.000000
_cell_volume 1492.049450
_symmetry_space_group_name_H-M "I M A 2"
_symmetry_group_IT_number 46
_symmetry_cell_setting 'orthorhombic'
loop_
_space_group_symop_operation_xyz
x,y,z
-x,-y,z
1/2-x,y,z
1/2+x,-y,z
1/2+x,1/2+y,1/2+z
1/2-x,1/2-y,1/2+z
-x,1/2+y,1/2+z
x,1/2-y,1/2+z
loop_
_atom_site_type_symbol
_atom_site_label
_atom_site_fract_x
_atom_site_fract_y
_atom_site_fract_z
Si Si1 0.516962 0.210391 0.832050
Si Si2 0.750000 0.981215 0.008789
Si Si3 0.500000 0.000000 0.095028
Si Si4 0.407090 0.825257 0.686329
Si Si5 0.750000 0.316877 0.927685
Si Si6 0.750000 0.701367 0.895006
O O1 0.567973 0.254420 0.758962
O O2 0.618563 0.279447 0.885983
O O3 0.375633 0.308165 0.845290
O O4 0.500000 0.000000 0.841805
O O5 0.750000 0.197378 0.994161
O O6 0.750000 0.881716 0.938510
O O7 0.618943 0.924081 0.049371
O O8 0.555179 0.165952 0.137033
O O9 0.250000 0.879352 0.678204
O O10 0.500000 0.000000 0.672575
O O11 0.750000 0.530151 0.944875
#
# Coordination Sequence:
#
# PCOD8193361 Si02
#       6
#     8   4   4   8   4   4
#     4  11  22  43  70 104 149 175 225 302 360 417
#     4  12  26  48  68 102 146 192 240 292 348 426
#     4  12  28  48  76  94 150 198 238 290 350 438
#     4  11  27  46  73 110 142 189 240 298 360 425
#     4  12  24  43  69 103 139 184 238 291 348 420
#     4  12  26  41  73 107 137 190 234 291 358 418
#
# _framework density 21.447009999999999
#
# number of rings (size 3 to 8) (size 9 to 14) (size 15 to 20)
#    0.000    0.500    5.000    2.250   10.500    2.000 
#    0.000    0.000    0.000    0.000    0.000    0.000 
#    0.000    0.000    0.000    0.000    0.000    0.000 
#
# Total GULP energy -198461.924554 kJ/mol
# GULP energy per Si atom -12403.870285 kJ/mol
# Density = 2.139820 g / cm^3
# Si number density = 21.447010 Si / 1000 Ang^3
#
#
#
# Elastic Constant Matrix: (Units=GPa)
#
#
# Indices 1 2 3 4 5 6 
#
# 1 191.5114 23.7747 52.5589 0.0000 0.0000 0.0000
# 2 23.7747 84.9535 31.0187 0.0000 0.0000 0.0000
# 3 52.5589 31.0187 76.1476 0.0000 0.0000 0.0000
# 4 0.0000 0.0000 0.0000 23.4768 0.0000 0.0000
# 5 0.0000 0.0000 0.0000 0.0000 -16.1619 0.0000
# 6 0.0000 0.0000 0.0000 0.0000 0.0000 31.2008
#
#
#
# Elastic Compliance Matrix: (Units=1/GPa)
#
#
# Indices 1 2 3 4 5 6 
#
# 1 0.006445 -0.000211 -0.004363 0.000000 0.000000 0.000000
# 2 -0.000211 0.013835 -0.005490 0.000000 0.000000 0.000000
# 3 -0.004363 -0.005490 0.018380 0.000000 0.000000 0.000000
# 4 0.000000 0.000000 0.000000 0.042595 0.000000 0.000000
# 5 0.000000 0.000000 0.000000 0.000000 -0.061874 0.000000
# 6 0.000000 0.000000 0.000000 0.000000 0.000000 0.032050
#
#
# Mechanical properties :
#
#
# Convention : Reuss Voigt Hill
#
# Bulk Modulus (GPa) = 53.95866 63.03522 58.49694
# Shear Modulus (GPa) = 64.32004 24.05383 44.18694
#
# Velocity S-wave (km/s) = 5.48227 3.35258 4.54396
# Velocity P-wave (km/s) = 8.08006 6.66644 7.40705
#
# Compressibility (1/GPa) = 0.01853271
#
# Stress axis : x y z
#
# Youngs Moduli (GPa) = 155.15672 72.28201 54.40693
#
# Poissons Ratio (x) = 0.01523 0.23736
# Poissons Ratio (y) = 0.03270 0.29870
# Poissons Ratio (z) = 0.67690 0.39683
#
# Static dielectric constant tensor:
#      x y z
#    x 4.060940 0.000000 0.000000 
#    y 0.000000 4.007150 0.000000 
#    z 0.000000 0.000000 3.888230 
# 
# 
# High freq. dielectric constant tensor:
#      x y z
#    x 1.865620 0.000000 0.000000 
#    y 0.000000 1.846790 0.000000 
#    z 0.000000 0.000000 1.836920 
# 
# From -- ./inp_files/20696.got.cif
#   From: 2010.03.12/outbox.cif.g09.slc.cpg/sg46_11_cif.got.tgz:20696.got - 2010.04.14 02:56:35.
