data_PCOD8193627
_publ_section_title
;
Structure prediction by ZEFSAII (Michael W. Deem and Ramdas Pophale) SiO2 
 PCOD8193627
Probable space group: P M M M
;
_chemical_formula_sum "Si O2"
_cell_formula_units_Z 60
_cell_length_a 19.502698
_cell_length_b 9.669049
_cell_length_c 19.400028
_cell_angle_alpha 90.000000
_cell_angle_beta 90.000000
_cell_angle_gamma 90.000000
_cell_volume 3658.312606
_symmetry_space_group_name_H-M "P M M M"
_symmetry_group_IT_number 47
_symmetry_cell_setting 'orthorhombic'
loop_
_space_group_symop_operation_xyz
x,y,z
-x,-y,z
x,-y,-z
-x,y,-z
-x,-y,-z
x,y,-z
-x,y,z
x,-y,z
loop_
_atom_site_type_symbol
_atom_site_label
_atom_site_fract_x
_atom_site_fract_y
_atom_site_fract_z
Si Si1 0.384573 0.840112 0.126202
Si Si2 0.078619 0.340265 0.306278
Si Si3 0.173135 0.838302 0.783248
Si Si4 0.185704 0.340946 0.421235
Si Si5 0.500000 0.352360 0.923221
Si Si6 0.281797 0.162298 0.333736
Si Si7 0.424146 0.160393 0.282461
Si Si8 0.235551 0.163289 0.076713
O O1 0.434025 0.740028 0.086717
O O2 0.397701 0.814345 0.206039
O O3 0.309989 0.791414 0.102600
O O4 0.398375 0.000000 0.106749
O O5 0.086744 0.500000 0.285088
O O6 0.109235 0.248269 0.244966
O O7 0.117492 0.308131 0.377669
O O8 0.000000 0.298916 0.317633
O O9 0.241584 0.808623 0.738057
O O10 0.183601 0.788916 0.862754
O O11 0.154754 0.000000 0.779660
O O12 0.168659 0.304815 0.500000
O O13 0.208054 0.500000 0.412313
O O14 0.248233 0.246303 0.396056
O O15 0.500000 0.500000 0.880584
O O16 0.500000 0.401841 0.000000
O O17 0.361227 0.215199 0.329620
O O18 0.278760 0.000000 0.350913
O O19 0.500000 0.230625 0.295186
O O20 0.433377 0.000000 0.296942
O O21 0.232720 0.000000 0.071504
O O22 0.218727 0.225812 0.000000
#
# Coordination Sequence:
#
# PCOD8193627 Si02
#       8
#     8   8   8   8   4   8   8   8
#     4  10  17  29  48  65  81 111 156 198 236 285
#     4   9  18  32  50  73  99 125 153 184 219 265
#     4   9  16  28  47  69  95 124 154 191 234 277
#     4   9  18  32  50  73  99 125 152 182 219 266
#     4  11  23  33  37  51  87 125 152 187 242 297
#     4   9  16  28  47  69  94 123 154 190 232 274
#     4   9  15  25  45  69  91 114 149 198 240 273
#     4   9  16  26  44  70  93 114 151 202 244 277
#
# _framework density 16.401002999999999
#
# number of rings (size 3 to 8) (size 9 to 14) (size 15 to 20)
#    0.000    2.733    2.000    0.600    0.000    1.867 
#    0.000    2.667    0.000    2.000    0.000    9.333 
#    0.000    0.000    0.000    0.000    0.000    0.000 
#
# Total GULP energy -743389.149025 kJ/mol
# GULP energy per Si atom -12389.819150 kJ/mol
# Density = 1.636367 g / cm^3
# Si number density = 16.401003 Si / 1000 Ang^3
#
#
#
# Elastic Constant Matrix: (Units=GPa)
#
#
# Indices 1 2 3 4 5 6 
#
# 1 120.6318 45.9739 65.5036 0.0000 0.0000 0.0000
# 2 45.9739 46.2012 44.0866 0.0000 0.0000 0.0000
# 3 65.5036 44.0866 100.0089 0.0000 0.0000 0.0000
# 4 0.0000 0.0000 0.0000 16.9389 0.0000 0.0000
# 5 0.0000 0.0000 0.0000 0.0000 20.3621 0.0000
# 6 0.0000 0.0000 0.0000 0.0000 0.0000 2.4821
#
#
#
# Elastic Compliance Matrix: (Units=1/GPa)
#
#
# Indices 1 2 3 4 5 6 
#
# 1 0.014969 -0.009562 -0.005589 0.000000 0.000000 0.000000
# 2 -0.009562 0.043468 -0.012899 0.000000 0.000000 0.000000
# 3 -0.005589 -0.012899 0.019346 0.000000 0.000000 0.000000
# 4 0.000000 0.000000 0.000000 0.059036 0.000000 0.000000
# 5 0.000000 0.000000 0.000000 0.000000 0.049111 0.000000
# 6 0.000000 0.000000 0.000000 0.000000 0.000000 0.402878
#
#
# Mechanical properties :
#
#
# Convention : Reuss Voigt Hill
#
# Bulk Modulus (GPa) = 46.11941 64.21891 55.16916
# Shear Modulus (GPa) = 7.66712 15.37513 11.52112
#
# Velocity S-wave (km/s) = 2.16447 3.06510 2.65328
# Velocity P-wave (km/s) = 5.86750 7.19493 6.56485
#
# Compressibility (1/GPa) = 0.02168285
#
# Stress axis : x y z
#
# Youngs Moduli (GPa) = 66.80624 23.00543 51.68999
#
# Poissons Ratio (x) = 0.21997 0.28890
# Poissons Ratio (y) = 0.63879 0.66676
# Poissons Ratio (z) = 0.37338 0.29675
#
# Static dielectric constant tensor:
#      x y z
#    x 3.056990 0.000000 0.000000 
#    y 0.000000 2.896670 0.000000 
#    z 0.000000 0.000000 2.983510 
# 
# 
# High freq. dielectric constant tensor:
#      x y z
#    x 1.624510 0.000000 0.000000 
#    y 0.000000 1.605370 0.000000 
#    z 0.000000 0.000000 1.618440 
# 
# From -- ./inp_files/10050.got.cif
#   From: 2010.03.12/outbox.cif.g09.slc.cpg/sg47_6_cif.got.tgz:10050.got - 2010.04.14 03:12:58.
