data_PCOD8193417
_publ_section_title
;
Structure prediction by ZEFSAII (Michael W. Deem and Ramdas Pophale) SiO2 
 PCOD8193417
Probable space group: I M A 2
;
_chemical_formula_sum "Si O2"
_cell_formula_units_Z 32
_cell_length_a 9.963670
_cell_length_b 28.951316
_cell_length_c 4.941719
_cell_angle_alpha 90.000000
_cell_angle_beta 90.000000
_cell_angle_gamma 90.000000
_cell_volume 1425.494977
_symmetry_space_group_name_H-M "I M A 2"
_symmetry_group_IT_number 46
_symmetry_cell_setting 'orthorhombic'
loop_
_space_group_symop_operation_xyz
x,y,z
-x,-y,z
1/2-x,y,z
1/2+x,-y,z
1/2+x,1/2+y,1/2+z
1/2-x,1/2-y,1/2+z
-x,1/2+y,1/2+z
x,1/2-y,1/2+z
loop_
_atom_site_type_symbol
_atom_site_label
_atom_site_fract_x
_atom_site_fract_y
_atom_site_fract_z
Si Si1 0.250000 0.378593 0.896200
Si Si2 0.473204 0.646423 0.687982
Si Si3 0.750000 0.219374 0.174667
Si Si4 0.396002 0.906440 0.685049
Si Si5 0.750000 0.555391 0.417433
Si Si6 0.000000 0.000000 0.753968
O O1 0.380302 0.346480 0.829529
O O2 0.250000 0.423093 0.710832
O O3 0.250000 0.402860 0.191945
O O4 0.389478 0.692282 0.611336
O O5 0.492892 0.615599 0.415936
O O6 0.382729 0.622491 0.913659
O O7 0.750000 0.235720 0.484346
O O8 0.250000 0.908722 0.822431
O O9 0.444663 0.956740 0.581882
O O10 0.621573 0.521662 0.424254
#
# Coordination Sequence:
#
# PCOD8193417 Si02
#       6
#     4   8   4   8   4   4
#     4  12  24  44  63  99 128 186 212 266 340 414
#     4  12  24  44  70  95 135 174 215 277 342 412
#     4  12  26  46  74 106 128 168 228 286 348 432
#     4  12  23  40  64  95 132 184 229 269 327 387
#     4  12  26  38  61  89 140 178 236 268 324 374
#     4  12  24  40  58  98 134 182 230 288 304 378
#
# _framework density 22.448343000000001
#
# number of rings (size 3 to 8) (size 9 to 14) (size 15 to 20)
#    0.000    0.000    8.750    1.500    0.000    4.000 
#    0.000    1.250    0.000    0.000    0.000    0.000 
#    0.000    0.000    0.000    0.000    0.000    0.000 
#
# Total GULP energy -198222.300239 kJ/mol
# GULP energy per Si atom -12388.893765 kJ/mol
# Density = 2.239725 g / cm^3
# Si number density = 22.448343 Si / 1000 Ang^3
#
#
#
# Elastic Constant Matrix: (Units=GPa)
#
#
# Indices 1 2 3 4 5 6 
#
# 1 160.4148 37.2904 0.5177 -0.0696 -0.1564 -0.0029
# 2 37.2904 90.6896 20.1756 -0.0199 -0.0225 0.0072
# 3 0.5177 20.1756 89.3923 -0.0648 -0.2900 0.0361
# 4 -0.0696 -0.0199 -0.0648 19.6833 0.0798 0.0291
# 5 -0.1564 -0.0225 -0.2900 0.0798 26.6715 -0.0024
# 6 -0.0029 0.0072 0.0361 0.0291 -0.0024 33.5965
#
#
#
# Elastic Compliance Matrix: (Units=1/GPa)
#
#
# Indices 1 2 3 4 5 6 
#
# 1 0.006927 -0.002989 0.000635 0.000023 0.000045 0.000001
# 2 -0.002989 0.012900 -0.002894 -0.000007 -0.000038 0.000000
# 3 0.000635 -0.002894 0.011837 0.000038 0.000130 -0.000012
# 4 0.000023 -0.000007 0.000038 0.050805 -0.000151 -0.000044
# 5 0.000045 -0.000038 0.000130 -0.000151 0.037495 0.000003
# 6 0.000001 0.000000 -0.000012 -0.000044 0.000003 0.029765
#
#
# Mechanical properties :
#
#
# Convention : Reuss Voigt Hill
#
# Bulk Modulus (GPa) = 47.24709 50.71823 48.98266
# Shear Modulus (GPa) = 29.88968 34.82445 32.35707
#
# Velocity S-wave (km/s) = 3.65291 3.94295 3.80070
# Velocity P-wave (km/s) = 6.23574 6.58570 6.41311
#
# Compressibility (1/GPa) = 0.02116533
#
# Stress axis : x y z
#
# Youngs Moduli (GPa) = 144.36756 77.52127 84.48338
#
# Poissons Ratio (x) = 0.23174 -0.05363
# Poissons Ratio (y) = 0.43157 0.24452
# Poissons Ratio (z) = -0.09164 0.22437
#
# Static dielectric constant tensor:
#      x y z
#    x 4.477890 0.000060 0.000160 
#    y 0.000060 3.755980 0.000020 
#    z 0.000160 0.000020 3.737020 
# 
# 
# High freq. dielectric constant tensor:
#      x y z
#    x 1.914360 0.000000 0.000010 
#    y 0.000000 1.852580 0.000010 
#    z 0.000010 0.000010 1.877090 
# 
# From -- ./inp_files/736.got.cif
#   From: 2010.03.12/outbox.cif.g09.slc.cpg/sg46_1_cif.got.tgz:736.got - 2010.04.14 02:56:35.
