data_PCOD8193287
_publ_section_title
;
Structure prediction by ZEFSAII (Michael W. Deem and Ramdas Pophale) SiO2 
 PCOD8193287
Probable space group: I M A 2
;
_chemical_formula_sum "Si O2"
_cell_formula_units_Z 48
_cell_length_a 18.852893
_cell_length_b 14.649571
_cell_length_c 9.627464
_cell_angle_alpha 90.000000
_cell_angle_beta 90.000000
_cell_angle_gamma 90.000000
_cell_volume 2658.978422
_symmetry_space_group_name_H-M "I M A 2"
_symmetry_group_IT_number 46
_symmetry_cell_setting 'orthorhombic'
loop_
_space_group_symop_operation_xyz
x,y,z
-x,-y,z
1/2-x,y,z
1/2+x,-y,z
1/2+x,1/2+y,1/2+z
1/2-x,1/2-y,1/2+z
-x,1/2+y,1/2+z
x,1/2-y,1/2+z
loop_
_atom_site_type_symbol
_atom_site_label
_atom_site_fract_x
_atom_site_fract_y
_atom_site_fract_z
Si Si1 0.578192 0.963570 0.905230
Si Si2 0.408508 0.572883 0.037878
Si Si3 0.934048 0.279194 0.821197
Si Si4 0.331755 0.618199 0.297851
Si Si5 0.470842 0.300990 0.555112
Si Si6 0.439081 0.386791 0.121445
O O1 0.598351 0.907665 0.766827
O O2 0.500000 0.000000 0.887159
O O3 0.632718 0.048776 0.912290
O O4 0.577080 0.892955 0.036215
O O5 0.406279 0.628236 0.895123
O O6 0.340672 0.584805 0.138174
O O7 0.416884 0.463958 0.007498
O O8 0.474577 0.610635 0.131661
O O9 0.863949 0.219593 0.800523
O O10 0.972683 0.311434 0.680033
O O11 0.988254 0.219062 0.911643
O O12 0.250000 0.624241 0.337781
O O13 0.417171 0.215665 0.578241
#
# Coordination Sequence:
#
# PCOD8193287 Si02
#       6
#     8   8   8   8   8   8
#     4  11  17  34  54  75 110 146 192 240 274 343
#     4   9  17  32  52  75 107 143 183 225 275 349
#     4  11  19  34  52  84 113 142 187 232 290 345
#     4  11  21  34  55  82 117 158 189 226 294 368
#     4  11  18  32  56  82 110 139 184 241 292 331
#     4   9  15  31  52  73 103 137 174 230 282 323
#
# _framework density 18.052043999999999
#
# number of rings (size 3 to 8) (size 9 to 14) (size 15 to 20)
#    0.000    1.667   10.000    0.000    0.000    0.667 
#    6.000    0.000    0.000    4.000    0.000    0.000 
#    0.000    0.000    0.000    0.000    0.000    0.000 
#
# Total GULP energy -297318.584325 kJ/mol
# GULP energy per Si atom -12388.274347 kJ/mol
# Density = 1.801096 g / cm^3
# Si number density = 18.052044 Si / 1000 Ang^3
#
#
#
# Elastic Constant Matrix: (Units=GPa)
#
#
# Indices 1 2 3 4 5 6 
#
# 1 64.1764 38.7300 21.7929 0.0000 0.0000 0.0000
# 2 38.7300 144.5231 47.9974 0.0000 0.0000 0.0000
# 3 21.7929 47.9974 66.9293 0.0000 0.0000 0.0000
# 4 0.0000 0.0000 0.0000 35.9205 0.0000 0.0000
# 5 0.0000 0.0000 0.0000 0.0000 9.7940 0.0000
# 6 0.0000 0.0000 0.0000 0.0000 0.0000 18.7246
#
#
#
# Elastic Compliance Matrix: (Units=1/GPa)
#
#
# Indices 1 2 3 4 5 6 
#
# 1 0.019145 -0.004017 -0.003353 0.000000 0.000000 0.000000
# 2 -0.004017 0.009925 -0.005810 0.000000 0.000000 0.000000
# 3 -0.003353 -0.005810 0.020199 0.000000 0.000000 0.000000
# 4 0.000000 0.000000 0.000000 0.027839 0.000000 0.000000
# 5 0.000000 0.000000 0.000000 0.000000 0.102104 0.000000
# 6 0.000000 0.000000 0.000000 0.000000 0.000000 0.053406
#
#
# Mechanical properties :
#
#
# Convention : Reuss Voigt Hill
#
# Bulk Modulus (GPa) = 43.64937 54.74105 49.19521
# Shear Modulus (GPa) = 18.75369 24.02839 21.39104
#
# Velocity S-wave (km/s) = 3.22664 3.65233 3.44607
# Velocity P-wave (km/s) = 6.17364 6.94088 6.56848
#
# Compressibility (1/GPa) = 0.02290984
#
# Stress axis : x y z
#
# Youngs Moduli (GPa) = 52.23326 100.75285 49.50654
#
# Poissons Ratio (x) = 0.40472 0.16600
# Poissons Ratio (y) = 0.20982 0.28762
# Poissons Ratio (z) = 0.17514 0.58535
#
# Static dielectric constant tensor:
#      x y z
#    x 2.771270 0.000000 0.000000 
#    y 0.000000 3.893470 0.000000 
#    z 0.000000 0.000000 3.246460 
# 
# 
# High freq. dielectric constant tensor:
#      x y z
#    x 1.628480 0.000000 0.000000 
#    y 0.000000 1.721740 0.000000 
#    z 0.000000 0.000000 1.679540 
# 
# From -- ./inp_files/6618.got.cif
#   From: 2010.03.12/outbox.cif.g09.slc.cpg/sg46_4_cif.got.tgz:6618.got - 2010.04.14 02:56:35.
