data_PCOD8193758
_publ_section_title
;
Structure prediction by ZEFSAII (Michael W. Deem and Ramdas Pophale) SiO2 
 PCOD8193758
Probable space group: P M M M
;
_chemical_formula_sum "Si O2"
_cell_formula_units_Z 56
_cell_length_a 9.497631
_cell_length_b 21.242757
_cell_length_c 18.347681
_cell_angle_alpha 90.000000
_cell_angle_beta 90.000000
_cell_angle_gamma 90.000000
_cell_volume 3701.752295
_symmetry_space_group_name_H-M "P M M M"
_symmetry_group_IT_number 47
_symmetry_cell_setting 'orthorhombic'
loop_
_space_group_symop_operation_xyz
x,y,z
-x,-y,z
x,-y,-z
-x,y,-z
-x,-y,-z
x,y,-z
-x,y,z
x,-y,z
loop_
_atom_site_type_symbol
_atom_site_label
_atom_site_fract_x
_atom_site_fract_y
_atom_site_fract_z
Si Si1 0.162761 0.794882 0.582504
Si Si2 0.332179 0.812597 0.918781
Si Si3 0.344105 0.141421 0.693523
Si Si4 0.667948 0.069670 0.830478
Si Si5 0.656978 0.732751 0.212950
Si Si6 0.164451 0.330195 0.327433
Si Si7 0.339544 0.573523 0.416547
O O1 0.218123 0.791643 0.500000
O O2 0.243491 0.850883 0.624000
O O3 0.192751 0.727577 0.618437
O O4 0.000000 0.812274 0.586155
O O5 0.500000 0.815899 0.919154
O O6 0.272649 0.879406 0.888405
O O7 0.286048 0.754300 0.866891
O O8 0.271832 0.801521 0.000000
O O9 0.500000 0.123721 0.665153
O O10 0.284494 0.087934 0.748187
O O11 0.351156 0.205637 0.738136
O O12 0.500000 0.070850 0.832888
O O13 0.726141 0.000000 0.849654
O O14 0.500000 0.702830 0.207267
O O15 0.763955 0.682787 0.248782
O O16 0.233643 0.391409 0.362815
O O17 0.000000 0.342570 0.314798
O O18 0.298248 0.588368 0.500000
O O19 0.500000 0.595472 0.401825
O O20 0.324096 0.500000 0.400561
#
# Coordination Sequence:
#
# PCOD8193758 Si02
#       7
#     8   8   8   8   8   8   8
#     4   9  17  27  38  54  75  96 121 160 207 243
#     4   8  13  21  35  57  83 108 133 161 195 238
#     4   8  14  24  37  53  72  96 127 159 193 236
#     4   8  13  21  34  53  77 103 129 159 195 234
#     4   8  14  25  39  55  78 106 133 163 199 237
#     4  10  18  27  41  60  81 105 136 171 202 234
#     4   9  18  31  44  59  83 115 145 169 196 232
#
# _framework density 15.127969999999999
#
# number of rings (size 3 to 8) (size 9 to 14) (size 15 to 20)
#    0.000    3.429    0.000    3.000    0.000    2.286 
#    0.000    2.143    0.000    1.286    0.000    3.000 
#    0.000    0.571    0.000   17.714    0.000   13.286 
#
# Total GULP energy -693997.085131 kJ/mol
# GULP energy per Si atom -12392.805092 kJ/mol
# Density = 1.509354 g / cm^3
# Si number density = 15.127970 Si / 1000 Ang^3
#
#
#
# Elastic Constant Matrix: (Units=GPa)
#
#
# Indices 1 2 3 4 5 6 
#
# 1 54.8874 32.9480 44.5954 0.0000 0.0000 0.0000
# 2 32.9480 55.8308 45.8987 0.0000 0.0000 0.0000
# 3 44.5954 45.8987 115.9176 0.0000 0.0000 0.0000
# 4 0.0000 0.0000 0.0000 20.8501 0.0000 0.0000
# 5 0.0000 0.0000 0.0000 0.0000 10.9398 0.0000
# 6 0.0000 0.0000 0.0000 0.0000 0.0000 12.5899
#
#
#
# Elastic Compliance Matrix: (Units=1/GPa)
#
#
# Indices 1 2 3 4 5 6 
#
# 1 0.031723 -0.012881 -0.007104 0.000000 0.000000 0.000000
# 2 -0.012881 0.031786 -0.007630 0.000000 0.000000 0.000000
# 3 -0.007104 -0.007630 0.014381 0.000000 0.000000 0.000000
# 4 0.000000 0.000000 0.000000 0.047961 0.000000 0.000000
# 5 0.000000 0.000000 0.000000 0.000000 0.091410 0.000000
# 6 0.000000 0.000000 0.000000 0.000000 0.000000 0.079428
#
#
# Mechanical properties :
#
#
# Convention : Reuss Voigt Hill
#
# Bulk Modulus (GPa) = 44.13167 52.61334 48.37251
# Shear Modulus (GPa) = 13.90922 15.75554 14.83238
#
# Velocity S-wave (km/s) = 3.03551 3.23070 3.13463
# Velocity P-wave (km/s) = 6.44371 6.98362 6.71909
#
# Compressibility (1/GPa) = 0.02265946
#
# Stress axis : x y z
#
# Youngs Moduli (GPa) = 31.52256 31.46071 69.53492
#
# Poissons Ratio (x) = 0.40524 0.49399
# Poissons Ratio (y) = 0.40604 0.53058
# Poissons Ratio (z) = 0.22394 0.24006
#
# Static dielectric constant tensor:
#      x y z
#    x 2.762080 0.000000 0.000000 
#    y 0.000000 2.762600 0.000000 
#    z 0.000000 0.000000 3.139030 
# 
# 
# High freq. dielectric constant tensor:
#      x y z
#    x 1.553530 0.000000 0.000000 
#    y 0.000000 1.549380 0.000000 
#    z 0.000000 0.000000 1.570890 
# 
# From -- ./inp_files/10110.got.cif
#   From: 2010.03.12/outbox.cif.g09.slc.cpg/sg47_6_cif.got.tgz:10110.got - 2010.04.14 03:12:58.
