data_PCOD8193581
_publ_section_title
;
Structure prediction by ZEFSAII (Michael W. Deem and Ramdas Pophale) SiO2 
 PCOD8193581
Probable space group: P M M M
;
_chemical_formula_sum "Si O2"
_cell_formula_units_Z 52
_cell_length_a 23.219751
_cell_length_b 14.220162
_cell_length_c 8.926566
_cell_angle_alpha 90.000000
_cell_angle_beta 90.000000
_cell_angle_gamma 90.000000
_cell_volume 2947.450516
_symmetry_space_group_name_H-M "P M M M"
_symmetry_group_IT_number 47
_symmetry_cell_setting 'orthorhombic'
loop_
_space_group_symop_operation_xyz
x,y,z
-x,-y,z
x,-y,-z
-x,y,-z
-x,-y,-z
x,y,-z
-x,y,z
x,-y,z
loop_
_atom_site_type_symbol
_atom_site_label
_atom_site_fract_x
_atom_site_fract_y
_atom_site_fract_z
Si Si1 0.726381 0.601967 0.322016
Si Si2 0.325150 0.208055 0.678171
Si Si3 0.105480 0.213870 0.823727
Si Si4 0.142688 0.606420 0.674581
Si Si5 0.563365 0.105743 0.321868
Si Si6 0.778902 0.891597 0.827145
Si Si7 0.000000 0.890975 0.676281
O O1 0.725886 0.601586 0.500000
O O2 0.703715 0.500000 0.263317
O O3 0.686718 0.686453 0.259374
O O4 0.791729 0.617257 0.267996
O O5 0.325119 0.207523 0.500000
O O6 0.387034 0.174314 0.742118
O O7 0.276086 0.136903 0.730408
O O8 0.103423 0.321961 0.768726
O O9 0.166272 0.168808 0.775772
O O10 0.056283 0.155673 0.743976
O O11 0.095167 0.209417 0.000000
O O12 0.137836 0.631822 0.500000
O O13 0.120968 0.500000 0.703823
O O14 0.565314 0.105497 0.500000
O O15 0.500000 0.140321 0.267491
O O16 0.574730 0.000000 0.262827
O O17 0.793395 0.000000 0.796436
O O18 0.764321 0.872971 0.000000
O O19 0.000000 0.875286 0.500000
O O20 0.000000 0.000000 0.720392
#
# Coordination Sequence:
#
# PCOD8193581 Si02
#       7
#     8   8   8   8   8   8   4
#     4   8  14  25  43  69  99 127 156 198 251 298
#     4  10  17  27  48  72  92 122 169 211 242 291
#     4  11  22  37  57  79 106 138 169 206 254 309
#     4   9  17  32  54  78 106 137 167 205 255 305
#     4   8  14  24  38  61  94 127 161 206 256 297
#     4  10  21  34  47  69 103 134 156 193 253 305
#     4  11  25  43  62  81 102 135 179 218 248 293
#
# _framework density 17.642364000000001
#
# number of rings (size 3 to 8) (size 9 to 14) (size 15 to 20)
#    0.000    2.538    1.538    3.000    0.000    3.077 
#    0.000    0.385    0.000    3.692    0.000    5.385 
#    0.000    0.000    0.000    1.385    0.000    1.692 
#
# Total GULP energy -644625.521404 kJ/mol
# GULP energy per Si atom -12396.644642 kJ/mol
# Density = 1.760221 g / cm^3
# Si number density = 17.642364 Si / 1000 Ang^3
#
#
#
# Elastic Constant Matrix: (Units=GPa)
#
#
# Indices 1 2 3 4 5 6 
#
# 1 113.4206 66.8309 33.3393 0.0000 0.0000 0.0000
# 2 66.8309 137.1436 37.6191 0.0000 0.0000 0.0000
# 3 33.3393 37.6191 31.0374 0.0000 0.0000 0.0000
# 4 0.0000 0.0000 0.0000 18.5963 0.0000 0.0000
# 5 0.0000 0.0000 0.0000 0.0000 14.0100 0.0000
# 6 0.0000 0.0000 0.0000 0.0000 0.0000 23.1195
#
#
#
# Elastic Compliance Matrix: (Units=1/GPa)
#
#
# Indices 1 2 3 4 5 6 
#
# 1 0.014289 -0.004124 -0.010350 0.000000 0.000000 0.000000
# 2 -0.004124 0.012114 -0.010252 0.000000 0.000000 0.000000
# 3 -0.010350 -0.010252 0.055764 0.000000 0.000000 0.000000
# 4 0.000000 0.000000 0.000000 0.053774 0.000000 0.000000
# 5 0.000000 0.000000 0.000000 0.000000 0.071378 0.000000
# 6 0.000000 0.000000 0.000000 0.000000 0.000000 0.043253
#
#
# Mechanical properties :
#
#
# Convention : Reuss Voigt Hill
#
# Bulk Modulus (GPa) = 30.56904 61.90891 46.23897
# Shear Modulus (GPa) = 16.08079 20.73264 18.40672
#
# Velocity S-wave (km/s) = 3.02236 3.43178 3.23356
# Velocity P-wave (km/s) = 5.43546 7.13233 6.34091
#
# Compressibility (1/GPa) = 0.03271284
#
# Stress axis : x y z
#
# Youngs Moduli (GPa) = 69.98308 82.55174 17.93278
#
# Poissons Ratio (x) = 0.34045 0.18561
# Poissons Ratio (y) = 0.28861 0.18386
# Poissons Ratio (z) = 0.72435 0.84636
#
# Static dielectric constant tensor:
#      x y z
#    x 3.383580 0.000000 0.000000 
#    y 0.000000 3.645110 0.000000 
#    z 0.000000 0.000000 2.933840 
# 
# 
# High freq. dielectric constant tensor:
#      x y z
#    x 1.668320 0.000000 0.000000 
#    y 0.000000 1.693500 0.000000 
#    z 0.000000 0.000000 1.649500 
# 
# From -- ./inp_files/11073.got.cif
#   From: 2010.03.12/outbox.cif.g09.slc.cpg/sg47_6_cif.got.tgz:11073.got - 2010.04.14 03:12:58.
