data_PCOD8193685
_publ_section_title
;
Structure prediction by ZEFSAII (Michael W. Deem and Ramdas Pophale) SiO2 
 PCOD8193685
Probable space group: P M M M
;
_chemical_formula_sum "Si O2"
_cell_formula_units_Z 48
_cell_length_a 8.596422
_cell_length_b 16.754683
_cell_length_c 17.902691
_cell_angle_alpha 90.000000
_cell_angle_beta 90.000000
_cell_angle_gamma 90.000000
_cell_volume 2578.530413
_symmetry_space_group_name_H-M "P M M M"
_symmetry_group_IT_number 47
_symmetry_cell_setting 'orthorhombic'
loop_
_space_group_symop_operation_xyz
x,y,z
-x,-y,z
x,-y,-z
-x,y,-z
-x,-y,-z
x,y,-z
-x,y,z
x,-y,z
loop_
_atom_site_type_symbol
_atom_site_label
_atom_site_fract_x
_atom_site_fract_y
_atom_site_fract_z
Si Si1 0.174736 0.905032 0.000000
Si Si2 0.178556 0.500000 0.891249
Si Si3 0.817491 0.358156 0.347067
Si Si4 0.181456 0.766927 0.776657
Si Si5 0.314601 0.405095 0.500000
Si Si6 0.183834 0.671796 0.081015
Si Si7 0.317223 0.089459 0.846146
Si Si8 0.677359 0.500000 0.261910
O O1 0.256030 0.873750 0.075412
O O2 0.000000 0.871452 0.000000
O O3 0.181979 0.000000 0.000000
O O4 0.255058 0.418313 0.922202
O O5 0.195797 0.500000 0.802555
O O6 0.000000 0.500000 0.914426
O O7 0.784476 0.275463 0.302629
O O8 0.762468 0.355741 0.432275
O O9 0.705932 0.423298 0.311653
O O10 0.000000 0.380513 0.341171
O O11 0.253820 0.717477 0.847189
O O12 0.261572 0.854003 0.778251
O O13 0.000000 0.779701 0.788753
O O14 0.269421 0.500000 0.500000
O O15 0.500000 0.395572 0.500000
O O16 0.000000 0.665269 0.093567
O O17 0.222115 0.712881 0.000000
O O18 0.500000 0.086914 0.849891
O O19 0.251054 0.000000 0.832597
O O20 0.500000 0.500000 0.232518
#
# Coordination Sequence:
#
# PCOD8193685 Si02
#       8
#     4   4   8   8   4   8   8   4
#     4   9  17  31  53  77 101 134 179 230 277 325
#     4  10  17  32  51  69  95 138 187 229 269 312
#     4  11  22  38  58  81 109 145 184 222 268 321
#     4  10  21  35  54  80 107 139 183 230 274 324
#     4  11  23  37  57  89 119 146 181 220 268 327
#     4   9  17  29  48  74 100 131 179 232 269 305
#     4  10  21  36  53  76 108 144 181 225 284 346
#     4  12  22  32  50  75 105 142 180 222 269 317
#
# _framework density 18.615255000000001
#
# number of rings (size 3 to 8) (size 9 to 14) (size 15 to 20)
#    0.000    1.833    2.500    2.500    1.167    4.667 
#    0.000    0.000    0.000    2.000    0.000    0.583 
#    0.000    4.667    0.000    0.000    0.000    0.000 
#
# Total GULP energy -594899.127502 kJ/mol
# GULP energy per Si atom -12393.731823 kJ/mol
# Density = 1.857289 g / cm^3
# Si number density = 18.615255 Si / 1000 Ang^3
#
#
#
# Elastic Constant Matrix: (Units=GPa)
#
#
# Indices 1 2 3 4 5 6 
#
# 1 56.1985 30.6381 22.9701 0.0000 0.0000 0.0000
# 2 30.6381 90.6382 48.6235 0.0000 0.0000 0.0000
# 3 22.9701 48.6235 124.6702 0.0000 0.0000 0.0000
# 4 0.0000 0.0000 0.0000 27.2123 0.0000 0.0000
# 5 0.0000 0.0000 0.0000 0.0000 20.2517 0.0000
# 6 0.0000 0.0000 0.0000 0.0000 0.0000 1.1438
#
#
#
# Elastic Compliance Matrix: (Units=1/GPa)
#
#
# Indices 1 2 3 4 5 6 
#
# 1 0.022022 -0.006661 -0.001460 0.000000 0.000000 0.000000
# 2 -0.006661 0.015967 -0.005000 0.000000 0.000000 0.000000
# 3 -0.001460 -0.005000 0.010240 0.000000 0.000000 0.000000
# 4 0.000000 0.000000 0.000000 0.036748 0.000000 0.000000
# 5 0.000000 0.000000 0.000000 0.000000 0.049379 0.000000
# 6 0.000000 0.000000 0.000000 0.000000 0.000000 0.874277
#
#
# Mechanical properties :
#
#
# Convention : Reuss Voigt Hill
#
# Bulk Modulus (GPa) = 45.47991 52.88559 49.18275
# Shear Modulus (GPa) = 4.79753 21.00657 12.90205
#
# Velocity S-wave (km/s) = 1.60711 3.36290 2.63552
# Velocity P-wave (km/s) = 5.28472 6.59926 5.97823
#
# Compressibility (1/GPa) = 0.02198773
#
# Stress axis : x y z
#
# Youngs Moduli (GPa) = 45.40899 62.63007 97.65446
#
# Poissons Ratio (x) = 0.41718 0.14254
# Poissons Ratio (y) = 0.30247 0.48828
# Poissons Ratio (z) = 0.06628 0.31315
#
# Static dielectric constant tensor:
#      x y z
#    x 3.177590 0.000000 0.000000 
#    y 0.000000 3.598580 0.000000 
#    z 0.000000 0.000000 3.435380 
# 
# 
# High freq. dielectric constant tensor:
#      x y z
#    x 1.703330 0.000000 0.000000 
#    y 0.000000 1.713500 0.000000 
#    z 0.000000 0.000000 1.705940 
# 
# From -- ./inp_files/26594.got.cif
#   From: 2010.03.12/outbox.cif.g09.slc.cpg/sg47_14_cif.got.tgz:26594.got - 2010.04.14 03:12:58.
