data_PCOD8193186
_publ_section_title
;
Structure prediction by ZEFSAII (Michael W. Deem and Ramdas Pophale) SiO2 
 PCOD8193186
Probable space group: I M A 2
;
_chemical_formula_sum "Si O2"
_cell_formula_units_Z 48
_cell_length_a 28.108338
_cell_length_b 8.501055
_cell_length_c 8.833279
_cell_angle_alpha 90.000000
_cell_angle_beta 90.000000
_cell_angle_gamma 90.000000
_cell_volume 2110.716675
_symmetry_space_group_name_H-M "I M A 2"
_symmetry_group_IT_number 46
_symmetry_cell_setting 'orthorhombic'
loop_
_space_group_symop_operation_xyz
x,y,z
-x,-y,z
1/2-x,y,z
1/2+x,-y,z
1/2+x,1/2+y,1/2+z
1/2-x,1/2-y,1/2+z
-x,1/2+y,1/2+z
x,1/2-y,1/2+z
loop_
_atom_site_type_symbol
_atom_site_label
_atom_site_fract_x
_atom_site_fract_y
_atom_site_fract_z
Si Si1 0.439108 0.336560 0.909180
Si Si2 0.000000 0.500000 0.662886
Si Si3 0.000000 0.000000 0.649523
Si Si4 0.750000 0.964070 0.850703
Si Si5 0.657276 0.470176 0.954352
Si Si6 0.840123 0.337022 0.289823
Si Si7 0.250000 0.159982 0.522584
Si Si8 0.066182 0.966818 0.905134
O O1 0.468950 0.379591 0.760359
O O2 0.426673 0.154331 0.904555
O O3 0.472417 0.370919 0.051956
O O4 0.390239 0.432601 0.920749
O O5 0.037398 0.591946 0.553364
O O6 0.963081 0.091701 0.758204
O O7 0.750000 0.856588 0.702087
O O8 0.704969 0.076192 0.858944
O O9 0.750000 0.845963 0.991961
O O10 0.652429 0.378367 0.114046
O O11 0.702586 0.583770 0.952855
O O12 0.665582 0.349414 0.815772
O O13 0.883207 0.386307 0.398705
#
# Coordination Sequence:
#
# PCOD8193186 Si02
#       8
#     8   4   4   4   8   8   4   8
#     4  11  23  43  66  93 129 171 223 269 327 384
#     4  10  26  38  64  98 122 178 216 276 324 388
#     4  10  22  42  60  94 130 166 216 280 320 380
#     4  10  23  46  72 102 132 172 217 266 322 388
#     4  11  25  43  67  99 137 171 214 270 327 388
#     4  11  25  43  67  99 137 171 214 270 327 388
#     4  10  23  46  72 102 132 172 217 266 322 388
#     4  11  23  43  66  93 129 171 223 269 327 384
#
# _framework density 22.74109
#
# number of rings (size 3 to 8) (size 9 to 14) (size 15 to 20)
#    0.000    1.333    1.667    2.500    2.333    9.333 
#    0.000    0.000    0.000    0.000    0.000    0.000 
#    0.000    0.000    0.000    0.000    0.000    0.000 
#
# Total GULP energy -297630.711355 kJ/mol
# GULP energy per Si atom -12401.279640 kJ/mol
# Density = 2.268933 g / cm^3
# Si number density = 22.741090 Si / 1000 Ang^3
#
#
#
# Elastic Constant Matrix: (Units=GPa)
#
#
# Indices 1 2 3 4 5 6 
#
# 1 166.2669 39.5863 49.2320 0.0000 0.0000 0.0000
# 2 39.5863 83.6474 18.5648 0.0000 0.0000 0.0000
# 3 49.2320 18.5648 99.6701 0.0000 0.0000 0.0000
# 4 0.0000 0.0000 0.0000 31.0217 0.0000 0.0000
# 5 0.0000 0.0000 0.0000 0.0000 37.4285 0.0000
# 6 0.0000 0.0000 0.0000 0.0000 0.0000 28.2651
#
#
#
# Elastic Compliance Matrix: (Units=1/GPa)
#
#
# Indices 1 2 3 4 5 6 
#
# 1 0.007668 -0.002909 -0.003246 0.000000 0.000000 0.000000
# 2 -0.002909 0.013574 -0.001092 0.000000 0.000000 0.000000
# 3 -0.003246 -0.001092 0.011840 0.000000 0.000000 0.000000
# 4 0.000000 0.000000 0.000000 0.032236 0.000000 0.000000
# 5 0.000000 0.000000 0.000000 0.000000 0.026718 0.000000
# 6 0.000000 0.000000 0.000000 0.000000 0.000000 0.035379
#
#
# Mechanical properties :
#
#
# Convention : Reuss Voigt Hill
#
# Bulk Modulus (GPa) = 53.79398 62.70562 58.24980
# Shear Modulus (GPa) = 33.76044 35.48981 34.62512
#
# Velocity S-wave (km/s) = 3.85717 3.95473 3.90626
# Velocity P-wave (km/s) = 6.59874 6.96324 6.78344
#
# Compressibility (1/GPa) = 0.01858944
#
# Stress axis : x y z
#
# Youngs Moduli (GPa) = 130.41181 73.67200 84.46149
#
# Poissons Ratio (x) = 0.21428 0.27415
# Poissons Ratio (y) = 0.37930 0.09220
# Poissons Ratio (z) = 0.42330 0.08042
#
# Static dielectric constant tensor:
#      x y z
#    x 4.318320 0.000000 0.000000 
#    y 0.000000 3.864850 0.000000 
#    z 0.000000 0.000000 4.265770 
# 
# 
# High freq. dielectric constant tensor:
#      x y z
#    x 1.914220 0.000000 0.000000 
#    y 0.000000 1.892530 0.000000 
#    z 0.000000 0.000000 1.904940 
# 
# From -- ./inp_files/8429.got.cif
#   From: 2010.03.12/outbox.cif.g09.slc.cpg/sg46_5_cif.got.tgz:8429.got - 2010.04.14 02:56:35.
