data_PCOD8193673
_publ_section_title
;
Structure prediction by ZEFSAII (Michael W. Deem and Ramdas Pophale) SiO2 
 PCOD8193673
Probable space group: P M M M
;
_chemical_formula_sum "Si O2"
_cell_formula_units_Z 64
_cell_length_a 24.205547
_cell_length_b 8.777662
_cell_length_c 15.597640
_cell_angle_alpha 90.000000
_cell_angle_beta 90.000000
_cell_angle_gamma 90.000000
_cell_volume 3314.001093
_symmetry_space_group_name_H-M "P M M M"
_symmetry_group_IT_number 47
_symmetry_cell_setting 'orthorhombic'
loop_
_space_group_symop_operation_xyz
x,y,z
-x,-y,z
x,-y,-z
-x,y,-z
-x,-y,-z
x,y,-z
-x,y,z
x,-y,z
loop_
_atom_site_type_symbol
_atom_site_label
_atom_site_fract_x
_atom_site_fract_y
_atom_site_fract_z
Si Si1 0.562220 0.681966 0.749630
Si Si2 0.246461 0.680300 0.656506
Si Si3 0.364862 0.319301 0.094697
Si Si4 0.866368 0.825080 0.096580
Si Si5 0.636722 0.318649 0.404837
Si Si6 0.062302 0.680967 0.244257
Si Si7 0.130236 0.681321 0.594390
Si Si8 0.755425 0.319857 0.852944
O O1 0.500000 0.745992 0.749873
O O2 0.562196 0.500000 0.750639
O O3 0.593649 0.747088 0.833610
O O4 0.592867 0.743794 0.664433
O O5 0.248951 0.500000 0.648807
O O6 0.302386 0.748528 0.615481
O O7 0.192553 0.743759 0.607647
O O8 0.241827 0.730074 0.754546
O O9 0.364529 0.500000 0.102948
O O10 0.302655 0.260769 0.109512
O O11 0.384933 0.267771 0.000000
O O12 0.905249 0.732458 0.160361
O O13 0.804182 0.762762 0.096943
O O14 0.866491 0.000000 0.125248
O O15 0.889487 0.806043 0.000000
O O16 0.618628 0.265442 0.500000
O O17 0.638656 0.500000 0.399032
O O18 0.063132 0.500000 0.246013
O O19 0.090440 0.746383 0.331192
O O20 0.000000 0.744277 0.240512
O O21 0.109428 0.734119 0.500000
O O22 0.130836 0.500000 0.600340
O O23 0.762470 0.500000 0.864723
#
# Coordination Sequence:
#
# PCOD8193673 Si02
#       8
#     8   8   8   8   8   8   8   8
#     4   9  16  24  32  47  79 123 166 203 239 287
#     4   9  14  23  42  67  94 122 155 200 251 296
#     4   9  16  25  39  60  84 114 154 200 250 299
#     4  11  24  39  55  77 105 136 169 208 258 311
#     4   9  15  22  33  52  82 120 160 199 240 291
#     4  10  21  37  57  81 107 137 175 214 248 287
#     4   9  16  27  47  77 108 132 158 201 254 299
#     4  10  17  30  53  76  99 127 162 207 256 306
#
# _framework density 19.312004000000002
#
# number of rings (size 3 to 8) (size 9 to 14) (size 15 to 20)
#    0.000    2.500    2.500    1.125    0.000    4.250 
#    0.000    5.000    0.000    0.375    0.000    0.875 
#    0.000    0.500    0.000    2.625    0.000    4.000 
#
# Total GULP energy -793351.813138 kJ/mol
# GULP energy per Si atom -12396.122080 kJ/mol
# Density = 1.926805 g / cm^3
# Si number density = 19.312004 Si / 1000 Ang^3
#
#
#
# Elastic Constant Matrix: (Units=GPa)
#
#
# Indices 1 2 3 4 5 6 
#
# 1 159.8440 8.2520 79.1391 0.0000 0.0000 0.0000
# 2 8.2520 8.0019 8.9019 0.0000 0.0000 0.0000
# 3 79.1391 8.9019 153.7863 0.0000 0.0000 0.0000
# 4 0.0000 0.0000 0.0000 4.3238 0.0000 0.0000
# 5 0.0000 0.0000 0.0000 0.0000 17.5096 0.0000
# 6 0.0000 0.0000 0.0000 0.0000 0.0000 1.4310
#
#
#
# Elastic Compliance Matrix: (Units=1/GPa)
#
#
# Indices 1 2 3 4 5 6 
#
# 1 0.008524 -0.004180 -0.004144 0.000000 0.000000 0.000000
# 2 -0.004180 0.135620 -0.005699 0.000000 0.000000 0.000000
# 3 -0.004144 -0.005699 0.008965 0.000000 0.000000 0.000000
# 4 0.000000 0.000000 0.000000 0.231281 0.000000 0.000000
# 5 0.000000 0.000000 0.000000 0.000000 0.057112 0.000000
# 6 0.000000 0.000000 0.000000 0.000000 0.000000 0.698804
#
#
# Mechanical properties :
#
#
# Convention : Reuss Voigt Hill
#
# Bulk Modulus (GPa) = 7.99603 57.13536 32.56569
# Shear Modulus (GPa) = 4.13210 19.67549 11.90379
#
# Velocity S-wave (km/s) = 1.46434 3.19536 2.48542
# Velocity P-wave (km/s) = 2.64736 6.57749 5.01358
#
# Compressibility (1/GPa) = 0.12506212
#
# Stress axis : x y z
#
# Youngs Moduli (GPa) = 117.31854 7.37353 111.54252
#
# Poissons Ratio (x) = 0.03082 0.46228
# Poissons Ratio (y) = 0.49035 0.63573
# Poissons Ratio (z) = 0.48622 0.04203
#
# Static dielectric constant tensor:
#      x y z
#    x 3.736310 0.000000 0.000000 
#    y 0.000000 2.754140 0.000000 
#    z 0.000000 0.000000 3.793440 
# 
# 
# High freq. dielectric constant tensor:
#      x y z
#    x 1.754670 0.000000 0.000000 
#    y 0.000000 1.668050 0.000000 
#    z 0.000000 0.000000 1.771220 
# 
# From -- ./inp_files/21882.got.cif
#   From: 2010.03.12/outbox.cif.g09.slc.cpg/sg47_11_cif.got.tgz:21882.got - 2010.04.14 03:12:58.
