data_PCOD8193085
_publ_section_title
;
Structure prediction by ZEFSAII (Michael W. Deem and Ramdas Pophale) SiO2 
 PCOD8193085
Probable space group: I M A 2
;
_chemical_formula_sum "Si O2"
_cell_formula_units_Z 28
_cell_length_a 9.407094
_cell_length_b 6.994347
_cell_length_c 18.110788
_cell_angle_alpha 90.000000
_cell_angle_beta 90.000000
_cell_angle_gamma 90.000000
_cell_volume 1191.626095
_symmetry_space_group_name_H-M "I M A 2"
_symmetry_group_IT_number 46
_symmetry_cell_setting 'orthorhombic'
loop_
_space_group_symop_operation_xyz
x,y,z
-x,-y,z
1/2-x,y,z
1/2+x,-y,z
1/2+x,1/2+y,1/2+z
1/2-x,1/2-y,1/2+z
-x,1/2+y,1/2+z
x,1/2-y,1/2+z
loop_
_atom_site_type_symbol
_atom_site_label
_atom_site_fract_x
_atom_site_fract_y
_atom_site_fract_z
Si Si1 0.081975 0.305876 0.105740
Si Si2 0.088197 0.663814 0.737259
Si Si3 0.092864 0.180854 0.440111
Si Si4 0.000000 0.500000 0.333332
O O1 0.250000 0.325974 0.123407
O O2 0.000000 0.500000 0.120167
O O3 0.005103 0.164424 0.162207
O O4 0.053201 0.239752 0.021556
O O5 0.250000 0.600355 0.720854
O O6 0.000000 0.500000 0.783515
O O7 0.095544 0.864459 0.781258
O O8 0.250000 0.094322 0.441528
O O9 0.091319 0.359694 0.384605
O O10 0.000000 0.000000 0.415888
#
# Coordination Sequence:
#
# PCOD8193085 Si02
#       4
#     8   8   8   4
#     4  10  21  42  71 103 140 182 231 284 344 412
#     4  12  27  45  69 101 141 185 235 289 346 414
#     4  10  24  45  70 104 140 181 230 284 344 411
#     4  12  26  44  72 104 140 186 232 284 346 414
#
# _framework density 23.497302999999999
#
# number of rings (size 3 to 8) (size 9 to 14) (size 15 to 20)
#    0.000    1.143    1.429    3.429    2.000    9.143 
#    0.000    0.000    0.000    0.000    0.000    0.000 
#    0.000    0.000    0.000    0.000    0.000    0.000 
#
# Total GULP energy -173479.402988 kJ/mol
# GULP energy per Si atom -12391.385928 kJ/mol
# Density = 2.344382 g / cm^3
# Si number density = 23.497303 Si / 1000 Ang^3
#
#
#
# Elastic Constant Matrix: (Units=GPa)
#
#
# Indices 1 2 3 4 5 6 
#
# 1 180.2536 62.6123 56.2194 0.0000 0.0000 0.0000
# 2 62.6123 142.2676 54.6039 0.0000 0.0000 0.0000
# 3 56.2194 54.6039 126.7376 0.0000 0.0000 0.0000
# 4 0.0000 0.0000 0.0000 -55.5846 0.0000 0.0000
# 5 0.0000 0.0000 0.0000 0.0000 9.9178 0.0000
# 6 0.0000 0.0000 0.0000 0.0000 0.0000 34.2473
#
#
#
# Elastic Compliance Matrix: (Units=1/GPa)
#
#
# Indices 1 2 3 4 5 6 
#
# 1 0.006998 -0.002262 -0.002129 0.000000 0.000000 0.000000
# 2 -0.002262 0.009153 -0.002940 0.000000 0.000000 0.000000
# 3 -0.002129 -0.002940 0.010102 0.000000 0.000000 0.000000
# 4 0.000000 0.000000 0.000000 -0.017991 0.000000 0.000000
# 5 0.000000 0.000000 0.000000 0.000000 0.100829 0.000000
# 6 0.000000 0.000000 0.000000 0.000000 0.000000 0.029199
#
#
# Mechanical properties :
#
#
# Convention : Reuss Voigt Hill
#
# Bulk Modulus (GPa) = 86.28972 88.45887 87.37429
# Shear Modulus (GPa) = 31.88432 16.10431 23.99432
#
# Velocity S-wave (km/s) = 3.68766 2.62079 3.19901
# Velocity P-wave (km/s) = 7.41180 6.84735 7.13516
#
# Compressibility (1/GPa) = 0.01158887
#
# Stress axis : x y z
#
# Youngs Moduli (GPa) = 142.90317 109.25268 98.99488
#
# Poissons Ratio (x) = 0.24718 0.21080
# Poissons Ratio (y) = 0.32331 0.29104
# Poissons Ratio (z) = 0.30429 0.32120
#
# Static dielectric constant tensor:
#      x y z
#    x 3.982900 0.000000 0.000000 
#    y 0.000000 7.454230 0.000000 
#    z 0.000000 0.000000 4.648560 
# 
# 
# High freq. dielectric constant tensor:
#      x y z
#    x 1.924440 0.000000 0.000000 
#    y 0.000000 1.935540 0.000000 
#    z 0.000000 0.000000 1.947920 
# 
# From -- ./inp_files/20636.got.cif
#   From: 2010.03.12/outbox.cif.g09.slc.cpg/sg46_11_cif.got.tgz:20636.got - 2010.04.14 02:56:35.
