data_PCOD8193977
_publ_section_title
;
Structure prediction by ZEFSAII (Michael W. Deem and Ramdas Pophale) SiO2 
 PCOD8193977
Probable space group: P M M M
;
_chemical_formula_sum "Si O2"
_cell_formula_units_Z 56
_cell_length_a 14.653419
_cell_length_b 23.299608
_cell_length_c 9.333232
_cell_angle_alpha 90.000000
_cell_angle_beta 90.000000
_cell_angle_gamma 90.000000
_cell_volume 3186.541976
_symmetry_space_group_name_H-M "P M M M"
_symmetry_group_IT_number 47
_symmetry_cell_setting 'orthorhombic'
loop_
_space_group_symop_operation_xyz
x,y,z
-x,-y,z
x,-y,-z
-x,y,-z
-x,-y,-z
x,y,-z
-x,y,z
x,-y,z
loop_
_atom_site_type_symbol
_atom_site_label
_atom_site_fract_x
_atom_site_fract_y
_atom_site_fract_z
Si Si1 0.281016 0.344079 0.668782
Si Si2 0.605951 0.766304 0.662994
Si Si3 0.754974 0.935337 0.666068
Si Si4 0.394212 0.878560 0.833186
Si Si5 0.101391 0.156780 0.670103
Si Si6 0.101210 0.285264 0.670228
Si Si7 0.603003 0.566768 0.165940
O O1 0.285447 0.355288 0.500000
O O2 0.341172 0.289762 0.714143
O O3 0.177082 0.331254 0.721433
O O4 0.320246 0.399789 0.746033
O O5 0.632321 0.782790 0.500000
O O6 0.500000 0.752084 0.677960
O O7 0.635611 0.818179 0.764419
O O8 0.733720 0.922629 0.500000
O O9 0.662097 0.928738 0.756168
O O10 0.829068 0.890822 0.730477
O O11 0.791899 0.000000 0.686286
O O12 0.500000 0.891391 0.804537
O O13 0.371075 0.876740 0.000000
O O14 0.102263 0.154002 0.500000
O O15 0.128478 0.220990 0.722509
O O16 0.000000 0.142028 0.726963
O O17 0.099229 0.284186 0.500000
O O18 0.000000 0.302329 0.728323
O O19 0.500000 0.582777 0.216549
O O20 0.620949 0.500000 0.192843
O O21 0.614081 0.582318 0.000000
#
# Coordination Sequence:
#
# PCOD8193977 Si02
#       7
#     8   8   8   8   8   8   8
#     4  10  18  28  48  76 101 126 159 198 236 275
#     4   9  17  29  46  70  98 122 147 188 242 292
#     4  10  20  32  48  71  95 119 151 193 240 287
#     4  10  21  35  49  65  88 122 162 199 234 277
#     4   8  14  27  48  72  97 123 150 184 230 284
#     4   8  14  25  43  69  99 127 153 186 233 284
#     4   9  19  35  51  68  96 134 169 199 235 279
#
# _framework density 17.573910000000001
#
# number of rings (size 3 to 8) (size 9 to 14) (size 15 to 20)
#    0.000    2.857    0.000    3.000    0.000    5.714 
#    0.000    5.000    0.000    1.286    0.000    6.000 
#    0.000    0.000    0.000    0.000    0.000    0.000 
#
# Total GULP energy -694215.736994 kJ/mol
# GULP energy per Si atom -12396.709589 kJ/mol
# Density = 1.753391 g / cm^3
# Si number density = 17.573910 Si / 1000 Ang^3
#
#
#
# Elastic Constant Matrix: (Units=GPa)
#
#
# Indices 1 2 3 4 5 6 
#
# 1 109.3719 69.7663 37.8446 0.0000 0.0000 0.0000
# 2 69.7663 90.8294 35.3194 0.0000 0.0000 0.0000
# 3 37.8446 35.3194 45.0059 0.0000 0.0000 0.0000
# 4 0.0000 0.0000 0.0000 12.3709 0.0000 0.0000
# 5 0.0000 0.0000 0.0000 0.0000 12.8709 0.0000
# 6 0.0000 0.0000 0.0000 0.0000 0.0000 30.1792
#
#
#
# Elastic Compliance Matrix: (Units=1/GPa)
#
#
# Indices 1 2 3 4 5 6 
#
# 1 0.019189 -0.012182 -0.006575 0.000000 0.000000 0.000000
# 2 -0.012182 0.023579 -0.008260 0.000000 0.000000 0.000000
# 3 -0.006575 -0.008260 0.034231 0.000000 0.000000 0.000000
# 4 0.000000 0.000000 0.000000 0.080835 0.000000 0.000000
# 5 0.000000 0.000000 0.000000 0.000000 0.077695 0.000000
# 6 0.000000 0.000000 0.000000 0.000000 0.000000 0.033135
#
#
# Mechanical properties :
#
#
# Convention : Reuss Voigt Hill
#
# Bulk Modulus (GPa) = 43.54838 59.00756 51.27797
# Shear Modulus (GPa) = 15.13525 17.90265 16.51895
#
# Velocity S-wave (km/s) = 2.93786 3.19518 3.06922
# Velocity P-wave (km/s) = 6.02843 6.87473 6.46544
#
# Compressibility (1/GPa) = 0.02296297
#
# Stress axis : x y z
#
# Youngs Moduli (GPa) = 52.11233 42.41050 29.21344
#
# Poissons Ratio (x) = 0.51667 0.19209
# Poissons Ratio (y) = 0.63486 0.24131
# Poissons Ratio (z) = 0.34266 0.35032
#
# Static dielectric constant tensor:
#      x y z
#    x 3.580200 0.000000 0.000000 
#    y 0.000000 3.167010 0.000000 
#    z 0.000000 0.000000 2.926640 
# 
# 
# High freq. dielectric constant tensor:
#      x y z
#    x 1.685630 0.000000 0.000000 
#    y 0.000000 1.667370 0.000000 
#    z 0.000000 0.000000 1.641310 
# 
# From -- ./inp_files/7360.got.cif
#   From: 2010.03.12/outbox.cif.g09.slc.cpg/sg47_4_cif.got.tgz:7360.got - 2010.04.14 03:12:58.
