data_PCOD8193489
_publ_section_title
;
Structure prediction by ZEFSAII (Michael W. Deem and Ramdas Pophale) SiO2 
 PCOD8193489
Probable space group: P M M M
;
_chemical_formula_sum "Si O2"
_cell_formula_units_Z 40
_cell_length_a 14.500909
_cell_length_b 9.498770
_cell_length_c 20.547798
_cell_angle_alpha 90.000000
_cell_angle_beta 90.000000
_cell_angle_gamma 90.000000
_cell_volume 2830.270122
_symmetry_space_group_name_H-M "P M M M"
_symmetry_group_IT_number 47
_symmetry_cell_setting 'orthorhombic'
loop_
_space_group_symop_operation_xyz
x,y,z
-x,-y,z
x,-y,-z
-x,y,-z
-x,-y,-z
x,y,-z
-x,y,z
x,-y,z
loop_
_atom_site_type_symbol
_atom_site_label
_atom_site_fract_x
_atom_site_fract_y
_atom_site_fract_z
Si Si1 0.289875 0.332874 0.372015
Si Si2 0.899219 0.666853 0.572820
Si Si3 0.390680 0.844348 0.882662
Si Si4 0.389804 0.657868 0.000000
Si Si5 0.606245 0.835131 0.736307
Si Si6 0.603316 0.666960 0.500000
O O1 0.299561 0.500000 0.362555
O O2 0.183284 0.283604 0.380058
O O3 0.328944 0.256390 0.309243
O O4 0.344824 0.279861 0.435600
O O5 0.884126 0.727750 0.500000
O O6 0.895626 0.500000 0.568000
O O7 0.000000 0.715896 0.599620
O O8 0.500000 0.851680 0.887907
O O9 0.350956 0.735531 0.935654
O O10 0.363713 0.796621 0.809923
O O11 0.350486 0.000000 0.897414
O O12 0.350591 0.500000 0.000000
O O13 0.500000 0.657707 0.000000
O O14 0.500000 0.793325 0.723957
O O15 0.620801 0.000000 0.722807
O O16 0.601660 0.500000 0.500000
O O17 0.500000 0.729349 0.500000
#
# Coordination Sequence:
#
# PCOD8193489 Si02
#       6
#     8   8   8   4   8   4
#     4  10  17  26  41  59  75  97 129 164 202 238
#     4   8  13  23  40  60  78  94 119 159 202 244
#     4   8  14  25  38  49  66  98 134 159 183 222
#     4   9  15  21  33  55  77  93 118 161 200 221
#     4   9  18  30  40  52  75 107 138 164 192 229
#     4   9  16  24  34  52  76  97 123 161 198 229
#
# _framework density 14.132927
#
# number of rings (size 3 to 8) (size 9 to 14) (size 15 to 20)
#    0.000    3.200    1.000    2.700    0.000    3.200 
#    0.000    2.500    0.000    2.400    0.000    1.400 
#    0.000    0.000    0.000    0.900    0.000   18.300 
#
# Total GULP energy -495690.141351 kJ/mol
# GULP energy per Si atom -12392.253534 kJ/mol
# Density = 1.410076 g / cm^3
# Si number density = 14.132927 Si / 1000 Ang^3
#
#
#
# Elastic Constant Matrix: (Units=GPa)
#
#
# Indices 1 2 3 4 5 6 
#
# 1 86.1417 31.5546 51.0145 0.0000 0.0000 0.0000
# 2 31.5546 54.1643 54.5129 0.0000 0.0000 0.0000
# 3 51.0145 54.5129 117.3217 0.0000 0.0000 0.0000
# 4 0.0000 0.0000 0.0000 18.8437 0.0000 0.0000
# 5 0.0000 0.0000 0.0000 0.0000 5.0095 0.0000
# 6 0.0000 0.0000 0.0000 0.0000 0.0000 8.4216
#
#
#
# Elastic Compliance Matrix: (Units=1/GPa)
#
#
# Indices 1 2 3 4 5 6 
#
# 1 0.016176 -0.004404 -0.004987 0.000000 0.000000 0.000000
# 2 -0.004404 0.035879 -0.014756 0.000000 0.000000 0.000000
# 3 -0.004987 -0.014756 0.017548 0.000000 0.000000 0.000000
# 4 0.000000 0.000000 0.000000 0.053068 0.000000 0.000000
# 5 0.000000 0.000000 0.000000 0.000000 0.199619 0.000000
# 6 0.000000 0.000000 0.000000 0.000000 0.000000 0.118743
#
#
# Mechanical properties :
#
#
# Convention : Reuss Voigt Hill
#
# Bulk Modulus (GPa) = 46.92986 59.08799 53.00893
# Shear Modulus (GPa) = 10.07190 14.49134 12.28162
#
# Velocity S-wave (km/s) = 2.67246 3.20560 2.95109
# Velocity P-wave (km/s) = 6.54223 7.45658 7.01432
#
# Compressibility (1/GPa) = 0.02130839
#
# Stress axis : x y z
#
# Youngs Moduli (GPa) = 61.82171 27.87150 56.98525
#
# Poissons Ratio (x) = 0.12275 0.28420
# Poissons Ratio (y) = 0.27227 0.84087
# Poissons Ratio (z) = 0.30832 0.41127
#
# Static dielectric constant tensor:
#      x y z
#    x 2.726470 0.000000 0.000000 
#    y 0.000000 2.611030 0.000000 
#    z 0.000000 0.000000 2.838230 
# 
# 
# High freq. dielectric constant tensor:
#      x y z
#    x 1.500810 0.000000 0.000000 
#    y 0.000000 1.516590 0.000000 
#    z 0.000000 0.000000 1.535820 
# 
# From -- ./inp_files/10818.got.cif
#   From: 2010.03.12/outbox.cif.g09.slc.cpg/sg47_6_cif.got.tgz:10818.got - 2010.04.14 03:12:58.
