data_PCOD8193218
_publ_section_title
;
Structure prediction by ZEFSAII (Michael W. Deem and Ramdas Pophale) SiO2 
 PCOD8193218
Probable space group: I M A 2
;
_chemical_formula_sum "Si O2"
_cell_formula_units_Z 64
_cell_length_a 15.339993
_cell_length_b 24.048090
_cell_length_c 8.794669
_cell_angle_alpha 90.000000
_cell_angle_beta 90.000000
_cell_angle_gamma 90.000000
_cell_volume 3244.331691
_symmetry_space_group_name_H-M "I M A 2"
_symmetry_group_IT_number 46
_symmetry_cell_setting 'orthorhombic'
loop_
_space_group_symop_operation_xyz
x,y,z
-x,-y,z
1/2-x,y,z
1/2+x,-y,z
1/2+x,1/2+y,1/2+z
1/2-x,1/2-y,1/2+z
-x,1/2+y,1/2+z
x,1/2-y,1/2+z
loop_
_atom_site_type_symbol
_atom_site_label
_atom_site_fract_x
_atom_site_fract_y
_atom_site_fract_z
Si Si1 0.847101 0.385062 0.528460
Si Si2 0.495992 0.188746 0.390528
Si Si3 0.996069 0.809649 0.030146
Si Si4 0.648185 0.882854 0.886937
Si Si5 0.901834 0.995447 0.398015
Si Si6 0.848783 0.617438 0.037087
Si Si7 0.844532 0.116121 0.389370
Si Si8 0.350948 0.492351 0.562715
O O1 0.750000 0.369105 0.466632
O O2 0.920449 0.343470 0.463357
O O3 0.847839 0.382119 0.708951
O O4 0.871940 0.448437 0.482585
O O5 0.499216 0.193931 0.210509
O O6 0.499236 0.248618 0.463852
O O7 0.408276 0.156951 0.435114
O O8 0.578973 0.154638 0.455770
O O9 0.906083 0.838020 0.981356
O O10 0.750000 0.870138 0.913644
O O11 0.621756 0.878328 0.711564
O O12 0.623845 0.944518 0.944192
O O13 0.853381 0.946101 0.484258
O O14 0.904602 0.983395 0.217332
O O15 0.854232 0.052526 0.442336
O O16 0.000000 0.000000 0.456913
O O17 0.750000 0.638506 0.017391
O O18 0.750000 0.137740 0.447550
O O19 0.250000 0.490587 0.610315
#
# Coordination Sequence:
#
# PCOD8193218 Si02
#       8
#     8   8   8   8   8   8   8   8
#     4   8  17  34  57  86 116 153 191 232 284 341
#     4  11  23  40  60  87 113 151 201 241 295 344
#     4  11  23  39  61  84 115 150 195 251 287 347
#     4  10  23  40  59  86 119 155 193 237 294 346
#     4  11  19  33  59  92 120 151 194 231 283 347
#     4  11  23  41  60  84 121 156 190 239 291 346
#     4   9  18  35  58  84 118 154 192 234 280 343
#     4   9  18  34  58  88 119 153 196 234 279 346
#
# _framework density 19.726711999999999
#
# number of rings (size 3 to 8) (size 9 to 14) (size 15 to 20)
#    0.000    2.000    1.250    3.375    3.500    2.500 
#    2.250    0.000    0.000    3.750    0.000    0.000 
#    0.000    0.000    0.000    0.000    0.000    0.000 
#
# Total GULP energy -396821.846469 kJ/mol
# GULP energy per Si atom -12400.682702 kJ/mol
# Density = 1.968181 g / cm^3
# Si number density = 19.726712 Si / 1000 Ang^3
#
#
#
# Elastic Constant Matrix: (Units=GPa)
#
#
# Indices 1 2 3 4 5 6 
#
# 1 116.8257 61.5374 36.8017 -0.0004 0.0000 -0.0001
# 2 61.5374 143.0806 44.5060 0.0002 0.0004 0.0004
# 3 36.8017 44.5060 60.1390 -0.0041 0.0000 -0.0008
# 4 -0.0004 0.0002 -0.0041 31.4139 0.0000 -0.0003
# 5 0.0000 0.0004 0.0000 0.0000 17.1968 -0.0004
# 6 -0.0001 0.0004 -0.0008 -0.0003 -0.0004 8.8087
#
#
#
# Elastic Compliance Matrix: (Units=1/GPa)
#
#
# Indices 1 2 3 4 5 6 
#
# 1 0.011959 -0.003724 -0.004562 0.000000 0.000000 0.000000
# 2 -0.003724 0.010239 -0.005298 -0.000001 0.000000 -0.000001
# 3 -0.004562 -0.005298 0.023341 0.000003 0.000000 0.000002
# 4 0.000000 -0.000001 0.000003 0.031833 0.000000 0.000001
# 5 0.000000 0.000000 0.000000 0.000000 0.058150 0.000003
# 6 0.000000 -0.000001 0.000002 0.000001 0.000003 0.113524
#
#
# Mechanical properties :
#
#
# Convention : Reuss Voigt Hill
#
# Bulk Modulus (GPa) = 54.43821 67.30395 60.87108
# Shear Modulus (GPa) = 17.70932 23.29723 20.50327
#
# Velocity S-wave (km/s) = 2.99947 3.44029 3.22742
# Velocity P-wave (km/s) = 6.29697 7.06916 6.69421
#
# Compressibility (1/GPa) = 0.01836945
#
# Stress axis : x y z
#
# Youngs Moduli (GPa) = 83.62243 97.66687 42.84364
#
# Poissons Ratio (x) = 0.36374 0.19544
# Poissons Ratio (y) = 0.31143 0.22700
# Poissons Ratio (z) = 0.38147 0.51747
#
# Static dielectric constant tensor:
#      x y z
#    x 3.853640 0.000000 0.000000 
#    y 0.000000 3.686540 0.000000 
#    z 0.000000 0.000000 3.320780 
# 
# 
# High freq. dielectric constant tensor:
#      x y z
#    x 1.784170 0.000000 0.000000 
#    y 0.000000 1.769660 0.000000 
#    z 0.000000 0.000000 1.740290 
# 
# From -- ./inp_files/6107.got.cif
#   From: 2010.03.12/outbox.cif.g09.slc.cpg/sg46_4_cif.got.tgz:6107.got - 2010.04.14 02:56:35.
