data_PCOD8193989
_publ_section_title
;
Structure prediction by ZEFSAII (Michael W. Deem and Ramdas Pophale) SiO2 
 PCOD8193989
Probable space group: P M M M
;
_chemical_formula_sum "Si O2"
_cell_formula_units_Z 44
_cell_length_a 19.465973
_cell_length_b 9.460378
_cell_length_c 17.920752
_cell_angle_alpha 90.000000
_cell_angle_beta 90.000000
_cell_angle_gamma 90.000000
_cell_volume 3300.204377
_symmetry_space_group_name_H-M "P M M M"
_symmetry_group_IT_number 47
_symmetry_cell_setting 'orthorhombic'
loop_
_space_group_symop_operation_xyz
x,y,z
-x,-y,z
x,-y,-z
-x,y,-z
-x,-y,-z
x,y,-z
-x,y,z
x,-y,z
loop_
_atom_site_type_symbol
_atom_site_label
_atom_site_fract_x
_atom_site_fract_y
_atom_site_fract_z
Si Si1 0.075321 0.840712 0.911328
Si Si2 0.798361 0.336984 0.085295
Si Si3 0.581420 0.657913 0.582385
Si Si4 0.652210 0.665661 0.147585
Si Si5 0.419376 0.834406 0.277847
Si Si6 0.423187 0.332150 0.000000
O O1 0.136660 0.744846 0.879368
O O2 0.000000 0.788450 0.883053
O O3 0.088045 0.000000 0.883780
O O4 0.076464 0.832990 0.000000
O O5 0.818129 0.500000 0.086554
O O6 0.733052 0.306311 0.137380
O O7 0.781961 0.290005 0.000000
O O8 0.609514 0.700532 0.500000
O O9 0.500000 0.657381 0.580076
O O10 0.607580 0.500000 0.603590
O O11 0.606519 0.771366 0.643202
O O12 0.636699 0.500000 0.161594
O O13 0.624693 0.757362 0.215266
O O14 0.614708 0.722771 0.073582
O O15 0.500000 0.804034 0.264466
O O16 0.403299 0.000000 0.277095
O O17 0.421967 0.500000 0.000000
O O18 0.500000 0.271110 0.000000
#
# Coordination Sequence:
#
# PCOD8193989 Si02
#       6
#     8   8   8   8   8   4
#     4   8  14  24  37  53  72  93 117 144 178 226
#     4   9  16  26  39  55  73  91 119 160 198 229
#     4   8  14  26  44  62  76  92 117 148 184 229
#     4  10  18  29  42  55  71  95 129 165 199 235
#     4  10  20  30  39  55  78 100 124 157 196 235
#     4   9  16  26  41  55  64  85 126 170 205 233
#
# _framework density 13.332508000000001
#
# number of rings (size 3 to 8) (size 9 to 14) (size 15 to 20)
#    0.000    3.000    0.909    2.182    0.000    3.273 
#    0.000    4.091    0.000    1.636    0.000    0.000 
#    0.000    0.000    0.000    0.000    0.000    0.909 
#
# Total GULP energy -545329.517117 kJ/mol
# GULP energy per Si atom -12393.852662 kJ/mol
# Density = 1.330216 g / cm^3
# Si number density = 13.332508 Si / 1000 Ang^3
#
#
#
# Elastic Constant Matrix: (Units=GPa)
#
#
# Indices 1 2 3 4 5 6 
#
# 1 82.3544 48.3987 37.1530 0.0000 0.0000 0.0000
# 2 48.3987 73.4816 49.0678 0.0000 0.0000 0.0000
# 3 37.1530 49.0678 84.0459 0.0000 0.0000 0.0000
# 4 0.0000 0.0000 0.0000 13.0833 0.0000 0.0000
# 5 0.0000 0.0000 0.0000 0.0000 2.2762 0.0000
# 6 0.0000 0.0000 0.0000 0.0000 0.0000 21.3614
#
#
#
# Elastic Compliance Matrix: (Units=1/GPa)
#
#
# Indices 1 2 3 4 5 6 
#
# 1 0.019992 -0.011909 -0.001885 0.000000 0.000000 0.000000
# 2 -0.011909 0.029398 -0.011899 0.000000 0.000000 0.000000
# 3 -0.001885 -0.011899 0.019678 0.000000 0.000000 0.000000
# 4 0.000000 0.000000 0.000000 0.076433 0.000000 0.000000
# 5 0.000000 0.000000 0.000000 0.000000 0.439327 0.000000
# 6 0.000000 0.000000 0.000000 0.000000 0.000000 0.046813
#
#
# Mechanical properties :
#
#
# Convention : Reuss Voigt Hill
#
# Bulk Modulus (GPa) = 56.55156 56.56898 56.56027
# Shear Modulus (GPa) = 7.25772 14.36167 10.80970
#
# Velocity S-wave (km/s) = 2.33569 3.28562 2.85050
# Velocity P-wave (km/s) = 7.05566 7.54422 7.30402
#
# Compressibility (1/GPa) = 0.01768298
#
# Stress axis : x y z
#
# Youngs Moduli (GPa) = 50.02074 34.01555 50.81753
#
# Poissons Ratio (x) = 0.40509 0.09578
# Poissons Ratio (y) = 0.59570 0.60467
# Poissons Ratio (z) = 0.09427 0.40475
#
# Static dielectric constant tensor:
#      x y z
#    x 2.681840 0.000000 0.000000 
#    y 0.000000 2.675670 0.000000 
#    z 0.000000 0.000000 2.607010 
# 
# 
# High freq. dielectric constant tensor:
#      x y z
#    x 1.485650 0.000000 0.000000 
#    y 0.000000 1.505030 0.000000 
#    z 0.000000 0.000000 1.475820 
# 
# From -- ./inp_files/26667.got.cif
#   From: 2010.03.12/outbox.cif.g09.slc.cpg/sg47_14_cif.got.tgz:26667.got - 2010.04.14 03:12:58.
