data_PCOD8193666
_publ_section_title
;
Structure prediction by ZEFSAII (Michael W. Deem and Ramdas Pophale) SiO2 
 PCOD8193666
Probable space group: P M M M
;
_chemical_formula_sum "Si O2"
_cell_formula_units_Z 52
_cell_length_a 9.550656
_cell_length_b 28.533560
_cell_length_c 11.793990
_cell_angle_alpha 90.000000
_cell_angle_beta 90.000000
_cell_angle_gamma 90.000000
_cell_volume 3214.029939
_symmetry_space_group_name_H-M "P M M M"
_symmetry_group_IT_number 47
_symmetry_cell_setting 'orthorhombic'
loop_
_space_group_symop_operation_xyz
x,y,z
-x,-y,z
x,-y,-z
-x,y,-z
-x,-y,-z
x,y,-z
-x,y,z
x,-y,z
loop_
_atom_site_type_symbol
_atom_site_label
_atom_site_fract_x
_atom_site_fract_y
_atom_site_fract_z
Si Si1 0.664835 0.859801 0.369470
Si Si2 0.333709 0.096503 0.000000
Si Si3 0.162861 0.313178 0.631229
Si Si4 0.161393 0.219435 0.246250
Si Si5 0.657144 0.600361 0.364459
Si Si6 0.333672 0.500000 0.624254
Si Si7 0.157980 0.810792 0.000000
Si Si8 0.334336 0.051592 0.232301
O O1 0.706472 0.854613 0.500000
O O2 0.500000 0.852395 0.349482
O O3 0.746109 0.821850 0.296817
O O4 0.712470 0.911454 0.328209
O O5 0.280277 0.068327 0.109615
O O6 0.500000 0.103304 0.000000
O O7 0.267583 0.147531 0.000000
O O8 0.200222 0.303803 0.500000
O O9 0.214033 0.268479 0.702550
O O10 0.242571 0.358568 0.679984
O O11 0.000000 0.322898 0.648398
O O12 0.000000 0.210518 0.280450
O O13 0.181476 0.221355 0.110725
O O14 0.661450 0.597233 0.500000
O O15 0.500000 0.611726 0.322893
O O16 0.708602 0.549336 0.314645
O O17 0.500000 0.500000 0.610863
O O18 0.263353 0.500000 0.500000
O O19 0.000000 0.831426 0.000000
O O20 0.500000 0.048101 0.228839
O O21 0.271147 0.000000 0.259758
#
# Coordination Sequence:
#
# PCOD8193666 Si02
#       8
#     8   4   8   8   8   4   4   8
#     4  10  20  32  48  71  94 117 149 184 215 256
#     4  10  17  30  52  72  90 114 145 181 223 268
#     4   9  17  28  41  59  85 116 146 175 213 262
#     4  10  20  34  50  66  88 118 150 184 227 273
#     4   8  13  22  37  57  82 114 149 181 211 247
#     4   7  10  18  33  53  79 112 147 178 210 249
#     4  10  20  33  51  71  88 111 147 188 226 268
#     4   9  17  29  47  71  95 117 143 178 220 265
#
# _framework density 16.179065999999999
#
# number of rings (size 3 to 8) (size 9 to 14) (size 15 to 20)
#    0.000    2.846    1.538    1.615    0.000    2.769 
#    0.000    3.462    0.000    4.615    0.000    1.077 
#    0.000    0.615    0.000    7.692    0.000    2.769 
#
# Total GULP energy -644457.520134 kJ/mol
# GULP energy per Si atom -12393.413849 kJ/mol
# Density = 1.614224 g / cm^3
# Si number density = 16.179066 Si / 1000 Ang^3
#
#
#
# Elastic Constant Matrix: (Units=GPa)
#
#
# Indices 1 2 3 4 5 6 
#
# 1 36.0521 43.7938 23.1422 0.0000 0.0000 0.0000
# 2 43.7938 154.2217 46.3900 0.0000 0.0000 0.0000
# 3 23.1422 46.3900 76.8162 0.0000 0.0000 0.0000
# 4 0.0000 0.0000 0.0000 -12.2180 0.0000 0.0000
# 5 0.0000 0.0000 0.0000 0.0000 13.3794 0.0000
# 6 0.0000 0.0000 0.0000 0.0000 0.0000 2.8981
#
#
#
# Elastic Compliance Matrix: (Units=1/GPa)
#
#
# Indices 1 2 3 4 5 6 
#
# 1 0.045382 -0.010722 -0.007197 0.000000 0.000000 0.000000
# 2 -0.010722 0.010457 -0.003085 0.000000 0.000000 0.000000
# 3 -0.007197 -0.003085 0.017049 0.000000 0.000000 0.000000
# 4 0.000000 0.000000 0.000000 -0.081847 0.000000 0.000000
# 5 0.000000 0.000000 0.000000 0.000000 0.074742 0.000000
# 6 0.000000 0.000000 0.000000 0.000000 0.000000 0.345056
#
#
# Mechanical properties :
#
#
# Convention : Reuss Voigt Hill
#
# Bulk Modulus (GPa) = 32.38304 54.86024 43.62164
# Shear Modulus (GPa) = 10.79586 11.06282 10.92934
#
# Velocity S-wave (km/s) = 2.58597 2.61774 2.60190
# Velocity P-wave (km/s) = 5.38286 6.56647 6.00390
#
# Compressibility (1/GPa) = 0.03088036
#
# Stress axis : x y z
#
# Youngs Moduli (GPa) = 22.03521 95.63177 58.65385
#
# Poissons Ratio (x) = 1.02537 0.42213
# Poissons Ratio (y) = 0.23626 0.18093
# Poissons Ratio (z) = 0.15859 0.29500
#
# Static dielectric constant tensor:
#      x y z
#    x 2.880870 0.000000 0.000000 
#    y 0.000000 3.437640 0.000000 
#    z 0.000000 0.000000 2.957880 
# 
# 
# High freq. dielectric constant tensor:
#      x y z
#    x 1.597590 0.000000 0.000000 
#    y 0.000000 1.632670 0.000000 
#    z 0.000000 0.000000 1.590900 
# 
# From -- ./inp_files/15678.got.cif
#   From: 2010.03.12/outbox.cif.g09.slc.cpg/sg47_8_cif.got.tgz:15678.got - 2010.04.14 03:12:58.
