data_PCOD8193058
_publ_section_title
;
Structure prediction by ZEFSAII (Michael W. Deem and Ramdas Pophale) SiO2 
 PCOD8193058
Probable space group: I M A 2
;
_chemical_formula_sum "Si O2"
_cell_formula_units_Z 40
_cell_length_a 29.123967
_cell_length_b 6.352800
_cell_length_c 10.052238
_cell_angle_alpha 90.000000
_cell_angle_beta 90.000000
_cell_angle_gamma 90.000000
_cell_volume 1859.852384
_symmetry_space_group_name_H-M "I M A 2"
_symmetry_group_IT_number 46
_symmetry_cell_setting 'orthorhombic'
loop_
_space_group_symop_operation_xyz
x,y,z
-x,-y,z
1/2-x,y,z
1/2+x,-y,z
1/2+x,1/2+y,1/2+z
1/2-x,1/2-y,1/2+z
-x,1/2+y,1/2+z
x,1/2-y,1/2+z
loop_
_atom_site_type_symbol
_atom_site_label
_atom_site_fract_x
_atom_site_fract_y
_atom_site_fract_z
Si Si1 0.078742 0.391339 0.803260
Si Si2 0.451518 0.416514 0.083171
Si Si3 0.699700 0.536883 0.588838
Si Si4 0.830708 0.652069 0.313468
Si Si5 0.375450 0.774127 0.681695
O O1 0.058421 0.293383 0.667718
O O2 0.122229 0.262454 0.854364
O O3 0.092368 0.632396 0.775971
O O4 0.043128 0.369721 0.925649
O O5 0.500000 0.500000 0.137253
O O6 0.409606 0.582057 0.095069
O O7 0.750000 0.430707 0.609997
O O8 0.700344 0.646412 0.444644
O O9 0.694436 0.718120 0.698570
O O10 0.657773 0.371127 0.591673
O O11 0.840981 0.414493 0.267944
#
# Coordination Sequence:
#
# PCOD8193058 Si02
#       5
#     8   8   8   8   8
#     4  10  22  43  63  92 124 162 209 257 317 376
#     4  11  25  41  65  93 125 164 210 263 317 378
#     4  11  23  39  63  95 128 167 214 260 310 376
#     4  10  21  41  64  89 126 166 206 259 314 369
#     4  10  22  41  66  91 124 168 208 267 315 370
#
# _framework density 21.507083000000002
#
# number of rings (size 3 to 8) (size 9 to 14) (size 15 to 20)
#    0.000    1.600    0.000    5.400    2.800    4.800 
#    0.000    0.000    0.000    0.000    0.000    0.000 
#    0.000    0.000    0.000    0.000    0.000    0.000 
#
# Total GULP energy -247994.179577 kJ/mol
# GULP energy per Si atom -12399.708979 kJ/mol
# Density = 2.145813 g / cm^3
# Si number density = 21.507083 Si / 1000 Ang^3
#
#
#
# Elastic Constant Matrix: (Units=GPa)
#
#
# Indices 1 2 3 4 5 6 
#
# 1 103.6713 16.9036 28.1943 0.0000 0.0000 0.0000
# 2 16.9036 87.8108 34.6817 0.0000 0.0000 0.0000
# 3 28.1943 34.6817 135.5008 0.0000 0.0000 0.0000
# 4 0.0000 0.0000 0.0000 18.7211 0.0000 0.0000
# 5 0.0000 0.0000 0.0000 0.0000 -2.7193 0.0000
# 6 0.0000 0.0000 0.0000 0.0000 0.0000 19.8710
#
#
#
# Elastic Compliance Matrix: (Units=1/GPa)
#
#
# Indices 1 2 3 4 5 6 
#
# 1 0.010350 -0.001270 -0.001829 0.000000 0.000000 0.000000
# 2 -0.001270 0.012825 -0.003018 0.000000 0.000000 0.000000
# 3 -0.001829 -0.003018 0.008533 0.000000 0.000000 0.000000
# 4 0.000000 0.000000 0.000000 0.053416 0.000000 0.000000
# 5 0.000000 0.000000 0.000000 0.000000 -0.367746 0.000000
# 6 0.000000 0.000000 0.000000 0.000000 0.000000 0.050325
#
#
# Mechanical properties :
#
#
# Convention : Reuss Voigt Hill
#
# Bulk Modulus (GPa) = 51.35032 54.06023 52.70528
# Shear Modulus (GPa) = -23.41125 23.65479 0.12177
#
# Velocity S-wave (km/s) = -3.30288 3.32001 0.23821
# Velocity P-wave (km/s) = 3.06309 6.31563 4.96335
#
# Compressibility (1/GPa) = 0.01947407
#
# Stress axis : x y z
#
# Youngs Moduli (GPa) = 96.61595 77.97449 117.19192
#
# Poissons Ratio (x) = 0.09905 0.21429
# Poissons Ratio (y) = 0.12273 0.35371
# Poissons Ratio (z) = 0.17666 0.23534
#
# Static dielectric constant tensor:
#      x y z
#    x 3.901330 0.000000 0.000000 
#    y 0.000000 3.922230 0.000000 
#    z 0.000000 0.000000 3.720710 
# 
# 
# High freq. dielectric constant tensor:
#      x y z
#    x 1.844130 0.000000 0.000000 
#    y 0.000000 1.839210 0.000000 
#    z 0.000000 0.000000 1.849070 
# 
# From -- ./inp_files/12923.got.cif
#   From: 2010.03.12/outbox.cif.g09.slc.cpg/sg46_7_cif.got.tgz:12923.got - 2010.04.14 02:56:35.
