data_PCOD8193961
_publ_section_title
;
Structure prediction by ZEFSAII (Michael W. Deem and Ramdas Pophale) SiO2 
 PCOD8193961
Probable space group: P M M M
;
_chemical_formula_sum "Si O2"
_cell_formula_units_Z 64
_cell_length_a 28.617398
_cell_length_b 14.222775
_cell_length_c 8.916841
_cell_angle_alpha 90.000000
_cell_angle_beta 90.000000
_cell_angle_gamma 90.000000
_cell_volume 3629.322038
_symmetry_space_group_name_H-M "P M M M"
_symmetry_group_IT_number 47
_symmetry_cell_setting 'orthorhombic'
loop_
_space_group_symop_operation_xyz
x,y,z
-x,-y,z
x,-y,-z
-x,y,-z
-x,-y,-z
x,y,-z
-x,y,z
x,-y,z
loop_
_atom_site_type_symbol
_atom_site_label
_atom_site_fract_x
_atom_site_fract_y
_atom_site_fract_z
Si Si1 0.864714 0.767048 0.323860
Si Si2 0.191975 0.608713 0.178631
Si Si3 0.620821 0.757151 0.178563
Si Si4 0.792274 0.893064 0.830111
Si Si5 0.052350 0.894948 0.321794
Si Si6 0.551930 0.110664 0.329970
Si Si7 0.276676 0.266801 0.829896
Si Si8 0.448654 0.603464 0.821676
O O1 0.865822 0.747211 0.500000
O O2 0.852002 0.668325 0.242818
O O3 0.827397 0.847641 0.287767
O O4 0.913757 0.811165 0.264289
O O5 0.189228 0.500000 0.231796
O O6 0.240232 0.656598 0.240344
O O7 0.189690 0.616558 0.000000
O O8 0.594873 0.850952 0.231804
O O9 0.672543 0.739749 0.248897
O O10 0.589998 0.672293 0.243983
O O11 0.623894 0.761082 0.000000
O O12 0.743528 0.838224 0.819483
O O13 0.782857 0.000000 0.783831
O O14 0.812307 0.884623 0.000000
O O15 0.053904 0.896825 0.500000
O O16 0.000000 0.872020 0.264761
O O17 0.067285 0.000000 0.263807
O O18 0.557738 0.146037 0.500000
O O19 0.500000 0.141095 0.270194
O O20 0.556141 0.000000 0.321470
O O21 0.284239 0.299373 0.000000
O O22 0.500000 0.635840 0.767236
O O23 0.437484 0.500000 0.759623
O O24 0.446969 0.603591 0.000000
#
# Coordination Sequence:
#
# PCOD8193961 Si02
#       8
#     8   8   8   8   8   8   8   8
#     4  10  18  28  47  74  98 119 153 201 242 275
#     4   9  18  34  53  68  88 124 164 196 231 281
#     4  10  18  28  47  72  92 110 140 185 228 264
#     4   9  17  30  46  62  88 127 161 187 222 274
#     4   8  14  25  42  67 100 133 159 186 229 284
#     4   9  19  35  50  63  85 120 156 185 218 265
#     4   8  16  29  44  67  93 114 143 184 228 271
#     4   8  14  24  38  60  89 112 128 156 206 261
#
# _framework density 17.634146999999999
#
# number of rings (size 3 to 8) (size 9 to 14) (size 15 to 20)
#    0.000    3.125    0.000    3.000    0.000    3.000 
#    0.000    6.875    0.000    2.250    0.000    8.750 
#    0.000    0.000    0.000    0.000    0.000    0.000 
#
# Total GULP energy -792923.743082 kJ/mol
# GULP energy per Si atom -12389.433486 kJ/mol
# Density = 1.759401 g / cm^3
# Si number density = 17.634147 Si / 1000 Ang^3
#
#
#
# Elastic Constant Matrix: (Units=GPa)
#
#
# Indices 1 2 3 4 5 6 
#
# 1 129.7269 66.0957 21.1464 0.0000 0.0000 0.0000
# 2 66.0957 129.4007 20.9676 0.0000 0.0000 0.0000
# 3 21.1464 20.9676 21.8581 0.0000 0.0000 0.0000
# 4 0.0000 0.0000 0.0000 17.0298 0.0000 0.0000
# 5 0.0000 0.0000 0.0000 0.0000 18.4657 0.0000
# 6 0.0000 0.0000 0.0000 0.0000 0.0000 -4.6281
#
#
#
# Elastic Compliance Matrix: (Units=1/GPa)
#
#
# Indices 1 2 3 4 5 6 
#
# 1 0.011103 -0.004654 -0.006277 0.000000 0.000000 0.000000
# 2 -0.004654 0.011101 -0.006146 0.000000 0.000000 0.000000
# 3 -0.006277 -0.006146 0.057718 0.000000 0.000000 0.000000
# 4 0.000000 0.000000 0.000000 0.058721 0.000000 0.000000
# 5 0.000000 0.000000 0.000000 0.000000 0.054154 0.000000
# 6 0.000000 0.000000 0.000000 0.000000 0.000000 -0.216072
#
#
# Mechanical properties :
#
#
# Convention : Reuss Voigt Hill
#
# Bulk Modulus (GPa) = 21.84954 55.26723 38.55839
# Shear Modulus (GPa) = 191.30676 17.69187 104.49931
#
# Velocity S-wave (km/s) = 10.42699 3.17089 7.70638
# Velocity P-wave (km/s) = 12.54512 6.69441 10.05473
#
# Compressibility (1/GPa) = 0.04576755
#
# Stress axis : x y z
#
# Youngs Moduli (GPa) = 90.06608 90.08115 17.32556
#
# Poissons Ratio (x) = 0.41925 0.10875
# Poissons Ratio (y) = 0.41918 0.10649
# Poissons Ratio (z) = 0.56534 0.55366
#
# Static dielectric constant tensor:
#      x y z
#    x 3.531310 0.000000 0.000000 
#    y 0.000000 3.411930 0.000000 
#    z 0.000000 0.000000 2.882000 
# 
# 
# High freq. dielectric constant tensor:
#      x y z
#    x 1.678930 0.000000 0.000000 
#    y 0.000000 1.681690 0.000000 
#    z 0.000000 0.000000 1.638400 
# 
# From -- ./inp_files/14304.got.cif
#   From: 2010.03.12/outbox.cif.g09.slc.cpg/sg47_8_cif.got.tgz:14304.got - 2010.04.14 03:12:58.
