data_PCOD8193064
_publ_section_title
;
Structure prediction by ZEFSAII (Michael W. Deem and Ramdas Pophale) SiO2 
 PCOD8193064
Probable space group: I M A 2
;
_chemical_formula_sum "Si O2"
_cell_formula_units_Z 32
_cell_length_a 14.609271
_cell_length_b 11.480408
_cell_length_c 8.709892
_cell_angle_alpha 90.000000
_cell_angle_beta 90.000000
_cell_angle_gamma 90.000000
_cell_volume 1460.826498
_symmetry_space_group_name_H-M "I M A 2"
_symmetry_group_IT_number 46
_symmetry_cell_setting 'orthorhombic'
loop_
_space_group_symop_operation_xyz
x,y,z
-x,-y,z
1/2-x,y,z
1/2+x,-y,z
1/2+x,1/2+y,1/2+z
1/2-x,1/2-y,1/2+z
-x,1/2+y,1/2+z
x,1/2-y,1/2+z
loop_
_atom_site_type_symbol
_atom_site_label
_atom_site_fract_x
_atom_site_fract_y
_atom_site_fract_z
Si Si1 0.649391 0.877090 0.343390
Si Si2 0.250000 0.597637 0.783651
Si Si3 0.750000 0.347735 0.426082
Si Si4 0.444761 0.610913 0.320540
Si Si5 0.461735 0.243194 0.084481
O O1 0.750000 0.822268 0.373235
O O2 0.613375 0.821336 0.186461
O O3 0.585016 0.847192 0.487217
O O4 0.659732 0.017951 0.321237
O O5 0.250000 0.635820 0.607518
O O6 0.250000 0.709410 0.893662
O O7 0.662651 0.410618 0.348515
O O8 0.500000 0.500000 0.259999
O O9 0.456231 0.707755 0.189151
O O10 0.492249 0.648109 0.477759
#
# Coordination Sequence:
#
# PCOD8193064 Si02
#       5
#     8   4   4   8   8
#     4   9  20  39  66 101 130 177 213 275 324 378
#     4  10  24  38  68  96 132 180 214 266 326 394
#     4  12  24  46  62  96 134 176 224 264 336 388
#     4  11  25  43  67  96 129 178 213 279 320 395
#     4  10  21  41  65  97 133 166 231 264 321 391
#
# _framework density 21.905407
#
# number of rings (size 3 to 8) (size 9 to 14) (size 15 to 20)
#    0.750    1.000    0.000    3.750    0.000    4.000 
#   11.250    5.000    0.000    0.000    0.000    0.000 
#    0.000    0.000    0.000    0.000    0.000    0.000 
#
# Total GULP energy -198375.610151 kJ/mol
# GULP energy per Si atom -12398.475634 kJ/mol
# Density = 2.185555 g / cm^3
# Si number density = 21.905407 Si / 1000 Ang^3
#
#
#
# Elastic Constant Matrix: (Units=GPa)
#
#
# Indices 1 2 3 4 5 6 
#
# 1 132.6705 24.3566 30.2312 0.0000 0.0000 0.0000
# 2 24.3566 93.7918 18.9261 0.0000 0.0000 0.0000
# 3 30.2312 18.9261 95.7268 0.0000 0.0000 0.0000
# 4 0.0000 0.0000 0.0000 34.4131 0.0000 0.0000
# 5 0.0000 0.0000 0.0000 0.0000 14.5564 0.0000
# 6 0.0000 0.0000 0.0000 0.0000 0.0000 29.9784
#
#
#
# Elastic Compliance Matrix: (Units=1/GPa)
#
#
# Indices 1 2 3 4 5 6 
#
# 1 0.008377 -0.001710 -0.002308 0.000000 0.000000 0.000000
# 2 -0.001710 0.011454 -0.001725 0.000000 0.000000 0.000000
# 3 -0.002308 -0.001725 0.011516 0.000000 0.000000 0.000000
# 4 0.000000 0.000000 0.000000 0.029059 0.000000 0.000000
# 5 0.000000 0.000000 0.000000 0.000000 0.068698 0.000000
# 6 0.000000 0.000000 0.000000 0.000000 0.000000 0.033357
#
#
# Mechanical properties :
#
#
# Convention : Reuss Voigt Hill
#
# Bulk Modulus (GPa) = 50.34397 52.13523 51.23960
# Shear Modulus (GPa) = 27.69064 32.36794 30.02929
#
# Velocity S-wave (km/s) = 3.55928 3.84816 3.70653
# Velocity P-wave (km/s) = 6.31851 6.60275 6.46219
#
# Compressibility (1/GPa) = 0.01986335
#
# Stress axis : x y z
#
# Youngs Moduli (GPa) = 119.37194 87.30622 86.83503
#
# Poissons Ratio (x) = 0.14928 0.20037
# Poissons Ratio (y) = 0.20410 0.14975
# Poissons Ratio (z) = 0.27545 0.15057
#
# Static dielectric constant tensor:
#      x y z
#    x 4.015880 0.000000 0.000000 
#    y 0.000000 3.778750 0.000000 
#    z 0.000000 0.000000 3.907190 
# 
# 
# High freq. dielectric constant tensor:
#      x y z
#    x 1.863270 0.000000 0.000000 
#    y 0.000000 1.851130 0.000000 
#    z 0.000000 0.000000 1.874040 
# 
# From -- ./inp_files/4295.got.cif
#   From: 2010.03.12/outbox.cif.g09.slc.cpg/sg46_3_cif.got.tgz:4295.got - 2010.04.14 02:56:35.
