data_PCOD8193235
_publ_section_title
;
Structure prediction by ZEFSAII (Michael W. Deem and Ramdas Pophale) SiO2 
 PCOD8193235
Probable space group: I M A 2
;
_chemical_formula_sum "Si O2"
_cell_formula_units_Z 64
_cell_length_a 17.691071
_cell_length_b 15.375685
_cell_length_c 12.026734
_cell_angle_alpha 90.000000
_cell_angle_beta 90.000000
_cell_angle_gamma 90.000000
_cell_volume 3271.419998
_symmetry_space_group_name_H-M "I M A 2"
_symmetry_group_IT_number 46
_symmetry_cell_setting 'orthorhombic'
loop_
_space_group_symop_operation_xyz
x,y,z
-x,-y,z
1/2-x,y,z
1/2+x,-y,z
1/2+x,1/2+y,1/2+z
1/2-x,1/2-y,1/2+z
-x,1/2+y,1/2+z
x,1/2-y,1/2+z
loop_
_atom_site_type_symbol
_atom_site_label
_atom_site_fract_x
_atom_site_fract_y
_atom_site_fract_z
Si Si1 0.164949 0.869851 0.872690
Si Si2 0.978315 0.899993 0.606695
Si Si3 0.585389 0.533830 0.309689
Si Si4 0.336892 0.078904 0.205948
Si Si5 0.837616 0.657872 0.473852
Si Si6 0.940797 0.242274 0.743186
Si Si7 0.077703 0.182126 0.382536
Si Si8 0.162965 0.613656 0.632411
O O1 0.250000 0.844809 0.842520
O O2 0.113708 0.787879 0.842187
O O3 0.141723 0.952859 0.798625
O O4 0.154298 0.891888 0.000873
O O5 0.910107 0.906114 0.697990
O O6 0.959508 0.861012 0.488808
O O7 0.043194 0.837767 0.658997
O O8 0.000000 0.000000 0.587594
O O9 0.500000 0.500000 0.327424
O O10 0.608282 0.589246 0.415470
O O11 0.250000 0.082582 0.238485
O O12 0.383096 0.106187 0.313628
O O13 0.360221 0.980796 0.177007
O O14 0.353182 0.146328 0.105099
O O15 0.750000 0.638456 0.445936
O O16 0.859248 0.752651 0.430103
O O17 0.897911 0.318712 0.678577
O O18 0.017500 0.272831 0.801660
O O19 0.250000 0.638160 0.664189
#
# Coordination Sequence:
#
# PCOD8193235 Si02
#       8
#     8   8   8   8   8   8   8   8
#     4  11  21  40  66  93 124 164 215 263 320 384
#     4  11  24  43  62  89 136 163 206 265 315 377
#     4  11  20  40  64  92 126 161 205 267 315 375
#     4  10  23  44  65  91 128 165 212 267 321 385
#     4  11  22  41  67  95 124 161 211 270 325 378
#     4  12  23  41  65  95 124 169 216 267 322 373
#     4  12  25  40  64  95 127 173 213 258 320 391
#     4  10  23  42  63  92 129 165 215 272 316 376
#
# _framework density 19.563369999999999
#
# number of rings (size 3 to 8) (size 9 to 14) (size 15 to 20)
#    0.000    1.000    5.000    2.625    1.750    1.000 
#    0.000    1.875    0.000    0.000    0.000    0.000 
#    0.000    0.000    0.000    0.000    0.000    0.000 
#
# Total GULP energy -396698.235052 kJ/mol
# GULP energy per Si atom -12396.819845 kJ/mol
# Density = 1.951884 g / cm^3
# Si number density = 19.563370 Si / 1000 Ang^3
#
#
#
# Elastic Constant Matrix: (Units=GPa)
#
#
# Indices 1 2 3 4 5 6 
#
# 1 56.0729 38.7635 38.1526 0.0000 0.0000 0.0000
# 2 38.7635 106.5797 42.0147 0.0000 0.0000 0.0000
# 3 38.1526 42.0147 91.0154 0.0000 0.0000 0.0000
# 4 0.0000 0.0000 0.0000 42.0827 0.0000 0.0000
# 5 0.0000 0.0000 0.0000 0.0000 34.8931 0.0000
# 6 0.0000 0.0000 0.0000 0.0000 0.0000 33.6781
#
#
#
# Elastic Compliance Matrix: (Units=1/GPa)
#
#
# Indices 1 2 3 4 5 6 
#
# 1 0.028614 -0.006942 -0.008790 0.000000 0.000000 0.000000
# 2 -0.006942 0.013154 -0.003162 0.000000 0.000000 0.000000
# 3 -0.008790 -0.003162 0.016132 0.000000 0.000000 0.000000
# 4 0.000000 0.000000 0.000000 0.023763 0.000000 0.000000
# 5 0.000000 0.000000 0.000000 0.000000 0.028659 0.000000
# 6 0.000000 0.000000 0.000000 0.000000 0.000000 0.029693
#
#
# Mechanical properties :
#
#
# Convention : Reuss Voigt Hill
#
# Bulk Modulus (GPa) = 49.72380 54.61440 52.16910
# Shear Modulus (GPa) = 27.09943 31.11327 29.10635
#
# Velocity S-wave (km/s) = 3.72588 3.99229 3.86138
# Velocity P-wave (km/s) = 6.63186 7.01630 6.82679
#
# Compressibility (1/GPa) = 0.02011109
#
# Stress axis : x y z
#
# Youngs Moduli (GPa) = 34.94830 76.02250 61.99015
#
# Poissons Ratio (x) = 0.52773 0.54490
# Poissons Ratio (y) = 0.24260 0.19603
# Poissons Ratio (z) = 0.30720 0.24040
#
# Static dielectric constant tensor:
#      x y z
#    x 3.642110 0.000000 0.000000 
#    y 0.000000 3.775950 0.000000 
#    z 0.000000 0.000000 3.705380 
# 
# 
# High freq. dielectric constant tensor:
#      x y z
#    x 1.759110 0.000000 0.000000 
#    y 0.000000 1.774340 0.000000 
#    z 0.000000 0.000000 1.764930 
# 
# From -- ./inp_files/11957.got.cif
#   From: 2010.03.12/outbox.cif.g09.slc.cpg/sg46_6_cif.got.tgz:11957.got - 2010.04.14 02:56:35.
