data_PCOD8193263
_publ_section_title
;
Structure prediction by ZEFSAII (Michael W. Deem and Ramdas Pophale) SiO2 
 PCOD8193263
Probable space group: I M A 2
;
_chemical_formula_sum "Si O2"
_cell_formula_units_Z 64
_cell_length_a 18.888323
_cell_length_b 8.726067
_cell_length_c 19.210245
_cell_angle_alpha 90.000000
_cell_angle_beta 90.000000
_cell_angle_gamma 90.000000
_cell_volume 3166.247412
_symmetry_space_group_name_H-M "I M A 2"
_symmetry_group_IT_number 46
_symmetry_cell_setting 'orthorhombic'
loop_
_space_group_symop_operation_xyz
x,y,z
-x,-y,z
1/2-x,y,z
1/2+x,-y,z
1/2+x,1/2+y,1/2+z
1/2-x,1/2-y,1/2+z
-x,1/2+y,1/2+z
x,1/2-y,1/2+z
loop_
_atom_site_type_symbol
_atom_site_label
_atom_site_fract_x
_atom_site_fract_y
_atom_site_fract_z
Si Si1 0.933436 0.599447 0.832950
Si Si2 0.579775 0.552434 0.098092
Si Si3 0.434132 0.387889 0.251221
Si Si4 0.904455 0.119334 0.972155
Si Si5 0.333223 0.756813 0.103342
Si Si6 0.829304 0.386571 0.746945
Si Si7 0.058642 0.264840 0.473160
Si Si8 0.170858 0.914518 0.833251
O O1 0.960158 0.723499 0.777174
O O2 0.872456 0.500772 0.796298
O O3 0.909995 0.681712 0.904583
O O4 0.000000 0.500000 0.854104
O O5 0.500000 0.500000 0.088888
O O6 0.592068 0.632729 0.172448
O O7 0.631645 0.408867 0.095440
O O8 0.594494 0.677117 0.038078
O O9 0.500000 0.500000 0.257354
O O10 0.371112 0.441937 0.301501
O O11 0.851031 0.148215 0.034908
O O12 0.865955 0.159096 0.900461
O O13 0.972784 0.231284 0.977233
O O14 0.919664 0.940247 0.972898
O O15 0.250000 0.730480 0.111256
O O16 0.361355 0.858078 0.169255
O O17 0.750000 0.455199 0.742687
O O18 0.827672 0.216590 0.776403
O O19 0.250000 0.971164 0.851611
#
# Coordination Sequence:
#
# PCOD8193263 Si02
#       8
#     8   8   8   8   8   8   8   8
#     4  12  25  39  66  97 130 165 215 272 328 379
#     4  11  23  41  66  96 128 168 215 267 317 386
#     4  11  23  41  65  96 127 166 218 268 320 384
#     4  11  23  42  67  94 131 170 217 265 325 387
#     4  11  24  45  68  94 131 175 218 265 325 395
#     4  10  24  44  65  94 131 170 215 267 325 390
#     4  11  24  41  65  96 131 168 213 273 326 379
#     4  11  22  42  68  92 124 172 219 262 322 395
#
# _framework density 20.213201999999999
#
# number of rings (size 3 to 8) (size 9 to 14) (size 15 to 20)
#    0.000    1.000    3.750    3.000    5.250    0.500 
#    0.000    1.250    0.000    0.000    0.000    0.000 
#    0.000    0.000    0.000    0.000    0.000    0.000 
#
# Total GULP energy -396802.744832 kJ/mol
# GULP energy per Si atom -12400.085776 kJ/mol
# Density = 2.016720 g / cm^3
# Si number density = 20.213202 Si / 1000 Ang^3
#
#
#
# Elastic Constant Matrix: (Units=GPa)
#
#
# Indices 1 2 3 4 5 6 
#
# 1 82.4873 28.4222 35.2089 0.0000 0.0000 0.0000
# 2 28.4222 86.2815 45.1018 0.0000 0.0000 0.0000
# 3 35.2089 45.1018 157.0216 0.0000 0.0000 0.0000
# 4 0.0000 0.0000 0.0000 39.8494 0.0000 0.0000
# 5 0.0000 0.0000 0.0000 0.0000 30.7057 0.0000
# 6 0.0000 0.0000 0.0000 0.0000 0.0000 31.6890
#
#
#
# Elastic Compliance Matrix: (Units=1/GPa)
#
#
# Indices 1 2 3 4 5 6 
#
# 1 0.014281 -0.003566 -0.002178 0.000000 0.000000 0.000000
# 2 -0.003566 0.014528 -0.003373 0.000000 0.000000 0.000000
# 3 -0.002178 -0.003373 0.007826 0.000000 0.000000 0.000000
# 4 0.000000 0.000000 0.000000 0.025094 0.000000 0.000000
# 5 0.000000 0.000000 0.000000 0.000000 0.032567 0.000000
# 6 0.000000 0.000000 0.000000 0.000000 0.000000 0.031557
#
#
# Mechanical properties :
#
#
# Convention : Reuss Voigt Hill
#
# Bulk Modulus (GPa) = 54.34602 60.36182 57.35392
# Shear Modulus (GPa) = 33.28409 34.91933 34.10171
#
# Velocity S-wave (km/s) = 4.06230 4.16089 4.11189
# Velocity P-wave (km/s) = 6.99627 7.28089 7.14000
#
# Compressibility (1/GPa) = 0.01840061
#
# Stress axis : x y z
#
# Youngs Moduli (GPa) = 70.02082 68.83267 127.78138
#
# Poissons Ratio (x) = 0.24545 0.27832
# Poissons Ratio (y) = 0.24969 0.43105
# Poissons Ratio (z) = 0.15251 0.23219
#
# Static dielectric constant tensor:
#      x y z
#    x 3.694690 0.000000 0.000000 
#    y 0.000000 3.645430 0.000000 
#    z 0.000000 0.000000 4.001600 
# 
# 
# High freq. dielectric constant tensor:
#      x y z
#    x 1.777380 0.000000 0.000000 
#    y 0.000000 1.788790 0.000000 
#    z 0.000000 0.000000 1.811520 
# 
# From -- ./inp_files/20234.got.cif
#   From: 2010.03.12/outbox.cif.g09.slc.cpg/sg46_11_cif.got.tgz:20234.got - 2010.04.14 02:56:35.
