data_PCOD8193805
_publ_section_title
;
Structure prediction by ZEFSAII (Michael W. Deem and Ramdas Pophale) SiO2 
 PCOD8193805
Probable space group: P M M M
;
_chemical_formula_sum "Si O2"
_cell_formula_units_Z 64
_cell_length_a 20.900287
_cell_length_b 19.026630
_cell_length_c 8.982259
_cell_angle_alpha 90.000000
_cell_angle_beta 90.000000
_cell_angle_gamma 90.000000
_cell_volume 3571.903327
_symmetry_space_group_name_H-M "P M M M"
_symmetry_group_IT_number 47
_symmetry_cell_setting 'orthorhombic'
loop_
_space_group_symop_operation_xyz
x,y,z
-x,-y,z
x,-y,-z
-x,y,-z
-x,-y,-z
x,y,-z
-x,y,z
x,-y,z
loop_
_atom_site_type_symbol
_atom_site_label
_atom_site_fract_x
_atom_site_fract_y
_atom_site_fract_z
Si Si1 0.203330 0.675559 0.678823
Si Si2 0.427540 0.679759 0.325993
Si Si3 0.572212 0.824657 0.824093
Si Si4 0.314213 0.078479 0.823332
Si Si5 0.932837 0.334330 0.666505
Si Si6 0.197091 0.825397 0.824000
Si Si7 0.317802 0.578367 0.323249
Si Si8 0.070193 0.832626 0.666881
O O1 0.202529 0.683663 0.500000
O O2 0.135118 0.642249 0.737445
O O3 0.215010 0.751766 0.748183
O O4 0.257585 0.622776 0.736237
O O5 0.418202 0.693780 0.500000
O O6 0.500000 0.658184 0.286967
O O7 0.406825 0.750406 0.243451
O O8 0.382745 0.616317 0.270353
O O9 0.500000 0.845085 0.774003
O O10 0.621455 0.883263 0.764310
O O11 0.576592 0.817115 0.000000
O O12 0.251079 0.119812 0.771498
O O13 0.312472 0.000000 0.755460
O O14 0.316341 0.074983 0.000000
O O15 0.936442 0.364555 0.500000
O O16 0.930226 0.250817 0.662681
O O17 0.000000 0.358034 0.748743
O O18 0.128270 0.856945 0.773126
O O19 0.196134 0.814679 0.000000
O O20 0.315138 0.574112 0.500000
O O21 0.316014 0.500000 0.254572
O O22 0.082138 0.861598 0.500000
O O23 0.000000 0.859250 0.724472
#
# Coordination Sequence:
#
# PCOD8193805 Si02
#       8
#     8   8   8   8   8   8   8   8
#     4   9  16  27  44  62  83 114 147 181 222 263
#     4   9  17  29  46  67  90 115 141 176 226 275
#     4   9  17  30  50  72  90 113 149 190 226 265
#     4   9  18  31  45  64  92 122 150 184 227 269
#     4   7  10  18  34  56  78 100 129 163 201 246
#     4  10  18  27  44  68  91 116 148 187 225 266
#     4   9  17  28  43  64  87 113 150 190 220 254
#     4   8  14  26  44  65  90 118 146 181 226 269
#
# _framework density 17.917618999999998
#
# number of rings (size 3 to 8) (size 9 to 14) (size 15 to 20)
#    0.000    3.250    0.000    2.625    0.000    0.750 
#    0.000    3.125    0.000    5.625    0.000    8.750 
#    0.000    0.000    0.000    6.250    0.000    7.875 
#
# Total GULP energy -792864.281314 kJ/mol
# GULP energy per Si atom -12388.504396 kJ/mol
# Density = 1.787684 g / cm^3
# Si number density = 17.917619 Si / 1000 Ang^3
#
#
#
# Elastic Constant Matrix: (Units=GPa)
#
#
# Indices 1 2 3 4 5 6 
#
# 1 179.1561 90.4935 25.0533 0.0000 0.0000 0.0000
# 2 90.4935 113.8644 20.3278 0.0000 0.0000 0.0000
# 3 25.0533 20.3278 25.5327 0.0000 0.0000 0.0000
# 4 0.0000 0.0000 0.0000 15.5729 0.0000 0.0000
# 5 0.0000 0.0000 0.0000 0.0000 19.6134 0.0000
# 6 0.0000 0.0000 0.0000 0.0000 0.0000 7.0727
#
#
#
# Elastic Compliance Matrix: (Units=1/GPa)
#
#
# Indices 1 2 3 4 5 6 
#
# 1 0.009650 -0.006970 -0.003920 0.000000 0.000000 0.000000
# 2 -0.006970 0.015271 -0.005319 0.000000 0.000000 0.000000
# 3 -0.003920 -0.005319 0.047247 0.000000 0.000000 0.000000
# 4 0.000000 0.000000 0.000000 0.064214 0.000000 0.000000
# 5 0.000000 0.000000 0.000000 0.000000 0.050986 0.000000
# 6 0.000000 0.000000 0.000000 0.000000 0.000000 0.141389
#
#
# Mechanical properties :
#
#
# Convention : Reuss Voigt Hill
#
# Bulk Modulus (GPa) = 25.15719 65.58917 45.37318
# Shear Modulus (GPa) = 13.35380 20.63038 16.99209
#
# Velocity S-wave (km/s) = 2.73296 3.39691 3.08286
# Velocity P-wave (km/s) = 4.90201 7.21601 6.16849
#
# Compressibility (1/GPa) = 0.03975007
#
# Stress axis : x y z
#
# Youngs Moduli (GPa) = 103.62201 65.48261 21.16540
#
# Poissons Ratio (x) = 0.45640 0.08297
# Poissons Ratio (y) = 0.72223 0.11258
# Poissons Ratio (z) = 0.40623 0.34831
#
# Static dielectric constant tensor:
#      x y z
#    x 4.036840 0.000000 0.000000 
#    y 0.000000 3.183070 0.000000 
#    z 0.000000 0.000000 2.926890 
# 
# 
# High freq. dielectric constant tensor:
#      x y z
#    x 1.723220 0.000000 0.000000 
#    y 0.000000 1.656540 0.000000 
#    z 0.000000 0.000000 1.646070 
# 
# From -- ./inp_files/12862.got.cif
#   From: 2010.03.12/outbox.cif.g09.slc.cpg/sg47_7_cif.got.tgz:12862.got - 2010.04.14 03:12:58.
