data_PCOD8193009
_publ_section_title
;
Structure prediction by ZEFSAII (Michael W. Deem and Ramdas Pophale) SiO2 
 PCOD8193009
Probable space group: I M A 2
;
_chemical_formula_sum "Si O2"
_cell_formula_units_Z 64
_cell_length_a 8.744125
_cell_length_b 29.921015
_cell_length_c 12.770677
_cell_angle_alpha 90.000000
_cell_angle_beta 90.000000
_cell_angle_gamma 90.000000
_cell_volume 3341.231752
_symmetry_space_group_name_H-M "I M A 2"
_symmetry_group_IT_number 46
_symmetry_cell_setting 'orthorhombic'
loop_
_space_group_symop_operation_xyz
x,y,z
-x,-y,z
1/2-x,y,z
1/2+x,-y,z
1/2+x,1/2+y,1/2+z
1/2-x,1/2-y,1/2+z
-x,1/2+y,1/2+z
x,1/2-y,1/2+z
loop_
_atom_site_type_symbol
_atom_site_label
_atom_site_fract_x
_atom_site_fract_y
_atom_site_fract_z
Si Si1 0.430629 0.621228 0.970360
Si Si2 0.068439 0.379118 0.419266
Si Si3 0.430650 0.451949 0.818385
Si Si4 0.422482 0.785412 0.372525
Si Si5 0.930360 0.856922 0.690173
Si Si6 0.569323 0.547588 0.581123
Si Si7 0.925320 0.716064 0.491097
Si Si8 0.920385 0.236447 0.675891
O O1 0.250000 0.614759 0.967593
O O2 0.506211 0.582061 0.903847
O O3 0.482057 0.667227 0.914557
O O4 0.486719 0.620664 0.090509
O O5 0.250000 0.377837 0.422540
O O6 0.017376 0.382867 0.297191
O O7 0.003423 0.418568 0.492977
O O8 0.008584 0.333131 0.470538
O O9 0.500000 0.500000 0.844377
O O10 0.250000 0.454754 0.829654
O O11 0.477039 0.437379 0.699386
O O12 0.250000 0.776217 0.415721
O O13 0.548135 0.746290 0.389512
O O14 0.422319 0.781215 0.247113
O O15 0.750000 0.861373 0.672874
O O16 0.970175 0.804875 0.705521
O O17 0.500000 0.500000 0.553253
O O18 0.750000 0.544225 0.571992
O O19 0.750000 0.715049 0.528432
O O20 0.032990 0.744396 0.565720
O O21 0.750000 0.215782 0.670015
#
# Coordination Sequence:
#
# PCOD8193009 Si02
#       8
#     8   8   8   8   8   8   8   8
#     4  11  23  39  58  84 118 154 195 240 289 342
#     4   9  20  37  57  84 116 148 188 238 285 336
#     4  10  21  39  65  91 117 148 185 232 290 348
#     4  10  22  37  53  76 114 156 192 238 287 337
#     4  11  21  37  58  81 112 155 199 238 285 338
#     4   9  19  39  63  88 117 146 180 231 288 344
#     4  11  21  34  55  81 110 149 196 239 283 338
#     4  11  22  36  51  75 113 154 192 238 292 339
#
# _framework density 19.154613999999999
#
# number of rings (size 3 to 8) (size 9 to 14) (size 15 to 20)
#    0.000    1.750    2.500    1.875    1.750    1.500 
#    0.000    3.125    0.000    1.500    0.000    0.000 
#    0.000    0.000    0.000    0.000    0.000    0.000 
#
# Total GULP energy -396518.872133 kJ/mol
# GULP energy per Si atom -12391.214754 kJ/mol
# Density = 1.911102 g / cm^3
# Si number density = 19.154614 Si / 1000 Ang^3
#
#
#
# Elastic Constant Matrix: (Units=GPa)
#
#
# Indices 1 2 3 4 5 6 
#
# 1 49.8174 34.9399 28.8267 0.0003 -0.0001 -0.0001
# 2 34.9399 134.2596 78.3440 0.0004 0.0001 0.0001
# 3 28.8267 78.3440 117.6370 0.0024 -0.0002 -0.0002
# 4 0.0003 0.0004 0.0024 63.4675 -0.0003 -0.0001
# 5 -0.0001 0.0001 -0.0002 -0.0003 24.3343 0.0002
# 6 -0.0001 0.0001 -0.0002 -0.0001 0.0002 26.6257
#
#
#
# Elastic Compliance Matrix: (Units=1/GPa)
#
#
# Indices 1 2 3 4 5 6 
#
# 1 0.025167 -0.004826 -0.002953 0.000000 0.000000 0.000000
# 2 -0.004826 0.013108 -0.007547 0.000000 0.000000 0.000000
# 3 -0.002953 -0.007547 0.014251 0.000000 0.000000 0.000000
# 4 0.000000 0.000000 0.000000 0.015756 0.000000 0.000000
# 5 0.000000 0.000000 0.000000 0.000000 0.041094 0.000000
# 6 0.000000 0.000000 0.000000 0.000000 0.000000 0.037558
#
#
# Mechanical properties :
#
#
# Convention : Reuss Voigt Hill
#
# Bulk Modulus (GPa) = 45.71834 65.10388 55.41111
# Shear Modulus (GPa) = 27.04492 33.52573 30.28533
#
# Velocity S-wave (km/s) = 3.76164 4.18816 3.98062
# Velocity P-wave (km/s) = 6.54113 7.57958 7.07942
#
# Compressibility (1/GPa) = 0.02187306
#
# Stress axis : x y z
#
# Youngs Moduli (GPa) = 39.73452 76.28783 70.17274
#
# Poissons Ratio (x) = 0.36820 0.20720
# Poissons Ratio (y) = 0.19178 0.52960
# Poissons Ratio (z) = 0.11733 0.57575
#
# Static dielectric constant tensor:
#      x y z
#    x 3.388850 0.000000 0.000000 
#    y 0.000000 3.468500 0.000000 
#    z 0.000000 0.000000 3.744960 
# 
# 
# High freq. dielectric constant tensor:
#      x y z
#    x 1.739670 0.000000 0.000000 
#    y 0.000000 1.728400 0.000000 
#    z 0.000000 0.000000 1.759980 
# 
# From -- ./inp_files/9788.got.cif
#   From: 2010.03.12/outbox.cif.g09.slc.cpg/sg46_5_cif.got.tgz:9788.got - 2010.04.14 02:56:35.
