data_PCOD8193876
_publ_section_title
;
Structure prediction by ZEFSAII (Michael W. Deem and Ramdas Pophale) SiO2 
 PCOD8193876
Probable space group: P M M M
;
_chemical_formula_sum "Si O2"
_cell_formula_units_Z 56
_cell_length_a 9.326142
_cell_length_b 13.802429
_cell_length_c 29.618954
_cell_angle_alpha 90.000000
_cell_angle_beta 90.000000
_cell_angle_gamma 90.000000
_cell_volume 3812.652842
_symmetry_space_group_name_H-M "P M M M"
_symmetry_group_IT_number 47
_symmetry_cell_setting 'orthorhombic'
loop_
_space_group_symop_operation_xyz
x,y,z
-x,-y,z
x,-y,-z
-x,y,-z
-x,-y,-z
x,y,-z
-x,y,z
x,-y,z
loop_
_atom_site_type_symbol
_atom_site_label
_atom_site_fract_x
_atom_site_fract_y
_atom_site_fract_z
Si Si1 0.833201 0.787358 0.549171
Si Si2 0.670761 0.720515 0.682456
Si Si3 0.341204 0.384704 0.868375
Si Si4 0.165147 0.609960 0.607656
Si Si5 0.160534 0.615113 0.950600
Si Si6 0.830704 0.888847 0.638234
Si Si7 0.329773 0.392384 0.769907
O O1 0.759177 0.805462 0.500000
O O2 0.803511 0.676684 0.564155
O O3 0.775611 0.860400 0.587827
O O4 0.000000 0.806760 0.543497
O O5 0.500000 0.729304 0.676940
O O6 0.730109 0.640755 0.647871
O O7 0.744882 0.824542 0.674452
O O8 0.716804 0.684975 0.732241
O O9 0.500000 0.340752 0.872951
O O10 0.346880 0.500000 0.872162
O O11 0.250700 0.338888 0.909523
O O12 0.273445 0.357507 0.819294
O O13 0.198060 0.500000 0.593687
O O14 0.000000 0.623492 0.623443
O O15 0.160051 0.500000 0.946468
O O16 0.000000 0.655452 0.946184
O O17 0.223656 0.644816 0.000000
O O18 0.000000 0.867411 0.642825
O O19 0.793693 0.000000 0.647722
O O20 0.500000 0.399880 0.772692
O O21 0.268963 0.500000 0.758124
#
# Coordination Sequence:
#
# PCOD8193876 Si02
#       7
#     8   8   8   8   8   8   8
#     4   8  14  25  42  64  84 100 124 157 190 225
#     4  10  18  28  44  62  79 101 131 162 191 230
#     4   8  13  21  32  45  62  86 119 156 188 219
#     4   9  17  28  41  59  84 109 131 157 188 222
#     4   8  13  20  28  39  59  87 118 154 193 225
#     4   9  18  32  47  62  81 101 121 153 196 235
#     4   8  14  24  37  54  76 100 125 156 193 226
#
# _framework density 14.687936000000001
#
# number of rings (size 3 to 8) (size 9 to 14) (size 15 to 20)
#    0.000    3.429    0.000    3.000    0.000    2.000 
#    0.000    5.714    0.000   10.286    0.000    8.000 
#    0.000    0.000    0.000    0.000    0.000    0.714 
#
# Total GULP energy -693808.732959 kJ/mol
# GULP energy per Si atom -12389.441660 kJ/mol
# Density = 1.465451 g / cm^3
# Si number density = 14.687936 Si / 1000 Ang^3
#
#
#
# Elastic Constant Matrix: (Units=GPa)
#
#
# Indices 1 2 3 4 5 6 
#
# 1 44.4566 23.2543 41.9372 0.0000 0.0000 0.0000
# 2 23.2543 72.7174 41.2071 0.0000 0.0000 0.0000
# 3 41.9372 41.2071 137.5598 0.0000 0.0000 0.0000
# 4 0.0000 0.0000 0.0000 9.6153 0.0000 0.0000
# 5 0.0000 0.0000 0.0000 0.0000 20.5580 0.0000
# 6 0.0000 0.0000 0.0000 0.0000 0.0000 14.5353
#
#
#
# Elastic Compliance Matrix: (Units=1/GPa)
#
#
# Indices 1 2 3 4 5 6 
#
# 1 0.033582 -0.005947 -0.008456 0.000000 0.000000 0.000000
# 2 -0.005947 0.017617 -0.003464 0.000000 0.000000 0.000000
# 3 -0.008456 -0.003464 0.010885 0.000000 0.000000 0.000000
# 4 0.000000 0.000000 0.000000 0.104001 0.000000 0.000000
# 5 0.000000 0.000000 0.000000 0.000000 0.048643 0.000000
# 6 0.000000 0.000000 0.000000 0.000000 0.000000 0.068798
#
#
# Mechanical properties :
#
#
# Convention : Reuss Voigt Hill
#
# Bulk Modulus (GPa) = 37.95271 51.94789 44.95030
# Shear Modulus (GPa) = 15.24187 18.83075 17.03631
#
# Velocity S-wave (km/s) = 3.22485 3.58446 3.40940
# Velocity P-wave (km/s) = 6.30569 7.25091 6.79475
#
# Compressibility (1/GPa) = 0.02634858
#
# Stress axis : x y z
#
# Youngs Moduli (GPa) = 29.77796 56.76421 91.86644
#
# Poissons Ratio (x) = 0.33758 0.77686
# Poissons Ratio (y) = 0.17709 0.31824
# Poissons Ratio (z) = 0.25182 0.19664
#
# Static dielectric constant tensor:
#      x y z
#    x 2.733550 0.000000 0.000000 
#    y 0.000000 2.557010 0.000000 
#    z 0.000000 0.000000 3.206560 
# 
# 
# High freq. dielectric constant tensor:
#      x y z
#    x 1.539490 0.000000 0.000000 
#    y 0.000000 1.514510 0.000000 
#    z 0.000000 0.000000 1.566490 
# 
# From -- ./inp_files/22088.got.cif
#   From: 2010.03.12/outbox.cif.g09.slc.cpg/sg47_12_cif.got.tgz:22088.got - 2010.04.14 03:12:58.
