data_PCOD8193389
_publ_section_title
;
Structure prediction by ZEFSAII (Michael W. Deem and Ramdas Pophale) SiO2 
 PCOD8193389
Probable space group: I M A 2
;
_chemical_formula_sum "Si O2"
_cell_formula_units_Z 48
_cell_length_a 25.032645
_cell_length_b 8.779910
_cell_length_c 10.251041
_cell_angle_alpha 90.000000
_cell_angle_beta 90.000000
_cell_angle_gamma 90.000000
_cell_volume 2253.018590
_symmetry_space_group_name_H-M "I M A 2"
_symmetry_group_IT_number 46
_symmetry_cell_setting 'orthorhombic'
loop_
_space_group_symop_operation_xyz
x,y,z
-x,-y,z
1/2-x,y,z
1/2+x,-y,z
1/2+x,1/2+y,1/2+z
1/2-x,1/2-y,1/2+z
-x,1/2+y,1/2+z
x,1/2-y,1/2+z
loop_
_atom_site_type_symbol
_atom_site_label
_atom_site_fract_x
_atom_site_fract_y
_atom_site_fract_z
Si Si1 0.311298 0.925343 0.048440
Si Si2 0.978628 0.664778 0.346101
Si Si3 0.311512 0.075699 0.318828
Si Si4 0.522053 0.166154 0.585582
Si Si5 0.856696 0.100890 0.555965
Si Si6 0.642808 0.598802 0.309744
O O1 0.250000 0.967244 0.019026
O O2 0.316772 0.743218 0.050464
O O3 0.329980 0.994846 0.185850
O O4 0.348374 0.998532 0.938255
O O5 0.917127 0.659558 0.305315
O O6 0.000000 0.500000 0.385775
O O7 0.985360 0.766272 0.473457
O O8 0.011612 0.744755 0.226903
O O9 0.250000 0.038841 0.349742
O O10 0.318046 0.256968 0.306696
O O11 0.347994 0.010162 0.434040
O O12 0.583894 0.169565 0.549104
O O13 0.500000 0.000000 0.614634
O O14 0.845053 0.006945 0.686243
#
# Coordination Sequence:
#
# PCOD8193389 Si02
#       6
#     8   8   8   8   8   8
#     4  11  26  44  68 100 134 179 231 279 340 403
#     4  11  24  44  65  99 135 173 224 272 329 403
#     4  11  26  44  68 100 134 179 231 279 340 403
#     4  11  24  44  65  99 135 173 224 272 329 403
#     4  12  24  44  70  97 137 179 223 282 339 400
#     4  12  24  44  70  97 137 179 223 282 339 400
#
# _framework density 21.304752000000001
#
# number of rings (size 3 to 8) (size 9 to 14) (size 15 to 20)
#    0.000    0.667    3.333    5.000    4.667    6.000 
#    0.000    0.000    0.000    0.000    0.000    0.000 
#    0.000    0.000    0.000    0.000    0.000    0.000 
#
# Total GULP energy -297759.436205 kJ/mol
# GULP energy per Si atom -12406.643175 kJ/mol
# Density = 2.125626 g / cm^3
# Si number density = 21.304752 Si / 1000 Ang^3
#
#
#
# Elastic Constant Matrix: (Units=GPa)
#
#
# Indices 1 2 3 4 5 6 
#
# 1 82.1178 9.6462 36.1831 0.0000 0.0000 0.0000
# 2 9.6462 94.1979 49.7746 0.0000 0.0000 0.0000
# 3 36.1831 49.7746 155.0852 0.0000 0.0000 0.0000
# 4 0.0000 0.0000 0.0000 31.0475 0.0000 0.0000
# 5 0.0000 0.0000 0.0000 0.0000 26.0977 0.0000
# 6 0.0000 0.0000 0.0000 0.0000 0.0000 28.7690
#
#
#
# Elastic Compliance Matrix: (Units=1/GPa)
#
#
# Indices 1 2 3 4 5 6 
#
# 1 0.013582 0.000341 -0.003278 0.000000 0.000000 0.000000
# 2 0.000341 0.012793 -0.004185 0.000000 0.000000 0.000000
# 3 -0.003278 -0.004185 0.008556 0.000000 0.000000 0.000000
# 4 0.000000 0.000000 0.000000 0.032209 0.000000 0.000000
# 5 0.000000 0.000000 0.000000 0.000000 0.038318 0.000000
# 6 0.000000 0.000000 0.000000 0.000000 0.000000 0.034760
#
#
# Mechanical properties :
#
#
# Convention : Reuss Voigt Hill
#
# Bulk Modulus (GPa) = 48.34158 58.06765 53.20462
# Shear Modulus (GPa) = 30.98716 32.90262 31.94489
#
# Velocity S-wave (km/s) = 3.81789 3.93412 3.87644
# Velocity P-wave (km/s) = 6.49422 6.92469 6.71290
#
# Compressibility (1/GPa) = 0.02068613
#
# Stress axis : x y z
#
# Youngs Moduli (GPa) = 73.62639 78.17026 116.87303
#
# Poissons Ratio (x) = -0.02669 0.38316
# Poissons Ratio (y) = -0.02514 0.48917
# Poissons Ratio (z) = 0.24138 0.32718
#
# Static dielectric constant tensor:
#      x y z
#    x 3.773620 0.000000 0.000000 
#    y 0.000000 3.835960 0.000000 
#    z 0.000000 0.000000 4.009590 
# 
# 
# High freq. dielectric constant tensor:
#      x y z
#    x 1.841440 0.000000 0.000000 
#    y 0.000000 1.835280 0.000000 
#    z 0.000000 0.000000 1.856150 
# 
# From -- ./inp_files/12986.got.cif
#   From: 2010.03.12/outbox.cif.g09.slc.cpg/sg46_7_cif.got.tgz:12986.got - 2010.04.14 02:56:35.
