data_PCOD8193599
_publ_section_title
;
Structure prediction by ZEFSAII (Michael W. Deem and Ramdas Pophale) SiO2 
 PCOD8193599
Probable space group: P M M M
;
_chemical_formula_sum "Si O2"
_cell_formula_units_Z 64
_cell_length_a 14.253197
_cell_length_b 31.569593
_cell_length_c 9.167149
_cell_angle_alpha 90.000000
_cell_angle_beta 90.000000
_cell_angle_gamma 90.000000
_cell_volume 4124.920293
_symmetry_space_group_name_H-M "P M M M"
_symmetry_group_IT_number 47
_symmetry_cell_setting 'orthorhombic'
loop_
_space_group_symop_operation_xyz
x,y,z
-x,-y,z
x,-y,-z
-x,y,-z
-x,-y,-z
x,y,-z
-x,y,z
x,-y,z
loop_
_atom_site_type_symbol
_atom_site_label
_atom_site_fract_x
_atom_site_fract_y
_atom_site_fract_z
Si Si1 0.104831 0.753592 0.666196
Si Si2 0.107062 0.839591 0.830423
Si Si3 0.393100 0.636104 0.825876
Si Si4 0.725147 0.875018 0.673539
Si Si5 0.388737 0.544793 0.837063
Si Si6 0.708398 0.710463 0.330901
Si Si7 0.604876 0.046944 0.326800
Si Si8 0.605189 0.204954 0.326882
O O1 0.116787 0.770164 0.500000
O O2 0.125883 0.792622 0.771158
O O3 0.180215 0.716670 0.696244
O O4 0.000000 0.735311 0.692465
O O5 0.172571 0.872943 0.746423
O O6 0.000000 0.853321 0.801383
O O7 0.131884 0.839791 0.000000
O O8 0.500000 0.645753 0.775761
O O9 0.358355 0.589677 0.764678
O O10 0.323222 0.670317 0.760753
O O11 0.386924 0.636610 0.000000
O O12 0.736296 0.875046 0.500000
O O13 0.676268 0.917797 0.732915
O O14 0.663602 0.835314 0.729482
O O15 0.500000 0.546415 0.845962
O O16 0.357683 0.500000 0.757483
O O17 0.347288 0.543210 0.000000
O O18 0.685559 0.702268 0.500000
O O19 0.654125 0.751975 0.272952
O O20 0.602178 0.049420 0.500000
O O21 0.500000 0.056196 0.267095
O O22 0.637823 0.000000 0.276337
O O23 0.602206 0.203839 0.500000
O O24 0.500000 0.202869 0.262286
#
# Coordination Sequence:
#
# PCOD8193599 Si02
#       8
#     8   8   8   8   8   8   8   8
#     4   9  17  31  49  65  81 105 143 184 215 249
#     4  10  20  32  46  65  88 111 137 176 224 262
#     4   9  17  27  39  58  84 114 146 176 207 245
#     4  10  17  28  47  68  88 114 147 177 206 246
#     4   7  10  19  36  55  74 100 138 180 213 241
#     4  10  18  28  41  59  84 114 142 169 206 251
#     4   8  14  25  44  72  99 117 138 175 219 254
#     4   9  16  25  38  59  85 112 142 170 195 234
#
# _framework density 15.515451000000001
#
# number of rings (size 3 to 8) (size 9 to 14) (size 15 to 20)
#    0.000    3.000    1.250    2.625    0.000    3.500 
#    0.000    0.000    0.000    2.625    0.000    5.250 
#    0.000    0.500    0.000    6.250    0.000    0.250 
#
# Total GULP energy -792993.074982 kJ/mol
# GULP energy per Si atom -12390.516797 kJ/mol
# Density = 1.548014 g / cm^3
# Si number density = 15.515451 Si / 1000 Ang^3
#
#
#
# Elastic Constant Matrix: (Units=GPa)
#
#
# Indices 1 2 3 4 5 6 
#
# 1 99.1637 64.3340 29.0393 0.0000 0.0000 0.0000
# 2 64.3340 140.1734 30.8087 0.0000 0.0000 0.0000
# 3 29.0393 30.8087 29.7899 0.0000 0.0000 0.0000
# 4 0.0000 0.0000 0.0000 14.5983 0.0000 0.0000
# 5 0.0000 0.0000 0.0000 0.0000 15.6626 0.0000
# 6 0.0000 0.0000 0.0000 0.0000 0.0000 13.4823
#
#
#
# Elastic Compliance Matrix: (Units=1/GPa)
#
#
# Indices 1 2 3 4 5 6 
#
# 1 0.016669 -0.005279 -0.010789 0.000000 0.000000 0.000000
# 2 -0.005279 0.010904 -0.006132 0.000000 0.000000 0.000000
# 3 -0.010789 -0.006132 0.050427 0.000000 0.000000 0.000000
# 4 0.000000 0.000000 0.000000 0.068501 0.000000 0.000000
# 5 0.000000 0.000000 0.000000 0.000000 0.063846 0.000000
# 6 0.000000 0.000000 0.000000 0.000000 0.000000 0.074171
#
#
# Mechanical properties :
#
#
# Convention : Reuss Voigt Hill
#
# Bulk Modulus (GPa) = 29.76116 57.49900 43.63008
# Shear Modulus (GPa) = 14.70077 18.41165 16.55621
#
# Velocity S-wave (km/s) = 3.08148 3.44854 3.27016
# Velocity P-wave (km/s) = 5.64659 7.27985 6.51460
#
# Compressibility (1/GPa) = 0.03360085
#
# Stress axis : x y z
#
# Youngs Moduli (GPa) = 59.99299 91.70558 19.83063
#
# Poissons Ratio (x) = 0.48410 0.21396
# Poissons Ratio (y) = 0.31669 0.12159
# Poissons Ratio (z) = 0.64728 0.56230
#
# Static dielectric constant tensor:
#      x y z
#    x 3.013710 0.000000 0.000000 
#    y 0.000000 3.212080 0.000000 
#    z 0.000000 0.000000 2.620530 
# 
# 
# High freq. dielectric constant tensor:
#      x y z
#    x 1.579780 0.000000 0.000000 
#    y 0.000000 1.590680 0.000000 
#    z 0.000000 0.000000 1.557130 
# 
# From -- ./inp_files/8343.got.cif
#   From: 2010.03.12/outbox.cif.g09.slc.cpg/sg47_5_cif.got.tgz:8343.got - 2010.04.14 03:12:58.
