data_PCOD8193442
_publ_section_title
;
Structure prediction by ZEFSAII (Michael W. Deem and Ramdas Pophale) SiO2 
 PCOD8193442
Probable space group: P M M M
;
_chemical_formula_sum "Si O2"
_cell_formula_units_Z 48
_cell_length_a 15.682309
_cell_length_b 8.971077
_cell_length_c 18.060193
_cell_angle_alpha 90.000000
_cell_angle_beta 90.000000
_cell_angle_gamma 90.000000
_cell_volume 2540.838013
_symmetry_space_group_name_H-M "P M M M"
_symmetry_group_IT_number 47
_symmetry_cell_setting 'orthorhombic'
loop_
_space_group_symop_operation_xyz
x,y,z
-x,-y,z
x,-y,-z
-x,y,-z
-x,-y,-z
x,y,-z
-x,y,z
x,-y,z
loop_
_atom_site_type_symbol
_atom_site_label
_atom_site_fract_x
_atom_site_fract_y
_atom_site_fract_z
Si Si1 0.669183 0.168529 0.160595
Si Si2 0.153635 0.671328 0.665687
Si Si3 0.500000 0.675885 0.833011
Si Si4 0.840550 0.674066 0.160699
Si Si5 0.000000 0.829717 0.912476
Si Si6 0.318636 0.835449 0.663247
Si Si7 0.500000 0.173393 0.321027
Si Si8 0.000000 0.175891 0.415856
O O1 0.584862 0.252449 0.130321
O O2 0.752882 0.253923 0.131615
O O3 0.668974 0.170138 0.248948
O O4 0.670260 0.000000 0.129907
O O5 0.138900 0.500000 0.646397
O O6 0.145483 0.703976 0.752469
O O7 0.247699 0.718201 0.636654
O O8 0.083875 0.766652 0.624104
O O9 0.500000 0.500000 0.846647
O O10 0.500000 0.710193 0.745969
O O11 0.838109 0.500000 0.143071
O O12 0.917010 0.748244 0.117186
O O13 0.000000 0.000000 0.884564
O O14 0.000000 0.820139 0.000000
O O15 0.413525 0.799230 0.630454
O O16 0.288260 0.000000 0.638245
O O17 0.500000 0.000000 0.291822
O O18 0.000000 0.233358 0.500000
O O19 0.000000 0.000000 0.411456
#
# Coordination Sequence:
#
# PCOD8193442 Si02
#       8
#     8   8   4   8   4   8   4   4
#     4   9  16  27  43  65  96 133 168 202 245 295
#     4  10  20  33  51  76 103 130 162 202 249 300
#     4  10  16  22  36  62  97 132 165 204 247 290
#     4  10  20  34  53  78 104 131 167 209 253 299
#     4  11  24  39  54  74 100 133 172 209 250 302
#     4   8  14  25  42  65  95 130 165 199 236 283
#     4   8  14  24  38  60  93 132 167 198 239 287
#     4  11  24  39  54  72  94 125 166 207 248 298
#
# _framework density 18.891404000000001
#
# number of rings (size 3 to 8) (size 9 to 14) (size 15 to 20)
#    0.000    2.500    0.000    4.250    0.000    9.333 
#    0.000    0.000    0.000    0.000    0.000    1.167 
#    0.000    9.333    0.000    0.000    0.000    0.000 
#
# Total GULP energy -595010.339976 kJ/mol
# GULP energy per Si atom -12396.048749 kJ/mol
# Density = 1.884841 g / cm^3
# Si number density = 18.891404 Si / 1000 Ang^3
#
#
#
# Elastic Constant Matrix: (Units=GPa)
#
#
# Indices 1 2 3 4 5 6 
#
# 1 194.3753 80.3008 34.8834 0.0000 0.0000 0.0000
# 2 80.3008 131.9689 33.5594 0.0000 0.0000 0.0000
# 3 34.8834 33.5594 25.4975 0.0000 0.0000 0.0000
# 4 0.0000 0.0000 0.0000 15.2543 0.0000 0.0000
# 5 0.0000 0.0000 0.0000 0.0000 -7.4927 0.0000
# 6 0.0000 0.0000 0.0000 0.0000 0.0000 30.6124
#
#
#
# Elastic Compliance Matrix: (Units=1/GPa)
#
#
# Indices 1 2 3 4 5 6 
#
# 1 0.007509 -0.002941 -0.006402 0.000000 0.000000 0.000000
# 2 -0.002941 0.012542 -0.012484 0.000000 0.000000 0.000000
# 3 -0.006402 -0.012484 0.064409 0.000000 0.000000 0.000000
# 4 0.000000 0.000000 0.000000 0.065555 0.000000 0.000000
# 5 0.000000 0.000000 0.000000 0.000000 -0.133463 0.000000
# 6 0.000000 0.000000 0.000000 0.000000 0.000000 0.032667
#
#
# Mechanical properties :
#
#
# Convention : Reuss Voigt Hill
#
# Bulk Modulus (GPa) = 24.50602 72.14766 48.32684
# Shear Modulus (GPa) = 46.96048 21.21466 34.08757
#
# Velocity S-wave (km/s) = 4.99120 3.35472 4.25243
# Velocity P-wave (km/s) = 6.79826 7.29926 7.05321
#
# Compressibility (1/GPa) = 0.04080630
#
# Stress axis : x y z
#
# Youngs Moduli (GPa) = 133.18228 79.73491 15.52583
#
# Poissons Ratio (x) = 0.23449 0.09939
# Poissons Ratio (y) = 0.39167 0.19382
# Poissons Ratio (z) = 0.85261 0.99538
#
# Static dielectric constant tensor:
#      x y z
#    x 4.099230 0.000000 0.000000 
#    y 0.000000 3.571790 0.000000 
#    z 0.000000 0.000000 2.857130 
# 
# 
# High freq. dielectric constant tensor:
#      x y z
#    x 1.764310 0.000000 0.000000 
#    y 0.000000 1.744680 0.000000 
#    z 0.000000 0.000000 1.659110 
# 
# From -- ./inp_files/28105.got.cif
#   From: 2010.03.12/outbox.cif.g09.slc.cpg/sg47_15_cif.got.tgz:28105.got - 2010.04.14 03:12:58.
