data_PCOD8193563
_publ_section_title
;
Structure prediction by ZEFSAII (Michael W. Deem and Ramdas Pophale) SiO2 
 PCOD8193563
Probable space group: P M M M
;
_chemical_formula_sum "Si O2"
_cell_formula_units_Z 52
_cell_length_a 7.777925
_cell_length_b 14.172411
_cell_length_c 24.990606
_cell_angle_alpha 90.000000
_cell_angle_beta 90.000000
_cell_angle_gamma 90.000000
_cell_volume 2754.763227
_symmetry_space_group_name_H-M "P M M M"
_symmetry_group_IT_number 47
_symmetry_cell_setting 'orthorhombic'
loop_
_space_group_symop_operation_xyz
x,y,z
-x,-y,z
x,-y,-z
-x,y,-z
-x,-y,-z
x,y,-z
-x,y,z
x,-y,z
loop_
_atom_site_type_symbol
_atom_site_label
_atom_site_fract_x
_atom_site_fract_y
_atom_site_fract_z
Si Si1 0.500000 0.108694 0.563210
Si Si2 0.695551 0.395859 0.794364
Si Si3 0.196189 0.790651 0.839288
Si Si4 0.204001 0.105645 0.736437
Si Si5 0.795967 0.106957 0.058654
Si Si6 0.800890 0.394966 0.322844
Si Si7 0.201951 0.795693 0.373124
O O1 0.500000 0.114133 0.500000
O O2 0.325372 0.160500 0.582116
O O3 0.500000 0.000000 0.582927
O O4 0.500000 0.395024 0.812918
O O5 0.777065 0.500000 0.803063
O O6 0.793480 0.321901 0.832082
O O7 0.703210 0.369058 0.731693
O O8 0.284492 0.841369 0.788070
O O9 0.282538 0.825081 0.895038
O O10 0.000000 0.823016 0.841466
O O11 0.259279 0.158704 0.682804
O O12 0.000000 0.105673 0.740450
O O13 0.278261 0.000000 0.734677
O O14 0.000000 0.115164 0.056586
O O15 0.740938 0.000000 0.072178
O O16 0.722442 0.136196 0.000000
O O17 0.749064 0.500000 0.343842
O O18 0.761224 0.317083 0.368442
O O19 0.000000 0.390359 0.307458
O O20 0.000000 0.815477 0.386850
#
# Coordination Sequence:
#
# PCOD8193563 Si02
#       7
#     4   8   8   8   8   8   8
#     4  11  26  44  61  83 109 145 193 233 267 316
#     4  10  20  31  44  67 101 137 170 209 259 316
#     4  10  17  27  46  70  96 128 164 206 253 306
#     4   9  16  26  43  71 104 134 162 197 251 314
#     4   8  14  25  43  69  98 127 163 207 253 303
#     4   9  17  31  53  82 113 143 176 213 261 324
#     4  10  20  36  58  83 112 145 180 225 277 326
#
# _framework density 18.876394999999999
#
# number of rings (size 3 to 8) (size 9 to 14) (size 15 to 20)
#    0.000    2.538    1.538    1.846    1.077    4.000 
#    0.000    0.769    0.000    3.231    0.000    6.462 
#    0.000    0.000    0.000    0.000    0.000    0.000 
#
# Total GULP energy -644451.443873 kJ/mol
# GULP energy per Si atom -12393.296998 kJ/mol
# Density = 1.883343 g / cm^3
# Si number density = 18.876395 Si / 1000 Ang^3
#
#
#
# Elastic Constant Matrix: (Units=GPa)
#
#
# Indices 1 2 3 4 5 6 
#
# 1 42.3337 23.9162 26.8574 0.0000 0.0000 0.0000
# 2 23.9162 140.4435 60.9787 0.0000 0.0000 0.0000
# 3 26.8574 60.9787 100.2846 0.0000 0.0000 0.0000
# 4 0.0000 0.0000 0.0000 27.1101 0.0000 0.0000
# 5 0.0000 0.0000 0.0000 0.0000 3.5603 0.0000
# 6 0.0000 0.0000 0.0000 0.0000 0.0000 9.5031
#
#
#
# Elastic Compliance Matrix: (Units=1/GPa)
#
#
# Indices 1 2 3 4 5 6 
#
# 1 0.028915 -0.002122 -0.006454 0.000000 0.000000 0.000000
# 2 -0.002122 0.009830 -0.005409 0.000000 0.000000 0.000000
# 3 -0.006454 -0.005409 0.014989 0.000000 0.000000 0.000000
# 4 0.000000 0.000000 0.000000 0.036887 0.000000 0.000000
# 5 0.000000 0.000000 0.000000 0.000000 0.280877 0.000000
# 6 0.000000 0.000000 0.000000 0.000000 0.000000 0.105229
#
#
# Mechanical properties :
#
#
# Convention : Reuss Voigt Hill
#
# Bulk Modulus (GPa) = 38.81222 56.28517 47.54869
# Shear Modulus (GPa) = 9.74120 19.45533 14.59826
#
# Velocity S-wave (km/s) = 2.27414 3.21389 2.78395
# Velocity P-wave (km/s) = 5.24419 6.60716 5.96473
#
# Compressibility (1/GPa) = 0.02576508
#
# Stress axis : x y z
#
# Youngs Moduli (GPa) = 34.58433 101.72765 66.71585
#
# Poissons Ratio (x) = 0.21586 0.43055
# Poissons Ratio (y) = 0.07338 0.36087
# Poissons Ratio (z) = 0.22319 0.55025
#
# Static dielectric constant tensor:
#      x y z
#    x 3.145860 0.000000 0.000000 
#    y 0.000000 3.757080 0.000000 
#    z 0.000000 0.000000 3.399550 
# 
# 
# High freq. dielectric constant tensor:
#      x y z
#    x 1.710700 0.000000 0.000000 
#    y 0.000000 1.740380 0.000000 
#    z 0.000000 0.000000 1.700500 
# 
# From -- ./inp_files/32016.got.cif
#   From: 2010.03.12/outbox.cif.g09.slc.cpg/sg47_17_cif.got.tgz:32016.got - 2010.04.14 03:12:58.
