data_PCOD8193254
_publ_section_title
;
Structure prediction by ZEFSAII (Michael W. Deem and Ramdas Pophale) SiO2 
 PCOD8193254
Probable space group: I M A 2
;
_chemical_formula_sum "Si O2"
_cell_formula_units_Z 40
_cell_length_a 19.048737
_cell_length_b 9.429338
_cell_length_c 9.851186
_cell_angle_alpha 90.000000
_cell_angle_beta 90.000000
_cell_angle_gamma 90.000000
_cell_volume 1769.440275
_symmetry_space_group_name_H-M "I M A 2"
_symmetry_group_IT_number 46
_symmetry_cell_setting 'orthorhombic'
loop_
_space_group_symop_operation_xyz
x,y,z
-x,-y,z
1/2-x,y,z
1/2+x,-y,z
1/2+x,1/2+y,1/2+z
1/2-x,1/2-y,1/2+z
-x,1/2+y,1/2+z
x,1/2-y,1/2+z
loop_
_atom_site_type_symbol
_atom_site_label
_atom_site_fract_x
_atom_site_fract_y
_atom_site_fract_z
Si Si1 0.328415 0.479620 0.875000
Si Si2 0.538832 0.247240 0.035055
Si Si3 0.883737 0.497874 0.162144
Si Si4 0.053972 0.283081 0.770167
Si Si5 0.171845 0.806615 0.889413
O O1 0.250000 0.432754 0.834407
O O2 0.381953 0.390564 0.785102
O O3 0.340752 0.644989 0.842058
O O4 0.338526 0.446989 0.034919
O O5 0.554596 0.397182 0.106873
O O6 0.491570 0.160461 0.142107
O O7 0.494753 0.280801 0.901355
O O8 0.610430 0.160484 0.999422
O O9 0.916414 0.626509 0.245209
O O10 0.833055 0.409136 0.260974
O O11 0.250000 0.823249 0.954374
#
# Coordination Sequence:
#
# PCOD8193254 Si02
#       5
#     8   8   8   8   8
#     4  10  24  45  70 103 144 191 240 297 359 428
#     4  11  24  44  70 104 142 184 237 292 355 429
#     4  11  23  46  71 102 147 188 239 294 368 422
#     4  12  24  45  74 103 142 188 239 295 361 428
#     4  10  23  45  73 103 142 191 237 289 359 427
#
# _framework density 22.606016
#
# number of rings (size 3 to 8) (size 9 to 14) (size 15 to 20)
#    0.000    1.200    4.000    1.200    2.800    2.400 
#   10.800    0.000    0.000    0.000    0.000    0.000 
#    0.000    0.000    0.000    0.000    0.000    0.000 
#
# Total GULP energy -248004.907673 kJ/mol
# GULP energy per Si atom -12400.245384 kJ/mol
# Density = 2.255456 g / cm^3
# Si number density = 22.606016 Si / 1000 Ang^3
#
#
#
# Elastic Constant Matrix: (Units=GPa)
#
#
# Indices 1 2 3 4 5 6 
#
# 1 194.0895 51.9470 76.7854 0.0000 0.0000 0.0000
# 2 51.9470 73.3777 30.5688 0.0000 0.0000 0.0000
# 3 76.7854 30.5688 108.1294 0.0000 0.0000 0.0000
# 4 0.0000 0.0000 0.0000 32.4504 0.0000 0.0000
# 5 0.0000 0.0000 0.0000 0.0000 41.8411 0.0000
# 6 0.0000 0.0000 0.0000 0.0000 0.0000 27.5425
#
#
#
# Elastic Compliance Matrix: (Units=1/GPa)
#
#
# Indices 1 2 3 4 5 6 
#
# 1 0.007972 -0.003724 -0.004608 0.000000 0.000000 0.000000
# 2 -0.003724 0.017187 -0.002214 0.000000 0.000000 0.000000
# 3 -0.004608 -0.002214 0.013147 0.000000 0.000000 0.000000
# 4 0.000000 0.000000 0.000000 0.030816 0.000000 0.000000
# 5 0.000000 0.000000 0.000000 0.000000 0.023900 0.000000
# 6 0.000000 0.000000 0.000000 0.000000 0.000000 0.036308
#
#
# Mechanical properties :
#
#
# Convention : Reuss Voigt Hill
#
# Bulk Modulus (GPa) = 58.09790 77.13322 67.61556
# Shear Modulus (GPa) = 32.01832 34.78649 33.40241
#
# Velocity S-wave (km/s) = 3.76754 3.92703 3.84811
# Velocity P-wave (km/s) = 6.68445 7.39978 7.05119
#
# Compressibility (1/GPa) = 0.01721232
#
# Stress axis : x y z
#
# Youngs Moduli (GPa) = 125.43692 58.18369 76.06436
#
# Poissons Ratio (x) = 0.21667 0.35054
# Poissons Ratio (y) = 0.46712 0.16844
# Poissons Ratio (z) = 0.57807 0.12884
#
# Static dielectric constant tensor:
#      x y z
#    x 4.470630 0.000000 0.000000 
#    y 0.000000 3.865890 0.000000 
#    z 0.000000 0.000000 4.155930 
# 
# 
# High freq. dielectric constant tensor:
#      x y z
#    x 1.911580 0.000000 0.000000 
#    y 0.000000 1.869260 0.000000 
#    z 0.000000 0.000000 1.889360 
# 
# From -- ./inp_files/7252.got.cif
#   From: 2010.03.12/outbox.cif.g09.slc.cpg/sg46_4_cif.got.tgz:7252.got - 2010.04.14 02:56:35.
