data_PCOD8193261
_publ_section_title
;
Structure prediction by ZEFSAII (Michael W. Deem and Ramdas Pophale) SiO2 
 PCOD8193261
Probable space group: I M A 2
;
_chemical_formula_sum "Si O2"
_cell_formula_units_Z 48
_cell_length_a 22.271817
_cell_length_b 8.687804
_cell_length_c 11.814596
_cell_angle_alpha 90.000000
_cell_angle_beta 90.000000
_cell_angle_gamma 90.000000
_cell_volume 2286.043760
_symmetry_space_group_name_H-M "I M A 2"
_symmetry_group_IT_number 46
_symmetry_cell_setting 'orthorhombic'
loop_
_space_group_symop_operation_xyz
x,y,z
-x,-y,z
1/2-x,y,z
1/2+x,-y,z
1/2+x,1/2+y,1/2+z
1/2-x,1/2-y,1/2+z
-x,1/2+y,1/2+z
x,1/2-y,1/2+z
loop_
_atom_site_type_symbol
_atom_site_label
_atom_site_fract_x
_atom_site_fract_y
_atom_site_fract_z
Si Si1 0.319587 0.067973 0.287410
Si Si2 0.013529 0.824160 0.236598
Si Si3 0.370769 0.841317 0.100641
Si Si4 0.180853 0.977907 0.538105
Si Si5 0.440660 0.579718 0.393541
Si Si6 0.104980 0.155765 0.713883
O O1 0.250000 0.103726 0.276089
O O2 0.352869 0.231332 0.286539
O O3 0.338973 0.961712 0.182879
O O4 0.334901 0.981667 0.404788
O O5 0.063802 0.795752 0.143435
O O6 0.036564 0.747367 0.353096
O O7 0.954804 0.748295 0.180745
O O8 0.000000 0.000000 0.266244
O O9 0.328915 0.692902 0.086557
O O10 0.384486 0.915969 0.978689
O O11 0.250000 0.023505 0.559142
O O12 0.139131 0.101754 0.601104
O O13 0.500000 0.500000 0.447364
O O14 0.414559 0.491107 0.285654
#
# Coordination Sequence:
#
# PCOD8193261 Si02
#       6
#     8   8   8   8   8   8
#     4  11  26  45  68 100 135 181 235 277 335 403
#     4  11  22  42  67 102 134 175 219 278 342 404
#     4  12  23  44  69 100 136 176 226 279 334 409
#     4  11  26  46  69  97 135 183 228 280 333 399
#     4  10  24  42  65 101 137 172 220 274 346 411
#     4  11  24  44  69  98 138 175 222 283 338 407
#
# _framework density 20.996973000000001
#
# number of rings (size 3 to 8) (size 9 to 14) (size 15 to 20)
#    0.000    1.000    3.333    2.500    2.333    1.333 
#    0.000    1.667    0.000    0.000    0.000    0.000 
#    0.000    0.000    0.000    0.000    0.000    0.000 
#
# Total GULP energy -297659.962545 kJ/mol
# GULP energy per Si atom -12402.498439 kJ/mol
# Density = 2.094918 g / cm^3
# Si number density = 20.996973 Si / 1000 Ang^3
#
#
#
# Elastic Constant Matrix: (Units=GPa)
#
#
# Indices 1 2 3 4 5 6 
#
# 1 114.1941 33.4699 32.3272 0.0000 0.0000 0.0000
# 2 33.4699 114.4408 34.6363 0.0000 0.0000 0.0000
# 3 32.3272 34.6363 73.1808 0.0000 0.0000 0.0000
# 4 0.0000 0.0000 0.0000 23.9933 0.0000 0.0000
# 5 0.0000 0.0000 0.0000 0.0000 37.9864 0.0000
# 6 0.0000 0.0000 0.0000 0.0000 0.0000 37.8504
#
#
#
# Elastic Compliance Matrix: (Units=1/GPa)
#
#
# Indices 1 2 3 4 5 6 
#
# 1 0.010358 -0.001919 -0.003667 0.000000 0.000000 0.000000
# 2 -0.001919 0.010555 -0.004148 0.000000 0.000000 0.000000
# 3 -0.003667 -0.004148 0.017248 0.000000 0.000000 0.000000
# 4 0.000000 0.000000 0.000000 0.041678 0.000000 0.000000
# 5 0.000000 0.000000 0.000000 0.000000 0.026325 0.000000
# 6 0.000000 0.000000 0.000000 0.000000 0.000000 0.026420
#
#
# Mechanical properties :
#
#
# Convention : Reuss Voigt Hill
#
# Bulk Modulus (GPa) = 53.49861 55.85362 54.67612
# Shear Modulus (GPa) = 31.58908 33.39149 32.49029
#
# Velocity S-wave (km/s) = 3.88294 3.99218 3.93794
# Velocity P-wave (km/s) = 6.75555 6.92160 6.83908
#
# Compressibility (1/GPa) = 0.01869207
#
# Stress axis : x y z
#
# Youngs Moduli (GPa) = 96.54662 94.74328 57.97851
#
# Poissons Ratio (x) = 0.18185 0.21261
# Poissons Ratio (y) = 0.18531 0.24048
# Poissons Ratio (z) = 0.35404 0.39297
#
# Static dielectric constant tensor:
#      x y z
#    x 4.125840 0.000000 0.000000 
#    y 0.000000 3.887990 0.000000 
#    z 0.000000 0.000000 3.698870 
# 
# 
# High freq. dielectric constant tensor:
#      x y z
#    x 1.836170 0.000000 0.000000 
#    y 0.000000 1.830360 0.000000 
#    z 0.000000 0.000000 1.818030 
# 
# From -- ./inp_files/12698.got.cif
#   From: 2010.03.12/outbox.cif.g09.slc.cpg/sg46_7_cif.got.tgz:12698.got - 2010.04.14 02:56:35.
