data_PCOD8193269
_publ_section_title
;
Structure prediction by ZEFSAII (Michael W. Deem and Ramdas Pophale) SiO2 
 PCOD8193269
Probable space group: I M A 2
;
_chemical_formula_sum "Si O2"
_cell_formula_units_Z 48
_cell_length_a 23.556128
_cell_length_b 8.187346
_cell_length_c 11.542592
_cell_angle_alpha 90.000000
_cell_angle_beta 90.000000
_cell_angle_gamma 90.000000
_cell_volume 2226.129345
_symmetry_space_group_name_H-M "I M A 2"
_symmetry_group_IT_number 46
_symmetry_cell_setting 'orthorhombic'
loop_
_space_group_symop_operation_xyz
x,y,z
-x,-y,z
1/2-x,y,z
1/2+x,-y,z
1/2+x,1/2+y,1/2+z
1/2-x,1/2-y,1/2+z
-x,1/2+y,1/2+z
x,1/2-y,1/2+z
loop_
_atom_site_type_symbol
_atom_site_label
_atom_site_fract_x
_atom_site_fract_y
_atom_site_fract_z
Si Si1 0.428555 0.172029 0.933270
Si Si2 0.000000 0.500000 0.268419
Si Si3 0.250000 0.006936 0.478051
Si Si4 0.250000 0.858283 0.955795
Si Si5 0.979958 0.316200 0.613490
Si Si6 0.250000 0.401468 0.240697
Si Si7 0.161416 0.357496 0.813102
Si Si8 0.638681 0.047464 0.092344
O O1 0.402016 0.312963 0.853743
O O2 0.444592 0.020382 0.849610
O O3 0.485889 0.232666 0.996918
O O4 0.382089 0.115718 0.027089
O O5 0.992767 0.330112 0.201085
O O6 0.250000 0.829153 0.421947
O O7 0.250000 0.008788 0.616915
O O8 0.305327 0.096316 0.429278
O O9 0.250000 0.962472 0.839503
O O10 0.305802 0.886950 0.030977
O O11 0.912262 0.319451 0.590447
O O12 0.000000 0.500000 0.655000
O O13 0.306600 0.292553 0.250304
O O14 0.155575 0.506198 0.724000
#
# Coordination Sequence:
#
# PCOD8193269 Si02
#       8
#     8   4   4   4   8   4   8   8
#     4  11  21  44  70 104 138 186 247 301 356 439
#     4  12  24  44  76 100 140 198 238 298 384 422
#     4  11  28  44  68 111 140 193 248 284 372 443
#     4  12  26  43  71 100 151 193 233 304 363 426
#     4  10  24  46  67 104 148 185 248 303 354 438
#     4  11  24  43  69 103 143 182 245 298 355 435
#     4  11  24  43  76 100 141 191 245 294 364 431
#     4  11  23  45  69 100 151 187 233 308 360 423
#
# _framework density 21.562089
#
# number of rings (size 3 to 8) (size 9 to 14) (size 15 to 20)
#    0.000    1.000    4.167    4.000    4.667    4.000 
#    4.500    0.000    0.000    0.000    0.000    0.000 
#    0.000    0.000    0.000    0.000    0.000    0.000 
#
# Total GULP energy -297515.038840 kJ/mol
# GULP energy per Si atom -12396.459952 kJ/mol
# Density = 2.151301 g / cm^3
# Si number density = 21.562089 Si / 1000 Ang^3
#
#
#
# Elastic Constant Matrix: (Units=GPa)
#
#
# Indices 1 2 3 4 5 6 
#
# 1 147.6931 40.1487 56.5527 0.0000 0.0000 0.0000
# 2 40.1487 84.0699 44.3638 0.0000 0.0000 0.0000
# 3 56.5527 44.3638 121.5254 0.0000 0.0000 0.0000
# 4 0.0000 0.0000 0.0000 28.3257 0.0000 0.0000
# 5 0.0000 0.0000 0.0000 0.0000 -11.0498 0.0000
# 6 0.0000 0.0000 0.0000 0.0000 0.0000 695.7788
#
#
#
# Elastic Compliance Matrix: (Units=1/GPa)
#
#
# Indices 1 2 3 4 5 6 
#
# 1 0.008638 -0.002482 -0.003114 0.000000 0.000000 0.000000
# 2 -0.002482 0.015446 -0.004484 0.000000 0.000000 0.000000
# 3 -0.003114 -0.004484 0.011314 0.000000 0.000000 0.000000
# 4 0.000000 0.000000 0.000000 0.035304 0.000000 0.000000
# 5 0.000000 0.000000 0.000000 0.000000 -0.090500 0.000000
# 6 0.000000 0.000000 0.000000 0.000000 0.000000 0.001437
#
#
# Mechanical properties :
#
#
# Convention : Reuss Voigt Hill
#
# Bulk Modulus (GPa) = 65.61762 70.60210 68.10986
# Shear Modulus (GPa) = 726.93135 156.75915 441.84525
#
# Velocity S-wave (km/s) = 18.38113 8.53575 14.33047
# Velocity P-wave (km/s) = 21.93139 11.40001 17.47779
#
# Compressibility (1/GPa) = 0.01523981
#
# Stress axis : x y z
#
# Youngs Moduli (GPa) = 115.77147 64.74049 88.38248
#
# Poissons Ratio (x) = 0.16069 0.27518
# Poissons Ratio (y) = 0.28735 0.39628
# Poissons Ratio (z) = 0.36046 0.29028
#
# Static dielectric constant tensor:
#      x y z
#    x 4.096490 0.000000 0.000000 
#    y 0.000000 3.685910 0.000000 
#    z 0.000000 0.000000 3.959420 
# 
# 
# High freq. dielectric constant tensor:
#      x y z
#    x 1.860980 0.000000 0.000000 
#    y 0.000000 1.826270 0.000000 
#    z 0.000000 0.000000 1.856580 
# 
# From -- ./inp_files/12766.got.cif
#   From: 2010.03.12/outbox.cif.g09.slc.cpg/sg46_7_cif.got.tgz:12766.got - 2010.04.14 02:56:35.
