data_PCOD8193800
_publ_section_title
;
Structure prediction by ZEFSAII (Michael W. Deem and Ramdas Pophale) SiO2 
 PCOD8193800
Probable space group: P M M M
;
_chemical_formula_sum "Si O2"
_cell_formula_units_Z 64
_cell_length_a 14.483892
_cell_length_b 9.545525
_cell_length_c 28.460048
_cell_angle_alpha 90.000000
_cell_angle_beta 90.000000
_cell_angle_gamma 90.000000
_cell_volume 3934.782448
_symmetry_space_group_name_H-M "P M M M"
_symmetry_group_IT_number 47
_symmetry_cell_setting 'orthorhombic'
loop_
_space_group_symop_operation_xyz
x,y,z
-x,-y,z
x,-y,-z
-x,y,-z
-x,-y,-z
x,y,-z
-x,y,z
x,-y,z
loop_
_atom_site_type_symbol
_atom_site_label
_atom_site_fract_x
_atom_site_fract_y
_atom_site_fract_z
Si Si1 0.108334 0.156850 0.370174
Si Si2 0.106410 0.836080 0.736706
Si Si3 0.601910 0.333709 0.693588
Si Si4 0.600456 0.334043 0.411139
Si Si5 0.733668 0.665837 0.774211
Si Si6 0.790601 0.335073 0.447799
Si Si7 0.606251 0.336368 0.861564
Si Si8 0.390449 0.843022 0.051674
O O1 0.130208 0.206908 0.317124
O O2 0.151224 0.260378 0.408008
O O3 0.000000 0.157499 0.378436
O O4 0.147038 0.000000 0.378222
O O5 0.168582 0.746205 0.772829
O O6 0.000000 0.800842 0.747847
O O7 0.125495 0.000000 0.744279
O O8 0.500000 0.281415 0.708675
O O9 0.604230 0.500000 0.695669
O O10 0.624377 0.278920 0.641239
O O11 0.677058 0.275111 0.729571
O O12 0.500000 0.274578 0.427797
O O13 0.593124 0.500000 0.409598
O O14 0.683085 0.286948 0.445198
O O15 0.751720 0.500000 0.772276
O O16 0.673939 0.707622 0.819559
O O17 0.826583 0.295784 0.500000
O O18 0.799510 0.500000 0.438623
O O19 0.500000 0.293179 0.849678
O O20 0.611488 0.500000 0.871555
O O21 0.645674 0.260290 0.907948
O O22 0.500000 0.839979 0.051137
O O23 0.355253 0.000000 0.062626
O O24 0.354012 0.795371 0.000000
#
# Coordination Sequence:
#
# PCOD8193800 Si02
#       8
#     8   8   8   8   8   8   8   8
#     4   9  19  36  54  68  84 110 142 173 210 262
#     4   9  19  35  51  66  85 110 142 180 220 261
#     4   8  13  22  38  60  85 113 143 172 203 243
#     4   8  14  25  41  61  85 113 143 172 203 242
#     4  10  18  27  43  67  93 119 146 177 215 260
#     4  10  20  31  45  69  95 113 135 173 216 253
#     4   9  17  27  39  61  95 129 157 186 222 264
#     4   8  14  25  40  57  80 116 163 207 237 260
#
# _framework density 16.265194000000001
#
# number of rings (size 3 to 8) (size 9 to 14) (size 15 to 20)
#    0.000    3.125    0.000    3.000    0.000    5.000 
#    0.000    5.000    0.000    1.500    0.000    6.125 
#    0.000    0.500    0.000    5.500    0.000    4.250 
#
# Total GULP energy -793090.886931 kJ/mol
# GULP energy per Si atom -12392.045108 kJ/mol
# Density = 1.622817 g / cm^3
# Si number density = 16.265194 Si / 1000 Ang^3
#
#
#
# Elastic Constant Matrix: (Units=GPa)
#
#
# Indices 1 2 3 4 5 6 
#
# 1 68.4147 34.3001 50.0714 0.0000 0.0000 0.0000
# 2 34.3001 44.0471 45.8385 0.0000 0.0000 0.0000
# 3 50.0714 45.8385 95.7371 0.0000 0.0000 0.0000
# 4 0.0000 0.0000 0.0000 25.1789 0.0000 0.0000
# 5 0.0000 0.0000 0.0000 0.0000 17.0057 0.0000
# 6 0.0000 0.0000 0.0000 0.0000 0.0000 13.3916
#
#
#
# Elastic Compliance Matrix: (Units=1/GPa)
#
#
# Indices 1 2 3 4 5 6 
#
# 1 0.026737 -0.012493 -0.008002 0.000000 0.000000 0.000000
# 2 -0.012493 0.051087 -0.017926 0.000000 0.000000 0.000000
# 3 -0.008002 -0.017926 0.023213 0.000000 0.000000 0.000000
# 4 0.000000 0.000000 0.000000 0.039716 0.000000 0.000000
# 5 0.000000 0.000000 0.000000 0.000000 0.058804 0.000000
# 6 0.000000 0.000000 0.000000 0.000000 0.000000 0.074674
#
#
# Mechanical properties :
#
#
# Convention : Reuss Voigt Hill
#
# Bulk Modulus (GPa) = 41.33146 52.06876 46.70011
# Shear Modulus (GPa) = 13.92226 16.31447 15.11837
#
# Velocity S-wave (km/s) = 2.92884 3.17050 3.05206
# Velocity P-wave (km/s) = 6.07484 6.74423 6.41827
#
# Compressibility (1/GPa) = 0.02419465
#
# Stress axis : x y z
#
# Youngs Moduli (GPa) = 37.40199 19.57463 43.07848
#
# Poissons Ratio (x) = 0.24454 0.34472
# Poissons Ratio (y) = 0.46725 0.77224
# Poissons Ratio (z) = 0.29929 0.35090
#
# Static dielectric constant tensor:
#      x y z
#    x 3.054950 0.000000 0.000000 
#    y 0.000000 2.846380 0.000000 
#    z 0.000000 0.000000 3.195600 
# 
# 
# High freq. dielectric constant tensor:
#      x y z
#    x 1.608830 0.000000 0.000000 
#    y 0.000000 1.597250 0.000000 
#    z 0.000000 0.000000 1.617140 
# 
# From -- ./inp_files/34702.got.cif
#   From: 2010.03.12/outbox.cif.g09.slc.cpg/sg47_18_cif.got.tgz:34702.got - 2010.04.14 03:12:58.
