data_PCOD8193067
_publ_section_title
;
Structure prediction by ZEFSAII (Michael W. Deem and Ramdas Pophale) SiO2 
 PCOD8193067
Probable space group: I M A 2
;
_chemical_formula_sum "Si O2"
_cell_formula_units_Z 40
_cell_length_a 10.277229
_cell_length_b 6.770989
_cell_length_c 26.541428
_cell_angle_alpha 90.000000
_cell_angle_beta 90.000000
_cell_angle_gamma 90.000000
_cell_volume 1846.938470
_symmetry_space_group_name_H-M "I M A 2"
_symmetry_group_IT_number 46
_symmetry_cell_setting 'orthorhombic'
loop_
_space_group_symop_operation_xyz
x,y,z
-x,-y,z
1/2-x,y,z
1/2+x,-y,z
1/2+x,1/2+y,1/2+z
1/2-x,1/2-y,1/2+z
-x,1/2+y,1/2+z
x,1/2-y,1/2+z
loop_
_atom_site_type_symbol
_atom_site_label
_atom_site_fract_x
_atom_site_fract_y
_atom_site_fract_z
Si Si1 0.105957 0.654674 0.581040
Si Si2 0.500000 0.000000 0.643176
Si Si3 0.000000 0.500000 0.798050
Si Si4 0.396781 0.829822 0.475092
Si Si5 0.894237 0.648680 0.239915
Si Si6 0.602366 0.334762 0.366640
O O1 0.250000 0.573860 0.593942
O O2 0.091080 0.678175 0.521144
O O3 0.000000 0.500000 0.601175
O O4 0.090062 0.865475 0.608125
O O5 0.412713 0.142741 0.679192
O O6 0.910159 0.631194 0.761362
O O7 0.911151 0.362233 0.833141
O O8 0.250000 0.918907 0.472573
O O9 0.430136 0.714793 0.424251
O O10 0.500000 0.000000 0.484006
O O11 0.750000 0.571827 0.253623
O O12 0.000000 0.500000 0.265402
O O13 0.500000 0.500000 0.348710
O O14 0.750000 0.415437 0.361212
#
# Coordination Sequence:
#
# PCOD8193067 Si02
#       6
#     8   4   4   8   8   8
#     4  11  24  42  69 101 134 175 217 265 325 389
#     4  10  24  45  68  92 132 171 220 270 324 384
#     4  12  24  43  70  96 130 169 222 274 330 388
#     4  10  21  41  66  98 136 172 213 263 322 387
#     4  10  25  45  66  93 127 170 216 274 330 383
#     4  11  25  43  67  98 134 174 217 267 326 391
#
# _framework density 21.657461999999999
#
# number of rings (size 3 to 8) (size 9 to 14) (size 15 to 20)
#    0.600    0.800    2.000    2.400    1.400    8.000 
#    0.000    0.000    0.000    0.000    0.000    0.000 
#    0.000    0.000    0.000    0.000    0.000    0.000 
#
# Total GULP energy -247961.960699 kJ/mol
# GULP energy per Si atom -12398.098035 kJ/mol
# Density = 2.160817 g / cm^3
# Si number density = 21.657462 Si / 1000 Ang^3
#
#
#
# Elastic Constant Matrix: (Units=GPa)
#
#
# Indices 1 2 3 4 5 6 
#
# 1 174.3556 65.3965 23.1972 0.0000 0.0000 0.0000
# 2 65.3965 106.7420 42.4378 0.0000 0.0000 0.0000
# 3 23.1972 42.4378 120.5454 0.0000 0.0000 0.0000
# 4 0.0000 0.0000 0.0000 34.6972 0.0000 0.0000
# 5 0.0000 0.0000 0.0000 0.0000 112.5258 0.0000
# 6 0.0000 0.0000 0.0000 0.0000 0.0000 39.1851
#
#
#
# Elastic Compliance Matrix: (Units=1/GPa)
#
#
# Indices 1 2 3 4 5 6 
#
# 1 0.007451 -0.004645 0.000201 0.000000 0.000000 0.000000
# 2 -0.004645 0.013789 -0.003960 0.000000 0.000000 0.000000
# 3 0.000201 -0.003960 0.009651 0.000000 0.000000 0.000000
# 4 0.000000 0.000000 0.000000 0.028821 0.000000 0.000000
# 5 0.000000 0.000000 0.000000 0.000000 0.008887 0.000000
# 6 0.000000 0.000000 0.000000 0.000000 0.000000 0.025520
#
#
# Mechanical properties :
#
#
# Convention : Reuss Voigt Hill
#
# Bulk Modulus (GPa) = 71.00851 73.74509 72.37680
# Shear Modulus (GPa) = 43.24506 55.32240 49.28373
#
# Velocity S-wave (km/s) = 4.47338 5.05962 4.77550
# Velocity P-wave (km/s) = 7.71620 8.26181 7.99366
#
# Compressibility (1/GPa) = 0.01408282
#
# Stress axis : x y z
#
# Youngs Moduli (GPa) = 134.21407 72.52330 103.61479
#
# Poissons Ratio (x) = 0.33686 -0.02087
# Poissons Ratio (y) = 0.62341 0.41036
# Poissons Ratio (z) = -0.02703 0.28722
#
# Static dielectric constant tensor:
#      x y z
#    x 3.842590 0.000000 0.000000 
#    y 0.000000 3.512220 0.000000 
#    z 0.000000 0.000000 4.052510 
# 
# 
# High freq. dielectric constant tensor:
#      x y z
#    x 1.852270 0.000000 0.000000 
#    y 0.000000 1.828330 0.000000 
#    z 0.000000 0.000000 1.873720 
# 
# From -- ./inp_files/24460.got.cif
#   From: 2010.03.12/outbox.cif.g09.slc.cpg/sg46_13_cif.got.tgz:24460.got - 2010.04.14 02:56:35.
