data_PCOD8193089
_publ_section_title
;
Structure prediction by ZEFSAII (Michael W. Deem and Ramdas Pophale) SiO2 
 PCOD8193089
Probable space group: I M A 2
;
_chemical_formula_sum "Si O2"
_cell_formula_units_Z 40
_cell_length_a 17.796302
_cell_length_b 12.740479
_cell_length_c 8.993986
_cell_angle_alpha 90.000000
_cell_angle_beta 90.000000
_cell_angle_gamma 90.000000
_cell_volume 2039.237132
_symmetry_space_group_name_H-M "I M A 2"
_symmetry_group_IT_number 46
_symmetry_cell_setting 'orthorhombic'
loop_
_space_group_symop_operation_xyz
x,y,z
-x,-y,z
1/2-x,y,z
1/2+x,-y,z
1/2+x,1/2+y,1/2+z
1/2-x,1/2-y,1/2+z
-x,1/2+y,1/2+z
x,1/2-y,1/2+z
loop_
_atom_site_type_symbol
_atom_site_label
_atom_site_fract_x
_atom_site_fract_y
_atom_site_fract_z
Si Si1 0.122636 0.366624 0.460980
Si Si2 0.500000 0.500000 0.628191
Si Si3 0.862684 0.051231 0.294664
Si Si4 0.250000 0.876162 0.527659
Si Si5 0.750000 0.005184 0.820566
Si Si6 0.250000 0.641148 0.576368
Si Si7 0.666113 0.685111 0.779991
O O1 0.047019 0.423316 0.519929
O O2 0.174724 0.445018 0.367298
O O3 0.163789 0.316249 0.602149
O O4 0.106685 0.268216 0.350286
O O5 0.449096 0.568329 0.744559
O O6 0.826757 0.119046 0.428693
O O7 0.821194 0.081102 0.143015
O O8 0.851133 0.930621 0.341142
O O9 0.250000 0.764665 0.609917
O O10 0.250000 0.971128 0.644983
O O11 0.750000 0.119087 0.900551
O O12 0.750000 0.720068 0.828072
#
# Coordination Sequence:
#
# PCOD8193089 Si02
#       7
#     8   4   8   4   4   4   8
#     4  11  23  37  67  95 134 171 210 271 334 400
#     4  10  22  46  62  88 144 184 200 260 356 402
#     4  10  21  43  65  90 137 171 215 278 331 392
#     4  11  25  36  70 101 118 174 240 282 310 391
#     4  12  20  38  64  99 126 163 221 288 319 366
#     4  11  19  44  64  88 126 179 227 270 329 379
#     4  11  18  36  64  95 122 166 217 273 329 370
#
# _framework density 19.615179999999999
#
# number of rings (size 3 to 8) (size 9 to 14) (size 15 to 20)
#    0.000    1.200    8.000    1.200    2.800    0.000 
#    7.200    1.000    0.000    0.000    0.000    0.000 
#    0.000    0.000    0.000    0.000    0.000    0.000 
#
# Total GULP energy -247764.978356 kJ/mol
# GULP energy per Si atom -12388.248918 kJ/mol
# Density = 1.957053 g / cm^3
# Si number density = 19.615180 Si / 1000 Ang^3
#
#
#
# Elastic Constant Matrix: (Units=GPa)
#
#
# Indices 1 2 3 4 5 6 
#
# 1 129.8990 41.7985 32.5119 0.0000 0.0000 0.0000
# 2 41.7985 114.4344 36.2366 0.0000 0.0000 0.0000
# 3 32.5119 36.2366 63.3640 0.0000 0.0000 0.0000
# 4 0.0000 0.0000 0.0000 41.1829 0.0000 0.0000
# 5 0.0000 0.0000 0.0000 0.0000 52.0671 0.0000
# 6 0.0000 0.0000 0.0000 0.0000 0.0000 18.6238
#
#
#
# Elastic Compliance Matrix: (Units=1/GPa)
#
#
# Indices 1 2 3 4 5 6 
#
# 1 0.009305 -0.002304 -0.003457 0.000000 0.000000 0.000000
# 2 -0.002304 0.011242 -0.005247 0.000000 0.000000 0.000000
# 3 -0.003457 -0.005247 0.020556 0.000000 0.000000 0.000000
# 4 0.000000 0.000000 0.000000 0.024282 0.000000 0.000000
# 5 0.000000 0.000000 0.000000 0.000000 0.019206 0.000000
# 6 0.000000 0.000000 0.000000 0.000000 0.000000 0.053695
#
#
# Mechanical properties :
#
#
# Convention : Reuss Voigt Hill
#
# Bulk Modulus (GPa) = 52.39001 58.75459 55.57230
# Shear Modulus (GPa) = 30.00079 35.51811 32.75945
#
# Velocity S-wave (km/s) = 3.91508 4.25990 4.09113
# Velocity P-wave (km/s) = 6.87052 7.36304 7.12104
#
# Compressibility (1/GPa) = 0.01908761
#
# Stress axis : x y z
#
# Youngs Moduli (GPa) = 107.47092 88.95502 48.64794
#
# Poissons Ratio (x) = 0.20496 0.16816
# Poissons Ratio (y) = 0.24763 0.25524
# Poissons Ratio (z) = 0.37148 0.46671
#
# Static dielectric constant tensor:
#      x y z
#    x 3.481280 0.000000 0.000000 
#    y 0.000000 3.513510 0.000000 
#    z 0.000000 0.000000 3.528080 
# 
# 
# High freq. dielectric constant tensor:
#      x y z
#    x 1.742210 0.000000 0.000000 
#    y 0.000000 1.765430 0.000000 
#    z 0.000000 0.000000 1.764980 
# 
# From -- ./inp_files/6424.got.cif
#   From: 2010.03.12/outbox.cif.g09.slc.cpg/sg46_4_cif.got.tgz:6424.got - 2010.04.14 02:56:35.
