data_PCOD8193419
_publ_section_title
;
Structure prediction by ZEFSAII (Michael W. Deem and Ramdas Pophale) SiO2 
 PCOD8193419
Probable space group: I M A 2
;
_chemical_formula_sum "Si O2"
_cell_formula_units_Z 48
_cell_length_a 14.790201
_cell_length_b 4.893956
_cell_length_c 28.060360
_cell_angle_alpha 90.000000
_cell_angle_beta 90.000000
_cell_angle_gamma 90.000000
_cell_volume 2031.081615
_symmetry_space_group_name_H-M "I M A 2"
_symmetry_group_IT_number 46
_symmetry_cell_setting 'orthorhombic'
loop_
_space_group_symop_operation_xyz
x,y,z
-x,-y,z
1/2-x,y,z
1/2+x,-y,z
1/2+x,1/2+y,1/2+z
1/2-x,1/2-y,1/2+z
-x,1/2+y,1/2+z
x,1/2-y,1/2+z
loop_
_atom_site_type_symbol
_atom_site_label
_atom_site_fract_x
_atom_site_fract_y
_atom_site_fract_z
Si Si1 0.560752 0.724600 0.253170
Si Si2 0.594741 0.403981 0.941704
Si Si3 0.648053 0.021728 0.662318
Si Si4 0.750000 0.255832 0.370814
Si Si5 0.750000 0.725819 0.807295
Si Si6 0.349528 0.428656 0.495935
Si Si7 0.895809 0.534268 0.601695
O O1 0.500000 0.500000 0.281675
O O2 0.578475 0.580714 0.202150
O O3 0.657891 0.752442 0.277415
O O4 0.500000 0.000000 0.248161
O O5 0.500000 0.500000 0.918926
O O6 0.660850 0.336760 0.898569
O O7 0.630188 0.618637 0.981078
O O8 0.578166 0.126479 0.971010
O O9 0.750000 0.994053 0.681834
O O10 0.629719 0.839482 0.616293
O O11 0.634239 0.332477 0.644412
O O12 0.750000 0.572672 0.353646
O O13 0.750000 0.087552 0.322315
O O14 0.250000 0.503246 0.475113
O O15 0.344976 0.494605 0.551801
O O16 0.000000 0.500000 0.590681
#
# Coordination Sequence:
#
# PCOD8193419 Si02
#       7
#     8   8   8   4   4   8   8
#     4  12  26  48  77 107 146 192 240 298 368 441
#     4  12  25  45  72 103 138 187 235 288 360 431
#     4  12  24  44  67 101 141 191 240 292 354 420
#     4  12  26  48  76 103 144 179 228 308 364 438
#     4  12  28  50  76 109 144 181 238 304 372 446
#     4  12  23  44  67  99 143 190 237 290 351 418
#     4  12  25  40  64 101 142 189 244 292 344 416
#
# _framework density 23.632729999999999
#
# number of rings (size 3 to 8) (size 9 to 14) (size 15 to 20)
#    0.000    0.000    2.500    9.000    0.000    2.000 
#    0.000    0.000    0.000    0.000    0.000    0.000 
#    0.000    0.000    0.000    0.000    0.000    0.000 
#
# Total GULP energy -297498.399763 kJ/mol
# GULP energy per Si atom -12395.766657 kJ/mol
# Density = 2.357894 g / cm^3
# Si number density = 23.632730 Si / 1000 Ang^3
#
#
#
# Elastic Constant Matrix: (Units=GPa)
#
#
# Indices 1 2 3 4 5 6 
#
# 1 156.3331 18.9457 29.6734 0.0000 0.0000 0.0000
# 2 18.9457 98.2371 16.4676 0.0000 0.0000 0.0000
# 3 29.6734 16.4676 85.7749 0.0000 0.0000 0.0000
# 4 0.0000 0.0000 0.0000 42.6739 0.0000 0.0000
# 5 0.0000 0.0000 0.0000 0.0000 -6.2576 0.0000
# 6 0.0000 0.0000 0.0000 0.0000 0.0000 27.8966
#
#
#
# Elastic Compliance Matrix: (Units=1/GPa)
#
#
# Indices 1 2 3 4 5 6 
#
# 1 0.006934 -0.000966 -0.002213 0.000000 0.000000 0.000000
# 2 -0.000966 0.010653 -0.001711 0.000000 0.000000 0.000000
# 3 -0.002213 -0.001711 0.012753 0.000000 0.000000 0.000000
# 4 0.000000 0.000000 0.000000 0.023434 0.000000 0.000000
# 5 0.000000 0.000000 0.000000 0.000000 -0.159805 0.000000
# 6 0.000000 0.000000 0.000000 0.000000 0.000000 0.035847
#
#
# Mechanical properties :
#
#
# Convention : Reuss Voigt Hill
#
# Bulk Modulus (GPa) = 48.64220 52.27981 50.46100
# Shear Modulus (GPa) = -93.36633 31.21315 -31.07659
#
# Velocity S-wave (km/s) = -6.29230 3.63817 -3.63020
# Velocity P-wave (km/s) = 5.67128 6.31016 1.95637
#
# Compressibility (1/GPa) = 0.02055828
#
# Stress axis : x y z
#
# Youngs Moduli (GPa) = 144.22151 93.87381 78.41582
#
# Poissons Ratio (x) = 0.09070 0.17355
# Poissons Ratio (y) = 0.13935 0.13416
# Poissons Ratio (z) = 0.31919 0.16061
#
# Static dielectric constant tensor:
#      x y z
#    x 5.169120 0.000000 0.000000 
#    y 0.000000 4.470570 0.000000 
#    z 0.000000 0.000000 3.973010 
# 
# 
# High freq. dielectric constant tensor:
#      x y z
#    x 1.962840 0.000000 0.000000 
#    y 0.000000 1.951300 0.000000 
#    z 0.000000 0.000000 1.922560 
# 
# From -- ./inp_files/24615.got.cif
#   From: 2010.03.12/outbox.cif.g09.slc.cpg/sg46_13_cif.got.tgz:24615.got - 2010.04.14 02:56:35.
