data_PCOD8193959
_publ_section_title
;
Structure prediction by ZEFSAII (Michael W. Deem and Ramdas Pophale) SiO2 
 PCOD8193959
Probable space group: P M M M
;
_chemical_formula_sum "Si O2"
_cell_formula_units_Z 56
_cell_length_a 14.308495
_cell_length_b 9.229193
_cell_length_c 23.898355
_cell_angle_alpha 90.000000
_cell_angle_beta 90.000000
_cell_angle_gamma 90.000000
_cell_volume 3155.917867
_symmetry_space_group_name_H-M "P M M M"
_symmetry_group_IT_number 47
_symmetry_cell_setting 'orthorhombic'
loop_
_space_group_symop_operation_xyz
x,y,z
-x,-y,z
x,-y,-z
-x,y,-z
-x,-y,-z
x,y,-z
-x,y,z
x,-y,z
loop_
_atom_site_type_symbol
_atom_site_label
_atom_site_fract_x
_atom_site_fract_y
_atom_site_fract_z
Si Si1 0.608598 0.331772 0.124099
Si Si2 0.389658 0.834746 0.234598
Si Si3 0.104961 0.667924 0.729359
Si Si4 0.286991 0.669325 0.668458
Si Si5 0.106365 0.830681 0.160231
Si Si6 0.395293 0.328257 0.438285
Si Si7 0.243845 0.832626 0.063000
O O1 0.500000 0.305196 0.112431
O O2 0.631841 0.500000 0.131492
O O3 0.643881 0.248721 0.179310
O O4 0.664169 0.264768 0.071884
O O5 0.500000 0.825479 0.240860
O O6 0.346484 0.759323 0.287994
O O7 0.354699 0.000000 0.230185
O O8 0.104623 0.500000 0.745199
O O9 0.176205 0.698531 0.677962
O O10 0.142822 0.751741 0.783881
O O11 0.000000 0.719251 0.712214
O O12 0.310738 0.500000 0.676393
O O13 0.318459 0.724577 0.606925
O O14 0.164108 0.780814 0.106003
O O15 0.000000 0.785241 0.148348
O O16 0.116580 0.000000 0.171257
O O17 0.368035 0.267628 0.500000
O O18 0.500000 0.274036 0.421967
O O19 0.395686 0.500000 0.440442
O O20 0.270405 0.000000 0.072815
O O21 0.206879 0.807733 0.000000
#
# Coordination Sequence:
#
# PCOD8193959 Si02
#       7
#     8   8   8   8   8   8   8
#     4  10  21  36  52  69  92 124 160 196 233 276
#     4  10  20  32  47  70  99 125 149 186 239 291
#     4   9  18  31  46  67  95 123 151 189 239 286
#     4  10  18  28  47  71  94 125 163 199 233 275
#     4   9  18  33  52  72  94 121 153 189 231 282
#     4   8  14  25  42  66  95 125 160 202 240 273
#     4  10  21  35  51  72  96 122 153 191 236 283
#
# _framework density 17.744440999999998
#
# number of rings (size 3 to 8) (size 9 to 14) (size 15 to 20)
#    0.000    2.571    0.000    2.571    0.000    6.571 
#    0.000    2.857    0.000    0.857    0.000    8.000 
#    0.000    0.000    0.000    4.857    0.000    5.286 
#
# Total GULP energy -694307.581187 kJ/mol
# GULP energy per Si atom -12398.349664 kJ/mol
# Density = 1.770405 g / cm^3
# Si number density = 17.744441 Si / 1000 Ang^3
#
#
#
# Elastic Constant Matrix: (Units=GPa)
#
#
# Indices 1 2 3 4 5 6 
#
# 1 80.5579 34.3646 77.4362 0.0000 0.0000 0.0000
# 2 34.3646 52.8013 35.0764 0.0000 0.0000 0.0000
# 3 77.4362 35.0764 129.7681 0.0000 0.0000 0.0000
# 4 0.0000 0.0000 0.0000 7.2993 0.0000 0.0000
# 5 0.0000 0.0000 0.0000 0.0000 29.1724 0.0000
# 6 0.0000 0.0000 0.0000 0.0000 0.0000 21.8297
#
#
#
# Elastic Compliance Matrix: (Units=1/GPa)
#
#
# Indices 1 2 3 4 5 6 
#
# 1 0.033130 -0.010274 -0.016993 0.000000 0.000000 0.000000
# 2 -0.010274 0.026270 -0.000970 0.000000 0.000000 0.000000
# 3 -0.016993 -0.000970 0.018108 0.000000 0.000000 0.000000
# 4 0.000000 0.000000 0.000000 0.136999 0.000000 0.000000
# 5 0.000000 0.000000 0.000000 0.000000 0.034279 0.000000
# 6 0.000000 0.000000 0.000000 0.000000 0.000000 0.045809
#
#
# Mechanical properties :
#
#
# Convention : Reuss Voigt Hill
#
# Bulk Modulus (GPa) = 47.53930 61.87575 54.70753
# Shear Modulus (GPa) = 13.96333 19.41029 16.68681
#
# Velocity S-wave (km/s) = 2.80824 3.31097 3.06992
# Velocity P-wave (km/s) = 6.11263 7.04009 6.59269
#
# Compressibility (1/GPa) = 0.02103523
#
# Stress axis : x y z
#
# Youngs Moduli (GPa) = 30.18382 38.06643 55.22311
#
# Poissons Ratio (x) = 0.39108 0.93839
# Poissons Ratio (y) = 0.31010 0.05357
# Poissons Ratio (z) = 0.51291 0.03693
#
# Static dielectric constant tensor:
#      x y z
#    x 3.466410 0.000000 0.000000 
#    y 0.000000 3.176210 0.000000 
#    z 0.000000 0.000000 3.441780 
# 
# 
# High freq. dielectric constant tensor:
#      x y z
#    x 1.687630 0.000000 0.000000 
#    y 0.000000 1.671170 0.000000 
#    z 0.000000 0.000000 1.674060 
# 
# From -- ./inp_files/11223.got.cif
#   From: 2010.03.12/outbox.cif.g09.slc.cpg/sg47_6_cif.got.tgz:11223.got - 2010.04.14 03:12:58.
