data_PCOD8193969
_publ_section_title
;
Structure prediction by ZEFSAII (Michael W. Deem and Ramdas Pophale) SiO2 
 PCOD8193969
Probable space group: P M M M
;
_chemical_formula_sum "Si O2"
_cell_formula_units_Z 52
_cell_length_a 9.127718
_cell_length_b 23.707477
_cell_length_c 14.064702
_cell_angle_alpha 90.000000
_cell_angle_beta 90.000000
_cell_angle_gamma 90.000000
_cell_volume 3043.533504
_symmetry_space_group_name_H-M "P M M M"
_symmetry_group_IT_number 47
_symmetry_cell_setting 'orthorhombic'
loop_
_space_group_symop_operation_xyz
x,y,z
-x,-y,z
x,-y,-z
-x,y,-z
-x,-y,-z
x,y,-z
-x,y,z
x,-y,z
loop_
_atom_site_type_symbol
_atom_site_label
_atom_site_fract_x
_atom_site_fract_y
_atom_site_fract_z
Si Si1 0.672164 0.936158 0.313330
Si Si2 0.836063 0.254451 0.892124
Si Si3 0.163438 0.164615 0.257723
Si Si4 0.325985 0.563195 0.106203
Si Si5 0.838614 0.066377 0.500000
Si Si6 0.826979 0.267689 0.389820
Si Si7 0.327304 0.663034 0.763037
O O1 0.500000 0.933273 0.326032
O O2 0.730477 0.889355 0.240490
O O3 0.747818 0.914260 0.409398
O O4 0.719885 0.000000 0.285104
O O5 0.836845 0.193158 0.844913
O O6 0.712755 0.291605 0.842718
O O7 0.000000 0.281142 0.881441
O O8 0.789319 0.246654 0.000000
O O9 0.219703 0.209232 0.338187
O O10 0.000000 0.143724 0.285063
O O11 0.500000 0.564688 0.104157
O O12 0.269490 0.500000 0.128545
O O13 0.270841 0.603685 0.191790
O O14 0.269606 0.581755 0.000000
O O15 0.000000 0.094899 0.500000
O O16 0.854975 0.000000 0.500000
O O17 0.777105 0.266209 0.500000
O O18 0.751715 0.321103 0.336530
O O19 0.000000 0.276183 0.379818
O O20 0.500000 0.662851 0.744473
#
# Coordination Sequence:
#
# PCOD8193969 Si02
#       7
#     8   8   8   8   4   8   8
#     4  10  20  32  45  65  94 122 148 184 233 283
#     4   9  18  33  51  70  95 126 156 190 235 283
#     4   9  18  31  49  71  90 116 156 194 229 274
#     4   8  14  25  42  67 100 133 160 190 233 281
#     4   9  17  29  45  63  83 113 151 183 214 261
#     4   9  19  35  51  67  92 127 161 195 237 282
#     4  10  18  28  47  75 100 123 158 199 238 281
#
# _framework density 17.085405000000002
#
# number of rings (size 3 to 8) (size 9 to 14) (size 15 to 20)
#    0.000    2.846    0.000    3.000    1.077    5.538 
#    0.000    0.000    0.000    2.769    0.000   11.846 
#    0.000    0.000    0.000    0.000    0.000    0.000 
#
# Total GULP energy -644335.117320 kJ/mol
# GULP energy per Si atom -12391.059948 kJ/mol
# Density = 1.704652 g / cm^3
# Si number density = 17.085405 Si / 1000 Ang^3
#
#
#
# Elastic Constant Matrix: (Units=GPa)
#
#
# Indices 1 2 3 4 5 6 
#
# 1 49.5362 33.2719 20.4849 0.0000 0.0000 0.0000
# 2 33.2719 92.7215 37.6738 0.0000 0.0000 0.0000
# 3 20.4849 37.6738 102.9579 0.0000 0.0000 0.0000
# 4 0.0000 0.0000 0.0000 20.2080 0.0000 0.0000
# 5 0.0000 0.0000 0.0000 0.0000 23.2085 0.0000
# 6 0.0000 0.0000 0.0000 0.0000 0.0000 16.8104
#
#
#
# Elastic Compliance Matrix: (Units=1/GPa)
#
#
# Indices 1 2 3 4 5 6 
#
# 1 0.026995 -0.008815 -0.002145 0.000000 0.000000 0.000000
# 2 -0.008815 0.015547 -0.003935 0.000000 0.000000 0.000000
# 3 -0.002145 -0.003935 0.011579 0.000000 0.000000 0.000000
# 4 0.000000 0.000000 0.000000 0.049485 0.000000 0.000000
# 5 0.000000 0.000000 0.000000 0.000000 0.043088 0.000000
# 6 0.000000 0.000000 0.000000 0.000000 0.000000 0.059487
#
#
# Mechanical properties :
#
#
# Convention : Reuss Voigt Hill
#
# Bulk Modulus (GPa) = 41.10063 47.56407 44.33235
# Shear Modulus (GPa) = 20.48480 22.29771 21.39125
#
# Velocity S-wave (km/s) = 3.46636 3.61650 3.54223
# Velocity P-wave (km/s) = 6.33475 6.73336 6.53710
#
# Compressibility (1/GPa) = 0.02433053
#
# Stress axis : x y z
#
# Youngs Moduli (GPa) = 37.04341 64.32098 86.35985
#
# Poissons Ratio (x) = 0.56700 0.18528
# Poissons Ratio (y) = 0.32654 0.33983
# Poissons Ratio (z) = 0.07948 0.25310
#
# Static dielectric constant tensor:
#      x y z
#    x 3.086670 0.000000 0.000000 
#    y 0.000000 3.276040 0.000000 
#    z 0.000000 0.000000 3.250780 
# 
# 
# High freq. dielectric constant tensor:
#      x y z
#    x 1.648030 0.000000 0.000000 
#    y 0.000000 1.648930 0.000000 
#    z 0.000000 0.000000 1.643450 
# 
# From -- ./inp_files/21762.got.cif
#   From: 2010.03.12/outbox.cif.g09.slc.cpg/sg47_11_cif.got.tgz:21762.got - 2010.04.14 03:12:58.
