data_PCOD8193381
_publ_section_title
;
Structure prediction by ZEFSAII (Michael W. Deem and Ramdas Pophale) SiO2 
 PCOD8193381
Probable space group: I M A 2
;
_chemical_formula_sum "Si O2"
_cell_formula_units_Z 28
_cell_length_a 13.227400
_cell_length_b 11.032965
_cell_length_c 8.549307
_cell_angle_alpha 90.000000
_cell_angle_beta 90.000000
_cell_angle_gamma 90.000000
_cell_volume 1247.663988
_symmetry_space_group_name_H-M "I M A 2"
_symmetry_group_IT_number 46
_symmetry_cell_setting 'orthorhombic'
loop_
_space_group_symop_operation_xyz
x,y,z
-x,-y,z
1/2-x,y,z
1/2+x,-y,z
1/2+x,1/2+y,1/2+z
1/2-x,1/2-y,1/2+z
-x,1/2+y,1/2+z
x,1/2-y,1/2+z
loop_
_atom_site_type_symbol
_atom_site_label
_atom_site_fract_x
_atom_site_fract_y
_atom_site_fract_z
Si Si1 0.865439 0.397465 0.350060
Si Si2 0.500000 0.000000 0.304322
Si Si3 0.539354 0.200041 0.540146
Si Si4 0.867483 0.623138 0.552551
O O1 0.750000 0.382204 0.297414
O O2 0.887405 0.313488 0.501924
O O3 0.937284 0.357153 0.208582
O O4 0.886827 0.536430 0.401605
O O5 0.444301 0.900893 0.409772
O O6 0.589612 0.942350 0.204998
O O7 0.423859 0.248500 0.532366
O O8 0.750000 0.650473 0.577143
#
# Coordination Sequence:
#
# PCOD8193381 Si02
#       4
#     8   4   8   8
#     4  11  23  43  74 101 135 184 234 286 349 415
#     4  12  26  42  70 100 142 182 234 284 342 416
#     4  12  24  44  69 103 139 181 231 289 344 414
#     4  11  25  48  72 100 140 185 231 291 353 410
#
# _framework density 22.441939999999999
#
# number of rings (size 3 to 8) (size 9 to 14) (size 15 to 20)
#    0.000    0.571    5.714    0.857    4.000    5.714 
#    0.000    0.000    0.000    0.000    0.000    0.000 
#    0.000    0.000    0.000    0.000    0.000    0.000 
#
# Total GULP energy -173646.297104 kJ/mol
# GULP energy per Si atom -12403.306936 kJ/mol
# Density = 2.239086 g / cm^3
# Si number density = 22.441940 Si / 1000 Ang^3
#
#
#
# Elastic Constant Matrix: (Units=GPa)
#
#
# Indices 1 2 3 4 5 6 
#
# 1 117.7039 29.7031 41.9242 0.0000 0.0000 0.0000
# 2 29.7031 64.4157 27.3799 0.0000 0.0000 0.0000
# 3 41.9242 27.3799 107.1924 0.0000 0.0000 0.0000
# 4 0.0000 0.0000 0.0000 40.8622 0.0000 0.0000
# 5 0.0000 0.0000 0.0000 0.0000 22.9979 0.0000
# 6 0.0000 0.0000 0.0000 0.0000 0.0000 35.3080
#
#
#
# Elastic Compliance Matrix: (Units=1/GPa)
#
#
# Indices 1 2 3 4 5 6 
#
# 1 0.010524 -0.003481 -0.003227 0.000000 0.000000 0.000000
# 2 -0.003481 0.018566 -0.003381 0.000000 0.000000 0.000000
# 3 -0.003227 -0.003381 0.011455 0.000000 0.000000 0.000000
# 4 0.000000 0.000000 0.000000 0.024473 0.000000 0.000000
# 5 0.000000 0.000000 0.000000 0.000000 0.043482 0.000000
# 6 0.000000 0.000000 0.000000 0.000000 0.000000 0.028322
#
#
# Mechanical properties :
#
#
# Convention : Reuss Voigt Hill
#
# Bulk Modulus (GPa) = 49.09850 54.14737 51.62293
# Shear Modulus (GPa) = 30.52721 32.52059 31.52390
#
# Velocity S-wave (km/s) = 3.69219 3.81083 3.75198
# Velocity P-wave (km/s) = 6.33260 6.59874 6.46704
#
# Compressibility (1/GPa) = 0.02036722
#
# Stress axis : x y z
#
# Youngs Moduli (GPa) = 95.02370 53.86075 87.30114
#
# Poissons Ratio (x) = 0.18749 0.28170
# Poissons Ratio (y) = 0.33079 0.29515
# Poissons Ratio (z) = 0.30662 0.18210
#
# Static dielectric constant tensor:
#      x y z
#    x 3.974270 0.000000 0.000000 
#    y 0.000000 4.264300 0.000000 
#    z 0.000000 0.000000 4.058010 
# 
# 
# High freq. dielectric constant tensor:
#      x y z
#    x 1.880240 0.000000 0.000000 
#    y 0.000000 1.893760 0.000000 
#    z 0.000000 0.000000 1.888730 
# 
# From -- ./inp_files/5166.got.cif
#   From: 2010.03.12/outbox.cif.g09.slc.cpg/sg46_3_cif.got.tgz:5166.got - 2010.04.14 02:56:35.
