data_PCOD8193664
_publ_section_title
;
Structure prediction by ZEFSAII (Michael W. Deem and Ramdas Pophale) SiO2 
 PCOD8193664
Probable space group: P M M M
;
_chemical_formula_sum "Si O2"
_cell_formula_units_Z 52
_cell_length_a 17.832258
_cell_length_b 14.198271
_cell_length_c 11.733804
_cell_angle_alpha 90.000000
_cell_angle_beta 90.000000
_cell_angle_gamma 90.000000
_cell_volume 2970.849351
_symmetry_space_group_name_H-M "P M M M"
_symmetry_group_IT_number 47
_symmetry_cell_setting 'orthorhombic'
loop_
_space_group_symop_operation_xyz
x,y,z
-x,-y,z
x,-y,-z
-x,y,-z
-x,-y,-z
x,y,-z
-x,y,z
x,-y,z
loop_
_atom_site_type_symbol
_atom_site_label
_atom_site_fract_x
_atom_site_fract_y
_atom_site_fract_z
Si Si1 0.080381 0.305433 0.500000
Si Si2 0.700438 0.601583 0.628910
Si Si3 0.856787 0.393511 0.723501
Si Si4 0.883602 0.899646 0.500000
Si Si5 0.500000 0.894561 0.364827
Si Si6 0.086190 0.768443 0.865679
Si Si7 0.652640 0.197821 0.633231
Si Si8 0.796610 0.894200 0.730544
O O1 0.123310 0.335269 0.388331
O O2 0.065243 0.192721 0.500000
O O3 0.000000 0.355761 0.500000
O O4 0.734171 0.607194 0.500000
O O5 0.658670 0.500000 0.644102
O O6 0.766807 0.605695 0.722251
O O7 0.645111 0.689087 0.648118
O O8 0.889095 0.500000 0.723685
O O9 0.890383 0.337841 0.830975
O O10 0.829616 0.897367 0.606348
O O11 0.929260 0.000000 0.500000
O O12 0.500000 0.894097 0.500000
O O13 0.574584 0.843144 0.320509
O O14 0.500000 0.000000 0.316040
O O15 0.144453 0.842403 0.812936
O O16 0.000000 0.788801 0.825371
O O17 0.091866 0.776764 0.000000
O O18 0.667232 0.170706 0.500000
O O19 0.717593 0.159899 0.717134
O O20 0.782991 0.000000 0.778052
#
# Coordination Sequence:
#
# PCOD8193664 Si02
#       8
#     4   8   8   4   4   8   8   8
#     4  12  21  31  48  75 106 132 164 212 271 332
#     4   9  16  28  49  75 103 136 172 210 257 312
#     4  11  21  35  54  77 104 135 173 219 272 327
#     4  10  20  32  51  79 102 126 167 215 268 318
#     4   9  18  28  43  75 116 152 176 201 247 314
#     4  11  25  42  56  73 101 139 184 231 275 322
#     4  10  17  30  51  78 113 145 174 210 256 316
#     4  11  21  35  57  79 102 138 178 221 270 322
#
# _framework density 17.503412999999998
#
# number of rings (size 3 to 8) (size 9 to 14) (size 15 to 20)
#    0.000    1.615    4.615    1.154    0.000    3.231 
#    0.000    3.462    0.000    2.308    0.000    0.538 
#    0.000    1.846    0.000    3.385    0.000    0.154 
#
# Total GULP energy -644344.028367 kJ/mol
# GULP energy per Si atom -12391.231315 kJ/mol
# Density = 1.746357 g / cm^3
# Si number density = 17.503413 Si / 1000 Ang^3
#
#
#
# Elastic Constant Matrix: (Units=GPa)
#
#
# Indices 1 2 3 4 5 6 
#
# 1 108.6733 64.9391 27.1071 0.0000 0.0000 0.0000
# 2 64.9391 170.1721 31.9397 0.0000 0.0000 0.0000
# 3 27.1071 31.9397 51.1067 0.0000 0.0000 0.0000
# 4 0.0000 0.0000 0.0000 11.3174 0.0000 0.0000
# 5 0.0000 0.0000 0.0000 0.0000 8.3108 0.0000
# 6 0.0000 0.0000 0.0000 0.0000 0.0000 14.3479
#
#
#
# Elastic Compliance Matrix: (Units=1/GPa)
#
#
# Indices 1 2 3 4 5 6 
#
# 1 0.012665 -0.004047 -0.004188 0.000000 0.000000 0.000000
# 2 -0.004047 0.007950 -0.002822 0.000000 0.000000 0.000000
# 3 -0.004188 -0.002822 0.023552 0.000000 0.000000 0.000000
# 4 0.000000 0.000000 0.000000 0.088360 0.000000 0.000000
# 5 0.000000 0.000000 0.000000 0.000000 0.120326 0.000000
# 6 0.000000 0.000000 0.000000 0.000000 0.000000 0.069697
#
#
# Mechanical properties :
#
#
# Convention : Reuss Voigt Hill
#
# Bulk Modulus (GPa) = 45.34615 64.21377 54.77996
# Shear Modulus (GPa) = 14.20393 20.52630 17.36512
#
# Velocity S-wave (km/s) = 2.85177 3.42819 3.15318
# Velocity P-wave (km/s) = 6.06685 7.24127 6.67992
#
# Compressibility (1/GPa) = 0.02205259
#
# Stress axis : x y z
#
# Youngs Moduli (GPa) = 78.95833 125.77909 42.45893
#
# Poissons Ratio (x) = 0.50902 0.17783
# Poissons Ratio (y) = 0.31954 0.11983
# Poissons Ratio (z) = 0.33070 0.35498
#
# Static dielectric constant tensor:
#      x y z
#    x 3.144720 0.000000 0.000000 
#    y 0.000000 3.765690 0.000000 
#    z 0.000000 0.000000 2.367700 
# 
# 
# High freq. dielectric constant tensor:
#      x y z
#    x 1.657290 0.000000 0.000000 
#    y 0.000000 1.701340 0.000000 
#    z 0.000000 0.000000 1.624570 
# 
# From -- ./inp_files/18634.got.cif
#   From: 2010.03.12/outbox.cif.g09.slc.cpg/sg47_10_cif.got.tgz:18634.got - 2010.04.14 03:12:58.
