data_PCOD8193777
_publ_section_title
;
Structure prediction by ZEFSAII (Michael W. Deem and Ramdas Pophale) SiO2 
 PCOD8193777
Probable space group: P M M M
;
_chemical_formula_sum "Si O2"
_cell_formula_units_Z 52
_cell_length_a 12.355182
_cell_length_b 14.596718
_cell_length_c 17.813636
_cell_angle_alpha 90.000000
_cell_angle_beta 90.000000
_cell_angle_gamma 90.000000
_cell_volume 3212.602099
_symmetry_space_group_name_H-M "P M M M"
_symmetry_group_IT_number 47
_symmetry_cell_setting 'orthorhombic'
loop_
_space_group_symop_operation_xyz
x,y,z
-x,-y,z
x,-y,-z
-x,y,-z
-x,-y,-z
x,y,-z
-x,y,z
x,-y,z
loop_
_atom_site_type_symbol
_atom_site_label
_atom_site_fract_x
_atom_site_fract_y
_atom_site_fract_z
Si Si1 0.625576 0.297515 0.235185
Si Si2 0.621592 0.099816 0.804430
Si Si3 0.000000 0.775640 0.911150
Si Si4 0.627753 0.396857 0.916682
Si Si5 0.810289 0.897470 0.085089
Si Si6 0.820182 0.605435 0.303553
Si Si7 0.000000 0.390569 0.415139
Si Si8 0.000000 0.397691 0.181534
O O1 0.500000 0.326502 0.249917
O O2 0.640425 0.188088 0.248367
O O3 0.662668 0.328397 0.150673
O O4 0.705365 0.343026 0.295902
O O5 0.500000 0.103372 0.835565
O O6 0.695265 0.110605 0.876430
O O7 0.643054 0.000000 0.764062
O O8 0.895226 0.827289 0.877469
O O9 0.000000 0.670081 0.888596
O O10 0.000000 0.785475 0.000000
O O11 0.500000 0.398995 0.921279
O O12 0.670451 0.500000 0.898255
O O13 0.672346 0.366239 0.000000
O O14 0.858275 0.000000 0.092237
O O15 0.789061 0.869820 0.000000
O O16 0.791733 0.500000 0.317041
O O17 0.892512 0.619095 0.229758
O O18 0.890585 0.644524 0.373726
O O19 0.000000 0.500000 0.410217
O O20 0.000000 0.353599 0.500000
O O21 0.000000 0.500000 0.148469
#
# Coordination Sequence:
#
# PCOD8193777 Si02
#       8
#     8   8   4   8   8   8   4   4
#     4  10  18  27  42  63  88 117 147 183 227 267
#     4   9  18  30  41  55  78 109 144 181 219 260
#     4  10  18  28  43  58  75 103 138 178 224 269
#     4   8  14  24  36  51  74 106 145 185 220 255
#     4   9  17  28  41  56  72  93 129 179 232 279
#     4   9  17  29  46  68  91 114 143 175 205 246
#     4   8  15  30  52  74  95 121 148 171 197 238
#     4   9  18  31  43  56  78 108 143 181 211 239
#
# _framework density 16.186256
#
# number of rings (size 3 to 8) (size 9 to 14) (size 15 to 20)
#    0.000    3.000    0.000    3.000    0.000    2.923 
#    0.000    3.846    0.000    1.385    0.000    2.154 
#    0.000    1.231    0.000    3.846    0.000    0.308 
#
# Total GULP energy -644235.315845 kJ/mol
# GULP energy per Si atom -12389.140689 kJ/mol
# Density = 1.614942 g / cm^3
# Si number density = 16.186256 Si / 1000 Ang^3
#
#
#
# Elastic Constant Matrix: (Units=GPa)
#
#
# Indices 1 2 3 4 5 6 
#
# 1 92.5262 45.5544 36.1765 0.0000 0.0000 0.0000
# 2 45.5544 95.0440 28.9792 0.0000 0.0000 0.0000
# 3 36.1765 28.9792 53.5188 0.0000 0.0000 0.0000
# 4 0.0000 0.0000 0.0000 7.8439 0.0000 0.0000
# 5 0.0000 0.0000 0.0000 0.0000 13.4430 0.0000
# 6 0.0000 0.0000 0.0000 0.0000 0.0000 21.8307
#
#
#
# Elastic Compliance Matrix: (Units=1/GPa)
#
#
# Indices 1 2 3 4 5 6 
#
# 1 0.016785 -0.005492 -0.008372 0.000000 0.000000 0.000000
# 2 -0.005492 0.014399 -0.004084 0.000000 0.000000 0.000000
# 3 -0.008372 -0.004084 0.026556 0.000000 0.000000 0.000000
# 4 0.000000 0.000000 0.000000 0.127487 0.000000 0.000000
# 5 0.000000 0.000000 0.000000 0.000000 0.074388 0.000000
# 6 0.000000 0.000000 0.000000 0.000000 0.000000 0.045807
#
#
# Mechanical properties :
#
#
# Convention : Reuss Voigt Hill
#
# Bulk Modulus (GPa) = 45.78183 51.38991 48.58587
# Shear Modulus (GPa) = 14.34304 17.31545 15.82924
#
# Velocity S-wave (km/s) = 2.98001 3.27427 3.13060
# Velocity P-wave (km/s) = 6.33928 6.79062 6.56883
#
# Compressibility (1/GPa) = 0.02184272
#
# Stress axis : x y z
#
# Youngs Moduli (GPa) = 59.57587 69.44795 37.65664
#
# Poissons Ratio (x) = 0.38144 0.31527
# Poissons Ratio (y) = 0.32722 0.15380
# Poissons Ratio (z) = 0.49878 0.28364
#
# Static dielectric constant tensor:
#      x y z
#    x 3.107350 0.000000 0.000000 
#    y 0.000000 3.239620 0.000000 
#    z 0.000000 0.000000 2.671570 
# 
# 
# High freq. dielectric constant tensor:
#      x y z
#    x 1.627650 0.000000 0.000000 
#    y 0.000000 1.622420 0.000000 
#    z 0.000000 0.000000 1.554830 
# 
# From -- ./inp_files/27561.got.cif
#   From: 2010.03.12/outbox.cif.g09.slc.cpg/sg47_14_cif.got.tgz:27561.got - 2010.04.14 03:12:58.
