data_PCOD8193588
_publ_section_title
;
Structure prediction by ZEFSAII (Michael W. Deem and Ramdas Pophale) SiO2 
 PCOD8193588
Probable space group: P M M M
;
_chemical_formula_sum "Si O2"
_cell_formula_units_Z 64
_cell_length_a 14.998559
_cell_length_b 18.154511
_cell_length_c 12.825216
_cell_angle_alpha 90.000000
_cell_angle_beta 90.000000
_cell_angle_gamma 90.000000
_cell_volume 3492.197358
_symmetry_space_group_name_H-M "P M M M"
_symmetry_group_IT_number 47
_symmetry_cell_setting 'orthorhombic'
loop_
_space_group_symop_operation_xyz
x,y,z
-x,-y,z
x,-y,-z
-x,y,-z
-x,-y,-z
x,y,-z
-x,y,z
x,-y,z
loop_
_atom_site_type_symbol
_atom_site_label
_atom_site_fract_x
_atom_site_fract_y
_atom_site_fract_z
Si Si1 0.138097 0.624744 0.114944
Si Si2 0.096701 0.580420 0.333128
Si Si3 0.403989 0.725099 0.879843
Si Si4 0.732552 0.188350 0.743578
Si Si5 0.327747 0.585512 0.805812
Si Si6 0.895809 0.202805 0.880565
Si Si7 0.258002 0.669827 0.615410
Si Si8 0.601544 0.913223 0.380300
O O1 0.083267 0.588255 0.208045
O O2 0.239378 0.598447 0.126656
O O3 0.129678 0.712027 0.126773
O O4 0.103061 0.600760 0.000000
O O5 0.139252 0.500000 0.355212
O O6 0.156360 0.642331 0.385307
O O7 0.000000 0.586210 0.385250
O O8 0.500000 0.753284 0.838648
O O9 0.324877 0.769840 0.829245
O O10 0.401871 0.637025 0.858260
O O11 0.394513 0.741078 0.000000
O O12 0.826105 0.162664 0.799766
O O13 0.748054 0.245785 0.650558
O O14 0.675965 0.120846 0.696632
O O15 0.356761 0.500000 0.805369
O O16 0.315004 0.615200 0.687833
O O17 0.000000 0.189933 0.847516
O O18 0.882323 0.174641 0.000000
O O19 0.299568 0.666835 0.500000
O O20 0.621747 0.890688 0.500000
O O21 0.500000 0.887925 0.351632
O O22 0.609365 0.000000 0.366442
#
# Coordination Sequence:
#
# PCOD8193588 Si02
#       8
#     8   8   8   8   8   8   8   8
#     4  10  17  28  45  64  90 125 166 215 271 321
#     4  10  20  31  41  59  90 127 170 222 277 327
#     4  10  20  33  50  75 105 137 173 216 269 327
#     4  11  19  33  57  83 109 140 178 216 265 318
#     4  10  20  32  46  65  92 129 175 225 274 328
#     4  10  19  31  51  77 106 143 184 226 272 319
#     4  10  20  32  47  66  90 124 170 218 268 321
#     4   9  19  37  62  93 124 148 173 209 256 315
#
# _framework density 18.32657
#
# number of rings (size 3 to 8) (size 9 to 14) (size 15 to 20)
#    0.000    2.000    3.750    3.750    0.000    4.000 
#    0.000    1.875    0.000    6.375    0.000    9.625 
#    0.000    0.000    0.000    0.000    0.000    0.000 
#
# Total GULP energy -792909.095069 kJ/mol
# GULP energy per Si atom -12389.204610 kJ/mol
# Density = 1.828486 g / cm^3
# Si number density = 18.326570 Si / 1000 Ang^3
#
#
#
# Elastic Constant Matrix: (Units=GPa)
#
#
# Indices 1 2 3 4 5 6 
#
# 1 95.7320 29.7965 37.3884 0.0000 0.0000 0.0000
# 2 29.7965 54.4244 17.3473 0.0000 0.0000 0.0000
# 3 37.3884 17.3473 50.1541 0.0000 0.0000 0.0000
# 4 0.0000 0.0000 0.0000 9.5269 0.0000 0.0000
# 5 0.0000 0.0000 0.0000 0.0000 -100.4637 0.0000
# 6 0.0000 0.0000 0.0000 0.0000 0.0000 -125.5478
#
#
#
# Elastic Compliance Matrix: (Units=1/GPa)
#
#
# Indices 1 2 3 4 5 6 
#
# 1 0.016132 -0.005618 -0.010083 0.000000 0.000000 0.000000
# 2 -0.005618 0.022608 -0.003631 0.000000 0.000000 0.000000
# 3 -0.010083 -0.003631 0.028711 0.000000 0.000000 0.000000
# 4 0.000000 0.000000 0.000000 0.104966 0.000000 0.000000
# 5 0.000000 0.000000 0.000000 0.000000 -0.009954 0.000000
# 6 0.000000 0.000000 0.000000 0.000000 0.000000 -0.007965
#
#
# Mechanical properties :
#
#
# Convention : Reuss Voigt Hill
#
# Bulk Modulus (GPa) = 34.73913 41.04166 37.89039
# Shear Modulus (GPa) = 24.65985 -35.57838 -5.45926
#
# Velocity S-wave (km/s) = 3.67219 -4.41086 -1.72782
# Velocity P-wave (km/s) = 6.08085 1.87021 4.09140
#
# Compressibility (1/GPa) = 0.02878598
#
# Stress axis : x y z
#
# Youngs Moduli (GPa) = 61.98669 44.23305 34.82981
#
# Poissons Ratio (x) = 0.24852 0.35119
# Poissons Ratio (y) = 0.34827 0.12647
# Poissons Ratio (z) = 0.62501 0.16062
#
# Static dielectric constant tensor:
#      x y z
#    x 3.552410 0.000000 0.000000 
#    y 0.000000 3.050100 0.000000 
#    z 0.000000 0.000000 3.458210 
# 
# 
# High freq. dielectric constant tensor:
#      x y z
#    x 1.707910 0.000000 0.000000 
#    y 0.000000 1.668910 0.000000 
#    z 0.000000 0.000000 1.713050 
# 
# From -- ./inp_files/17890.got.cif
#   From: 2010.03.12/outbox.cif.g09.slc.cpg/sg47_9_cif.got.tgz:17890.got - 2010.04.14 03:12:58.
