data_PCOD8193754
_publ_section_title
;
Structure prediction by ZEFSAII (Michael W. Deem and Ramdas Pophale) SiO2 
 PCOD8193754
Probable space group: P M M M
;
_chemical_formula_sum "Si O2"
_cell_formula_units_Z 52
_cell_length_a 19.071621
_cell_length_b 14.789284
_cell_length_c 13.264891
_cell_angle_alpha 90.000000
_cell_angle_beta 90.000000
_cell_angle_gamma 90.000000
_cell_volume 3741.437046
_symmetry_space_group_name_H-M "P M M M"
_symmetry_group_IT_number 47
_symmetry_cell_setting 'orthorhombic'
loop_
_space_group_symop_operation_xyz
x,y,z
-x,-y,z
x,-y,-z
-x,y,-z
-x,-y,-z
x,y,-z
-x,y,z
x,-y,z
loop_
_atom_site_type_symbol
_atom_site_label
_atom_site_fract_x
_atom_site_fract_y
_atom_site_fract_z
Si Si1 0.160651 0.892258 0.804640
Si Si2 0.582795 0.217854 0.795634
Si Si3 0.920597 0.892248 0.000000
Si Si4 0.694801 0.898351 0.113880
Si Si5 0.920741 0.892497 0.388271
Si Si6 0.416958 0.899420 0.388893
Si Si7 0.582923 0.401163 0.112895
O O1 0.116506 0.853840 0.899198
O O2 0.241932 0.862119 0.815265
O O3 0.129889 0.853098 0.699253
O O4 0.156095 0.000000 0.805988
O O5 0.500000 0.203722 0.814030
O O6 0.625028 0.161693 0.878775
O O7 0.607953 0.178808 0.687521
O O8 0.605102 0.323128 0.807758
O O9 0.000000 0.856693 0.000000
O O10 0.917844 0.000000 0.000000
O O11 0.673898 0.000000 0.144503
O O12 0.723196 0.895382 0.000000
O O13 0.896004 0.859650 0.500000
O O14 0.000000 0.858818 0.367635
O O15 0.919169 0.000000 0.384789
O O16 0.387174 0.875909 0.500000
O O17 0.500000 0.900959 0.392402
O O18 0.390306 0.000000 0.356120
O O19 0.500000 0.404913 0.107879
O O20 0.611466 0.500000 0.148510
O O21 0.611370 0.379277 0.000000
#
# Coordination Sequence:
#
# PCOD8193754 Si02
#       7
#     8   8   4   8   8   8   8
#     4   9  15  24  33  44  66  93 118 146 182 223
#     4  10  18  27  41  57  70  92 130 165 194 235
#     4   9  14  20  34  50  59  79 118 151 169 201
#     4  10  19  28  35  47  73 103 125 154 196 228
#     4   8  13  21  34  51  68  86 113 153 191 215
#     4   8  14  25  39  53  70  92 120 158 196 221
#     4   8  14  25  40  57  75  91 111 149 200 247
#
# _framework density 13.898403999999999
#
# number of rings (size 3 to 8) (size 9 to 14) (size 15 to 20)
#    0.000    3.154    0.769    2.769    0.000    3.692 
#    0.000    1.538    0.000    3.231    0.000    3.231 
#    0.000    0.000    0.000    0.000    0.000    3.846 
#
# Total GULP energy -644182.862851 kJ/mol
# GULP energy per Si atom -12388.131978 kJ/mol
# Density = 1.386677 g / cm^3
# Si number density = 13.898404 Si / 1000 Ang^3
#
#
#
# Elastic Constant Matrix: (Units=GPa)
#
#
# Indices 1 2 3 4 5 6 
#
# 1 53.6933 20.0920 30.5856 0.0000 0.0000 0.0000
# 2 20.0920 76.7775 41.9712 0.0000 0.0000 0.0000
# 3 30.5856 41.9712 99.6823 0.0000 0.0000 0.0000
# 4 0.0000 0.0000 0.0000 12.8863 0.0000 0.0000
# 5 0.0000 0.0000 0.0000 0.0000 18.6313 0.0000
# 6 0.0000 0.0000 0.0000 0.0000 0.0000 2.4785
#
#
#
# Elastic Compliance Matrix: (Units=1/GPa)
#
#
# Indices 1 2 3 4 5 6 
#
# 1 0.023026 -0.002810 -0.005882 0.000000 0.000000 0.000000
# 2 -0.002810 0.017262 -0.006406 0.000000 0.000000 0.000000
# 3 -0.005882 -0.006406 0.014534 0.000000 0.000000 0.000000
# 4 0.000000 0.000000 0.000000 0.077602 0.000000 0.000000
# 5 0.000000 0.000000 0.000000 0.000000 0.053673 0.000000
# 6 0.000000 0.000000 0.000000 0.000000 0.000000 0.403475
#
#
# Mechanical properties :
#
#
# Convention : Reuss Voigt Hill
#
# Bulk Modulus (GPa) = 40.60760 46.16117 43.38438
# Shear Modulus (GPa) = 7.96208 15.96617 11.96412
#
# Velocity S-wave (km/s) = 2.39608 3.39304 2.93717
# Velocity P-wave (km/s) = 6.07748 6.97393 6.54108
#
# Compressibility (1/GPa) = 0.02462593
#
# Stress axis : x y z
#
# Youngs Moduli (GPa) = 43.42824 57.93098 68.80519
#
# Poissons Ratio (x) = 0.16281 0.40471
# Poissons Ratio (y) = 0.12205 0.44075
# Poissons Ratio (z) = 0.25544 0.37109
#
# Static dielectric constant tensor:
#      x y z
#    x 2.577660 0.000000 0.000000 
#    y 0.000000 2.537510 0.000000 
#    z 0.000000 0.000000 3.027320 
# 
# 
# High freq. dielectric constant tensor:
#      x y z
#    x 1.508370 0.000000 0.000000 
#    y 0.000000 1.467290 0.000000 
#    z 0.000000 0.000000 1.536810 
# 
# From -- ./inp_files/19276.got.cif
#   From: 2010.03.12/outbox.cif.g09.slc.cpg/sg47_10_cif.got.tgz:19276.got - 2010.04.14 03:12:58.
