data_PCOD8193352
_publ_section_title
;
Structure prediction by ZEFSAII (Michael W. Deem and Ramdas Pophale) SiO2 
 PCOD8193352
Probable space group: I M A 2
;
_chemical_formula_sum "Si O2"
_cell_formula_units_Z 32
_cell_length_a 8.245068
_cell_length_b 20.073138
_cell_length_c 9.192908
_cell_angle_alpha 90.000000
_cell_angle_beta 90.000000
_cell_angle_gamma 90.000000
_cell_volume 1521.466610
_symmetry_space_group_name_H-M "I M A 2"
_symmetry_group_IT_number 46
_symmetry_cell_setting 'orthorhombic'
loop_
_space_group_symop_operation_xyz
x,y,z
-x,-y,z
1/2-x,y,z
1/2+x,-y,z
1/2+x,1/2+y,1/2+z
1/2-x,1/2-y,1/2+z
-x,1/2+y,1/2+z
x,1/2-y,1/2+z
loop_
_atom_site_type_symbol
_atom_site_label
_atom_site_fract_x
_atom_site_fract_y
_atom_site_fract_z
Si Si1 0.438392 0.073891 0.205790
Si Si2 0.437198 0.314119 0.219964
Si Si3 0.939135 0.428324 0.019805
Si Si4 0.064240 0.696344 0.539576
O O1 0.250000 0.079690 0.169595
O O2 0.468189 0.093658 0.373441
O O3 0.535512 0.122517 0.099793
O O4 0.500000 0.000000 0.173698
O O5 0.250000 0.331853 0.245242
O O6 0.526273 0.375891 0.145285
O O7 0.525483 0.300454 0.370434
O O8 0.449687 0.248312 0.122233
O O9 0.750000 0.431981 0.983034
O O10 0.000000 0.500000 0.074752
O O11 0.250000 0.717340 0.563892
#
# Coordination Sequence:
#
# PCOD8193352 Si02
#       4
#     8   8   8   8
#     4  11  22  40  64  93 125 163 204 250 302 361
#     4  12  25  43  64  91 123 161 204 253 305 362
#     4  11  22  40  64  93 125 163 204 250 302 361
#     4  12  25  43  64  91 123 161 204 253 305 362
#
# _framework density 21.032336999999998
#
# number of rings (size 3 to 8) (size 9 to 14) (size 15 to 20)
#    0.000    0.500    0.000   12.000    0.000    1.000 
#    0.000    5.000    0.000    0.000    0.000    0.000 
#    0.000    0.000    0.000    0.000    0.000    0.000 
#
# Total GULP energy -198560.481007 kJ/mol
# GULP energy per Si atom -12410.030063 kJ/mol
# Density = 2.098447 g / cm^3
# Si number density = 21.032337 Si / 1000 Ang^3
#
#
#
# Elastic Constant Matrix: (Units=GPa)
#
#
# Indices 1 2 3 4 5 6 
#
# 1 108.2154 13.2158 4.0992 -0.0001 0.0001 0.0000
# 2 13.2158 107.2277 61.3530 -0.0007 0.0001 -0.0001
# 3 4.0992 61.3530 117.2180 -0.0031 -0.0006 -0.0007
# 4 -0.0001 -0.0007 -0.0031 35.6662 -0.0011 -0.0001
# 5 0.0001 0.0001 -0.0006 -0.0011 28.8427 -0.0002
# 6 0.0000 -0.0001 -0.0007 -0.0001 -0.0002 38.0069
#
#
#
# Elastic Compliance Matrix: (Units=1/GPa)
#
#
# Indices 1 2 3 4 5 6 
#
# 1 0.009395 -0.001385 0.000396 0.000000 0.000000 0.000000
# 2 -0.001385 0.013517 -0.007026 0.000000 0.000000 0.000000
# 3 0.000396 -0.007026 0.012195 0.000001 0.000000 0.000000
# 4 0.000000 0.000000 0.000001 0.028038 0.000001 0.000000
# 5 0.000000 0.000000 0.000000 0.000001 0.034671 0.000000
# 6 0.000000 0.000000 0.000000 0.000000 0.000000 0.026311
#
#
# Mechanical properties :
#
#
# Convention : Reuss Voigt Hill
#
# Bulk Modulus (GPa) = 52.41905 54.44412 53.43158
# Shear Modulus (GPa) = 34.12613 37.43604 35.78109
#
# Velocity S-wave (km/s) = 4.03247 4.22350 4.12909
# Velocity P-wave (km/s) = 6.83068 7.05167 6.94205
#
# Compressibility (1/GPa) = 0.01907703
#
# Stress axis : x y z
#
# Youngs Moduli (GPa) = 106.44059 73.98106 82.00094
#
# Poissons Ratio (x) = 0.10243 -0.03249
# Poissons Ratio (y) = 0.14738 0.57618
# Poissons Ratio (z) = -0.04217 0.51983
#
# Static dielectric constant tensor:
#      x y z
#    x 3.909130 0.000010 0.000000 
#    y 0.000010 4.178750 0.000000 
#    z 0.000000 0.000000 3.754080 
# 
# 
# High freq. dielectric constant tensor:
#      x y z
#    x 1.844990 0.000000 0.000000 
#    y 0.000000 1.836170 0.000000 
#    z 0.000000 0.000000 1.823680 
# 
# From -- ./inp_files/3308.got.cif
#   From: 2010.03.12/outbox.cif.g09.slc.cpg/sg46_2_cif.got.tgz:3308.got - 2010.04.14 02:56:35.
