data_PCOD8193454
_publ_section_title
;
Structure prediction by ZEFSAII (Michael W. Deem and Ramdas Pophale) SiO2 
 PCOD8193454
Probable space group: P M M M
;
_chemical_formula_sum "Si O2"
_cell_formula_units_Z 52
_cell_length_a 29.588995
_cell_length_b 7.925989
_cell_length_c 12.141492
_cell_angle_alpha 90.000000
_cell_angle_beta 90.000000
_cell_angle_gamma 90.000000
_cell_volume 2847.447580
_symmetry_space_group_name_H-M "P M M M"
_symmetry_group_IT_number 47
_symmetry_cell_setting 'orthorhombic'
loop_
_space_group_symop_operation_xyz
x,y,z
-x,-y,z
x,-y,-z
-x,y,-z
-x,-y,-z
x,y,-z
-x,y,z
x,-y,z
loop_
_atom_site_type_symbol
_atom_site_label
_atom_site_fract_x
_atom_site_fract_y
_atom_site_fract_z
Si Si1 0.386761 0.693924 0.370993
Si Si2 0.708599 0.301786 0.283861
Si Si3 0.146474 0.198445 0.500000
Si Si4 0.248277 0.301585 0.500000
Si Si5 0.782218 0.304125 0.878611
Si Si6 0.550060 0.000000 0.629735
Si Si7 0.133235 0.807763 0.738871
Si Si8 0.949021 0.303186 0.874323
O O1 0.372942 0.717939 0.500000
O O2 0.403436 0.500000 0.353342
O O3 0.344971 0.734992 0.288678
O O4 0.424890 0.827338 0.334179
O O5 0.717478 0.500000 0.286294
O O6 0.729724 0.217484 0.392599
O O7 0.736771 0.227093 0.179667
O O8 0.196758 0.259894 0.500000
O O9 0.125609 0.268972 0.384828
O O10 0.141007 0.000000 0.500000
O O11 0.257818 0.500000 0.500000
O O12 0.774395 0.500000 0.895945
O O13 0.827152 0.284853 0.805312
O O14 0.788062 0.219046 0.000000
O O15 0.500000 0.000000 0.683451
O O16 0.545642 0.000000 0.500000
O O17 0.085489 0.798774 0.799727
O O18 0.148938 0.000000 0.729878
O O19 0.938574 0.500000 0.862713
O O20 0.000000 0.262281 0.835527
O O21 0.942491 0.245487 0.000000
#
# Coordination Sequence:
#
# PCOD8193454 Si02
#       8
#     8   8   4   4   8   4   8   8
#     4   9  16  28  45  66  93 128 169 212 254 302
#     4   9  16  28  46  69  96 124 164 207 243 290
#     4  10  22  36  45  69 102 131 167 201 239 287
#     4  10  16  28  50  69  87 123 170 210 241 276
#     4  10  20  33  50  72 100 134 166 200 246 296
#     4   9  18  30  42  66  99 131 169 207 253 313
#     4  11  22  35  51  72 101 132 163 201 242 292
#     4   9  19  37  59  79  97 120 156 202 248 295
#
# _framework density 18.261970999999999
#
# number of rings (size 3 to 8) (size 9 to 14) (size 15 to 20)
#    0.000    2.385    2.308    1.385    0.000    3.692 
#    2.769    2.692    0.000    2.308    0.000    0.000 
#    0.000    1.231    0.000    6.000    0.000    0.154 
#
# Total GULP energy -644242.992994 kJ/mol
# GULP energy per Si atom -12389.288327 kJ/mol
# Density = 1.822041 g / cm^3
# Si number density = 18.261971 Si / 1000 Ang^3
#
#
#
# Elastic Constant Matrix: (Units=GPa)
#
#
# Indices 1 2 3 4 5 6 
#
# 1 124.6019 29.7619 57.8932 0.0000 0.0000 0.0000
# 2 29.7619 43.9070 21.5466 0.0000 0.0000 0.0000
# 3 57.8932 21.5466 123.5461 0.0000 0.0000 0.0000
# 4 0.0000 0.0000 0.0000 13.5036 0.0000 0.0000
# 5 0.0000 0.0000 0.0000 0.0000 28.5795 0.0000
# 6 0.0000 0.0000 0.0000 0.0000 0.0000 48.8885
#
#
#
# Elastic Compliance Matrix: (Units=1/GPa)
#
#
# Indices 1 2 3 4 5 6 
#
# 1 0.011384 -0.005576 -0.004362 0.000000 0.000000 0.000000
# 2 -0.005576 0.027638 -0.002207 0.000000 0.000000 0.000000
# 3 -0.004362 -0.002207 0.010523 0.000000 0.000000 0.000000
# 4 0.000000 0.000000 0.000000 0.074054 0.000000 0.000000
# 5 0.000000 0.000000 0.000000 0.000000 0.034990 0.000000
# 6 0.000000 0.000000 0.000000 0.000000 0.000000 0.020455
#
#
# Mechanical properties :
#
#
# Convention : Reuss Voigt Hill
#
# Bulk Modulus (GPa) = 39.59638 56.71759 48.15699
# Shear Modulus (GPa) = 23.61234 30.38455 26.99844
#
# Velocity S-wave (km/s) = 3.59970 4.08341 3.84916
# Velocity P-wave (km/s) = 6.24553 7.30463 6.79574
#
# Compressibility (1/GPa) = 0.02525483
#
# Stress axis : x y z
#
# Youngs Moduli (GPa) = 87.84129 36.18175 95.02857
#
# Poissons Ratio (x) = 0.20175 0.41452
# Poissons Ratio (y) = 0.48980 0.20975
# Poissons Ratio (z) = 0.38317 0.07986
#
# Static dielectric constant tensor:
#      x y z
#    x 3.341850 0.000000 0.000000 
#    y 0.000000 3.282160 0.000000 
#    z 0.000000 0.000000 3.572120 
# 
# 
# High freq. dielectric constant tensor:
#      x y z
#    x 1.694720 0.000000 0.000000 
#    y 0.000000 1.693870 0.000000 
#    z 0.000000 0.000000 1.688040 
# 
# From -- ./inp_files/19867.got.cif
#   From: 2010.03.12/outbox.cif.g09.slc.cpg/sg47_10_cif.got.tgz:19867.got - 2010.04.14 03:12:58.
