data_PCOD8193953
_publ_section_title
;
Structure prediction by ZEFSAII (Michael W. Deem and Ramdas Pophale) SiO2 
 PCOD8193953
Probable space group: P M M M
;
_chemical_formula_sum "Si O2"
_cell_formula_units_Z 52
_cell_length_a 23.327734
_cell_length_b 9.314852
_cell_length_c 14.220388
_cell_angle_alpha 90.000000
_cell_angle_beta 90.000000
_cell_angle_gamma 90.000000
_cell_volume 3090.010532
_symmetry_space_group_name_H-M "P M M M"
_symmetry_group_IT_number 47
_symmetry_cell_setting 'orthorhombic'
loop_
_space_group_symop_operation_xyz
x,y,z
-x,-y,z
x,-y,-z
-x,y,-z
-x,-y,-z
x,y,-z
-x,y,z
x,-y,z
loop_
_atom_site_type_symbol
_atom_site_label
_atom_site_fract_x
_atom_site_fract_y
_atom_site_fract_z
Si Si1 0.711680 0.665251 0.606831
Si Si2 0.563433 0.829584 0.894897
Si Si3 0.000000 0.670626 0.106213
Si Si4 0.668712 0.830502 0.774883
Si Si5 0.780596 0.834734 0.890620
Si Si6 0.883920 0.670861 0.201284
Si Si7 0.841269 0.670233 0.601944
O O1 0.690509 0.684380 0.500000
O O2 0.708471 0.500000 0.638063
O O3 0.670634 0.758281 0.672780
O O4 0.776496 0.724523 0.617890
O O5 0.500000 0.783173 0.859226
O O6 0.612107 0.768254 0.825951
O O7 0.568184 0.000000 0.898185
O O8 0.573851 0.769144 0.000000
O O9 0.055883 0.727608 0.160811
O O10 0.000000 0.500000 0.104302
O O11 0.000000 0.731711 0.000000
O O12 0.724066 0.785413 0.835312
O O13 0.665189 0.000000 0.761684
O O14 0.833531 0.737544 0.859945
O O15 0.795591 0.000000 0.869000
O O16 0.768207 0.810363 0.000000
O O17 0.878676 0.500000 0.193304
O O18 0.880137 0.722205 0.310586
O O19 0.864296 0.728207 0.500000
O O20 0.840124 0.500000 0.597438
#
# Coordination Sequence:
#
# PCOD8193953 Si02
#       7
#     8   8   4   8   8   8   8
#     4   9  17  30  47  67  93 123 152 185 230 281
#     4   8  14  26  45  68  94 126 160 189 224 274
#     4   9  18  30  44  66  92 117 151 195 232 261
#     4  10  18  28  46  72  97 118 149 193 233 267
#     4  10  20  31  43  65  97 123 144 181 232 274
#     4  10  18  31  50  67  87 119 156 189 224 271
#     4   8  14  26  45  67  89 113 144 184 227 269
#
# _framework density 16.828420000000001
#
# number of rings (size 3 to 8) (size 9 to 14) (size 15 to 20)
#    0.000    2.846    1.538    2.308    0.000    3.077 
#    0.000    0.769    0.000    6.462    0.000    4.308 
#    0.000    1.231    0.000    0.000    0.000    0.000 
#
# Total GULP energy -644563.592197 kJ/mol
# GULP energy per Si atom -12395.453696 kJ/mol
# Density = 1.679012 g / cm^3
# Si number density = 16.828420 Si / 1000 Ang^3
#
#
#
# Elastic Constant Matrix: (Units=GPa)
#
#
# Indices 1 2 3 4 5 6 
#
# 1 127.1412 26.9095 70.7015 0.0000 0.0000 0.0000
# 2 26.9095 22.7135 26.1418 0.0000 0.0000 0.0000
# 3 70.7015 26.1418 130.8804 0.0000 0.0000 0.0000
# 4 0.0000 0.0000 0.0000 23.1332 0.0000 0.0000
# 5 0.0000 0.0000 0.0000 0.0000 28.6458 0.0000
# 6 0.0000 0.0000 0.0000 0.0000 0.0000 15.3716
#
#
#
# Elastic Compliance Matrix: (Units=1/GPa)
#
#
# Indices 1 2 3 4 5 6 
#
# 1 0.012563 -0.009184 -0.004952 0.000000 0.000000 0.000000
# 2 -0.009184 0.063883 -0.007799 0.000000 0.000000 0.000000
# 3 -0.004952 -0.007799 0.011873 0.000000 0.000000 0.000000
# 4 0.000000 0.000000 0.000000 0.043228 0.000000 0.000000
# 5 0.000000 0.000000 0.000000 0.000000 0.034909 0.000000
# 6 0.000000 0.000000 0.000000 0.000000 0.000000 0.065055
#
#
# Mechanical properties :
#
#
# Convention : Reuss Voigt Hill
#
# Bulk Modulus (GPa) = 22.49732 58.69342 40.59537
# Shear Modulus (GPa) = 17.22964 23.89562 20.56263
#
# Velocity S-wave (km/s) = 3.20322 3.77232 3.49936
# Velocity P-wave (km/s) = 5.20370 7.34351 6.36418
#
# Compressibility (1/GPa) = 0.04444973
#
# Stress axis : x y z
#
# Youngs Moduli (GPa) = 79.59971 15.65355 84.22256
#
# Poissons Ratio (x) = 0.14377 0.41707
# Poissons Ratio (y) = 0.73106 0.65682
# Poissons Ratio (z) = 0.39418 0.12208
#
# Static dielectric constant tensor:
#      x y z
#    x 3.211560 0.000000 0.000000 
#    y 0.000000 2.733970 0.000000 
#    z 0.000000 0.000000 3.482100 
# 
# 
# High freq. dielectric constant tensor:
#      x y z
#    x 1.635240 0.000000 0.000000 
#    y 0.000000 1.604360 0.000000 
#    z 0.000000 0.000000 1.660890 
# 
# From -- ./inp_files/24996.got.cif
#   From: 2010.03.12/outbox.cif.g09.slc.cpg/sg47_13_cif.got.tgz:24996.got - 2010.04.14 03:12:58.
