data_PCOD8193764
_publ_section_title
;
Structure prediction by ZEFSAII (Michael W. Deem and Ramdas Pophale) SiO2 
 PCOD8193764
Probable space group: P M M M
;
_chemical_formula_sum "Si O2"
_cell_formula_units_Z 52
_cell_length_a 27.582035
_cell_length_b 13.712395
_cell_length_c 9.294270
_cell_angle_alpha 90.000000
_cell_angle_beta 90.000000
_cell_angle_gamma 90.000000
_cell_volume 3515.239381
_symmetry_space_group_name_H-M "P M M M"
_symmetry_group_IT_number 47
_symmetry_cell_setting 'orthorhombic'
loop_
_space_group_symop_operation_xyz
x,y,z
-x,-y,z
x,-y,-z
-x,y,-z
-x,-y,-z
x,y,-z
-x,y,z
x,-y,z
loop_
_atom_site_type_symbol
_atom_site_label
_atom_site_fract_x
_atom_site_fract_y
_atom_site_fract_z
Si Si1 0.282428 0.226320 0.832455
Si Si2 0.943839 0.388389 0.835213
Si Si3 0.553026 0.114795 0.500000
Si Si4 0.357264 0.110145 0.339727
Si Si5 0.134866 0.725433 0.668037
Si Si6 0.231596 0.611896 0.333024
Si Si7 0.185742 0.887864 0.833051
O O1 0.332075 0.184246 0.768868
O O2 0.271066 0.329566 0.758799
O O3 0.239730 0.149770 0.799231
O O4 0.289732 0.244784 0.000000
O O5 0.934276 0.500000 0.789417
O O6 0.914324 0.316946 0.732663
O O7 0.000000 0.362159 0.816048
O O8 0.927702 0.372463 0.000000
O O9 0.500000 0.167113 0.500000
O O10 0.585554 0.140763 0.641933
O O11 0.545363 0.000000 0.500000
O O12 0.333087 0.114877 0.500000
O O13 0.352730 0.000000 0.278703
O O14 0.127446 0.742671 0.500000
O O15 0.177763 0.649582 0.701920
O O16 0.146423 0.829184 0.740541
O O17 0.243961 0.626294 0.500000
O O18 0.234416 0.500000 0.285720
O O19 0.182945 0.000000 0.786440
O O20 0.173175 0.873179 0.000000
#
# Coordination Sequence:
#
# PCOD8193764 Si02
#       7
#     8   8   4   8   8   8   8
#     4  10  18  27  41  63  90 115 144 181 217 255
#     4   9  18  32  49  68  89 113 141 173 210 256
#     4   7  12  24  42  62  83 113 153 187 213 248
#     4   8  15  25  40  61  84 114 147 178 212 250
#     4  10  19  30  46  68  90 112 140 176 218 258
#     4   9  18  31  44  59  85 119 149 176 207 252
#     4   9  18  31  45  61  85 119 152 178 206 248
#
# _framework density 14.792733999999999
#
# number of rings (size 3 to 8) (size 9 to 14) (size 15 to 20)
#    0.462    2.538    0.000    2.308    0.000    4.000 
#    0.000    0.769    0.000    0.923    0.000    5.385 
#    0.000    1.231    0.000    1.385    0.000    0.000 
#
# Total GULP energy -644557.410735 kJ/mol
# GULP energy per Si atom -12395.334822 kJ/mol
# Density = 1.475906 g / cm^3
# Si number density = 14.792734 Si / 1000 Ang^3
#
#
#
# Elastic Constant Matrix: (Units=GPa)
#
#
# Indices 1 2 3 4 5 6 
#
# 1 82.6861 47.5471 43.8777 0.0000 0.0000 0.0000
# 2 47.5471 105.3625 49.9739 0.0000 0.0000 0.0000
# 3 43.8777 49.9739 67.7680 0.0000 0.0000 0.0000
# 4 0.0000 0.0000 0.0000 21.8840 0.0000 0.0000
# 5 0.0000 0.0000 0.0000 0.0000 14.9606 0.0000
# 6 0.0000 0.0000 0.0000 0.0000 0.0000 17.4826
#
#
#
# Elastic Compliance Matrix: (Units=1/GPa)
#
#
# Indices 1 2 3 4 5 6 
#
# 1 0.019643 -0.004355 -0.009507 0.000000 0.000000 0.000000
# 2 -0.004355 0.015562 -0.008656 0.000000 0.000000 0.000000
# 3 -0.009507 -0.008656 0.027294 0.000000 0.000000 0.000000
# 4 0.000000 0.000000 0.000000 0.045695 0.000000 0.000000
# 5 0.000000 0.000000 0.000000 0.000000 0.066842 0.000000
# 6 0.000000 0.000000 0.000000 0.000000 0.000000 0.057200
#
#
# Mechanical properties :
#
#
# Convention : Reuss Voigt Hill
#
# Bulk Modulus (GPa) = 57.26054 59.84599 58.55326
# Shear Modulus (GPa) = 17.66199 18.49331 18.07765
#
# Velocity S-wave (km/s) = 3.45913 3.53960 3.49959
# Velocity P-wave (km/s) = 7.39910 7.56632 7.48318
#
# Compressibility (1/GPa) = 0.01746403
#
# Stress axis : x y z
#
# Youngs Moduli (GPa) = 50.90844 64.25910 36.63748
#
# Poissons Ratio (x) = 0.27987 0.34830
# Poissons Ratio (y) = 0.22173 0.31713
# Poissons Ratio (z) = 0.48396 0.55622
#
# Static dielectric constant tensor:
#      x y z
#    x 2.818600 0.000000 0.000000 
#    y 0.000000 2.765310 0.000000 
#    z 0.000000 0.000000 2.782350 
# 
# 
# High freq. dielectric constant tensor:
#      x y z
#    x 1.543800 0.000000 0.000000 
#    y 0.000000 1.552850 0.000000 
#    z 0.000000 0.000000 1.563270 
# 
# From -- ./inp_files/13430.got.cif
#   From: 2010.03.12/outbox.cif.g09.slc.cpg/sg47_7_cif.got.tgz:13430.got - 2010.04.14 03:12:58.
