data_PCOD8193817
_publ_section_title
;
Structure prediction by ZEFSAII (Michael W. Deem and Ramdas Pophale) SiO2 
 PCOD8193817
Probable space group: P M M M
;
_chemical_formula_sum "Si O2"
_cell_formula_units_Z 36
_cell_length_a 8.934779
_cell_length_b 15.629105
_cell_length_c 14.386451
_cell_angle_alpha 90.000000
_cell_angle_beta 90.000000
_cell_angle_gamma 90.000000
_cell_volume 2008.961410
_symmetry_space_group_name_H-M "P M M M"
_symmetry_group_IT_number 47
_symmetry_cell_setting 'orthorhombic'
loop_
_space_group_symop_operation_xyz
x,y,z
-x,-y,z
x,-y,-z
-x,y,-z
-x,-y,-z
x,y,-z
-x,y,z
x,-y,z
loop_
_atom_site_type_symbol
_atom_site_label
_atom_site_fract_x
_atom_site_fract_y
_atom_site_fract_z
Si Si1 0.822770 0.405248 0.895944
Si Si2 0.178318 0.750389 0.771675
Si Si3 0.822261 0.904916 0.896128
Si Si4 0.676261 0.672957 0.606735
Si Si5 0.167189 0.500000 0.610020
O O1 0.776230 0.500000 0.858898
O O2 0.760389 0.331558 0.828851
O O3 0.000000 0.397589 0.900390
O O4 0.758366 0.391495 0.000000
O O5 0.238629 0.835464 0.823088
O O6 0.253425 0.748144 0.669704
O O7 0.000000 0.750431 0.761149
O O8 0.000000 0.900694 0.898071
O O9 0.768924 0.000000 0.865803
O O10 0.762328 0.883974 0.000000
O O11 0.720196 0.691559 0.500000
O O12 0.500000 0.668066 0.619283
O O13 0.746101 0.584055 0.643406
O O14 0.157865 0.500000 0.500000
O O15 0.000000 0.500000 0.653944
#
# Coordination Sequence:
#
# PCOD8193817 Si02
#       5
#     8   8   8   8   4
#     4   8  14  24  38  61  94 124 150 185 228 277
#     4  10  18  27  47  74  95 122 164 206 241 284
#     4   8  14  26  46  74 105 130 155 196 249 299
#     4  10  21  35  48  65  95 133 166 199 246 297
#     4   9  17  31  51  71  90 117 160 209 245 276
#
# _framework density 17.919708
#
# number of rings (size 3 to 8) (size 9 to 14) (size 15 to 20)
#    0.000    3.000    0.000    3.000    1.556    5.333 
#    0.000    0.000    0.000    4.000    0.000    7.778 
#    0.000    0.000    0.000    0.000    0.000    0.000 
#
# Total GULP energy -446222.691362 kJ/mol
# GULP energy per Si atom -12395.074760 kJ/mol
# Density = 1.787892 g / cm^3
# Si number density = 17.919708 Si / 1000 Ang^3
#
#
#
# Elastic Constant Matrix: (Units=GPa)
#
#
# Indices 1 2 3 4 5 6 
#
# 1 39.9241 30.2320 32.8874 0.0000 0.0000 0.0000
# 2 30.2320 137.0328 82.7310 0.0000 0.0000 0.0000
# 3 32.8874 82.7310 106.9895 0.0000 0.0000 0.0000
# 4 0.0000 0.0000 0.0000 30.8588 0.0000 0.0000
# 5 0.0000 0.0000 0.0000 0.0000 12.8557 0.0000
# 6 0.0000 0.0000 0.0000 0.0000 0.0000 9.8222
#
#
#
# Elastic Compliance Matrix: (Units=1/GPa)
#
#
# Indices 1 2 3 4 5 6 
#
# 1 0.033899 -0.002228 -0.008697 0.000000 0.000000 0.000000
# 2 -0.002228 0.013834 -0.010012 0.000000 0.000000 0.000000
# 3 -0.008697 -0.010012 0.019762 0.000000 0.000000 0.000000
# 4 0.000000 0.000000 0.000000 0.032406 0.000000 0.000000
# 5 0.000000 0.000000 0.000000 0.000000 0.077786 0.000000
# 6 0.000000 0.000000 0.000000 0.000000 0.000000 0.101810
#
#
# Mechanical properties :
#
#
# Convention : Reuss Voigt Hill
#
# Bulk Modulus (GPa) = 39.03216 63.96081 51.49649
# Shear Modulus (GPa) = 15.15554 19.91375 17.53465
#
# Velocity S-wave (km/s) = 2.91133 3.33720 3.13151
# Velocity P-wave (km/s) = 5.75587 7.11475 6.47108
#
# Compressibility (1/GPa) = 0.02561990
#
# Stress axis : x y z
#
# Youngs Moduli (GPa) = 29.49938 72.28675 50.60117
#
# Poissons Ratio (x) = 0.16104 0.44010
# Poissons Ratio (y) = 0.06572 0.50664
# Poissons Ratio (z) = 0.25657 0.72376
#
# Static dielectric constant tensor:
#      x y z
#    x 2.823350 0.000000 0.000000 
#    y 0.000000 3.501060 0.000000 
#    z 0.000000 0.000000 3.450690 
# 
# 
# High freq. dielectric constant tensor:
#      x y z
#    x 1.644070 0.000000 0.000000 
#    y 0.000000 1.680000 0.000000 
#    z 0.000000 0.000000 1.695830 
# 
# From -- ./inp_files/5500.got.cif
#   From: 2010.03.12/outbox.cif.g09.slc.cpg/sg47_3_cif.got.tgz:5500.got - 2010.04.14 03:12:58.
