data_PCOD8193448
_publ_section_title
;
Structure prediction by ZEFSAII (Michael W. Deem and Ramdas Pophale) SiO2 
 PCOD8193448
Probable space group: P M M M
;
_chemical_formula_sum "Si O2"
_cell_formula_units_Z 48
_cell_length_a 7.852369
_cell_length_b 21.244462
_cell_length_c 17.259289
_cell_angle_alpha 90.000000
_cell_angle_beta 90.000000
_cell_angle_gamma 90.000000
_cell_volume 2879.183456
_symmetry_space_group_name_H-M "P M M M"
_symmetry_group_IT_number 47
_symmetry_cell_setting 'orthorhombic'
loop_
_space_group_symop_operation_xyz
x,y,z
-x,-y,z
x,-y,-z
-x,y,-z
-x,-y,-z
x,y,-z
-x,y,z
x,-y,z
loop_
_atom_site_type_symbol
_atom_site_label
_atom_site_fract_x
_atom_site_fract_y
_atom_site_fract_z
Si Si1 0.000000 0.692807 0.090408
Si Si2 0.697807 0.704117 0.412316
Si Si3 0.202613 0.929883 0.586737
Si Si4 0.688591 0.382769 0.279200
Si Si5 0.193711 0.182904 0.687276
Si Si6 0.000000 0.568958 0.193388
Si Si7 0.686229 0.258955 0.823734
O O1 0.000000 0.624131 0.130211
O O2 0.166102 0.733977 0.112303
O O3 0.000000 0.679845 0.000000
O O4 0.759957 0.694319 0.500000
O O5 0.500000 0.722795 0.407153
O O6 0.729651 0.638115 0.367377
O O7 0.803693 0.760276 0.374125
O O8 0.271839 0.915613 0.500000
O O9 0.277487 0.878983 0.647412
O O10 0.000000 0.924809 0.585403
O O11 0.259956 0.000000 0.612430
O O12 0.500000 0.414292 0.273312
O O13 0.832789 0.429213 0.247749
O O14 0.692767 0.319583 0.229744
O O15 0.289201 0.198819 0.767576
O O16 0.000000 0.169641 0.710194
O O17 0.000000 0.500000 0.152647
O O18 0.500000 0.253025 0.864172
#
# Coordination Sequence:
#
# PCOD8193448 Si02
#       7
#     4   8   8   8   8   4   8
#     4  10  20  35  54  77 102 121 141 172 215 276
#     4   9  17  27  40  61  87 116 153 199 249 287
#     4   8  14  23  34  54  90 134 174 208 241 275
#     4   8  16  30  46  64  89 120 153 190 229 267
#     4  10  16  24  41  65  90 121 164 203 235 276
#     4  10  20  33  51  72  92 120 153 178 209 256
#     4   9  17  31  49  70  96 123 151 186 228 273
#
# _framework density 16.671392999999998
#
# number of rings (size 3 to 8) (size 9 to 14) (size 15 to 20)
#    0.000    3.000    0.833    2.500    3.500    1.833 
#    0.000    0.000    0.000    3.000    0.000   12.833 
#    0.000    1.333    0.000    1.500    0.000    0.000 
#
# Total GULP energy -594826.665268 kJ/mol
# GULP energy per Si atom -12392.222193 kJ/mol
# Density = 1.663345 g / cm^3
# Si number density = 16.671393 Si / 1000 Ang^3
#
#
#
# Elastic Constant Matrix: (Units=GPa)
#
#
# Indices 1 2 3 4 5 6 
#
# 1 91.2141 29.8512 35.7227 0.0000 0.0000 0.0000
# 2 29.8512 78.6041 37.0570 0.0000 0.0000 0.0000
# 3 35.7227 37.0570 83.3821 0.0000 0.0000 0.0000
# 4 0.0000 0.0000 0.0000 15.5794 0.0000 0.0000
# 5 0.0000 0.0000 0.0000 0.0000 11.6118 0.0000
# 6 0.0000 0.0000 0.0000 0.0000 0.0000 3.3200
#
#
#
# Elastic Compliance Matrix: (Units=1/GPa)
#
#
# Indices 1 2 3 4 5 6 
#
# 1 0.013743 -0.003091 -0.004514 0.000000 0.000000 0.000000
# 2 -0.003091 0.016789 -0.006137 0.000000 0.000000 0.000000
# 3 -0.004514 -0.006137 0.016654 0.000000 0.000000 0.000000
# 4 0.000000 0.000000 0.000000 0.064187 0.000000 0.000000
# 5 0.000000 0.000000 0.000000 0.000000 0.086119 0.000000
# 6 0.000000 0.000000 0.000000 0.000000 0.000000 0.301201
#
#
# Mechanical properties :
#
#
# Convention : Reuss Voigt Hill
#
# Bulk Modulus (GPa) = 50.75665 50.94023 50.84844
# Shear Modulus (GPa) = 9.38535 16.14022 12.76278
#
# Velocity S-wave (km/s) = 2.37525 3.11487 2.76986
# Velocity P-wave (km/s) = 6.16716 6.59987 6.38718
#
# Compressibility (1/GPa) = 0.01970185
#
# Stress axis : x y z
#
# Youngs Moduli (GPa) = 72.76645 59.56221 60.04420
#
# Poissons Ratio (x) = 0.18410 0.27104
# Poissons Ratio (y) = 0.22492 0.36851
# Poissons Ratio (z) = 0.32846 0.36555
#
# Static dielectric constant tensor:
#      x y z
#    x 3.314770 0.000000 0.000000 
#    y 0.000000 3.008360 0.000000 
#    z 0.000000 0.000000 2.936110 
# 
# 
# High freq. dielectric constant tensor:
#      x y z
#    x 1.647910 0.000000 0.000000 
#    y 0.000000 1.612000 0.000000 
#    z 0.000000 0.000000 1.607120 
# 
# From -- ./inp_files/26883.got.cif
#   From: 2010.03.12/outbox.cif.g09.slc.cpg/sg47_14_cif.got.tgz:26883.got - 2010.04.14 03:12:58.
