data_PCOD8193148
_publ_section_title
;
Structure prediction by ZEFSAII (Michael W. Deem and Ramdas Pophale) SiO2 
 PCOD8193148
Probable space group: I M A 2
;
_chemical_formula_sum "Si O2"
_cell_formula_units_Z 48
_cell_length_a 16.940472
_cell_length_b 10.866695
_cell_length_c 12.208211
_cell_angle_alpha 90.000000
_cell_angle_beta 90.000000
_cell_angle_gamma 90.000000
_cell_volume 2247.372235
_symmetry_space_group_name_H-M "I M A 2"
_symmetry_group_IT_number 46
_symmetry_cell_setting 'orthorhombic'
loop_
_space_group_symop_operation_xyz
x,y,z
-x,-y,z
1/2-x,y,z
1/2+x,-y,z
1/2+x,1/2+y,1/2+z
1/2-x,1/2-y,1/2+z
-x,1/2+y,1/2+z
x,1/2-y,1/2+z
loop_
_atom_site_type_symbol
_atom_site_label
_atom_site_fract_x
_atom_site_fract_y
_atom_site_fract_z
Si Si1 0.551153 0.716740 0.583260
Si Si2 0.078520 0.648279 0.736127
Si Si3 0.338273 0.882383 0.815152
Si Si4 0.439188 0.898933 0.480760
Si Si5 0.342161 0.507276 0.543105
Si Si6 0.338673 0.446565 0.125518
O O1 0.510766 0.652413 0.689031
O O2 0.477807 0.765144 0.507670
O O3 0.603909 0.613490 0.524477
O O4 0.607279 0.827806 0.615683
O O5 0.104380 0.788326 0.754771
O O6 0.079341 0.581960 0.853206
O O7 0.137519 0.576251 0.655783
O O8 0.250000 0.827719 0.809095
O O9 0.343662 0.012002 0.752038
O O10 0.361365 0.902297 0.941872
O O11 0.500000 0.000000 0.522099
O O12 0.361111 0.934815 0.549538
O O13 0.250000 0.469323 0.544186
O O14 0.250000 0.408403 0.093516
#
# Coordination Sequence:
#
# PCOD8193148 Si02
#       6
#     8   8   8   8   8   8
#     4  11  23  41  66  99 127 170 211 273 325 384
#     4  12  23  41  64  95 130 169 209 268 324 382
#     4  10  23  41  64  92 127 171 217 265 316 383
#     4  10  22  40  61  92 126 164 212 260 319 381
#     4  11  25  44  66  98 132 171 219 266 324 381
#     4  10  22  43  66  93 127 170 219 265 323 383
#
# _framework density 21.358276
#
# number of rings (size 3 to 8) (size 9 to 14) (size 15 to 20)
#    0.000    1.333    1.667    3.500    2.333    1.333 
#    0.000    0.000    0.000    0.000    0.000    0.000 
#    0.000    0.000    0.000    0.000    0.000    0.000 
#
# Total GULP energy -297552.723016 kJ/mol
# GULP energy per Si atom -12398.030126 kJ/mol
# Density = 2.130966 g / cm^3
# Si number density = 21.358276 Si / 1000 Ang^3
#
#
#
# Elastic Constant Matrix: (Units=GPa)
#
#
# Indices 1 2 3 4 5 6 
#
# 1 104.9220 28.4142 27.7616 0.0000 0.0000 0.0000
# 2 28.4142 64.1164 10.7766 0.0000 0.0000 0.0000
# 3 27.7616 10.7766 112.4970 0.0000 0.0000 0.0000
# 4 0.0000 0.0000 0.0000 29.6219 0.0000 0.0000
# 5 0.0000 0.0000 0.0000 0.0000 30.3478 0.0000
# 6 0.0000 0.0000 0.0000 0.0000 0.0000 44.7472
#
#
#
# Elastic Compliance Matrix: (Units=1/GPa)
#
#
# Indices 1 2 3 4 5 6 
#
# 1 0.011421 -0.004663 -0.002372 0.000000 0.000000 0.000000
# 2 -0.004663 0.017756 -0.000550 0.000000 0.000000 0.000000
# 3 -0.002372 -0.000550 0.009527 0.000000 0.000000 0.000000
# 4 0.000000 0.000000 0.000000 0.033759 0.000000 0.000000
# 5 0.000000 0.000000 0.000000 0.000000 0.032951 0.000000
# 6 0.000000 0.000000 0.000000 0.000000 0.000000 0.022348
#
#
# Mechanical properties :
#
#
# Convention : Reuss Voigt Hill
#
# Bulk Modulus (GPa) = 42.49144 46.16004 44.32574
# Shear Modulus (GPa) = 33.16174 35.24892 34.20533
#
# Velocity S-wave (km/s) = 3.94463 4.06687 4.00622
# Velocity P-wave (km/s) = 6.37845 6.61149 6.49601
#
# Compressibility (1/GPa) = 0.02353415
#
# Stress axis : x y z
#
# Youngs Moduli (GPa) = 87.55642 56.32051 104.96336
#
# Poissons Ratio (x) = 0.26261 0.24895
# Poissons Ratio (y) = 0.40826 0.05775
# Poissons Ratio (z) = 0.20767 0.03099
#
# Static dielectric constant tensor:
#      x y z
#    x 4.043610 0.000000 0.000000 
#    y 0.000000 3.773610 0.000000 
#    z 0.000000 0.000000 3.817320 
# 
# 
# High freq. dielectric constant tensor:
#      x y z
#    x 1.846080 0.000000 0.000000 
#    y 0.000000 1.836310 0.000000 
#    z 0.000000 0.000000 1.838560 
# 
# From -- ./inp_files/11791.got.cif
#   From: 2010.03.12/outbox.cif.g09.slc.cpg/sg46_6_cif.got.tgz:11791.got - 2010.04.14 02:56:35.
