data_PCOD8193171
_publ_section_title
;
Structure prediction by ZEFSAII (Michael W. Deem and Ramdas Pophale) SiO2 
 PCOD8193171
Probable space group: I M A 2
;
_chemical_formula_sum "Si O2"
_cell_formula_units_Z 48
_cell_length_a 15.654266
_cell_length_b 13.942746
_cell_length_c 9.936087
_cell_angle_alpha 90.000000
_cell_angle_beta 90.000000
_cell_angle_gamma 90.000000
_cell_volume 2168.684674
_symmetry_space_group_name_H-M "I M A 2"
_symmetry_group_IT_number 46
_symmetry_cell_setting 'orthorhombic'
loop_
_space_group_symop_operation_xyz
x,y,z
-x,-y,z
1/2-x,y,z
1/2+x,-y,z
1/2+x,1/2+y,1/2+z
1/2-x,1/2-y,1/2+z
-x,1/2+y,1/2+z
x,1/2-y,1/2+z
loop_
_atom_site_type_symbol
_atom_site_label
_atom_site_fract_x
_atom_site_fract_y
_atom_site_fract_z
Si Si1 0.250000 0.173904 0.173160
Si Si2 0.500000 0.000000 0.045601
Si Si3 0.750000 0.892349 0.664510
Si Si4 0.921950 0.606376 0.762619
Si Si5 0.933817 0.924029 0.563873
Si Si6 0.894594 0.144231 0.921513
Si Si7 0.750000 0.514679 0.443783
Si Si8 0.950787 0.258804 0.160294
O O1 0.250000 0.281675 0.114941
O O2 0.334120 0.165867 0.265157
O O3 0.250000 0.086516 0.068758
O O4 0.514607 0.092783 0.951170
O O5 0.420072 0.025311 0.145084
O O6 0.836947 0.941970 0.612138
O O7 0.750000 0.908583 0.823513
O O8 0.933039 0.557184 0.905396
O O9 0.005720 0.670568 0.736191
O O10 0.970247 0.819775 0.601084
O O11 0.000000 0.000000 0.630057
O O12 0.892366 0.186745 0.771187
O O13 0.829110 0.057616 0.938760
O O14 0.887173 0.226223 0.038294
#
# Coordination Sequence:
#
# PCOD8193171 Si02
#       8
#     4   4   4   8   8   8   4   8
#     4  12  25  42  71 102 140 175 229 304 361 423
#     4  10  22  40  68  98 140 186 232 284 362 460
#     4  12  29  42  69 110 141 184 239 299 365 434
#     4  11  22  42  66 101 136 179 233 284 367 430
#     4  12  25  44  70 104 146 183 237 303 360 427
#     4  11  25  45  72 102 142 194 250 291 369 441
#     4  12  28  48  68 102 145 195 240 303 364 443
#     4  11  24  43  73 103 138 197 236 297 359 433
#
# _framework density 22.133230000000001
#
# number of rings (size 3 to 8) (size 9 to 14) (size 15 to 20)
#    0.000    0.667    5.833    1.500    5.833    0.667 
#    0.000    0.833    0.000    0.000    0.000    0.000 
#    0.000    0.000    0.000    0.000    0.000    0.000 
#
# Total GULP energy -297432.208291 kJ/mol
# GULP energy per Si atom -12393.008679 kJ/mol
# Density = 2.208285 g / cm^3
# Si number density = 22.133230 Si / 1000 Ang^3
#
#
#
# Elastic Constant Matrix: (Units=GPa)
#
#
# Indices 1 2 3 4 5 6 
#
# 1 106.5167 41.5711 22.7323 0.0000 0.0000 0.0000
# 2 41.5711 100.0236 42.1490 0.0000 0.0000 0.0000
# 3 22.7323 42.1490 109.7461 0.0000 0.0000 0.0000
# 4 0.0000 0.0000 0.0000 40.5698 0.0000 0.0000
# 5 0.0000 0.0000 0.0000 0.0000 21.0420 0.0000
# 6 0.0000 0.0000 0.0000 0.0000 0.0000 37.6339
#
#
#
# Elastic Compliance Matrix: (Units=1/GPa)
#
#
# Indices 1 2 3 4 5 6 
#
# 1 0.011243 -0.004404 -0.000637 0.000000 0.000000 0.000000
# 2 -0.004404 0.013653 -0.004331 0.000000 0.000000 0.000000
# 3 -0.000637 -0.004331 0.010907 0.000000 0.000000 0.000000
# 4 0.000000 0.000000 0.000000 0.024649 0.000000 0.000000
# 5 0.000000 0.000000 0.000000 0.000000 0.047524 0.000000
# 6 0.000000 0.000000 0.000000 0.000000 0.000000 0.026572
#
#
# Mechanical properties :
#
#
# Convention : Reuss Voigt Hill
#
# Bulk Modulus (GPa) = 58.62381 58.79903 58.71142
# Shear Modulus (GPa) = 31.45041 33.83807 32.64424
#
# Velocity S-wave (km/s) = 3.77365 3.91427 3.84461
# Velocity P-wave (km/s) = 6.74771 6.85947 6.80382
#
# Compressibility (1/GPa) = 0.01705792
#
# Stress axis : x y z
#
# Youngs Moduli (GPa) = 88.94355 73.24239 91.68014
#
# Poissons Ratio (x) = 0.32257 0.05843
# Poissons Ratio (y) = 0.39172 0.39710
# Poissons Ratio (z) = 0.05669 0.31724
#
# Static dielectric constant tensor:
#      x y z
#    x 4.093260 0.000000 0.000000 
#    y 0.000000 4.066870 0.000000 
#    z 0.000000 0.000000 3.980260 
# 
# 
# High freq. dielectric constant tensor:
#      x y z
#    x 1.857840 0.000000 0.000000 
#    y 0.000000 1.875340 0.000000 
#    z 0.000000 0.000000 1.877440 
# 
# From -- ./inp_files/6656.got.cif
#   From: 2010.03.12/outbox.cif.g09.slc.cpg/sg46_4_cif.got.tgz:6656.got - 2010.04.14 02:56:35.
