data_PCOD8193988
_publ_section_title
;
Structure prediction by ZEFSAII (Michael W. Deem and Ramdas Pophale) SiO2 
 PCOD8193988
Probable space group: P M M M
;
_chemical_formula_sum "Si O2"
_cell_formula_units_Z 48
_cell_length_a 9.152563
_cell_length_b 19.669706
_cell_length_c 20.580247
_cell_angle_alpha 90.000000
_cell_angle_beta 90.000000
_cell_angle_gamma 90.000000
_cell_volume 3705.025304
_symmetry_space_group_name_H-M "P M M M"
_symmetry_group_IT_number 47
_symmetry_cell_setting 'orthorhombic'
loop_
_space_group_symop_operation_xyz
x,y,z
-x,-y,z
x,-y,-z
-x,y,-z
-x,-y,-z
x,y,-z
-x,y,z
x,-y,z
loop_
_atom_site_type_symbol
_atom_site_label
_atom_site_fract_x
_atom_site_fract_y
_atom_site_fract_z
Si Si1 0.328059 0.847618 0.128037
Si Si2 0.670131 0.703909 0.073623
Si Si3 0.834278 0.081152 0.500000
Si Si4 0.165234 0.574083 0.922793
Si Si5 0.673464 0.076031 0.000000
Si Si6 0.171992 0.078842 0.755668
Si Si7 0.335088 0.080659 0.374176
O O1 0.500000 0.860768 0.139801
O O2 0.293147 0.768042 0.118972
O O3 0.235661 0.874906 0.187717
O O4 0.270473 0.886078 0.064044
O O5 0.500000 0.690061 0.071522
O O6 0.742294 0.636861 0.105597
O O7 0.726754 0.717911 0.000000
O O8 0.750074 0.109561 0.563189
O O9 0.000000 0.108982 0.500000
O O10 0.835615 0.000000 0.500000
O O11 0.223992 0.500000 0.898542
O O12 0.000000 0.583570 0.899004
O O13 0.174811 0.575836 0.000000
O O14 0.500000 0.076446 0.000000
O O15 0.737204 0.000000 0.000000
O O16 0.248223 0.103837 0.689664
O O17 0.000000 0.090550 0.748905
O O18 0.208438 0.000000 0.770176
O O19 0.500000 0.110097 0.372561
O O20 0.340066 0.000000 0.378225
#
# Coordination Sequence:
#
# PCOD8193988 Si02
#       7
#     8   8   4   8   4   8   8
#     4  10  18  29  42  55  69  89 119 153 189 231
#     4   9  16  26  39  55  73  89 111 146 183 219
#     4   9  15  23  37  57  79  97 111 135 174 215
#     4   8  14  24  37  53  72  92 112 133 163 210
#     4   9  16  26  41  55  64  81 114 154 193 231
#     4  10  20  31  40  52  71  93 119 154 194 230
#     4   9  16  26  40  56  72  92 118 145 175 216
#
# _framework density 12.955377
#
# number of rings (size 3 to 8) (size 9 to 14) (size 15 to 20)
#    0.000    2.833    0.833    2.250    0.000    5.667 
#    0.000    2.083    0.000    1.500    0.000    0.000 
#    0.000    0.000    0.000    0.000    0.000    0.000 
#
# Total GULP energy -594993.475340 kJ/mol
# GULP energy per Si atom -12395.697403 kJ/mol
# Density = 1.292589 g / cm^3
# Si number density = 12.955377 Si / 1000 Ang^3
#
#
#
# Elastic Constant Matrix: (Units=GPa)
#
#
# Indices 1 2 3 4 5 6 
#
# 1 73.7677 39.1685 46.1420 0.0000 0.0000 0.0000
# 2 39.1685 78.5256 35.1998 0.0000 0.0000 0.0000
# 3 46.1420 35.1998 89.9907 0.0000 0.0000 0.0000
# 4 0.0000 0.0000 0.0000 1.5073 0.0000 0.0000
# 5 0.0000 0.0000 0.0000 0.0000 19.0238 0.0000
# 6 0.0000 0.0000 0.0000 0.0000 0.0000 18.4110
#
#
#
# Elastic Compliance Matrix: (Units=1/GPa)
#
#
# Indices 1 2 3 4 5 6 
#
# 1 0.023137 -0.007546 -0.008912 0.000000 0.000000 0.000000
# 2 -0.007546 0.017903 -0.003134 0.000000 0.000000 0.000000
# 3 -0.008912 -0.003134 0.016907 0.000000 0.000000 0.000000
# 4 0.000000 0.000000 0.000000 0.663454 0.000000 0.000000
# 5 0.000000 0.000000 0.000000 0.000000 0.052566 0.000000
# 6 0.000000 0.000000 0.000000 0.000000 0.000000 0.054315
#
#
# Mechanical properties :
#
#
# Convention : Reuss Voigt Hill
#
# Bulk Modulus (GPa) = 53.29086 53.70051 53.49569
# Shear Modulus (GPa) = 5.72265 15.90666 10.81465
#
# Velocity S-wave (km/s) = 2.10399 3.50780 2.89236
# Velocity P-wave (km/s) = 6.86483 7.61227 7.24819
#
# Compressibility (1/GPa) = 0.01876494
#
# Stress axis : x y z
#
# Youngs Moduli (GPa) = 43.22061 55.85536 59.14557
#
# Poissons Ratio (x) = 0.42149 0.52709
# Poissons Ratio (y) = 0.32614 0.18535
# Poissons Ratio (z) = 0.38517 0.17504
#
# Static dielectric constant tensor:
#      x y z
#    x 2.661020 0.000000 0.000000 
#    y 0.000000 2.592890 0.000000 
#    z 0.000000 0.000000 2.488790 
# 
# 
# High freq. dielectric constant tensor:
#      x y z
#    x 1.496800 0.000000 0.000000 
#    y 0.000000 1.460150 0.000000 
#    z 0.000000 0.000000 1.464880 
# 
# From -- ./inp_files/11412.got.cif
#   From: 2010.03.12/outbox.cif.g09.slc.cpg/sg47_6_cif.got.tgz:11412.got - 2010.04.14 03:12:58.
