data_PCOD8193409
_publ_section_title
;
Structure prediction by ZEFSAII (Michael W. Deem and Ramdas Pophale) SiO2 
 PCOD8193409
Probable space group: I M A 2
;
_chemical_formula_sum "Si O2"
_cell_formula_units_Z 56
_cell_length_a 21.805728
_cell_length_b 13.488419
_cell_length_c 9.795608
_cell_angle_alpha 90.000000
_cell_angle_beta 90.000000
_cell_angle_gamma 90.000000
_cell_volume 2881.131203
_symmetry_space_group_name_H-M "I M A 2"
_symmetry_group_IT_number 46
_symmetry_cell_setting 'orthorhombic'
loop_
_space_group_symop_operation_xyz
x,y,z
-x,-y,z
1/2-x,y,z
1/2+x,-y,z
1/2+x,1/2+y,1/2+z
1/2-x,1/2-y,1/2+z
-x,1/2+y,1/2+z
x,1/2-y,1/2+z
loop_
_atom_site_type_symbol
_atom_site_label
_atom_site_fract_x
_atom_site_fract_y
_atom_site_fract_z
Si Si1 0.548149 0.744024 0.824450
Si Si2 0.750000 0.641992 0.677227
Si Si3 0.563669 0.445901 0.521748
Si Si4 0.877304 0.558903 0.759796
Si Si5 0.968480 0.276284 0.070382
Si Si6 0.750000 0.657633 0.352559
Si Si7 0.071989 0.517565 0.031664
Si Si8 0.622346 0.932718 0.805263
O O1 0.590292 0.665296 0.746377
O O2 0.492610 0.773560 0.724810
O O3 0.587608 0.838411 0.868898
O O4 0.523175 0.696705 0.964572
O O5 0.807803 0.572435 0.711068
O O6 0.750000 0.673749 0.517224
O O7 0.750000 0.736669 0.776859
O O8 0.500000 0.500000 0.485792
O O9 0.587366 0.480343 0.667583
O O10 0.559775 0.327673 0.523636
O O11 0.612013 0.473907 0.404256
O O12 0.882833 0.514832 0.910776
O O13 0.918642 0.364756 0.060891
O O14 0.806374 0.592262 0.300216
O O15 0.094372 0.452704 0.157936
O O16 0.000000 0.500000 0.001697
#
# Coordination Sequence:
#
# PCOD8193409 Si02
#       8
#     8   4   8   8   8   4   8   8
#     4  12  20  35  62  96 126 169 206 268 316 416
#     4  12  28  44  70  99 131 180 226 269 327 391
#     4  12  22  39  63  91 129 179 208 273 337 392
#     4  12  24  41  64  95 138 168 217 271 334 392
#     4  12  24  36  62  94 134 164 220 254 334 400
#     4  12  28  44  70  99 131 180 226 269 327 391
#     4  12  24  41  63  99 133 173 214 275 333 396
#     4  12  24  41  64  95 138 168 217 271 334 392
#
# _framework density 19.436810000000001
#
# number of rings (size 3 to 8) (size 9 to 14) (size 15 to 20)
#    0.000    0.000    8.571    2.571    2.000    0.000 
#    0.000    0.000    0.000    5.143    0.000    0.000 
#    0.000    0.000    0.000    0.000    0.000    0.000 
#
# Total GULP energy -347322.780942 kJ/mol
# GULP energy per Si atom -12404.385034 kJ/mol
# Density = 1.939257 g / cm^3
# Si number density = 19.436810 Si / 1000 Ang^3
#
#
#
# Elastic Constant Matrix: (Units=GPa)
#
#
# Indices 1 2 3 4 5 6 
#
# 1 74.5059 30.2129 6.7278 0.0000 0.0000 0.0000
# 2 30.2129 101.9123 3.5226 0.0000 0.0000 0.0000
# 3 6.7278 3.5226 76.1130 0.0000 0.0000 0.0000
# 4 0.0000 0.0000 0.0000 35.9971 0.0000 0.0000
# 5 0.0000 0.0000 0.0000 0.0000 28.3550 0.0000
# 6 0.0000 0.0000 0.0000 0.0000 0.0000 22.9553
#
#
#
# Elastic Compliance Matrix: (Units=1/GPa)
#
#
# Indices 1 2 3 4 5 6 
#
# 1 0.015355 -0.004513 -0.001148 0.000000 0.000000 0.000000
# 2 -0.004513 0.011154 -0.000117 0.000000 0.000000 0.000000
# 3 -0.001148 -0.000117 0.013245 0.000000 0.000000 0.000000
# 4 0.000000 0.000000 0.000000 0.027780 0.000000 0.000000
# 5 0.000000 0.000000 0.000000 0.000000 0.035267 0.000000
# 6 0.000000 0.000000 0.000000 0.000000 0.000000 0.043563
#
#
# Mechanical properties :
#
#
# Convention : Reuss Voigt Hill
#
# Bulk Modulus (GPa) = 35.46333 37.05087 36.25710
# Shear Modulus (GPa) = 29.88266 31.59933 30.74099
#
# Velocity S-wave (km/s) = 3.92526 4.03643 3.98123
# Velocity P-wave (km/s) = 6.23126 6.38962 6.31094
#
# Compressibility (1/GPa) = 0.02819814
#
# Stress axis : x y z
#
# Youngs Moduli (GPa) = 65.12389 89.65230 75.49845
#
# Poissons Ratio (x) = 0.40456 0.08671
# Poissons Ratio (y) = 0.29387 0.00886
# Poissons Ratio (z) = 0.07479 0.01052
#
# Static dielectric constant tensor:
#      x y z
#    x 3.430310 0.000000 0.000000 
#    y 0.000000 3.723660 0.000000 
#    z 0.000000 0.000000 3.640160 
# 
# 
# High freq. dielectric constant tensor:
#      x y z
#    x 1.725840 0.000000 0.000000 
#    y 0.000000 1.765450 0.000000 
#    z 0.000000 0.000000 1.777110 
# 
# From -- ./inp_files/7449.got.cif
#   From: 2010.03.12/outbox.cif.g09.slc.cpg/sg46_4_cif.got.tgz:7449.got - 2010.04.14 02:56:35.
