data_PCOD8193151
_publ_section_title
;
Structure prediction by ZEFSAII (Michael W. Deem and Ramdas Pophale) SiO2 
 PCOD8193151
Probable space group: I M A 2
;
_chemical_formula_sum "Si O2"
_cell_formula_units_Z 48
_cell_length_a 8.657205
_cell_length_b 13.683551
_cell_length_c 18.859411
_cell_angle_alpha 90.000000
_cell_angle_beta 90.000000
_cell_angle_gamma 90.000000
_cell_volume 2234.110460
_symmetry_space_group_name_H-M "I M A 2"
_symmetry_group_IT_number 46
_symmetry_cell_setting 'orthorhombic'
loop_
_space_group_symop_operation_xyz
x,y,z
-x,-y,z
1/2-x,y,z
1/2+x,-y,z
1/2+x,1/2+y,1/2+z
1/2-x,1/2-y,1/2+z
-x,1/2+y,1/2+z
x,1/2-y,1/2+z
loop_
_atom_site_type_symbol
_atom_site_label
_atom_site_fract_x
_atom_site_fract_y
_atom_site_fract_z
Si Si1 0.073441 0.605826 0.291490
Si Si2 0.932109 0.697542 0.430254
Si Si3 0.069660 0.600346 0.560160
Si Si4 0.575354 0.229863 0.190285
Si Si5 0.926845 0.909411 0.287860
Si Si6 0.570192 0.099518 0.437927
O O1 0.250000 0.592691 0.313868
O O2 0.060344 0.655771 0.212479
O O3 0.000000 0.500000 0.286687
O O4 0.997519 0.673840 0.352149
O O5 0.750000 0.702017 0.422888
O O6 0.984092 0.614893 0.485340
O O7 0.990870 0.800327 0.463656
O O8 0.250000 0.586255 0.546502
O O9 0.038824 0.696210 0.609929
O O10 0.000000 0.500000 0.593417
O O11 0.750000 0.194210 0.208905
O O12 0.443307 0.183648 0.238970
O O13 0.750000 0.922447 0.312183
O O14 0.040869 0.902772 0.354371
O O15 0.000000 0.000000 0.243461
O O16 0.750000 0.104251 0.456412
O O17 0.500000 0.000000 0.473168
#
# Coordination Sequence:
#
# PCOD8193151 Si02
#       6
#     8   8   8   8   8   8
#     4  11  23  41  65  93 125 164 210 265 318 381
#     4  12  24  41  64  94 128 169 214 263 317 380
#     4  11  24  43  65  93 127 169 212 262 320 384
#     4  10  22  40  62  88 122 162 208 258 316 374
#     4  11  20  31  53  84 120 157 197 245 302 361
#     4  11  21  36  58  88 124 161 204 255 309 368
#
# _framework density 21.485061000000002
#
# number of rings (size 3 to 8) (size 9 to 14) (size 15 to 20)
#    0.000    1.000    1.667    7.500    0.000    3.333 
#    0.000    0.833    0.000    2.000    0.000    0.000 
#    0.000    0.000    0.000    0.000    0.000    0.000 
#
# Total GULP energy -297376.747862 kJ/mol
# GULP energy per Si atom -12390.697828 kJ/mol
# Density = 2.143616 g / cm^3
# Si number density = 21.485061 Si / 1000 Ang^3
#
#
#
# Elastic Constant Matrix: (Units=GPa)
#
#
# Indices 1 2 3 4 5 6 
#
# 1 155.5862 50.1510 29.1448 0.0000 0.0000 0.0000
# 2 50.1510 128.1023 31.6424 0.0000 0.0000 0.0000
# 3 29.1448 31.6424 73.6341 0.0000 0.0000 0.0000
# 4 0.0000 0.0000 0.0000 15.8895 0.0000 0.0000
# 5 0.0000 0.0000 0.0000 0.0000 19.3022 0.0000
# 6 0.0000 0.0000 0.0000 0.0000 0.0000 38.9188
#
#
#
# Elastic Compliance Matrix: (Units=1/GPa)
#
#
# Indices 1 2 3 4 5 6 
#
# 1 0.007594 -0.002495 -0.001933 0.000000 0.000000 0.000000
# 2 -0.002495 0.009553 -0.003118 0.000000 0.000000 0.000000
# 3 -0.001933 -0.003118 0.015686 0.000000 0.000000 0.000000
# 4 0.000000 0.000000 0.000000 0.062935 0.000000 0.000000
# 5 0.000000 0.000000 0.000000 0.000000 0.051808 0.000000
# 6 0.000000 0.000000 0.000000 0.000000 0.000000 0.025695
#
#
# Mechanical properties :
#
#
# Convention : Reuss Voigt Hill
#
# Bulk Modulus (GPa) = 56.36963 64.35545 60.36254
# Shear Modulus (GPa) = 25.73667 31.24773 28.49220
#
# Velocity S-wave (km/s) = 3.46480 3.81779 3.64557
# Velocity P-wave (km/s) = 6.50385 7.03226 6.77321
#
# Compressibility (1/GPa) = 0.01774005
#
# Stress axis : x y z
#
# Youngs Moduli (GPa) = 131.68620 104.67643 63.75277
#
# Poissons Ratio (x) = 0.26121 0.12326
# Poissons Ratio (y) = 0.32860 0.19876
# Poissons Ratio (z) = 0.25460 0.32634
#
# Static dielectric constant tensor:
#      x y z
#    x 3.843360 0.000000 0.000000 
#    y 0.000000 4.579570 0.000000 
#    z 0.000000 0.000000 3.575840 
# 
# 
# High freq. dielectric constant tensor:
#      x y z
#    x 1.854080 0.000000 0.000000 
#    y 0.000000 1.855860 0.000000 
#    z 0.000000 0.000000 1.807320 
# 
# From -- ./inp_files/20926.got.cif
#   From: 2010.03.12/outbox.cif.g09.slc.cpg/sg46_11_cif.got.tgz:20926.got - 2010.04.14 02:56:35.
