data_PCOD8193102
_publ_section_title
;
Structure prediction by ZEFSAII (Michael W. Deem and Ramdas Pophale) SiO2 
 PCOD8193102
Probable space group: I M A 2
;
_chemical_formula_sum "Si O2"
_cell_formula_units_Z 32
_cell_length_a 20.846953
_cell_length_b 5.173244
_cell_length_c 15.517369
_cell_angle_alpha 90.000000
_cell_angle_beta 90.000000
_cell_angle_gamma 90.000000
_cell_volume 1673.491989
_symmetry_space_group_name_H-M "I M A 2"
_symmetry_group_IT_number 46
_symmetry_cell_setting 'orthorhombic'
loop_
_space_group_symop_operation_xyz
x,y,z
-x,-y,z
1/2-x,y,z
1/2+x,-y,z
1/2+x,1/2+y,1/2+z
1/2-x,1/2-y,1/2+z
-x,1/2+y,1/2+z
x,1/2-y,1/2+z
loop_
_atom_site_type_symbol
_atom_site_label
_atom_site_fract_x
_atom_site_fract_y
_atom_site_fract_z
Si Si1 0.129348 0.151176 0.209550
Si Si2 0.431098 0.374309 0.364695
Si Si3 0.320897 0.636970 0.281002
Si Si4 0.543014 0.751220 0.549157
O O1 0.076033 0.171853 0.285966
O O2 0.181947 0.376914 0.223074
O O3 0.098585 0.203504 0.117343
O O4 0.161133 0.870494 0.216641
O O5 0.500000 0.500000 0.355541
O O6 0.424522 0.220205 0.454878
O O7 0.374323 0.593146 0.356477
O O8 0.250000 0.685189 0.321125
O O9 0.500000 0.500000 0.548329
O O10 0.500000 0.000000 0.572650
#
# Coordination Sequence:
#
# PCOD8193102 Si02
#       4
#     8   8   8   8
#     4  10  22  37  64  80 127 157 206 246 317 355
#     4   9  23  37  64  91 124 154 203 257 313 365
#     4  10  22  40  61  85 121 166 209 249 303 371
#     4  11  23  36  61  96 128 153 206 258 317 377
#
# _framework density 19.121693
#
# number of rings (size 3 to 8) (size 9 to 14) (size 15 to 20)
#    1.500    0.500    0.000    3.000   10.500    0.000 
#    0.000    2.500    0.000    0.000    0.000    0.000 
#    0.000    0.000    0.000    0.000    0.000    0.000 
#
# Total GULP energy -198210.686373 kJ/mol
# GULP energy per Si atom -12388.167898 kJ/mol
# Density = 1.907817 g / cm^3
# Si number density = 19.121693 Si / 1000 Ang^3
#
#
#
# Elastic Constant Matrix: (Units=GPa)
#
#
# Indices 1 2 3 4 5 6 
#
# 1 130.5176 26.3031 38.3571 0.0000 0.0000 0.0000
# 2 26.3031 113.3988 7.3544 0.0000 0.0000 0.0000
# 3 38.3571 7.3544 89.2379 0.0000 0.0000 0.0000
# 4 0.0000 0.0000 0.0000 29.4929 0.0000 0.0000
# 5 0.0000 0.0000 0.0000 0.0000 9.9180 0.0000
# 6 0.0000 0.0000 0.0000 0.0000 0.0000 19.5324
#
#
#
# Elastic Compliance Matrix: (Units=1/GPa)
#
#
# Indices 1 2 3 4 5 6 
#
# 1 0.009151 -0.001877 -0.003778 0.000000 0.000000 0.000000
# 2 -0.001877 0.009251 0.000045 0.000000 0.000000 0.000000
# 3 -0.003778 0.000045 0.012826 0.000000 0.000000 0.000000
# 4 0.000000 0.000000 0.000000 0.033906 0.000000 0.000000
# 5 0.000000 0.000000 0.000000 0.000000 0.100827 0.000000
# 6 0.000000 0.000000 0.000000 0.000000 0.000000 0.051197
#
#
# Mechanical properties :
#
#
# Convention : Reuss Voigt Hill
#
# Bulk Modulus (GPa) = 49.98664 53.02041 51.50352
# Shear Modulus (GPa) = 21.27211 29.19797 25.23504
#
# Velocity S-wave (km/s) = 3.33897 3.91187 3.63672
# Velocity P-wave (km/s) = 6.40805 6.94202 6.68037
#
# Compressibility (1/GPa) = 0.02000535
#
# Stress axis : x y z
#
# Youngs Moduli (GPa) = 109.28244 108.09617 77.96400
#
# Poissons Ratio (x) = 0.20295 0.29459
# Poissons Ratio (y) = 0.20517 -0.00348
# Poissons Ratio (z) = 0.41292 -0.00482
#
# Static dielectric constant tensor:
#      x y z
#    x 3.369240 0.000000 0.000000 
#    y 0.000000 3.514160 0.000000 
#    z 0.000000 0.000000 3.713700 
# 
# 
# High freq. dielectric constant tensor:
#      x y z
#    x 1.731330 0.000000 0.000000 
#    y 0.000000 1.752680 0.000000 
#    z 0.000000 0.000000 1.726060 
# 
# From -- ./inp_files/16283.got.cif
#   From: 2010.03.12/outbox.cif.g09.slc.cpg/sg46_9_cif.got.tgz:16283.got - 2010.04.14 02:56:35.
