data_PCOD8193811
_publ_section_title
;
Structure prediction by ZEFSAII (Michael W. Deem and Ramdas Pophale) SiO2 
 PCOD8193811
Probable space group: P M M M
;
_chemical_formula_sum "Si O2"
_cell_formula_units_Z 64
_cell_length_a 19.005245
_cell_length_b 9.063722
_cell_length_c 23.738467
_cell_angle_alpha 90.000000
_cell_angle_beta 90.000000
_cell_angle_gamma 90.000000
_cell_volume 4089.146955
_symmetry_space_group_name_H-M "P M M M"
_symmetry_group_IT_number 47
_symmetry_cell_setting 'orthorhombic'
loop_
_space_group_symop_operation_xyz
x,y,z
-x,-y,z
x,-y,-z
-x,y,-z
-x,-y,-z
x,y,-z
-x,y,z
x,-y,z
loop_
_atom_site_type_symbol
_atom_site_label
_atom_site_fract_x
_atom_site_fract_y
_atom_site_fract_z
Si Si1 0.208321 0.668850 0.839608
Si Si2 0.713487 0.673268 0.725482
Si Si3 0.921432 0.175054 0.562235
Si Si4 0.160809 0.175119 0.669946
Si Si5 0.576207 0.175152 0.117574
Si Si6 0.420872 0.171813 0.754129
Si Si7 0.717230 0.825008 0.063114
Si Si8 0.080180 0.330390 0.233697
O O1 0.220793 0.500000 0.856283
O O2 0.258841 0.714179 0.787857
O O3 0.223944 0.766083 0.894362
O O4 0.127697 0.699014 0.821528
O O5 0.714458 0.500000 0.714586
O O6 0.763825 0.749585 0.679739
O O7 0.634722 0.735567 0.717329
O O8 0.896691 0.228302 0.500000
O O9 0.866846 0.231343 0.609231
O O10 0.000000 0.236608 0.574849
O O11 0.924404 0.000000 0.564130
O O12 0.103609 0.224678 0.715941
O O13 0.169370 0.000000 0.673062
O O14 0.500000 0.231875 0.094635
O O15 0.585496 0.227664 0.181712
O O16 0.640038 0.238175 0.080102
O O17 0.576564 0.000000 0.116016
O O18 0.500000 0.201454 0.731568
O O19 0.401903 0.000000 0.749418
O O20 0.717325 0.000000 0.066749
O O21 0.734555 0.770731 0.000000
O O22 0.090908 0.500000 0.253301
O O23 0.000000 0.296127 0.217190
#
# Coordination Sequence:
#
# PCOD8193811 Si02
#       8
#     8   8   8   8   8   8   8   8
#     4   9  18  31  45  61  81 109 140 170 213 264
#     4  10  19  30  44  63  89 120 151 183 223 264
#     4   8  14  25  41  63  93 126 157 188 219 252
#     4  10  18  27  44  69  94 120 153 188 218 254
#     4   8  14  25  41  61  84 108 135 169 208 249
#     4   9  16  27  45  66  87 114 147 182 221 264
#     4  10  19  29  44  64  83 106 138 176 216 259
#     4   9  18  32  48  66  89 113 139 178 225 268
#
# _framework density 15.651187
#
# number of rings (size 3 to 8) (size 9 to 14) (size 15 to 20)
#    0.000    2.875    1.250    3.000    0.000    3.500 
#    0.000    1.250    0.000    2.250    0.000    7.875 
#    0.000    0.500    0.000    5.750    0.000    1.625 
#
# Total GULP energy -793304.767891 kJ/mol
# GULP energy per Si atom -12395.386998 kJ/mol
# Density = 1.561556 g / cm^3
# Si number density = 15.651187 Si / 1000 Ang^3
#
#
#
# Elastic Constant Matrix: (Units=GPa)
#
#
# Indices 1 2 3 4 5 6 
#
# 1 122.1196 39.2100 59.4973 0.0000 0.0000 0.0000
# 2 39.2100 45.3594 33.0181 0.0000 0.0000 0.0000
# 3 59.4973 33.0181 97.6766 0.0000 0.0000 0.0000
# 4 0.0000 0.0000 0.0000 10.5050 0.0000 0.0000
# 5 0.0000 0.0000 0.0000 0.0000 24.9010 0.0000
# 6 0.0000 0.0000 0.0000 0.0000 0.0000 21.4085
#
#
#
# Elastic Compliance Matrix: (Units=1/GPa)
#
#
# Indices 1 2 3 4 5 6 
#
# 1 0.013296 -0.007425 -0.005589 0.000000 0.000000 0.000000
# 2 -0.007425 0.033388 -0.006764 0.000000 0.000000 0.000000
# 3 -0.005589 -0.006764 0.015928 0.000000 0.000000 0.000000
# 4 0.000000 0.000000 0.000000 0.095193 0.000000 0.000000
# 5 0.000000 0.000000 0.000000 0.000000 0.040159 0.000000
# 6 0.000000 0.000000 0.000000 0.000000 0.000000 0.046710
#
#
# Mechanical properties :
#
#
# Convention : Reuss Voigt Hill
#
# Bulk Modulus (GPa) = 43.37016 58.73406 51.05211
# Shear Modulus (GPa) = 17.12831 20.25823 18.69327
#
# Velocity S-wave (km/s) = 3.31173 3.60162 3.45971
# Velocity P-wave (km/s) = 6.51107 7.40972 6.97488
#
# Compressibility (1/GPa) = 0.02305733
#
# Stress axis : x y z
#
# Youngs Moduli (GPa) = 75.21310 29.95112 62.78065
#
# Poissons Ratio (x) = 0.22238 0.35087
# Poissons Ratio (y) = 0.55845 0.42462
# Poissons Ratio (z) = 0.42035 0.20258
#
# Static dielectric constant tensor:
#      x y z
#    x 3.148100 0.000000 0.000000 
#    y 0.000000 2.764450 0.000000 
#    z 0.000000 0.000000 2.886050 
# 
# 
# High freq. dielectric constant tensor:
#      x y z
#    x 1.602130 0.000000 0.000000 
#    y 0.000000 1.582900 0.000000 
#    z 0.000000 0.000000 1.567440 
# 
# From -- ./inp_files/32268.got.cif
#   From: 2010.03.12/outbox.cif.g09.slc.cpg/sg47_17_cif.got.tgz:32268.got - 2010.04.14 03:12:58.
