data_PCOD8193035
_publ_section_title
;
Structure prediction by ZEFSAII (Michael W. Deem and Ramdas Pophale) SiO2 
 PCOD8193035
Probable space group: I M A 2
;
_chemical_formula_sum "Si O2"
_cell_formula_units_Z 48
_cell_length_a 8.714218
_cell_length_b 22.850009
_cell_length_c 11.546048
_cell_angle_alpha 90.000000
_cell_angle_beta 90.000000
_cell_angle_gamma 90.000000
_cell_volume 2299.048613
_symmetry_space_group_name_H-M "I M A 2"
_symmetry_group_IT_number 46
_symmetry_cell_setting 'orthorhombic'
loop_
_space_group_symop_operation_xyz
x,y,z
-x,-y,z
1/2-x,y,z
1/2+x,-y,z
1/2+x,1/2+y,1/2+z
1/2-x,1/2-y,1/2+z
-x,1/2+y,1/2+z
x,1/2-y,1/2+z
loop_
_atom_site_type_symbol
_atom_site_label
_atom_site_fract_x
_atom_site_fract_y
_atom_site_fract_z
Si Si1 0.932469 0.652730 0.450530
Si Si2 0.931635 0.853976 0.216352
Si Si3 0.931707 0.267209 0.259775
Si Si4 0.567862 0.435523 0.894196
Si Si5 0.585163 0.556262 0.291947
Si Si6 0.079003 0.354350 0.086161
O O1 0.750000 0.661015 0.430219
O O2 0.980194 0.652778 0.583181
O O3 0.989607 0.590046 0.400491
O O4 0.022384 0.701922 0.379583
O O5 0.750000 0.858585 0.232255
O O6 0.997322 0.796742 0.278420
O O7 0.008665 0.912468 0.269560
O O8 0.750000 0.264179 0.247941
O O9 0.996529 0.297612 0.142173
O O10 0.500000 0.500000 0.921369
O O11 0.750000 0.440969 0.896427
O O12 0.516318 0.385417 0.984799
O O13 0.500000 0.500000 0.247498
O O14 0.750000 0.533720 0.332101
O O15 0.597549 0.599395 0.186219
O O16 0.250000 0.336256 0.041164
#
# Coordination Sequence:
#
# PCOD8193035 Si02
#       6
#     8   8   8   8   8   8
#     4   9  21  41  61  85 118 160 208 253 308 379
#     4  11  24  43  66  89 122 169 215 261 318 384
#     4  11  23  39  63  95 129 161 206 266 325 383
#     4  12  26  44  65  94 131 172 219 267 322 387
#     4   9  18  33  56  86 117 151 196 246 300 359
#     4  10  21  40  64  91 125 167 213 261 314 376
#
# _framework density 20.878202000000002
#
# number of rings (size 3 to 8) (size 9 to 14) (size 15 to 20)
#    0.000    1.667    0.000    5.500    2.333    6.667 
#    0.000    1.667    0.000    0.000    0.000    0.000 
#    0.000    0.000    0.000    0.000    0.000    0.000 
#
# Total GULP energy -297497.631075 kJ/mol
# GULP energy per Si atom -12395.734628 kJ/mol
# Density = 2.083068 g / cm^3
# Si number density = 20.878202 Si / 1000 Ang^3
#
#
#
# Elastic Constant Matrix: (Units=GPa)
#
#
# Indices 1 2 3 4 5 6 
#
# 1 130.3088 31.8922 35.1513 0.0002 -0.0003 0.0000
# 2 31.8922 77.1947 12.9713 0.0004 -0.0002 0.0000
# 3 35.1513 12.9713 87.7557 -0.0010 0.0013 -0.0002
# 4 0.0002 0.0004 -0.0010 -11.2605 -0.0008 0.0000
# 5 -0.0003 -0.0002 0.0013 -0.0008 38.2417 0.0000
# 6 0.0000 0.0000 -0.0002 0.0000 0.0000 31.6717
#
#
#
# Elastic Compliance Matrix: (Units=1/GPa)
#
#
# Indices 1 2 3 4 5 6 
#
# 1 0.009367 -0.003322 -0.003261 0.000000 0.000000 0.000000
# 2 -0.003322 0.014462 -0.000807 0.000001 0.000000 0.000000
# 3 -0.003261 -0.000807 0.012821 -0.000001 0.000000 0.000000
# 4 0.000000 0.000001 -0.000001 -0.088806 -0.000002 0.000000
# 5 0.000000 0.000000 0.000000 -0.000002 0.026149 0.000000
# 6 0.000000 0.000000 0.000000 0.000000 0.000000 0.031574
#
#
# Mechanical properties :
#
#
# Convention : Reuss Voigt Hill
#
# Bulk Modulus (GPa) = 45.72465 50.58766 48.15615
# Shear Modulus (GPa) = 180.91700 26.08020 103.49860
#
# Velocity S-wave (km/s) = 9.31889 3.53818 7.04842
# Velocity P-wave (km/s) = 11.73614 6.40110 9.45281
#
# Compressibility (1/GPa) = 0.02187004
#
# Stress axis : x y z
#
# Youngs Moduli (GPa) = 106.76101 69.14554 77.99852
#
# Poissons Ratio (x) = 0.22969 0.25435
# Poissons Ratio (y) = 0.35464 0.06295
# Poissons Ratio (z) = 0.34814 0.05581
#
# Static dielectric constant tensor:
#      x y z
#    x 3.834680 0.000000 0.000000 
#    y 0.000000 3.932350 0.000000 
#    z 0.000000 0.000000 3.992330 
# 
# 
# High freq. dielectric constant tensor:
#      x y z
#    x 1.818620 0.000000 0.000000 
#    y 0.000000 1.821450 0.000000 
#    z 0.000000 0.000000 1.820820 
# 
# From -- ./inp_files/9314.got.cif
#   From: 2010.03.12/outbox.cif.g09.slc.cpg/sg46_5_cif.got.tgz:9314.got - 2010.04.14 02:56:35.
