data_PCOD8193280
_publ_section_title
;
Structure prediction by ZEFSAII (Michael W. Deem and Ramdas Pophale) SiO2 
 PCOD8193280
Probable space group: I M A 2
;
_chemical_formula_sum "Si O2"
_cell_formula_units_Z 36
_cell_length_a 14.978682
_cell_length_b 5.342076
_cell_length_c 19.075698
_cell_angle_alpha 90.000000
_cell_angle_beta 90.000000
_cell_angle_gamma 90.000000
_cell_volume 1526.385041
_symmetry_space_group_name_H-M "I M A 2"
_symmetry_group_IT_number 46
_symmetry_cell_setting 'orthorhombic'
loop_
_space_group_symop_operation_xyz
x,y,z
-x,-y,z
1/2-x,y,z
1/2+x,-y,z
1/2+x,1/2+y,1/2+z
1/2-x,1/2-y,1/2+z
-x,1/2+y,1/2+z
x,1/2-y,1/2+z
loop_
_atom_site_type_symbol
_atom_site_label
_atom_site_fract_x
_atom_site_fract_y
_atom_site_fract_z
Si Si1 0.653750 0.308989 0.208170
Si Si2 0.351049 0.460751 0.486673
Si Si3 0.349165 0.188863 0.833834
Si Si4 0.098057 0.950332 0.561936
Si Si5 0.500000 0.500000 0.769913
O O1 0.750000 0.163751 0.217207
O O2 0.649471 0.520553 0.265813
O O3 0.658065 0.430654 0.131232
O O4 0.563971 0.148371 0.216392
O O5 0.250000 0.529962 0.504667
O O6 0.368945 0.470127 0.403482
O O7 0.407206 0.686607 0.520069
O O8 0.369902 0.180843 0.514236
O O9 0.250000 0.317508 0.841169
O O10 0.431859 0.373563 0.824160
O O11 0.000000 0.000000 0.589771
#
# Coordination Sequence:
#
# PCOD8193280 Si02
#       5
#     8   8   8   8   4
#     4  11  26  47  71 101 143 191 239 300 367 434
#     4  11  26  48  73 105 148 194 239 297 367 435
#     4  10  25  46  71 103 144 191 239 298 367 433
#     4  12  27  46  73 109 146 190 244 301 364 432
#     4  12  24  42  72 106 136 182 252 304 352 436
#
# _framework density 23.585135999999999
#
# number of rings (size 3 to 8) (size 9 to 14) (size 15 to 20)
#    0.000    0.889    0.000    5.333   10.889    1.778 
#    0.000    0.000    0.000    0.000    0.000    0.000 
#    0.000    0.000    0.000    0.000    0.000    0.000 
#
# Total GULP energy -223049.043810 kJ/mol
# GULP energy per Si atom -12391.613545 kJ/mol
# Density = 2.353146 g / cm^3
# Si number density = 23.585136 Si / 1000 Ang^3
#
#
#
# Elastic Constant Matrix: (Units=GPa)
#
#
# Indices 1 2 3 4 5 6 
#
# 1 185.2619 45.5714 36.3531 0.0000 0.0000 0.0000
# 2 45.5714 124.7625 56.0991 0.0000 0.0000 0.0000
# 3 36.3531 56.0991 158.0981 0.0000 0.0000 0.0000
# 4 0.0000 0.0000 0.0000 37.3542 0.0000 0.0000
# 5 0.0000 0.0000 0.0000 0.0000 32.2177 0.0000
# 6 0.0000 0.0000 0.0000 0.0000 0.0000 63.0426
#
#
#
# Elastic Compliance Matrix: (Units=1/GPa)
#
#
# Indices 1 2 3 4 5 6 
#
# 1 0.005998 -0.001869 -0.000716 0.000000 0.000000 0.000000
# 2 -0.001869 0.010119 -0.003161 0.000000 0.000000 0.000000
# 3 -0.000716 -0.003161 0.007611 0.000000 0.000000 0.000000
# 4 0.000000 0.000000 0.000000 0.026771 0.000000 0.000000
# 5 0.000000 0.000000 0.000000 0.000000 0.031039 0.000000
# 6 0.000000 0.000000 0.000000 0.000000 0.000000 0.015862
#
#
# Mechanical properties :
#
#
# Convention : Reuss Voigt Hill
#
# Bulk Modulus (GPa) = 81.71997 82.68551 82.20274
# Shear Modulus (GPa) = 44.25908 48.52949 46.39428
#
# Velocity S-wave (km/s) = 4.33664 4.54103 4.44001
# Velocity P-wave (km/s) = 7.73300 7.91385 7.82395
#
# Compressibility (1/GPa) = 0.01223691
#
# Stress axis : x y z
#
# Youngs Moduli (GPa) = 166.72271 98.82235 131.38111
#
# Poissons Ratio (x) = 0.18469 0.09407
# Poissons Ratio (y) = 0.31159 0.41529
# Poissons Ratio (z) = 0.11938 0.31237
#
# Static dielectric constant tensor:
#      x y z
#    x 4.981630 0.000000 0.000000 
#    y 0.000000 4.078280 0.000000 
#    z 0.000000 0.000000 4.202740 
# 
# 
# High freq. dielectric constant tensor:
#      x y z
#    x 1.966270 0.000000 0.000000 
#    y 0.000000 1.911510 0.000000 
#    z 0.000000 0.000000 1.949800 
# 
# From -- ./inp_files/21849.got.cif
#   From: 2010.03.12/outbox.cif.g09.slc.cpg/sg46_11_cif.got.tgz:21849.got - 2010.04.14 02:56:35.
