data_PCOD8193173
_publ_section_title
;
Structure prediction by ZEFSAII (Michael W. Deem and Ramdas Pophale) SiO2 
 PCOD8193173
Probable space group: I M A 2
;
_chemical_formula_sum "Si O2"
_cell_formula_units_Z 64
_cell_length_a 14.532033
_cell_length_b 12.349032
_cell_length_c 15.997258
_cell_angle_alpha 90.000000
_cell_angle_beta 90.000000
_cell_angle_gamma 90.000000
_cell_volume 2870.812579
_symmetry_space_group_name_H-M "I M A 2"
_symmetry_group_IT_number 46
_symmetry_cell_setting 'orthorhombic'
loop_
_space_group_symop_operation_xyz
x,y,z
-x,-y,z
1/2-x,y,z
1/2+x,-y,z
1/2+x,1/2+y,1/2+z
1/2-x,1/2-y,1/2+z
-x,1/2+y,1/2+z
x,1/2-y,1/2+z
loop_
_atom_site_type_symbol
_atom_site_label
_atom_site_fract_x
_atom_site_fract_y
_atom_site_fract_z
Si Si1 0.897462 0.453958 0.428910
Si Si2 0.647926 0.044381 0.572510
Si Si3 0.859693 0.213644 0.068744
Si Si4 0.143218 0.240449 0.292405
Si Si5 0.350257 0.374936 0.547644
Si Si6 0.895115 0.984759 0.755031
Si Si7 0.859392 0.655902 0.971461
Si Si8 0.509651 0.612469 0.679319
O O1 0.885343 0.343338 0.481126
O O2 0.834066 0.548192 0.467690
O O3 0.868834 0.433010 0.331473
O O4 0.000000 0.500000 0.428355
O O5 0.750000 0.055416 0.536275
O O6 0.602666 0.162744 0.562147
O O7 0.658081 0.008489 0.669462
O O8 0.597878 0.953120 0.514138
O O9 0.750000 0.206569 0.086805
O O10 0.912543 0.161005 0.148051
O O11 0.250000 0.213343 0.272041
O O12 0.129372 0.368650 0.294954
O O13 0.110662 0.177904 0.376185
O O14 0.072157 0.201869 0.222626
O O15 0.250000 0.362822 0.591599
O O16 0.392862 0.257983 0.525508
O O17 0.427220 0.432474 0.603223
O O18 0.000000 0.000000 0.728713
O O19 0.750000 0.653594 0.976279
O O20 0.500000 0.500000 0.732693
#
# Coordination Sequence:
#
# PCOD8193173 Si02
#       8
#     8   8   8   8   8   8   8   8
#     4  11  21  39  65  96 130 167 216 275 323 397
#     4  10  22  41  62  90 129 172 219 268 323 398
#     4  11  23  41  65  89 126 179 222 265 334 412
#     4  11  23  41  67  98 132 173 224 281 339 400
#     4  11  19  35  65  94 122 162 208 267 332 388
#     4  11  23  40  65  99 134 171 218 278 331 394
#     4   9  20  39  64  95 127 165 217 274 332 393
#     4  12  24  40  60  92 133 166 220 275 331 401
#
# _framework density 22.293339
#
# number of rings (size 3 to 8) (size 9 to 14) (size 15 to 20)
#    0.000    1.250    3.750    2.625    0.000    3.000 
#    0.000    5.625    0.000    3.000    0.000    0.000 
#    0.000    0.000    0.000    0.000    0.000    0.000 
#
# Total GULP energy -396466.479539 kJ/mol
# GULP energy per Si atom -12389.577486 kJ/mol
# Density = 2.224260 g / cm^3
# Si number density = 22.293339 Si / 1000 Ang^3
#
#
#
# Elastic Constant Matrix: (Units=GPa)
#
#
# Indices 1 2 3 4 5 6 
#
# 1 82.9748 14.6453 20.5340 0.0000 0.0000 0.0000
# 2 14.6453 161.7726 56.6883 0.0000 0.0000 0.0000
# 3 20.5340 56.6883 108.7351 0.0000 0.0000 0.0000
# 4 0.0000 0.0000 0.0000 35.9569 0.0000 0.0000
# 5 0.0000 0.0000 0.0000 0.0000 -7.2964 0.0000
# 6 0.0000 0.0000 0.0000 0.0000 0.0000 29.0192
#
#
#
# Elastic Compliance Matrix: (Units=1/GPa)
#
#
# Indices 1 2 3 4 5 6 
#
# 1 0.012661 -0.000377 -0.002194 0.000000 0.000000 0.000000
# 2 -0.000377 0.007574 -0.003878 0.000000 0.000000 0.000000
# 3 -0.002194 -0.003878 0.011633 0.000000 0.000000 0.000000
# 4 0.000000 0.000000 0.000000 0.027811 0.000000 0.000000
# 5 0.000000 0.000000 0.000000 0.000000 -0.137053 0.000000
# 6 0.000000 0.000000 0.000000 0.000000 0.000000 0.034460
#
#
# Mechanical properties :
#
#
# Convention : Reuss Voigt Hill
#
# Bulk Modulus (GPa) = 52.71483 59.69088 56.20285
# Shear Modulus (GPa) = -211.04297 28.97693 -91.03302
#
# Velocity S-wave (km/s) = -9.74022 3.60919 -6.39710
# Velocity P-wave (km/s) = 10.13896 6.64843 5.41280
#
# Compressibility (1/GPa) = 0.01897000
#
# Stress axis : x y z
#
# Youngs Moduli (GPa) = 78.97969 132.02229 85.96503
#
# Poissons Ratio (x) = 0.04981 0.18864
# Poissons Ratio (y) = 0.02980 0.33334
# Poissons Ratio (z) = 0.17331 0.51194
#
# Static dielectric constant tensor:
#      x y z
#    x 4.119930 0.000000 0.000000 
#    y 0.000000 4.215080 0.000000 
#    z 0.000000 0.000000 4.039550 
# 
# 
# High freq. dielectric constant tensor:
#      x y z
#    x 1.879480 0.000000 0.000000 
#    y 0.000000 1.879920 0.000000 
#    z 0.000000 0.000000 1.863180 
# 
# From -- ./inp_files/19655.got.cif
#   From: 2010.03.12/outbox.cif.g09.slc.cpg/sg46_10_cif.got.tgz:19655.got - 2010.04.14 02:56:35.
