data_PCOD8193328
_publ_section_title
;
Structure prediction by ZEFSAII (Michael W. Deem and Ramdas Pophale) SiO2 
 PCOD8193328
Probable space group: I M A 2
;
_chemical_formula_sum "Si O2"
_cell_formula_units_Z 64
_cell_length_a 17.876494
_cell_length_b 11.688286
_cell_length_c 15.084381
_cell_angle_alpha 90.000000
_cell_angle_beta 90.000000
_cell_angle_gamma 90.000000
_cell_volume 3151.814655
_symmetry_space_group_name_H-M "I M A 2"
_symmetry_group_IT_number 46
_symmetry_cell_setting 'orthorhombic'
loop_
_space_group_symop_operation_xyz
x,y,z
-x,-y,z
1/2-x,y,z
1/2+x,-y,z
1/2+x,1/2+y,1/2+z
1/2-x,1/2-y,1/2+z
-x,1/2+y,1/2+z
x,1/2-y,1/2+z
loop_
_atom_site_type_symbol
_atom_site_label
_atom_site_fract_x
_atom_site_fract_y
_atom_site_fract_z
Si Si1 0.163145 0.773854 0.838430
Si Si2 0.836564 0.044249 0.258426
Si Si3 0.405889 0.325247 0.438577
Si Si4 0.086287 0.006773 0.784229
Si Si5 0.661518 0.495018 0.565736
Si Si6 0.661797 0.577256 0.930820
Si Si7 0.420163 0.957501 0.582179
Si Si8 0.427398 0.777153 0.001383
O O1 0.250000 0.785243 0.863770
O O2 0.151075 0.682198 0.759362
O O3 0.132176 0.897647 0.815496
O O4 0.117008 0.720099 0.919831
O O5 0.750000 0.015927 0.264877
O O6 0.867764 0.992101 0.167015
O O7 0.873425 0.983246 0.343550
O O8 0.389009 0.382543 0.341756
O O9 0.359249 0.391450 0.513266
O O10 0.375945 0.198947 0.436079
O O11 0.491792 0.320492 0.469333
O O12 0.097986 0.012646 0.678427
O O13 0.000000 0.000000 0.808067
O O14 0.750000 0.471906 0.561818
O O15 0.618955 0.388167 0.525927
O O16 0.750000 0.591126 0.925855
O O17 0.643783 0.502934 0.017588
O O18 0.426086 0.818151 0.579974
O O19 0.500000 0.000000 0.547232
#
# Coordination Sequence:
#
# PCOD8193328 Si02
#       8
#     8   8   8   8   8   8   8   8
#     4  11  21  38  67  95 120 160 210 268 324 371
#     4   9  21  41  64  93 124 154 208 270 319 367
#     4  12  24  42  62  92 134 174 209 255 317 393
#     4  11  23  41  64  94 131 166 206 264 325 385
#     4  11  23  41  66  95 125 163 210 268 321 377
#     4  11  24  43  66  92 126 174 219 262 314 385
#     4  11  24  43  66  95 129 168 213 268 324 383
#     4  12  22  40  66  94 127 166 214 262 320 380
#
# _framework density 20.305762000000001
#
# number of rings (size 3 to 8) (size 9 to 14) (size 15 to 20)
#    0.000    1.000    5.000    1.875    0.000    2.500 
#    0.000    3.750    0.000    0.000    0.000    0.000 
#    0.000    0.000    0.000    0.000    0.000    0.000 
#
# Total GULP energy -396640.338231 kJ/mol
# GULP energy per Si atom -12395.010570 kJ/mol
# Density = 2.025955 g / cm^3
# Si number density = 20.305762 Si / 1000 Ang^3
#
#
#
# Elastic Constant Matrix: (Units=GPa)
#
#
# Indices 1 2 3 4 5 6 
#
# 1 94.1145 25.2484 30.1759 0.0000 0.0000 0.0000
# 2 25.2484 102.3444 30.3847 0.0000 0.0000 0.0000
# 3 30.1759 30.3847 117.1328 0.0000 0.0000 0.0000
# 4 0.0000 0.0000 0.0000 15.2956 0.0000 0.0000
# 5 0.0000 0.0000 0.0000 0.0000 23.3388 0.0000
# 6 0.0000 0.0000 0.0000 0.0000 0.0000 -16.9102
#
#
#
# Elastic Compliance Matrix: (Units=1/GPa)
#
#
# Indices 1 2 3 4 5 6 
#
# 1 0.012030 -0.002218 -0.002524 0.000000 0.000000 0.000000
# 2 -0.002218 0.010995 -0.002281 0.000000 0.000000 0.000000
# 3 -0.002524 -0.002281 0.009779 0.000000 0.000000 0.000000
# 4 0.000000 0.000000 0.000000 0.065378 0.000000 0.000000
# 5 0.000000 0.000000 0.000000 0.000000 0.042847 0.000000
# 6 0.000000 0.000000 0.000000 0.000000 0.000000 -0.059136
#
#
# Mechanical properties :
#
#
# Convention : Reuss Voigt Hill
#
# Bulk Modulus (GPa) = 53.30929 53.91221 53.61075
# Shear Modulus (GPa) = 48.92755 19.53035 34.22895
#
# Velocity S-wave (km/s) = 4.91403 3.10468 4.11015
# Velocity P-wave (km/s) = 7.64900 6.28171 6.99882
#
# Compressibility (1/GPa) = 0.01875846
#
# Stress axis : x y z
#
# Youngs Moduli (GPa) = 83.12786 90.94759 102.25909
#
# Poissons Ratio (x) = 0.20177 0.25806
# Poissons Ratio (y) = 0.18442 0.23322
# Poissons Ratio (z) = 0.20978 0.20742
#
# Static dielectric constant tensor:
#      x y z
#    x 3.750940 0.000000 0.000000 
#    y 0.000000 3.699020 0.000000 
#    z 0.000000 0.000000 4.356880 
# 
# 
# High freq. dielectric constant tensor:
#      x y z
#    x 1.789730 0.000000 0.000000 
#    y 0.000000 1.799750 0.000000 
#    z 0.000000 0.000000 1.801750 
# 
# From -- ./inp_files/16768.got.cif
#   From: 2010.03.12/outbox.cif.g09.slc.cpg/sg46_9_cif.got.tgz:16768.got - 2010.04.14 02:56:35.
