data_PCOD8193640
_publ_section_title
;
Structure prediction by ZEFSAII (Michael W. Deem and Ramdas Pophale) SiO2 
 PCOD8193640
Probable space group: P M M M
;
_chemical_formula_sum "Si O2"
_cell_formula_units_Z 48
_cell_length_a 9.792670
_cell_length_b 12.037435
_cell_length_c 22.323208
_cell_angle_alpha 90.000000
_cell_angle_beta 90.000000
_cell_angle_gamma 90.000000
_cell_volume 2631.429145
_symmetry_space_group_name_H-M "P M M M"
_symmetry_group_IT_number 47
_symmetry_cell_setting 'orthorhombic'
loop_
_space_group_symop_operation_xyz
x,y,z
-x,-y,z
x,-y,-z
-x,y,-z
-x,-y,-z
x,y,-z
-x,y,z
x,-y,z
loop_
_atom_site_type_symbol
_atom_site_label
_atom_site_fract_x
_atom_site_fract_y
_atom_site_fract_z
Si Si1 0.655899 0.759591 0.935625
Si Si2 0.160577 0.734112 0.610175
Si Si3 0.244645 0.000000 0.066943
Si Si4 0.848607 0.000000 0.804323
Si Si5 0.659319 0.369812 0.177546
Si Si6 0.162611 0.500000 0.568356
Si Si7 0.163227 0.875657 0.500000
Si Si8 0.161591 0.777162 0.744610
O O1 0.500000 0.723348 0.938868
O O2 0.662465 0.891626 0.924913
O O3 0.722030 0.689533 0.881891
O O4 0.726193 0.730137 0.000000
O O5 0.220317 0.609305 0.602314
O O6 0.221320 0.814005 0.558920
O O7 0.195991 0.786200 0.674470
O O8 0.000000 0.726918 0.601009
O O9 0.141091 0.000000 0.123093
O O10 0.174222 0.000000 0.000000
O O11 0.780476 0.112021 0.777804
O O12 0.000000 0.000000 0.777709
O O13 0.500000 0.339047 0.188315
O O14 0.679358 0.500000 0.170119
O O15 0.752322 0.327671 0.231904
O O16 0.215012 0.500000 0.500000
O O17 0.000000 0.500000 0.569480
O O18 0.000000 0.876846 0.500000
O O19 0.221841 0.000000 0.500000
O O20 0.000000 0.757663 0.756328
#
# Coordination Sequence:
#
# PCOD8193640 Si02
#       8
#     8   8   4   4   8   4   4   8
#     4   9  17  30  50  75  99 125 162 208 257 304
#     4   9  17  27  42  65  94 130 165 202 245 294
#     4  10  17  29  50  73  96 127 167 211 255 301
#     4  10  20  34  49  71 102 135 170 211 251 299
#     4  10  21  36  53  75 103 134 170 211 252 298
#     4   9  14  24  40  62  93 121 156 205 248 284
#     4   9  16  25  39  63  96 130 162 200 254 303
#     4  10  21  35  52  74 104 138 172 207 252 306
#
# _framework density 18.241036999999999
#
# number of rings (size 3 to 8) (size 9 to 14) (size 15 to 20)
#    0.000    2.500    2.500    0.250    2.333    1.833 
#    0.000    2.083    0.000    0.500    0.000    1.750 
#    0.000    2.667    0.000    0.000    0.000    0.000 
#
# Total GULP energy -594808.365518 kJ/mol
# GULP energy per Si atom -12391.840948 kJ/mol
# Density = 1.819952 g / cm^3
# Si number density = 18.241037 Si / 1000 Ang^3
#
#
#
# Elastic Constant Matrix: (Units=GPa)
#
#
# Indices 1 2 3 4 5 6 
#
# 1 27.0169 19.6824 24.8017 0.0000 0.0000 0.0000
# 2 19.6824 133.8511 73.4476 0.0000 0.0000 0.0000
# 3 24.8017 73.4476 153.1954 0.0000 0.0000 0.0000
# 4 0.0000 0.0000 0.0000 30.4213 0.0000 0.0000
# 5 0.0000 0.0000 0.0000 0.0000 10.2544 0.0000
# 6 0.0000 0.0000 0.0000 0.0000 0.0000 17.4548
#
#
#
# Elastic Compliance Matrix: (Units=1/GPa)
#
#
# Indices 1 2 3 4 5 6 
#
# 1 0.044671 -0.003529 -0.005540 0.000000 0.000000 0.000000
# 2 -0.003529 0.010417 -0.004423 0.000000 0.000000 0.000000
# 3 -0.005540 -0.004423 0.009545 0.000000 0.000000 0.000000
# 4 0.000000 0.000000 0.000000 0.032872 0.000000 0.000000
# 5 0.000000 0.000000 0.000000 0.000000 0.097519 0.000000
# 6 0.000000 0.000000 0.000000 0.000000 0.000000 0.057291
#
#
# Mechanical properties :
#
#
# Convention : Reuss Voigt Hill
#
# Bulk Modulus (GPa) = 26.56120 61.10296 43.83208
# Shear Modulus (GPa) = 17.13224 24.70155 20.91690
#
# Velocity S-wave (km/s) = 3.06798 3.68390 3.38996
# Velocity P-wave (km/s) = 5.20988 7.18784 6.27726
#
# Compressibility (1/GPa) = 0.03764890
#
# Stress axis : x y z
#
# Youngs Moduli (GPa) = 22.38612 95.99832 104.76600
#
# Poissons Ratio (x) = 0.33874 0.58043
# Poissons Ratio (y) = 0.07899 0.46338
# Poissons Ratio (z) = 0.12402 0.42460
#
# Static dielectric constant tensor:
#      x y z
#    x 2.721320 0.000000 0.000000 
#    y 0.000000 3.514390 0.000000 
#    z 0.000000 0.000000 3.638510 
# 
# 
# High freq. dielectric constant tensor:
#      x y z
#    x 1.631300 0.000000 0.000000 
#    y 0.000000 1.717350 0.000000 
#    z 0.000000 0.000000 1.722900 
# 
# From -- ./inp_files/30467.got.cif
#   From: 2010.03.12/outbox.cif.g09.slc.cpg/sg47_16_cif.got.tgz:30467.got - 2010.04.14 03:12:58.
