data_PCOD8193700
_publ_section_title
;
Structure prediction by ZEFSAII (Michael W. Deem and Ramdas Pophale) SiO2 
 PCOD8193700
Probable space group: P M M M
;
_chemical_formula_sum "Si O2"
_cell_formula_units_Z 56
_cell_length_a 8.946559
_cell_length_b 20.652414
_cell_length_c 18.553937
_cell_angle_alpha 90.000000
_cell_angle_beta 90.000000
_cell_angle_gamma 90.000000
_cell_volume 3428.174580
_symmetry_space_group_name_H-M "P M M M"
_symmetry_group_IT_number 47
_symmetry_cell_setting 'orthorhombic'
loop_
_space_group_symop_operation_xyz
x,y,z
-x,-y,z
x,-y,-z
-x,y,-z
-x,-y,-z
x,y,-z
-x,y,z
x,-y,z
loop_
_atom_site_type_symbol
_atom_site_label
_atom_site_fract_x
_atom_site_fract_y
_atom_site_fract_z
Si Si1 0.171761 0.072505 0.344643
Si Si2 0.829146 0.574627 0.916814
Si Si3 0.832253 0.265073 0.699846
Si Si4 0.324042 0.318924 0.173376
Si Si5 0.327826 0.812015 0.583136
Si Si6 0.673472 0.071922 0.191766
Si Si7 0.166701 0.193782 0.161053
O O1 0.240798 0.121294 0.402798
O O2 0.264590 0.075653 0.271700
O O3 0.000000 0.091195 0.329046
O O4 0.182811 0.000000 0.377114
O O5 0.803859 0.500000 0.896592
O O6 0.718195 0.616235 0.868338
O O7 0.000000 0.594926 0.901222
O O8 0.789688 0.586582 0.000000
O O9 0.746879 0.321142 0.745680
O O10 0.743028 0.247407 0.627817
O O11 0.838385 0.201110 0.751304
O O12 0.000000 0.288502 0.680515
O O13 0.500000 0.312541 0.179472
O O14 0.258844 0.255774 0.130391
O O15 0.310909 0.793309 0.500000
O O16 0.500000 0.820553 0.605617
O O17 0.500000 0.089243 0.193950
O O18 0.755001 0.125528 0.141761
O O19 0.701396 0.000000 0.159219
O O20 0.000000 0.194536 0.127972
#
# Coordination Sequence:
#
# PCOD8193700 Si02
#       7
#     8   8   8   8   8   8   8
#     4  10  19  29  39  50  67  96 136 179 225 284
#     4   9  18  33  52  76 110 147 174 193 214 246
#     4   9  18  31  46  62  81 111 151 192 233 279
#     4  10  18  29  48  70  96 129 162 198 233 268
#     4  11  22  32  42  57  78 104 138 187 246 298
#     4  10  18  26  39  59  82 108 141 188 246 298
#     4   9  17  28  43  61  82 112 152 194 235 280
#
# _framework density 16.335222999999999
#
# number of rings (size 3 to 8) (size 9 to 14) (size 15 to 20)
#    0.857    1.429    1.429    3.429    0.000    3.714 
#    0.000    2.143    0.000    0.000    0.000    0.000 
#    0.000    1.143    0.000   12.000    0.000    6.571 
#
# Total GULP energy -694039.670374 kJ/mol
# GULP energy per Si atom -12393.565542 kJ/mol
# Density = 1.629804 g / cm^3
# Si number density = 16.335223 Si / 1000 Ang^3
#
#
#
# Elastic Constant Matrix: (Units=GPa)
#
#
# Indices 1 2 3 4 5 6 
#
# 1 125.5666 50.5983 27.2985 0.0000 0.0000 0.0000
# 2 50.5983 78.3760 35.5550 0.0000 0.0000 0.0000
# 3 27.2985 35.5550 36.2138 0.0000 0.0000 0.0000
# 4 0.0000 0.0000 0.0000 269.8797 0.0000 0.0000
# 5 0.0000 0.0000 0.0000 0.0000 19.1595 0.0000
# 6 0.0000 0.0000 0.0000 0.0000 0.0000 27.8143
#
#
#
# Elastic Compliance Matrix: (Units=1/GPa)
#
#
# Indices 1 2 3 4 5 6 
#
# 1 0.010874 -0.005953 -0.002352 0.000000 0.000000 0.000000
# 2 -0.005953 0.026264 -0.021299 0.000000 0.000000 0.000000
# 3 -0.002352 -0.021299 0.050299 0.000000 0.000000 0.000000
# 4 0.000000 0.000000 0.000000 0.003705 0.000000 0.000000
# 5 0.000000 0.000000 0.000000 0.000000 0.052194 0.000000
# 6 0.000000 0.000000 0.000000 0.000000 0.000000 0.035953
#
#
# Mechanical properties :
#
#
# Convention : Reuss Voigt Hill
#
# Bulk Modulus (GPa) = 35.42559 51.89556 43.66057
# Shear Modulus (GPa) = 20.16882 71.81766 45.99324
#
# Velocity S-wave (km/s) = 3.51762 6.63780 5.31197
# Velocity P-wave (km/s) = 6.18319 9.51763 8.02549
#
# Compressibility (1/GPa) = 0.02822818
#
# Stress axis : x y z
#
# Youngs Moduli (GPa) = 91.96116 38.07422 19.88124
#
# Poissons Ratio (x) = 0.22666 0.04677
# Poissons Ratio (y) = 0.54745 0.42345
# Poissons Ratio (z) = 0.21633 0.81095
#
# Static dielectric constant tensor:
#      x y z
#    x 3.189250 0.000000 0.000000 
#    y 0.000000 2.941330 0.000000 
#    z 0.000000 0.000000 2.606810 
# 
# 
# High freq. dielectric constant tensor:
#      x y z
#    x 1.647750 0.000000 0.000000 
#    y 0.000000 1.609280 0.000000 
#    z 0.000000 0.000000 1.577830 
# 
# From -- ./inp_files/30072.got.cif
#   From: 2010.03.12/outbox.cif.g09.slc.cpg/sg47_16_cif.got.tgz:30072.got - 2010.04.14 03:12:58.
