data_PCOD8193244
_publ_section_title
;
Structure prediction by ZEFSAII (Michael W. Deem and Ramdas Pophale) SiO2 
 PCOD8193244
Probable space group: I M A 2
;
_chemical_formula_sum "Si O2"
_cell_formula_units_Z 48
_cell_length_a 16.505595
_cell_length_b 14.554316
_cell_length_c 9.004797
_cell_angle_alpha 90.000000
_cell_angle_beta 90.000000
_cell_angle_gamma 90.000000
_cell_volume 2163.201181
_symmetry_space_group_name_H-M "I M A 2"
_symmetry_group_IT_number 46
_symmetry_cell_setting 'orthorhombic'
loop_
_space_group_symop_operation_xyz
x,y,z
-x,-y,z
1/2-x,y,z
1/2+x,-y,z
1/2+x,1/2+y,1/2+z
1/2-x,1/2-y,1/2+z
-x,1/2+y,1/2+z
x,1/2-y,1/2+z
loop_
_atom_site_type_symbol
_atom_site_label
_atom_site_fract_x
_atom_site_fract_y
_atom_site_fract_z
Si Si1 0.092770 0.507991 0.024630
Si Si2 0.590238 0.791054 0.030923
Si Si3 0.842996 0.549349 0.717322
Si Si4 0.158628 0.844937 0.177829
Si Si5 0.842625 0.860853 0.722984
Si Si6 0.413465 0.787772 0.472081
O O1 0.113587 0.455857 0.177208
O O2 0.000000 0.500000 0.978015
O O3 0.144689 0.460403 0.893974
O O4 0.111200 0.615500 0.048215
O O5 0.595593 0.877146 0.144587
O O6 0.650331 0.712463 0.089941
O O7 0.614969 0.821711 0.868014
O O8 0.501627 0.746941 0.020810
O O9 0.750000 0.579764 0.687085
O O10 0.862936 0.450809 0.643636
O O11 0.250000 0.839402 0.240703
O O12 0.095733 0.800394 0.295446
O O13 0.150522 0.788411 0.026047
O O14 0.750000 0.882408 0.758729
#
# Coordination Sequence:
#
# PCOD8193244 Si02
#       6
#     8   8   8   8   8   8
#     4  11  24  44  67  94 134 175 228 273 333 399
#     4  12  25  43  70 103 142 174 224 282 344 412
#     4  10  23  43  69  99 132 177 224 275 339 407
#     4  10  23  43  67  96 131 174 226 275 332 402
#     4  12  25  43  69 102 139 180 224 279 340 409
#     4  11  24  42  68  96 131 176 221 278 339 397
#
# _framework density 22.189336999999998
#
# number of rings (size 3 to 8) (size 9 to 14) (size 15 to 20)
#    0.000    1.000    1.667    4.500    4.667    3.333 
#    0.000    0.000    0.000    0.000    0.000    0.000 
#    0.000    0.000    0.000    0.000    0.000    0.000 
#
# Total GULP energy -297661.247325 kJ/mol
# GULP energy per Si atom -12402.551972 kJ/mol
# Density = 2.213883 g / cm^3
# Si number density = 22.189337 Si / 1000 Ang^3
#
#
#
# Elastic Constant Matrix: (Units=GPa)
#
#
# Indices 1 2 3 4 5 6 
#
# 1 81.5400 46.4558 32.6173 0.0000 0.0000 0.0000
# 2 46.4558 133.0238 53.6918 0.0000 0.0000 0.0000
# 3 32.6173 53.6918 78.7167 0.0000 0.0000 0.0000
# 4 0.0000 0.0000 0.0000 46.8288 0.0000 0.0000
# 5 0.0000 0.0000 0.0000 0.0000 32.7286 0.0000
# 6 0.0000 0.0000 0.0000 0.0000 0.0000 33.6632
#
#
#
# Elastic Compliance Matrix: (Units=1/GPa)
#
#
# Indices 1 2 3 4 5 6 
#
# 1 0.016143 -0.004054 -0.003924 0.000000 0.000000 0.000000
# 2 -0.004054 0.011391 -0.006090 0.000000 0.000000 0.000000
# 3 -0.003924 -0.006090 0.018484 0.000000 0.000000 0.000000
# 4 0.000000 0.000000 0.000000 0.021354 0.000000 0.000000
# 5 0.000000 0.000000 0.000000 0.000000 0.030554 0.000000
# 6 0.000000 0.000000 0.000000 0.000000 0.000000 0.029706
#
#
# Mechanical properties :
#
#
# Convention : Reuss Voigt Hill
#
# Bulk Modulus (GPa) = 55.92143 62.09002 59.00573
# Shear Modulus (GPa) = 30.91577 33.34517 32.13047
#
# Velocity S-wave (km/s) = 3.73670 3.88075 3.80941
# Velocity P-wave (km/s) = 6.62374 6.93707 6.78221
#
# Compressibility (1/GPa) = 0.01788223
#
# Stress axis : x y z
#
# Youngs Moduli (GPa) = 61.94556 87.78643 54.10150
#
# Poissons Ratio (x) = 0.35587 0.21230
# Poissons Ratio (y) = 0.25112 0.32948
# Poissons Ratio (z) = 0.24308 0.53463
#
# Static dielectric constant tensor:
#      x y z
#    x 3.923450 0.000000 0.000000 
#    y 0.000000 4.327180 0.000000 
#    z 0.000000 0.000000 3.792790 
# 
# 
# High freq. dielectric constant tensor:
#      x y z
#    x 1.874910 0.000000 0.000000 
#    y 0.000000 1.891770 0.000000 
#    z 0.000000 0.000000 1.860820 
# 
# From -- ./inp_files/6581.got.cif
#   From: 2010.03.12/outbox.cif.g09.slc.cpg/sg46_4_cif.got.tgz:6581.got - 2010.04.14 02:56:35.
