data_PCOD8193242
_publ_section_title
;
Structure prediction by ZEFSAII (Michael W. Deem and Ramdas Pophale) SiO2 
 PCOD8193242
Probable space group: I M A 2
;
_chemical_formula_sum "Si O2"
_cell_formula_units_Z 56
_cell_length_a 14.936802
_cell_length_b 14.327080
_cell_length_c 11.379995
_cell_angle_alpha 90.000000
_cell_angle_beta 90.000000
_cell_angle_gamma 90.000000
_cell_volume 2435.327547
_symmetry_space_group_name_H-M "I M A 2"
_symmetry_group_IT_number 46
_symmetry_cell_setting 'orthorhombic'
loop_
_space_group_symop_operation_xyz
x,y,z
-x,-y,z
1/2-x,y,z
1/2+x,-y,z
1/2+x,1/2+y,1/2+z
1/2-x,1/2-y,1/2+z
-x,1/2+y,1/2+z
x,1/2-y,1/2+z
loop_
_atom_site_type_symbol
_atom_site_label
_atom_site_fract_x
_atom_site_fract_y
_atom_site_fract_z
Si Si1 0.846459 0.867999 0.426450
Si Si2 0.420422 0.067673 0.668109
Si Si3 0.351129 0.892281 0.105919
Si Si4 0.351510 0.734375 0.940625
Si Si5 0.030803 0.203713 0.850216
Si Si6 0.092386 0.547052 0.848066
Si Si7 0.647245 0.956469 0.912584
O O1 0.750000 0.816148 0.419324
O O2 0.860127 0.905616 0.558234
O O3 0.925679 0.804273 0.376062
O O4 0.838747 0.960834 0.346044
O O5 0.454455 0.168218 0.717417
O O6 0.366052 0.015867 0.774484
O O7 0.500000 0.000000 0.627445
O O8 0.250000 0.915701 0.144486
O O9 0.414315 0.907180 0.218556
O O10 0.357807 0.783183 0.068658
O O11 0.379960 0.957458 0.996127
O O12 0.250000 0.747503 0.890062
O O13 0.424109 0.789119 0.862448
O O14 0.377093 0.624820 0.943897
O O15 0.079305 0.129960 0.940161
O O16 0.000000 0.500000 0.889270
O O17 0.750000 0.926254 0.934102
#
# Coordination Sequence:
#
# PCOD8193242 Si02
#       7
#     8   8   8   8   8   8   8
#     4  12  25  45  71 101 143 184 232 294 357 425
#     4  10  23  42  69  98 144 186 230 287 344 422
#     4  10  23  43  73 104 137 185 237 292 350 415
#     4  11  24  46  70 101 141 183 239 294 350 418
#     4  10  24  41  69 103 138 189 232 288 347 422
#     4  12  26  47  69 103 141 185 234 289 356 419
#     4   9  20  42  70 105 140 182 238 291 351 419
#
# _framework density 22.994852999999999
#
# number of rings (size 3 to 8) (size 9 to 14) (size 15 to 20)
#    0.857    0.571    1.429    3.429    2.000    2.286 
#    2.571    0.714    0.000    0.000    0.000    0.000 
#    0.000    0.000    0.000    0.000    0.000    0.000 
#
# Total GULP energy -346896.333368 kJ/mol
# GULP energy per Si atom -12389.154763 kJ/mol
# Density = 2.294252 g / cm^3
# Si number density = 22.994853 Si / 1000 Ang^3
#
#
#
# Elastic Constant Matrix: (Units=GPa)
#
#
# Indices 1 2 3 4 5 6 
#
# 1 147.7558 44.6936 22.7179 0.0000 0.0000 0.0000
# 2 44.6936 140.9959 47.9248 0.0000 0.0000 0.0000
# 3 22.7179 47.9248 92.8709 0.0000 0.0000 0.0000
# 4 0.0000 0.0000 0.0000 31.5657 0.0000 0.0000
# 5 0.0000 0.0000 0.0000 0.0000 24.3128 0.0000
# 6 0.0000 0.0000 0.0000 0.0000 0.0000 37.9702
#
#
#
# Elastic Compliance Matrix: (Units=1/GPa)
#
#
# Indices 1 2 3 4 5 6 
#
# 1 0.007527 -0.002135 -0.000740 0.000000 0.000000 0.000000
# 2 -0.002135 0.009206 -0.004229 0.000000 0.000000 0.000000
# 3 -0.000740 -0.004229 0.013131 0.000000 0.000000 0.000000
# 4 0.000000 0.000000 0.000000 0.031680 0.000000 0.000000
# 5 0.000000 0.000000 0.000000 0.000000 0.041131 0.000000
# 6 0.000000 0.000000 0.000000 0.000000 0.000000 0.026336
#
#
# Mechanical properties :
#
#
# Convention : Reuss Voigt Hill
#
# Bulk Modulus (GPa) = 63.86369 68.03281 65.94825
# Shear Modulus (GPa) = 33.68430 36.52214 35.10322
#
# Velocity S-wave (km/s) = 3.83150 3.98964 3.91137
# Velocity P-wave (km/s) = 6.88529 7.13255 7.01001
#
# Compressibility (1/GPa) = 0.01565835
#
# Stress axis : x y z
#
# Youngs Moduli (GPa) = 132.84885 108.62043 76.15711
#
# Poissons Ratio (x) = 0.23186 0.05634
# Poissons Ratio (y) = 0.28358 0.32204
# Poissons Ratio (z) = 0.09828 0.45932
#
# Static dielectric constant tensor:
#      x y z
#    x 4.160330 0.000000 0.000000 
#    y 0.000000 4.208270 0.000000 
#    z 0.000000 0.000000 3.738620 
# 
# 
# High freq. dielectric constant tensor:
#      x y z
#    x 1.916100 0.000000 0.000000 
#    y 0.000000 1.911630 0.000000 
#    z 0.000000 0.000000 1.882380 
# 
# From -- ./inp_files/11170.got.cif
#   From: 2010.03.12/outbox.cif.g09.slc.cpg/sg46_6_cif.got.tgz:11170.got - 2010.04.14 02:56:35.
