data_PCOD8193013
_publ_section_title
;
Structure prediction by ZEFSAII (Michael W. Deem and Ramdas Pophale) SiO2 
 PCOD8193013
Probable space group: I M A 2
;
_chemical_formula_sum "Si O2"
_cell_formula_units_Z 40
_cell_length_a 13.642552
_cell_length_b 22.838711
_cell_length_c 5.100496
_cell_angle_alpha 90.000000
_cell_angle_beta 90.000000
_cell_angle_gamma 90.000000
_cell_volume 1589.203885
_symmetry_space_group_name_H-M "I M A 2"
_symmetry_group_IT_number 46
_symmetry_cell_setting 'orthorhombic'
loop_
_space_group_symop_operation_xyz
x,y,z
-x,-y,z
1/2-x,y,z
1/2+x,-y,z
1/2+x,1/2+y,1/2+z
1/2-x,1/2-y,1/2+z
-x,1/2+y,1/2+z
x,1/2-y,1/2+z
loop_
_atom_site_type_symbol
_atom_site_label
_atom_site_fract_x
_atom_site_fract_y
_atom_site_fract_z
Si Si1 0.866015 0.716868 0.605670
Si Si2 0.046704 0.909588 0.590143
Si Si3 0.861193 0.909479 0.278650
Si Si4 0.637082 0.213427 0.538632
Si Si5 0.860786 0.465026 0.583777
O O1 0.750000 0.724507 0.605397
O O2 0.911939 0.746948 0.348953
O O3 0.894393 0.648350 0.617578
O O4 0.070154 0.841442 0.606440
O O5 0.111889 0.940269 0.367665
O O6 0.931504 0.917782 0.528759
O O7 0.066086 0.939790 0.868104
O O8 0.750000 0.902548 0.386836
O O9 0.870278 0.964740 0.086300
O O10 0.750000 0.194094 0.566262
O O11 0.613558 0.264967 0.745129
O O12 0.750000 0.445782 0.516625
#
# Coordination Sequence:
#
# PCOD8193013 Si02
#       5
#     8   8   8   8   8
#     4   9  19  37  62  92 130 177 225 271 323 391
#     4  12  25  44  72 104 140 184 235 288 350 420
#     4  10  25  46  70 103 144 187 232 286 347 418
#     4  10  21  39  66 101 140 181 229 286 346 407
#     4  11  25  46  71 100 136 181 235 295 356 414
#
# _framework density 25.169833000000001
#
# number of rings (size 3 to 8) (size 9 to 14) (size 15 to 20)
#    0.000    1.600    0.000    3.600    0.000    9.600 
#    0.000   11.000    0.000    2.400    0.000    0.000 
#    0.000    0.000    0.000    0.000    0.000    0.000 
#
# Total GULP energy -248131.080512 kJ/mol
# GULP energy per Si atom -12406.554026 kJ/mol
# Density = 2.511255 g / cm^3
# Si number density = 25.169833 Si / 1000 Ang^3
#
#
#
# Elastic Constant Matrix: (Units=GPa)
#
#
# Indices 1 2 3 4 5 6 
#
# 1 101.1457 33.4348 -1.4112 -0.0225 -0.0028 -0.0098
# 2 33.4348 142.0424 20.8008 -0.0093 -0.0095 -0.0063
# 3 -1.4112 20.8008 76.9078 -0.0826 -0.1048 -0.0589
# 4 -0.0225 -0.0093 -0.0826 32.3811 -0.0127 -0.0044
# 5 -0.0028 -0.0095 -0.1048 -0.0127 28.2331 -0.0088
# 6 -0.0098 -0.0063 -0.0589 -0.0044 -0.0088 31.9614
#
#
#
# Elastic Compliance Matrix: (Units=1/GPa)
#
#
# Indices 1 2 3 4 5 6 
#
# 1 0.010783 -0.002673 0.000921 0.000009 0.000004 0.000004
# 2 -0.002673 0.007993 -0.002211 -0.000005 -0.000006 -0.000003
# 3 0.000921 -0.002211 0.013618 0.000035 0.000050 0.000025
# 4 0.000009 -0.000005 0.000035 0.030882 0.000014 0.000004
# 5 0.000004 -0.000006 0.000050 0.000014 0.035420 0.000010
# 6 0.000004 -0.000003 0.000025 0.000004 0.000010 0.031288
#
#
# Mechanical properties :
#
#
# Convention : Reuss Voigt Hill
#
# Bulk Modulus (GPa) = 40.87033 47.30497 44.08765
# Shear Modulus (GPa) = 34.23114 36.33320 35.28217
#
# Velocity S-wave (km/s) = 3.69183 3.80349 3.74808
# Velocity P-wave (km/s) = 5.86906 6.17445 6.02369
#
# Compressibility (1/GPa) = 0.02446763
#
# Stress axis : x y z
#
# Youngs Moduli (GPa) = 92.73691 125.10757 73.43453
#
# Poissons Ratio (x) = 0.33442 -0.06762
# Poissons Ratio (y) = 0.24789 0.16236
# Poissons Ratio (z) = -0.08540 0.27660
#
# Static dielectric constant tensor:
#      x y z
#    x 4.690190 0.000000 0.000010 
#    y 0.000000 4.638360 -0.000020 
#    z 0.000010 -0.000020 4.380850 
# 
# 
# High freq. dielectric constant tensor:
#      x y z
#    x 2.017090 0.000000 0.000000 
#    y 0.000000 2.016170 0.000000 
#    z 0.000000 0.000000 1.993590 
# 
# From -- ./inp_files/1219.got.cif
#   From: 2010.03.12/outbox.cif.g09.slc.cpg/sg46_1_cif.got.tgz:1219.got - 2010.04.14 02:56:35.
