data_PCOD8193665
_publ_section_title
;
Structure prediction by ZEFSAII (Michael W. Deem and Ramdas Pophale) SiO2 
 PCOD8193665
Probable space group: P M M M
;
_chemical_formula_sum "Si O2"
_cell_formula_units_Z 40
_cell_length_a 9.112482
_cell_length_b 11.939052
_cell_length_c 20.669242
_cell_angle_alpha 90.000000
_cell_angle_beta 90.000000
_cell_angle_gamma 90.000000
_cell_volume 2248.697708
_symmetry_space_group_name_H-M "P M M M"
_symmetry_group_IT_number 47
_symmetry_cell_setting 'orthorhombic'
loop_
_space_group_symop_operation_xyz
x,y,z
-x,-y,z
x,-y,-z
-x,y,-z
-x,-y,-z
x,y,-z
-x,y,z
x,-y,z
loop_
_atom_site_type_symbol
_atom_site_label
_atom_site_fract_x
_atom_site_fract_y
_atom_site_fract_z
Si Si1 0.174263 0.125892 0.571225
Si Si2 0.325689 0.268828 0.928448
Si Si3 0.829054 0.257763 0.693764
Si Si4 0.832576 0.500000 0.736966
Si Si5 0.325799 0.500000 0.129186
Si Si6 0.326061 0.127613 0.191924
O O1 0.233453 0.161949 0.500000
O O2 0.234613 0.209704 0.626150
O O3 0.000000 0.129224 0.570151
O O4 0.228183 0.000000 0.587463
O O5 0.500000 0.273163 0.930173
O O6 0.264791 0.390421 0.907321
O O7 0.272920 0.175074 0.877539
O O8 0.264319 0.239263 0.000000
O O9 0.801271 0.390874 0.693297
O O10 0.744862 0.201331 0.752543
O O11 0.000000 0.228312 0.701522
O O12 0.726259 0.500000 0.797510
O O13 0.000000 0.500000 0.762124
O O14 0.500000 0.500000 0.130529
O O15 0.500000 0.137070 0.198724
O O16 0.272006 0.000000 0.197496
#
# Coordination Sequence:
#
# PCOD8193665 Si02
#       6
#     8   8   8   4   4   8
#     4   8  14  26  46  71  95 121 157 196 230 270
#     4   9  17  29  47  71  95 119 154 200 242 281
#     4  10  19  32  50  71  97 128 160 194 236 281
#     4  10  20  31  46  71 100 125 154 196 238 280
#     4  10  17  30  52  71  89 120 162 200 237 282
#     4  10  20  32  48  72  98 124 158 198 238 283
#
# _framework density 17.788073000000001
#
# number of rings (size 3 to 8) (size 9 to 14) (size 15 to 20)
#    0.000    2.600    2.000    1.500    0.000    2.800 
#    0.000    2.500    0.000    6.600    0.000    4.200 
#    0.000    2.400    0.000    0.000    0.000    0.000 
#
# Total GULP energy -495849.584591 kJ/mol
# GULP energy per Si atom -12396.239615 kJ/mol
# Density = 1.774759 g / cm^3
# Si number density = 17.788073 Si / 1000 Ang^3
#
#
#
# Elastic Constant Matrix: (Units=GPa)
#
#
# Indices 1 2 3 4 5 6 
#
# 1 12.7732 20.1896 16.9574 0.0000 0.0000 0.0000
# 2 20.1896 142.3757 78.5776 0.0000 0.0000 0.0000
# 3 16.9574 78.5776 157.9927 0.0000 0.0000 0.0000
# 4 0.0000 0.0000 0.0000 37.6549 0.0000 0.0000
# 5 0.0000 0.0000 0.0000 0.0000 20.8315 0.0000
# 6 0.0000 0.0000 0.0000 0.0000 0.0000 14.9839
#
#
#
# Elastic Compliance Matrix: (Units=1/GPa)
#
#
# Indices 1 2 3 4 5 6 
#
# 1 0.104001 -0.011836 -0.005276 0.000000 0.000000 0.000000
# 2 -0.011836 0.011028 -0.004214 0.000000 0.000000 0.000000
# 3 -0.005276 -0.004214 0.008992 0.000000 0.000000 0.000000
# 4 0.000000 0.000000 0.000000 0.026557 0.000000 0.000000
# 5 0.000000 0.000000 0.000000 0.000000 0.048004 0.000000
# 6 0.000000 0.000000 0.000000 0.000000 0.000000 0.066738
#
#
# Mechanical properties :
#
#
# Convention : Reuss Voigt Hill
#
# Bulk Modulus (GPa) = 12.28979 60.51011 36.39995
# Shear Modulus (GPa) = 14.92109 27.85519 21.38814
#
# Velocity S-wave (km/s) = 2.89939 3.96150 3.47131
# Velocity P-wave (km/s) = 4.25824 7.41726 6.04766
#
# Compressibility (1/GPa) = 0.08136835
#
# Stress axis : x y z
#
# Youngs Moduli (GPa) = 9.61525 90.67779 111.21372
#
# Poissons Ratio (x) = 1.07328 0.58674
# Poissons Ratio (y) = 0.11381 0.46870
# Poissons Ratio (z) = 0.05073 0.38215
#
# Static dielectric constant tensor:
#      x y z
#    x 2.865430 0.000000 0.000000 
#    y 0.000000 3.584470 0.000000 
#    z 0.000000 0.000000 3.655440 
# 
# 
# High freq. dielectric constant tensor:
#      x y z
#    x 1.637620 0.000000 0.000000 
#    y 0.000000 1.695610 0.000000 
#    z 0.000000 0.000000 1.695180 
# 
# From -- ./inp_files/4135.got.cif
#   From: 2010.03.12/outbox.cif.g09.slc.cpg/sg47_3_cif.got.tgz:4135.got - 2010.04.14 03:12:58.
