data_PCOD8193346
_publ_section_title
;
Structure prediction by ZEFSAII (Michael W. Deem and Ramdas Pophale) SiO2 
 PCOD8193346
Probable space group: I M A 2
;
_chemical_formula_sum "Si O2"
_cell_formula_units_Z 48
_cell_length_a 16.640785
_cell_length_b 14.263916
_cell_length_c 9.456325
_cell_angle_alpha 90.000000
_cell_angle_beta 90.000000
_cell_angle_gamma 90.000000
_cell_volume 2244.579396
_symmetry_space_group_name_H-M "I M A 2"
_symmetry_group_IT_number 46
_symmetry_cell_setting 'orthorhombic'
loop_
_space_group_symop_operation_xyz
x,y,z
-x,-y,z
1/2-x,y,z
1/2+x,-y,z
1/2+x,1/2+y,1/2+z
1/2-x,1/2-y,1/2+z
-x,1/2+y,1/2+z
x,1/2-y,1/2+z
loop_
_atom_site_type_symbol
_atom_site_label
_atom_site_fract_x
_atom_site_fract_y
_atom_site_fract_z
Si Si1 0.156830 0.314781 0.162760
Si Si2 0.158118 0.781033 0.136473
Si Si3 0.060292 0.421558 0.381167
Si Si4 0.552834 0.249580 0.884844
Si Si5 0.097480 0.148350 0.351038
Si Si6 0.157458 0.496639 0.648077
O O1 0.250000 0.316123 0.195790
O O2 0.117091 0.400633 0.247815
O O3 0.120429 0.218422 0.222648
O O4 0.143678 0.325510 0.995057
O O5 0.250000 0.749441 0.160936
O O6 0.095672 0.728035 0.237238
O O7 0.148520 0.892118 0.154238
O O8 0.129618 0.743371 0.985863
O O9 0.111076 0.456715 0.513635
O O10 0.000000 0.500000 0.326353
O O11 0.008986 0.331638 0.430104
O O12 0.498811 0.344361 0.878482
O O13 0.120681 0.045273 0.293997
O O14 0.250000 0.466151 0.634689
#
# Coordination Sequence:
#
# PCOD8193346 Si02
#       6
#     8   8   8   8   8   8
#     4  11  22  39  63  95 134 173 211 262 328 400
#     4  11  24  43  66  92 128 171 219 267 319 389
#     4  11  22  41  65  93 127 166 221 270 321 383
#     4  11  22  41  64  93 124 167 217 260 324 380
#     4  11  23  39  68  98 134 168 213 270 327 399
#     4  11  23  42  69 100 130 169 215 271 331 387
#
# _framework density 21.384855000000002
#
# number of rings (size 3 to 8) (size 9 to 14) (size 15 to 20)
#    0.000    1.000    1.667    7.500    0.000    0.000 
#    6.000    0.000    0.000    0.000    0.000    0.000 
#    0.000    0.000    0.000    0.000    0.000    0.000 
#
# Total GULP energy -297585.495696 kJ/mol
# GULP energy per Si atom -12399.395654 kJ/mol
# Density = 2.133618 g / cm^3
# Si number density = 21.384855 Si / 1000 Ang^3
#
#
#
# Elastic Constant Matrix: (Units=GPa)
#
#
# Indices 1 2 3 4 5 6 
#
# 1 139.8106 36.6398 16.2589 0.0000 0.0000 0.0000
# 2 36.6398 35.0767 17.9467 0.0000 0.0000 0.0000
# 3 16.2589 17.9467 86.9737 0.0000 0.0000 0.0000
# 4 0.0000 0.0000 0.0000 28.0371 0.0000 0.0000
# 5 0.0000 0.0000 0.0000 0.0000 37.7575 0.0000
# 6 0.0000 0.0000 0.0000 0.0000 0.0000 34.0732
#
#
#
# Elastic Compliance Matrix: (Units=1/GPa)
#
#
# Indices 1 2 3 4 5 6 
#
# 1 0.009856 -0.010457 0.000315 0.000000 0.000000 0.000000
# 2 -0.010457 0.042968 -0.006911 0.000000 0.000000 0.000000
# 3 0.000315 -0.006911 0.012865 0.000000 0.000000 0.000000
# 4 0.000000 0.000000 0.000000 0.035667 0.000000 0.000000
# 5 0.000000 0.000000 0.000000 0.000000 0.026485 0.000000
# 6 0.000000 0.000000 0.000000 0.000000 0.000000 0.029349
#
#
# Mechanical properties :
#
#
# Convention : Reuss Voigt Hill
#
# Bulk Modulus (GPa) = 31.66258 44.83910 38.25084
# Shear Modulus (GPa) = 24.77417 32.70794 28.74106
#
# Velocity S-wave (km/s) = 3.40735 3.91511 3.67003
# Velocity P-wave (km/s) = 5.50621 6.43822 5.99037
#
# Compressibility (1/GPa) = 0.03158302
#
# Stress axis : x y z
#
# Youngs Moduli (GPa) = 101.45844 23.27323 77.73056
#
# Poissons Ratio (x) = 0.24336 -0.02450
# Poissons Ratio (y) = 1.06092 0.53723
# Poissons Ratio (z) = -0.03198 0.16085
#
# Static dielectric constant tensor:
#      x y z
#    x 4.155310 0.000000 0.000000 
#    y 0.000000 3.818110 0.000000 
#    z 0.000000 0.000000 3.830430 
# 
# 
# High freq. dielectric constant tensor:
#      x y z
#    x 1.861850 0.000000 0.000000 
#    y 0.000000 1.819030 0.000000 
#    z 0.000000 0.000000 1.845000 
# 
# From -- ./inp_files/6613.got.cif
#   From: 2010.03.12/outbox.cif.g09.slc.cpg/sg46_4_cif.got.tgz:6613.got - 2010.04.14 02:56:35.
