data_PCOD8193620
_publ_section_title
;
Structure prediction by ZEFSAII (Michael W. Deem and Ramdas Pophale) SiO2 
 PCOD8193620
Probable space group: P M M M
;
_chemical_formula_sum "Si O2"
_cell_formula_units_Z 52
_cell_length_a 13.498438
_cell_length_b 12.720543
_cell_length_c 18.242492
_cell_angle_alpha 90.000000
_cell_angle_beta 90.000000
_cell_angle_gamma 90.000000
_cell_volume 3132.371984
_symmetry_space_group_name_H-M "P M M M"
_symmetry_group_IT_number 47
_symmetry_cell_setting 'orthorhombic'
loop_
_space_group_symop_operation_xyz
x,y,z
-x,-y,z
x,-y,-z
-x,y,-z
-x,-y,-z
x,y,-z
-x,y,z
x,-y,z
loop_
_atom_site_type_symbol
_atom_site_label
_atom_site_fract_x
_atom_site_fract_y
_atom_site_fract_z
Si Si1 0.215932 0.879652 0.086382
Si Si2 0.611973 0.247162 0.134988
Si Si3 0.617400 0.615508 0.000000
Si Si4 0.114422 0.300128 0.832509
Si Si5 0.820703 0.622019 0.316667
Si Si6 0.609286 0.380183 0.280855
Si Si7 0.000000 0.375666 0.418508
Si Si8 0.118155 0.500000 0.918674
O O1 0.320061 0.856091 0.127355
O O2 0.132396 0.808212 0.124518
O O3 0.187093 0.000000 0.100633
O O4 0.222378 0.855619 0.000000
O O5 0.500000 0.211292 0.120330
O O6 0.623769 0.302296 0.213017
O O7 0.652832 0.325949 0.073132
O O8 0.665478 0.500000 0.000000
O O9 0.500000 0.607389 0.000000
O O10 0.165970 0.303589 0.753535
O O11 0.158889 0.396024 0.879295
O O12 0.000000 0.315801 0.818188
O O13 0.844981 0.500000 0.297971
O O14 0.702658 0.634937 0.337485
O O15 0.897841 0.661374 0.378813
O O16 0.500000 0.358734 0.317576
O O17 0.611471 0.500000 0.251169
O O18 0.000000 0.500000 0.424036
O O19 0.000000 0.325996 0.500000
O O20 0.000000 0.500000 0.919807
O O21 0.161893 0.500000 0.000000
#
# Coordination Sequence:
#
# PCOD8193620 Si02
#       8
#     8   8   4   8   8   8   4   4
#     4  11  24  38  47  60  87 127 177 220 254 302
#     4  10  18  30  46  64  87 118 159 210 261 299
#     4   9  16  26  41  63  90 117 149 200 266 320
#     4  11  20  33  51  70  92 120 162 207 258 307
#     4  10  17  28  50  76 103 134 162 198 244 289
#     4   9  17  28  44  70 101 130 159 195 246 305
#     4   9  18  30  48  78 113 142 165 191 230 286
#     4   9  18  30  46  68  93 117 149 204 263 310
#
# _framework density 16.600839000000001
#
# number of rings (size 3 to 8) (size 9 to 14) (size 15 to 20)
#    0.000    2.077    3.846    0.923    0.000    3.385 
#    1.385    1.538    0.000    0.462    0.000    3.231 
#    0.000    1.231    0.000    0.000    0.000    4.923 
#
# Total GULP energy -644340.618240 kJ/mol
# GULP energy per Si atom -12391.165735 kJ/mol
# Density = 1.656305 g / cm^3
# Si number density = 16.600839 Si / 1000 Ang^3
#
#
#
# Elastic Constant Matrix: (Units=GPa)
#
#
# Indices 1 2 3 4 5 6 
#
# 1 115.6660 14.9009 41.3786 0.0000 0.0000 0.0000
# 2 14.9009 63.4516 20.0062 0.0000 0.0000 0.0000
# 3 41.3786 20.0062 70.0610 0.0000 0.0000 0.0000
# 4 0.0000 0.0000 0.0000 8.9908 0.0000 0.0000
# 5 0.0000 0.0000 0.0000 0.0000 15.2716 0.0000
# 6 0.0000 0.0000 0.0000 0.0000 0.0000 17.2775
#
#
#
# Elastic Compliance Matrix: (Units=1/GPa)
#
#
# Indices 1 2 3 4 5 6 
#
# 1 0.010981 -0.000587 -0.006318 0.000000 0.000000 0.000000
# 2 -0.000587 0.017351 -0.004608 0.000000 0.000000 0.000000
# 3 -0.006318 -0.004608 0.019321 0.000000 0.000000 0.000000
# 4 0.000000 0.000000 0.000000 0.111225 0.000000 0.000000
# 5 0.000000 0.000000 0.000000 0.000000 0.065481 0.000000
# 6 0.000000 0.000000 0.000000 0.000000 0.000000 0.057879
#
#
# Mechanical properties :
#
#
# Convention : Reuss Voigt Hill
#
# Bulk Modulus (GPa) = 40.60592 44.63888 42.62240
# Shear Modulus (GPa) = 15.95034 19.83416 17.89225
#
# Velocity S-wave (km/s) = 3.10307 3.46029 3.28654
# Velocity P-wave (km/s) = 6.11162 6.55078 6.33501
#
# Compressibility (1/GPa) = 0.02462695
#
# Stress axis : x y z
#
# Youngs Moduli (GPa) = 91.06259 57.63440 51.75803
#
# Poissons Ratio (x) = 0.03382 0.32702
# Poissons Ratio (y) = 0.05343 0.23850
# Poissons Ratio (z) = 0.57535 0.26558
#
# Static dielectric constant tensor:
#      x y z
#    x 3.433310 0.000000 0.000000 
#    y 0.000000 2.828170 0.000000 
#    z 0.000000 0.000000 2.859350 
# 
# 
# High freq. dielectric constant tensor:
#      x y z
#    x 1.666670 0.000000 0.000000 
#    y 0.000000 1.598730 0.000000 
#    z 0.000000 0.000000 1.591720 
# 
# From -- ./inp_files/28214.got.cif
#   From: 2010.03.12/outbox.cif.g09.slc.cpg/sg47_15_cif.got.tgz:28214.got - 2010.04.14 03:12:58.
