data_PCOD8193090
_publ_section_title
;
Structure prediction by ZEFSAII (Michael W. Deem and Ramdas Pophale) SiO2 
 PCOD8193090
Probable space group: I M A 2
;
_chemical_formula_sum "Si O2"
_cell_formula_units_Z 48
_cell_length_a 26.727915
_cell_length_b 8.565649
_cell_length_c 9.449250
_cell_angle_alpha 90.000000
_cell_angle_beta 90.000000
_cell_angle_gamma 90.000000
_cell_volume 2163.329611
_symmetry_space_group_name_H-M "I M A 2"
_symmetry_group_IT_number 46
_symmetry_cell_setting 'orthorhombic'
loop_
_space_group_symop_operation_xyz
x,y,z
-x,-y,z
1/2-x,y,z
1/2+x,-y,z
1/2+x,1/2+y,1/2+z
1/2-x,1/2-y,1/2+z
-x,1/2+y,1/2+z
x,1/2-y,1/2+z
loop_
_atom_site_type_symbol
_atom_site_label
_atom_site_fract_x
_atom_site_fract_y
_atom_site_fract_z
Si Si1 0.358067 0.443607 0.317390
Si Si2 0.053843 0.675848 0.308816
Si Si3 0.862353 0.107285 0.418261
Si Si4 0.807232 0.222056 0.695064
Si Si5 0.506778 0.671521 0.577034
Si Si6 0.119314 0.278962 0.050363
O O1 0.412823 0.520557 0.295584
O O2 0.314921 0.573182 0.300147
O O3 0.352105 0.310593 0.197211
O O4 0.354126 0.366978 0.472332
O O5 0.086359 0.816815 0.369280
O O6 0.007362 0.654201 0.413000
O O7 0.031380 0.711572 0.154867
O O8 0.841811 0.197190 0.557563
O O9 0.823418 0.125850 0.286433
O O10 0.874210 0.927721 0.447805
O O11 0.750000 0.235652 0.647484
O O12 0.500000 0.500000 0.648397
O O13 0.562370 0.737668 0.585450
#
# Coordination Sequence:
#
# PCOD8193090 Si02
#       6
#     8   8   8   8   8   8
#     4  10  23  42  60  87 130 167 207 268 331 379
#     4  11  24  42  58  91 128 171 225 263 318 375
#     4  10  23  40  67  94 126 171 210 273 333 385
#     4  10  21  43  69  97 126 163 214 270 333 414
#     4  12  25  38  62  91 127 178 227 267 306 378
#     4  11  23  39  60  89 127 171 213 266 323 370
#
# _framework density 22.188020000000002
#
# number of rings (size 3 to 8) (size 9 to 14) (size 15 to 20)
#    0.000    1.333    1.667    4.500    4.667    4.000 
#    0.000    4.167    0.000    0.000    0.000    0.000 
#    0.000    0.000    0.000    0.000    0.000    0.000 
#
# Total GULP energy -297571.542969 kJ/mol
# GULP energy per Si atom -12398.814290 kJ/mol
# Density = 2.213752 g / cm^3
# Si number density = 22.188020 Si / 1000 Ang^3
#
#
#
# Elastic Constant Matrix: (Units=GPa)
#
#
# Indices 1 2 3 4 5 6 
#
# 1 71.1908 10.2349 6.0190 0.0000 0.0000 0.0000
# 2 10.2349 68.8791 18.1670 0.0000 0.0000 0.0000
# 3 6.0190 18.1670 81.7791 0.0000 0.0000 0.0000
# 4 0.0000 0.0000 0.0000 44.3997 0.0000 0.0000
# 5 0.0000 0.0000 0.0000 0.0000 26.5138 0.0000
# 6 0.0000 0.0000 0.0000 0.0000 0.0000 22.2797
#
#
#
# Elastic Compliance Matrix: (Units=1/GPa)
#
#
# Indices 1 2 3 4 5 6 
#
# 1 0.014383 -0.001974 -0.000620 0.000000 0.000000 0.000000
# 2 -0.001974 0.015693 -0.003341 0.000000 0.000000 0.000000
# 3 -0.000620 -0.003341 0.013016 0.000000 0.000000 0.000000
# 4 0.000000 0.000000 0.000000 0.022523 0.000000 0.000000
# 5 0.000000 0.000000 0.000000 0.000000 0.037716 0.000000
# 6 0.000000 0.000000 0.000000 0.000000 0.000000 0.044884
#
#
# Mechanical properties :
#
#
# Convention : Reuss Voigt Hill
#
# Bulk Modulus (GPa) = 32.02851 32.29901 32.16376
# Shear Modulus (GPa) = 29.32709 31.13383 30.23046
#
# Velocity S-wave (km/s) = 3.63954 3.74997 3.69517
# Velocity P-wave (km/s) = 5.66816 5.77393 5.72129
#
# Compressibility (1/GPa) = 0.03122218
#
# Stress axis : x y z
#
# Youngs Moduli (GPa) = 69.52680 63.72432 76.82937
#
# Poissons Ratio (x) = 0.12577 0.04765
# Poissons Ratio (y) = 0.13722 0.25667
# Poissons Ratio (z) = 0.04312 0.21289
#
# Static dielectric constant tensor:
#      x y z
#    x 3.679190 0.000000 0.000000 
#    y 0.000000 4.069310 0.000000 
#    z 0.000000 0.000000 4.177570 
# 
# 
# High freq. dielectric constant tensor:
#      x y z
#    x 1.845780 0.000000 0.000000 
#    y 0.000000 1.872490 0.000000 
#    z 0.000000 0.000000 1.886170 
# 
# From -- ./inp_files/8397.got.cif
#   From: 2010.03.12/outbox.cif.g09.slc.cpg/sg46_5_cif.got.tgz:8397.got - 2010.04.14 02:56:35.
