data_PCOD8193864
_publ_section_title
;
Structure prediction by ZEFSAII (Michael W. Deem and Ramdas Pophale) SiO2 
 PCOD8193864
Probable space group: P M M M
;
_chemical_formula_sum "Si O2"
_cell_formula_units_Z 64
_cell_length_a 8.895489
_cell_length_b 14.232405
_cell_length_c 31.684326
_cell_angle_alpha 90.000000
_cell_angle_beta 90.000000
_cell_angle_gamma 90.000000
_cell_volume 4011.368813
_symmetry_space_group_name_H-M "P M M M"
_symmetry_group_IT_number 47
_symmetry_cell_setting 'orthorhombic'
loop_
_space_group_symop_operation_xyz
x,y,z
-x,-y,z
x,-y,-z
-x,y,-z
-x,-y,-z
x,y,-z
-x,y,z
x,-y,z
loop_
_atom_site_type_symbol
_atom_site_label
_atom_site_fract_x
_atom_site_fract_y
_atom_site_fract_z
Si Si1 0.678193 0.718337 0.626074
Si Si2 0.179984 0.394381 0.864961
Si Si3 0.168554 0.388351 0.044670
Si Si4 0.325645 0.893528 0.748642
Si Si5 0.175972 0.106201 0.340464
Si Si6 0.678559 0.394825 0.453482
Si Si7 0.825110 0.609201 0.297794
Si Si8 0.176816 0.723136 0.214179
O O1 0.500000 0.724094 0.626261
O O2 0.744444 0.823366 0.627215
O O3 0.741871 0.673054 0.582855
O O4 0.729321 0.656050 0.665395
O O5 0.238910 0.500000 0.856052
O O6 0.242809 0.355721 0.910678
O O7 0.238393 0.327158 0.827916
O O8 0.000000 0.395575 0.866126
O O9 0.162862 0.500000 0.046871
O O10 0.000000 0.348151 0.042732
O O11 0.250083 0.357357 0.000000
O O12 0.500000 0.874553 0.739607
O O13 0.235329 0.872855 0.706108
O O14 0.262748 0.822552 0.783683
O O15 0.298473 0.000000 0.764415
O O16 0.000000 0.125958 0.340178
O O17 0.214082 0.000000 0.354535
O O18 0.731085 0.359654 0.500000
O O19 0.500000 0.396734 0.451455
O O20 0.740390 0.500000 0.445401
O O21 0.782705 0.500000 0.294457
O O22 0.781930 0.657468 0.253708
O O23 0.000000 0.623615 0.308131
O O24 0.000000 0.742199 0.211691
#
# Coordination Sequence:
#
# PCOD8193864 Si02
#       8
#     8   8   8   8   8   8   8   8
#     4  11  20  30  49  74  95 116 148 188 226 261
#     4   8  13  21  34  54  82 117 153 181 208 252
#     4   7   9  14  26  46  74 108 144 181 217 249
#     4  10  20  33  48  65  85 110 143 185 228 264
#     4  10  20  34  51  69  90 117 148 181 221 269
#     4   8  15  29  48  70  96 123 149 179 217 259
#     4  10  20  31  42  60  90 126 156 180 210 253
#     4  10  18  28  43  62  87 120 151 178 213 259
#
# _framework density 15.954654
#
# number of rings (size 3 to 8) (size 9 to 14) (size 15 to 20)
#    0.000    2.750    1.250    3.375    0.000    3.750 
#    0.000    0.000    0.000    3.000    0.000    7.000 
#    0.000    1.000    0.000    9.375    0.000    3.750 
#
# Total GULP energy -793071.519948 kJ/mol
# GULP energy per Si atom -12391.742499 kJ/mol
# Density = 1.591834 g / cm^3
# Si number density = 15.954654 Si / 1000 Ang^3
#
#
#
# Elastic Constant Matrix: (Units=GPa)
#
#
# Indices 1 2 3 4 5 6 
#
# 1 36.8282 30.6206 33.0313 0.0000 0.0000 0.0000
# 2 30.6206 106.4138 70.6752 0.0000 0.0000 0.0000
# 3 33.0313 70.6752 148.8325 0.0000 0.0000 0.0000
# 4 0.0000 0.0000 0.0000 13.0894 0.0000 0.0000
# 5 0.0000 0.0000 0.0000 0.0000 -4.8427 0.0000
# 6 0.0000 0.0000 0.0000 0.0000 0.0000 21.6841
#
#
#
# Elastic Compliance Matrix: (Units=1/GPa)
#
#
# Indices 1 2 3 4 5 6 
#
# 1 0.037828 -0.007755 -0.004713 0.000000 0.000000 0.000000
# 2 -0.007755 0.015316 -0.005552 0.000000 0.000000 0.000000
# 3 -0.004713 -0.005552 0.010401 0.000000 0.000000 0.000000
# 4 0.000000 0.000000 0.000000 0.076397 0.000000 0.000000
# 5 0.000000 0.000000 0.000000 0.000000 -0.206498 0.000000
# 6 0.000000 0.000000 0.000000 0.000000 0.000000 0.046117
#
#
# Mechanical properties :
#
#
# Convention : Reuss Voigt Hill
#
# Bulk Modulus (GPa) = 36.35592 62.30319 49.32955
# Shear Modulus (GPa) = 201.85884 16.50267 109.18075
#
# Velocity S-wave (km/s) = 11.26033 3.21962 8.28133
# Velocity P-wave (km/s) = 13.85267 7.27710 11.06464
#
# Compressibility (1/GPa) = 0.02750584
#
# Stress axis : x y z
#
# Youngs Moduli (GPa) = 26.43556 65.29061 96.14144
#
# Poissons Ratio (x) = 0.50633 0.45310
# Poissons Ratio (y) = 0.20501 0.53378
# Poissons Ratio (z) = 0.12459 0.36249
#
# Static dielectric constant tensor:
#      x y z
#    x 2.732540 0.000000 0.000000 
#    y 0.000000 3.057700 0.000000 
#    z 0.000000 0.000000 3.382330 
# 
# 
# High freq. dielectric constant tensor:
#      x y z
#    x 1.582980 0.000000 0.000000 
#    y 0.000000 1.596280 0.000000 
#    z 0.000000 0.000000 1.610310 
# 
# From -- ./inp_files/34428.got.cif
#   From: 2010.03.12/outbox.cif.g09.slc.cpg/sg47_18_cif.got.tgz:34428.got - 2010.04.14 03:12:58.
