data_PCOD8193258
_publ_section_title
;
Structure prediction by ZEFSAII (Michael W. Deem and Ramdas Pophale) SiO2 
 PCOD8193258
Probable space group: I M A 2
;
_chemical_formula_sum "Si O2"
_cell_formula_units_Z 64
_cell_length_a 32.995633
_cell_length_b 8.937685
_cell_length_c 11.110280
_cell_angle_alpha 90.000000
_cell_angle_beta 90.000000
_cell_angle_gamma 90.000000
_cell_volume 3276.472392
_symmetry_space_group_name_H-M "I M A 2"
_symmetry_group_IT_number 46
_symmetry_cell_setting 'orthorhombic'
loop_
_space_group_symop_operation_xyz
x,y,z
-x,-y,z
1/2-x,y,z
1/2+x,-y,z
1/2+x,1/2+y,1/2+z
1/2-x,1/2-y,1/2+z
-x,1/2+y,1/2+z
x,1/2-y,1/2+z
loop_
_atom_site_type_symbol
_atom_site_label
_atom_site_fract_x
_atom_site_fract_y
_atom_site_fract_z
Si Si1 0.295233 0.621302 0.289390
Si Si2 0.204913 0.824510 0.056727
Si Si3 0.414366 0.338302 0.764455
Si Si4 0.538801 0.578014 0.973908
Si Si5 0.621661 0.446109 0.571697
Si Si6 0.505637 0.670368 0.632860
Si Si7 0.876698 0.968002 0.812574
Si Si8 0.074098 0.670111 0.144565
O O1 0.250000 0.551120 0.290576
O O2 0.301716 0.699765 0.159847
O O3 0.299869 0.724482 0.413238
O O4 0.328427 0.490005 0.297146
O O5 0.250000 0.893171 0.074540
O O6 0.170455 0.946697 0.082486
O O7 0.419643 0.399381 0.899291
O O8 0.395347 0.467600 0.685318
O O9 0.461207 0.307023 0.735525
O O10 0.387538 0.189840 0.752392
O O11 0.500000 0.500000 0.906841
O O12 0.521926 0.736744 0.019300
O O13 0.554248 0.470634 0.079097
O O14 0.609502 0.534809 0.451459
O O15 0.603909 0.276646 0.565886
O O16 0.500000 0.500000 0.589419
O O17 0.463327 0.727920 0.688731
O O18 0.900045 0.108498 0.755465
#
# Coordination Sequence:
#
# PCOD8193258 Si02
#       8
#     8   8   8   8   8   8   8   8
#     4   9  18  36  62  95 128 165 204 258 319 378
#     4   9  18  35  61  93 130 160 205 261 319 377
#     4  12  24  41  59  85 124 161 206 251 309 370
#     4  10  24  41  58  83 117 161 203 259 306 364
#     4  11  24  39  63  93 120 163 209 252 318 367
#     4  11  22  40  58  85 120 158 203 255 316 367
#     4  11  24  40  62  90 124 165 203 258 307 374
#     4  11  23  39  61  88 120 153 212 255 305 359
#
# _framework density 19.533201999999999
#
# number of rings (size 3 to 8) (size 9 to 14) (size 15 to 20)
#    0.000    1.500    3.750    1.125    1.750    1.000 
#    0.000    0.625    0.000    0.000    0.000    0.875 
#    0.000    0.000    0.000    0.000    0.000    0.000 
#
# Total GULP energy -396446.435892 kJ/mol
# GULP energy per Si atom -12388.951122 kJ/mol
# Density = 1.948874 g / cm^3
# Si number density = 19.533202 Si / 1000 Ang^3
#
#
#
# Elastic Constant Matrix: (Units=GPa)
#
#
# Indices 1 2 3 4 5 6 
#
# 1 127.8106 47.9889 36.2666 0.0000 0.0000 0.0000
# 2 47.9889 107.4967 37.2254 0.0000 0.0000 0.0000
# 3 36.2666 37.2254 71.8897 0.0000 0.0000 0.0000
# 4 0.0000 0.0000 0.0000 22.7766 0.0000 0.0000
# 5 0.0000 0.0000 0.0000 0.0000 30.9135 0.0000
# 6 0.0000 0.0000 0.0000 0.0000 0.0000 20.2192
#
#
#
# Elastic Compliance Matrix: (Units=1/GPa)
#
#
# Indices 1 2 3 4 5 6 
#
# 1 0.010016 -0.003316 -0.003336 0.000000 0.000000 0.000000
# 2 -0.003316 0.012433 -0.004765 0.000000 0.000000 0.000000
# 3 -0.003336 -0.004765 0.018060 0.000000 0.000000 0.000000
# 4 0.000000 0.000000 0.000000 0.043905 0.000000 0.000000
# 5 0.000000 0.000000 0.000000 0.000000 0.032348 0.000000
# 6 0.000000 0.000000 0.000000 0.000000 0.000000 0.049458
#
#
# Mechanical properties :
#
#
# Convention : Reuss Voigt Hill
#
# Bulk Modulus (GPa) = 56.57531 61.12875 58.85203
# Shear Modulus (GPa) = 25.64822 27.16295 26.40558
#
# Velocity S-wave (km/s) = 3.62754 3.73313 3.68071
# Velocity P-wave (km/s) = 6.82437 7.06713 6.94681
#
# Compressibility (1/GPa) = 0.01767556
#
# Stress axis : x y z
#
# Youngs Moduli (GPa) = 99.84384 80.43018 55.37001
#
# Poissons Ratio (x) = 0.26672 0.18469
# Poissons Ratio (y) = 0.33110 0.26385
# Poissons Ratio (z) = 0.33303 0.38326
#
# Static dielectric constant tensor:
#      x y z
#    x 3.942730 0.000000 0.000000 
#    y 0.000000 3.431760 0.000000 
#    z 0.000000 0.000000 3.652950 
# 
# 
# High freq. dielectric constant tensor:
#      x y z
#    x 1.777150 0.000000 0.000000 
#    y 0.000000 1.733170 0.000000 
#    z 0.000000 0.000000 1.765450 
# 
# From -- ./inp_files/13197.got.cif
#   From: 2010.03.12/outbox.cif.g09.slc.cpg/sg46_7_cif.got.tgz:13197.got - 2010.04.14 02:56:35.
