data_PCOD8193782
_publ_section_title
;
Structure prediction by ZEFSAII (Michael W. Deem and Ramdas Pophale) SiO2 
 PCOD8193782
Probable space group: P M M M
;
_chemical_formula_sum "Si O2"
_cell_formula_units_Z 64
_cell_length_a 9.759658
_cell_length_b 28.328019
_cell_length_c 14.705328
_cell_angle_alpha 90.000000
_cell_angle_beta 90.000000
_cell_angle_gamma 90.000000
_cell_volume 4065.608167
_symmetry_space_group_name_H-M "P M M M"
_symmetry_group_IT_number 47
_symmetry_cell_setting 'orthorhombic'
loop_
_space_group_symop_operation_xyz
x,y,z
-x,-y,z
x,-y,-z
-x,y,-z
-x,-y,-z
x,y,-z
-x,y,z
x,-y,z
loop_
_atom_site_type_symbol
_atom_site_label
_atom_site_fract_x
_atom_site_fract_y
_atom_site_fract_z
Si Si1 0.161434 0.770497 0.212150
Si Si2 0.842019 0.446818 0.745255
Si Si3 0.655879 0.410282 0.104417
Si Si4 0.837316 0.372418 0.600835
Si Si5 0.159381 0.863447 0.105541
Si Si6 0.653437 0.947845 0.892090
Si Si7 0.344514 0.300956 0.104922
Si Si8 0.161945 0.733184 0.599744
O O1 0.206632 0.819811 0.167710
O O2 0.237484 0.728223 0.163040
O O3 0.203598 0.769301 0.319413
O O4 0.000000 0.762226 0.198939
O O5 0.827093 0.500000 0.707462
O O6 0.757845 0.442298 0.837924
O O7 0.778002 0.410545 0.671641
O O8 0.000000 0.434891 0.766331
O O9 0.500000 0.421301 0.132850
O O10 0.689106 0.355508 0.121060
O O11 0.679549 0.423694 0.000000
O O12 0.785697 0.386164 0.500000
O O13 0.784546 0.319529 0.624491
O O14 0.000000 0.374320 0.604187
O O15 0.241065 0.908675 0.143908
O O16 0.000000 0.874662 0.117603
O O17 0.194283 0.852339 0.000000
O O18 0.500000 0.935186 0.858734
O O19 0.695397 0.000000 0.855521
O O20 0.657878 0.948603 0.000000
O O21 0.500000 0.289309 0.135177
O O22 0.324909 0.287392 0.000000
O O23 0.220175 0.749252 0.500000
O O24 0.000000 0.730764 0.592059
#
# Coordination Sequence:
#
# PCOD8193782 Si02
#       8
#     8   8   8   8   8   8   8   8
#     4  10  18  27  42  64  90 117 143 173 210 252
#     4  10  20  31  45  68  91 107 130 168 210 248
#     4   9  19  35  50  62  80 110 145 174 202 243
#     4   8  14  26  44  65  88 111 134 163 203 251
#     4   9  17  26  35  54  86 118 145 172 205 248
#     4   8  14  25  40  56  75 105 147 187 216 244
#     4   9  18  31  45  62  84 110 141 174 206 244
#     4   8  14  25  42  63  84 108 140 174 206 244
#
# _framework density 15.741803000000001
#
# number of rings (size 3 to 8) (size 9 to 14) (size 15 to 20)
#    0.000    3.125    0.000    3.000    0.000    4.000 
#    0.000    6.250    0.000    0.750    0.000    4.375 
#    0.000    0.500    0.000    6.250    0.000    1.250 
#
# Total GULP energy -793209.845668 kJ/mol
# GULP energy per Si atom -12393.903839 kJ/mol
# Density = 1.570597 g / cm^3
# Si number density = 15.741803 Si / 1000 Ang^3
#
#
#
# Elastic Constant Matrix: (Units=GPa)
#
#
# Indices 1 2 3 4 5 6 
#
# 1 37.6563 31.4338 28.7700 0.0000 0.0000 0.0000
# 2 31.4338 82.0003 53.0238 0.0000 0.0000 0.0000
# 3 28.7700 53.0238 82.0117 0.0000 0.0000 0.0000
# 4 0.0000 0.0000 0.0000 15.6544 0.0000 0.0000
# 5 0.0000 0.0000 0.0000 0.0000 7.6724 0.0000
# 6 0.0000 0.0000 0.0000 0.0000 0.0000 23.6119
#
#
#
# Elastic Compliance Matrix: (Units=1/GPa)
#
#
# Indices 1 2 3 4 5 6 
#
# 1 0.041472 -0.011153 -0.007338 0.000000 0.000000 0.000000
# 2 -0.011153 0.023956 -0.011576 0.000000 0.000000 0.000000
# 3 -0.007338 -0.011576 0.022252 0.000000 0.000000 0.000000
# 4 0.000000 0.000000 0.000000 0.063880 0.000000 0.000000
# 5 0.000000 0.000000 0.000000 0.000000 0.130337 0.000000
# 6 0.000000 0.000000 0.000000 0.000000 0.000000 0.042352
#
#
# Mechanical properties :
#
#
# Convention : Reuss Voigt Hill
#
# Bulk Modulus (GPa) = 36.30229 47.56930 41.93580
# Shear Modulus (GPa) = 12.70443 15.28378 13.99411
#
# Velocity S-wave (km/s) = 2.84395 3.11931 2.98481
# Velocity P-wave (km/s) = 5.82196 6.57705 6.21099
#
# Compressibility (1/GPa) = 0.02754647
#
# Stress axis : x y z
#
# Youngs Moduli (GPa) = 24.11253 41.74374 44.94044
#
# Poissons Ratio (x) = 0.46557 0.32976
# Poissons Ratio (y) = 0.26893 0.52022
# Poissons Ratio (z) = 0.17693 0.48322
#
# Static dielectric constant tensor:
#      x y z
#    x 2.799520 0.000000 0.000000 
#    y 0.000000 3.079900 0.000000 
#    z 0.000000 0.000000 3.095510 
# 
# 
# High freq. dielectric constant tensor:
#      x y z
#    x 1.581740 0.000000 0.000000 
#    y 0.000000 1.594510 0.000000 
#    z 0.000000 0.000000 1.586210 
# 
# From -- ./inp_files/8338.got.cif
#   From: 2010.03.12/outbox.cif.g09.slc.cpg/sg47_5_cif.got.tgz:8338.got - 2010.04.14 03:12:58.
