data_PCOD8193460
_publ_section_title
;
Structure prediction by ZEFSAII (Michael W. Deem and Ramdas Pophale) SiO2 
 PCOD8193460
Probable space group: P M M M
;
_chemical_formula_sum "Si O2"
_cell_formula_units_Z 36
_cell_length_a 13.278770
_cell_length_b 7.609252
_cell_length_c 22.669240
_cell_angle_alpha 90.000000
_cell_angle_beta 90.000000
_cell_angle_gamma 90.000000
_cell_volume 2290.534176
_symmetry_space_group_name_H-M "P M M M"
_symmetry_group_IT_number 47
_symmetry_cell_setting 'orthorhombic'
loop_
_space_group_symop_operation_xyz
x,y,z
-x,-y,z
x,-y,-z
-x,y,-z
-x,-y,-z
x,y,-z
-x,y,z
x,-y,z
loop_
_atom_site_type_symbol
_atom_site_label
_atom_site_fract_x
_atom_site_fract_y
_atom_site_fract_z
Si Si1 0.806988 0.500000 0.719686
Si Si2 0.880578 0.804643 0.934568
Si Si3 0.387252 0.500000 0.354004
Si Si4 0.879735 0.500000 0.150778
Si Si5 0.302783 0.201941 0.567966
Si Si6 0.113093 0.801379 0.358023
O O1 0.689821 0.500000 0.700753
O O2 0.816289 0.500000 0.789563
O O3 0.861973 0.673520 0.695860
O O4 0.842191 0.669014 0.885739
O O5 0.000000 0.797708 0.936657
O O6 0.843476 0.000000 0.917050
O O7 0.839734 0.754775 0.000000
O O8 0.500000 0.500000 0.328139
O O9 0.374313 0.673642 0.393846
O O10 0.000000 0.500000 0.162702
O O11 0.312850 0.254891 0.500000
O O12 0.186928 0.233590 0.586977
O O13 0.335316 0.000000 0.578490
O O14 0.000000 0.766747 0.380858
O O15 0.125339 0.000000 0.334072
#
# Coordination Sequence:
#
# PCOD8193460 Si02
#       6
#     4   8   4   4   8   8
#     4  10  20  32  43  60  85 110 146 188 213 243
#     4   8  14  24  37  56  85 118 146 168 192 227
#     4  10  21  36  50  61  79 110 141 175 226 272
#     4  10  17  24  39  61  84 113 143 170 201 235
#     4   9  18  31  47  69  90 105 132 174 213 257
#     4   9  17  29  44  61  86 119 144 165 202 250
#
# _framework density 15.716858
#
# number of rings (size 3 to 8) (size 9 to 14) (size 15 to 20)
#    0.000    2.889    0.000    2.333    0.000    4.000 
#    0.000    5.556    0.000    4.000    0.000    0.000 
#    0.000    1.778    0.000    2.444    0.000    0.222 
#
# Total GULP energy -446274.991801 kJ/mol
# GULP energy per Si atom -12396.527550 kJ/mol
# Density = 1.568109 g / cm^3
# Si number density = 15.716858 Si / 1000 Ang^3
#
#
#
# Elastic Constant Matrix: (Units=GPa)
#
#
# Indices 1 2 3 4 5 6 
#
# 1 74.4792 29.3473 26.3408 0.0000 0.0000 0.0000
# 2 29.3473 96.7400 53.3849 0.0000 0.0000 0.0000
# 3 26.3408 53.3849 107.5962 0.0000 0.0000 0.0000
# 4 0.0000 0.0000 0.0000 14.4474 0.0000 0.0000
# 5 0.0000 0.0000 0.0000 0.0000 11.6330 0.0000
# 6 0.0000 0.0000 0.0000 0.0000 0.0000 13.2864
#
#
#
# Elastic Compliance Matrix: (Units=1/GPa)
#
#
# Indices 1 2 3 4 5 6 
#
# 1 0.015562 -0.003606 -0.002021 0.000000 0.000000 0.000000
# 2 -0.003606 0.015070 -0.006594 0.000000 0.000000 0.000000
# 3 -0.002021 -0.006594 0.013061 0.000000 0.000000 0.000000
# 4 0.000000 0.000000 0.000000 0.069216 0.000000 0.000000
# 5 0.000000 0.000000 0.000000 0.000000 0.085962 0.000000
# 6 0.000000 0.000000 0.000000 0.000000 0.000000 0.075265
#
#
# Mechanical properties :
#
#
# Convention : Reuss Voigt Hill
#
# Bulk Modulus (GPa) = 51.94605 55.21793 53.58199
# Shear Modulus (GPa) = 16.39372 19.18953 17.79162
#
# Velocity S-wave (km/s) = 3.23316 3.49800 3.36818
# Velocity P-wave (km/s) = 6.86008 7.17802 7.02085
#
# Compressibility (1/GPa) = 0.01925074
#
# Stress axis : x y z
#
# Youngs Moduli (GPa) = 64.25897 66.35763 76.56665
#
# Poissons Ratio (x) = 0.23927 0.15472
# Poissons Ratio (y) = 0.23171 0.50490
# Poissons Ratio (z) = 0.12985 0.43758
#
# Static dielectric constant tensor:
#      x y z
#    x 2.657580 0.000000 0.000000 
#    y 0.000000 3.585530 0.000000 
#    z 0.000000 0.000000 2.863380 
# 
# 
# High freq. dielectric constant tensor:
#      x y z
#    x 1.556840 0.000000 0.000000 
#    y 0.000000 1.626130 0.000000 
#    z 0.000000 0.000000 1.585370 
# 
# From -- ./inp_files/29310.got.cif
#   From: 2010.03.12/outbox.cif.g09.slc.cpg/sg47_15_cif.got.tgz:29310.got - 2010.04.14 03:12:58.
