data_PCOD8193000
_publ_section_title
;
Structure prediction by ZEFSAII (Michael W. Deem and Ramdas Pophale) SiO2 
 PCOD8193000
Probable space group: I M A 2
;
_chemical_formula_sum "Si O2"
_cell_formula_units_Z 60
_cell_length_a 9.270401
_cell_length_b 11.962866
_cell_length_c 26.182501
_cell_angle_alpha 90.000000
_cell_angle_beta 90.000000
_cell_angle_gamma 90.000000
_cell_volume 2903.654152
_symmetry_space_group_name_H-M "I M A 2"
_symmetry_group_IT_number 46
_symmetry_cell_setting 'orthorhombic'
loop_
_space_group_symop_operation_xyz
x,y,z
-x,-y,z
1/2-x,y,z
1/2+x,-y,z
1/2+x,1/2+y,1/2+z
1/2-x,1/2-y,1/2+z
-x,1/2+y,1/2+z
x,1/2-y,1/2+z
loop_
_atom_site_type_symbol
_atom_site_label
_atom_site_fract_x
_atom_site_fract_y
_atom_site_fract_z
Si Si1 0.413757 0.796073 0.307710
Si Si2 0.579053 0.621432 0.131139
Si Si3 0.092173 0.901203 0.410766
Si Si4 0.000000 0.500000 0.639327
Si Si5 0.591250 0.811655 0.210751
Si Si6 0.079069 0.102220 0.860346
Si Si7 0.580786 0.167701 0.954988
Si Si8 0.087641 0.696740 0.569549
O O1 0.250000 0.748534 0.302642
O O2 0.413985 0.895834 0.348868
O O3 0.469539 0.837203 0.252874
O O4 0.527967 0.708037 0.328714
O O5 0.500000 0.500000 0.134666
O O6 0.750000 0.602939 0.121588
O O7 0.552864 0.694430 0.182494
O O8 0.514002 0.699873 0.086261
O O9 0.250000 0.928777 0.430028
O O10 0.037200 0.791131 0.437908
O O11 0.000000 0.000000 0.433108
O O12 0.900186 0.581016 0.673431
O O13 0.909317 0.413065 0.605165
O O14 0.750000 0.799988 0.235552
O O15 0.250000 0.091890 0.859060
O O16 0.021707 0.094327 0.918932
O O17 0.000000 0.000000 0.831506
O O18 0.750000 0.142259 0.943732
O O19 0.538222 0.152733 0.013934
O O20 0.250000 0.744757 0.566912
#
# Coordination Sequence:
#
# PCOD8193000 Si02
#       8
#     8   8   8   4   8   8   8   8
#     4  10  22  39  58  84 115 151 196 245 297 357
#     4  10  22  40  61  86 118 154 199 251 303 364
#     4   9  19  35  54  79 113 149 190 238 287 346
#     4  10  22  38  60  94 124 160 208 256 308 366
#     4  10  22  39  59  86 120 157 201 252 306 368
#     4  11  22  38  60  86 118 156 195 243 296 355
#     4   9  20  38  57  85 119 155 199 244 294 352
#     4  10  21  39  63  88 121 162 202 252 307 360
#
# _framework density 20.663618
#
# number of rings (size 3 to 8) (size 9 to 14) (size 15 to 20)
#    0.000    2.133    0.000    3.200    1.867    8.000 
#    0.000    2.667    0.000    0.000    0.000    0.000 
#    0.000    0.000    0.000    0.000    0.000    0.000 
#
# Total GULP energy -371700.103037 kJ/mol
# GULP energy per Si atom -12390.003435 kJ/mol
# Density = 2.061659 g / cm^3
# Si number density = 20.663618 Si / 1000 Ang^3
#
#
#
# Elastic Constant Matrix: (Units=GPa)
#
#
# Indices 1 2 3 4 5 6 
#
# 1 113.2874 42.2144 26.4807 0.0000 0.0000 0.0000
# 2 42.2144 110.8113 15.7332 0.0000 0.0000 0.0000
# 3 26.4807 15.7332 88.1060 0.0000 0.0000 0.0000
# 4 0.0000 0.0000 0.0000 5.8533 0.0000 0.0000
# 5 0.0000 0.0000 0.0000 0.0000 14.3382 0.0000
# 6 0.0000 0.0000 0.0000 0.0000 0.0000 31.6825
#
#
#
# Elastic Compliance Matrix: (Units=1/GPa)
#
#
# Indices 1 2 3 4 5 6 
#
# 1 0.010832 -0.003760 -0.002584 0.000000 0.000000 0.000000
# 2 -0.003760 0.010564 -0.000756 0.000000 0.000000 0.000000
# 3 -0.002584 -0.000756 0.012262 0.000000 0.000000 0.000000
# 4 0.000000 0.000000 0.000000 0.170843 0.000000 0.000000
# 5 0.000000 0.000000 0.000000 0.000000 0.069744 0.000000
# 6 0.000000 0.000000 0.000000 0.000000 0.000000 0.031563
#
#
# Mechanical properties :
#
#
# Convention : Reuss Voigt Hill
#
# Bulk Modulus (GPa) = 51.39503 53.45127 52.42315
# Shear Modulus (GPa) = 15.31419 25.55989 20.43704
#
# Velocity S-wave (km/s) = 2.72530 3.52085 3.14830
# Velocity P-wave (km/s) = 5.90163 6.51552 6.21616
#
# Compressibility (1/GPa) = 0.01945713
#
# Stress axis : x y z
#
# Youngs Moduli (GPa) = 92.31781 94.66085 81.55435
#
# Poissons Ratio (x) = 0.35589 0.21076
# Poissons Ratio (y) = 0.34708 0.06169
# Poissons Ratio (z) = 0.23858 0.07161
#
# Static dielectric constant tensor:
#      x y z
#    x 3.683740 0.000000 0.000000 
#    y 0.000000 3.669630 0.000000 
#    z 0.000000 0.000000 3.741000 
# 
# 
# High freq. dielectric constant tensor:
#      x y z
#    x 1.810170 0.000000 0.000000 
#    y 0.000000 1.810780 0.000000 
#    z 0.000000 0.000000 1.799940 
# 
# From -- ./inp_files/24274.got.cif
#   From: 2010.03.12/outbox.cif.g09.slc.cpg/sg46_13_cif.got.tgz:24274.got - 2010.04.14 02:56:35.
