data_PCOD8193488
_publ_section_title
;
Structure prediction by ZEFSAII (Michael W. Deem and Ramdas Pophale) SiO2 
 PCOD8193488
Probable space group: P M M M
;
_chemical_formula_sum "Si O2"
_cell_formula_units_Z 52
_cell_length_a 14.494538
_cell_length_b 28.328521
_cell_length_c 9.531509
_cell_angle_alpha 90.000000
_cell_angle_beta 90.000000
_cell_angle_gamma 90.000000
_cell_volume 3913.721703
_symmetry_space_group_name_H-M "P M M M"
_symmetry_group_IT_number 47
_symmetry_cell_setting 'orthorhombic'
loop_
_space_group_symop_operation_xyz
x,y,z
-x,-y,z
x,-y,-z
-x,y,-z
-x,-y,-z
x,y,-z
-x,y,z
x,-y,z
loop_
_atom_site_type_symbol
_atom_site_label
_atom_site_fract_x
_atom_site_fract_y
_atom_site_fract_z
Si Si1 0.890627 0.222595 0.155140
Si Si2 0.789971 0.592903 0.333446
Si Si3 0.893603 0.671133 0.164077
Si Si4 0.890325 0.052338 0.157370
Si Si5 0.103321 0.500000 0.666360
Si Si6 0.110250 0.137789 0.657739
Si Si7 0.600837 0.552811 0.666267
O O1 0.863402 0.275429 0.201427
O O2 0.851031 0.184527 0.264953
O O3 0.000000 0.218844 0.148049
O O4 0.850688 0.211468 0.000000
O O5 0.799794 0.599925 0.500000
O O6 0.829148 0.638306 0.256632
O O7 0.844766 0.546711 0.280799
O O8 0.683298 0.587067 0.284539
O O9 0.000000 0.662376 0.205335
O O10 0.878663 0.660896 0.000000
O O11 0.850457 0.091426 0.263575
O O12 0.000000 0.054269 0.158449
O O13 0.857164 0.000000 0.204487
O O14 0.854875 0.063360 0.000000
O O15 0.101502 0.500000 0.500000
O O16 0.000000 0.500000 0.728715
O O17 0.149005 0.137607 0.500000
O O18 0.000000 0.137671 0.658118
O O19 0.604412 0.549266 0.500000
O O20 0.500000 0.572226 0.715151
O O21 0.616022 0.500000 0.727027
#
# Coordination Sequence:
#
# PCOD8193488 Si02
#       7
#     8   8   8   8   4   8   8
#     4   8  14  25  37  44  54  78 109 135 161 199
#     4  10  17  26  41  59  74  92 117 143 173 206
#     4   9  18  30  40  51  70  95 119 143 174 211
#     4   8  13  20  28  37  51  74 102 128 158 202
#     4   9  16  24  34  52  76  95 113 139 168 199
#     4   9  15  20  28  43  59  73  94 130 172 206
#     4   8  13  23  40  60  78  93 113 142 171 202
#
# _framework density 13.286587000000001
#
# number of rings (size 3 to 8) (size 9 to 14) (size 15 to 20)
#    0.000    3.308    0.769    2.769    0.000    3.692 
#    0.000    3.462    0.000    1.846    0.000    1.077 
#    0.000    0.000    0.000    0.000    0.000    0.000 
#
# Total GULP energy -644362.817989 kJ/mol
# GULP energy per Si atom -12391.592654 kJ/mol
# Density = 1.325635 g / cm^3
# Si number density = 13.286587 Si / 1000 Ang^3
#
#
#
# Elastic Constant Matrix: (Units=GPa)
#
#
# Indices 1 2 3 4 5 6 
#
# 1 57.5979 36.8621 24.9676 0.0000 0.0000 0.0000
# 2 36.8621 117.5282 61.3568 0.0000 0.0000 0.0000
# 3 24.9676 61.3568 67.5068 0.0000 0.0000 0.0000
# 4 0.0000 0.0000 0.0000 24.1781 0.0000 0.0000
# 5 0.0000 0.0000 0.0000 0.0000 6.1313 0.0000
# 6 0.0000 0.0000 0.0000 0.0000 0.0000 2.2240
#
#
#
# Elastic Compliance Matrix: (Units=1/GPa)
#
#
# Indices 1 2 3 4 5 6 
#
# 1 0.022167 -0.005085 -0.003576 0.000000 0.000000 0.000000
# 2 -0.005085 0.017358 -0.013896 0.000000 0.000000 0.000000
# 3 -0.003576 -0.013896 0.028766 0.000000 0.000000 0.000000
# 4 0.000000 0.000000 0.000000 0.041360 0.000000 0.000000
# 5 0.000000 0.000000 0.000000 0.000000 0.163099 0.000000
# 6 0.000000 0.000000 0.000000 0.000000 0.000000 0.449637
#
#
# Mechanical properties :
#
#
# Convention : Reuss Voigt Hill
#
# Bulk Modulus (GPa) = 43.14897 54.33399 48.74148
# Shear Modulus (GPa) = 6.44973 14.46977 10.45975
#
# Velocity S-wave (km/s) = 2.20564 3.30366 2.80883
# Velocity P-wave (km/s) = 6.24761 7.45217 6.87632
#
# Compressibility (1/GPa) = 0.02317552
#
# Stress axis : x y z
#
# Youngs Moduli (GPa) = 45.11286 57.61007 34.76338
#
# Poissons Ratio (x) = 0.29297 0.12432
# Poissons Ratio (y) = 0.22942 0.48307
# Poissons Ratio (z) = 0.16134 0.80054
#
# Static dielectric constant tensor:
#      x y z
#    x 2.391250 0.000000 0.000000 
#    y 0.000000 2.810370 0.000000 
#    z 0.000000 0.000000 2.604820 
# 
# 
# High freq. dielectric constant tensor:
#      x y z
#    x 1.442380 0.000000 0.000000 
#    y 0.000000 1.508790 0.000000 
#    z 0.000000 0.000000 1.492810 
# 
# From -- ./inp_files/8006.got.cif
#   From: 2010.03.12/outbox.cif.g09.slc.cpg/sg47_5_cif.got.tgz:8006.got - 2010.04.14 03:12:58.
