data_PCOD8193378
_publ_section_title
;
Structure prediction by ZEFSAII (Michael W. Deem and Ramdas Pophale) SiO2 
 PCOD8193378
Probable space group: I M A 2
;
_chemical_formula_sum "Si O2"
_cell_formula_units_Z 48
_cell_length_a 26.101346
_cell_length_b 9.308809
_cell_length_c 8.898871
_cell_angle_alpha 90.000000
_cell_angle_beta 90.000000
_cell_angle_gamma 90.000000
_cell_volume 2162.180441
_symmetry_space_group_name_H-M "I M A 2"
_symmetry_group_IT_number 46
_symmetry_cell_setting 'orthorhombic'
loop_
_space_group_symop_operation_xyz
x,y,z
-x,-y,z
1/2-x,y,z
1/2+x,-y,z
1/2+x,1/2+y,1/2+z
1/2-x,1/2-y,1/2+z
-x,1/2+y,1/2+z
x,1/2-y,1/2+z
loop_
_atom_site_type_symbol
_atom_site_label
_atom_site_fract_x
_atom_site_fract_y
_atom_site_fract_z
Si Si1 0.590476 0.425215 0.764840
Si Si2 0.413278 0.070889 0.578485
Si Si3 0.193736 0.342341 0.057534
Si Si4 0.530847 0.654072 0.575215
Si Si5 0.694221 0.560385 0.725663
Si Si6 0.033989 0.652493 0.283691
O O1 0.552029 0.503781 0.645715
O O2 0.649011 0.444880 0.713031
O O3 0.584202 0.253382 0.775882
O O4 0.576959 0.478616 0.930651
O O5 0.353398 0.066828 0.630626
O O6 0.423566 0.237183 0.526928
O O7 0.450113 0.002331 0.709559
O O8 0.250000 0.401133 0.110756
O O9 0.188999 0.174206 0.092449
O O10 0.188368 0.350665 0.878761
O O11 0.487843 0.620827 0.449255
O O12 0.508534 0.754213 0.703730
O O13 0.750000 0.482714 0.717983
#
# Coordination Sequence:
#
# PCOD8193378 Si02
#       6
#     8   8   8   8   8   8
#     4  11  23  43  63  93 128 166 214 262 320 381
#     4  11  23  43  63  92 129 167 211 264 321 379
#     4   9  18  36  63  94 124 160 207 262 318 378
#     4  12  24  42  63  89 122 174 211 258 314 375
#     4   9  18  36  63  93 125 161 205 261 319 379
#     4  12  26  42  61  91 128 168 214 267 312 376
#
# _framework density 22.199812999999999
#
# number of rings (size 3 to 8) (size 9 to 14) (size 15 to 20)
#    0.000    1.333    5.000    1.000    0.000    2.667 
#    3.000    0.833    0.000    0.000    0.000    0.000 
#    0.000    0.000    0.000    0.000    0.000    0.500 
#
# Total GULP energy -297338.842023 kJ/mol
# GULP energy per Si atom -12389.118418 kJ/mol
# Density = 2.214929 g / cm^3
# Si number density = 22.199813 Si / 1000 Ang^3
#
#
#
# Elastic Constant Matrix: (Units=GPa)
#
#
# Indices 1 2 3 4 5 6 
#
# 1 166.3334 47.4307 49.1683 0.0000 0.0000 0.0000
# 2 47.4307 131.3523 27.5202 0.0000 0.0000 0.0000
# 3 49.1683 27.5202 66.3668 0.0000 0.0000 0.0000
# 4 0.0000 0.0000 0.0000 31.6706 0.0000 0.0000
# 5 0.0000 0.0000 0.0000 0.0000 25.7326 0.0000
# 6 0.0000 0.0000 0.0000 0.0000 0.0000 33.0161
#
#
#
# Elastic Compliance Matrix: (Units=1/GPa)
#
#
# Indices 1 2 3 4 5 6 
#
# 1 0.008077 -0.001821 -0.005229 0.000000 0.000000 0.000000
# 2 -0.001821 0.008748 -0.002278 0.000000 0.000000 0.000000
# 3 -0.005229 -0.002278 0.019886 0.000000 0.000000 0.000000
# 4 0.000000 0.000000 0.000000 0.031575 0.000000 0.000000
# 5 0.000000 0.000000 0.000000 0.000000 0.038861 0.000000
# 6 0.000000 0.000000 0.000000 0.000000 0.000000 0.030288
#
#
# Mechanical properties :
#
#
# Convention : Reuss Voigt Hill
#
# Bulk Modulus (GPa) = 55.38655 68.03232 61.70944
# Shear Modulus (GPa) = 30.84321 34.07943 32.46132
#
# Velocity S-wave (km/s) = 3.73144 3.92231 3.82807
# Velocity P-wave (km/s) = 6.60061 7.15714 6.88450
#
# Compressibility (1/GPa) = 0.01805492
#
# Stress axis : x y z
#
# Youngs Moduli (GPa) = 123.80981 114.31131 50.28599
#
# Poissons Ratio (x) = 0.20817 0.26293
# Poissons Ratio (y) = 0.22546 0.11457
# Poissons Ratio (z) = 0.64736 0.26045
#
# Static dielectric constant tensor:
#      x y z
#    x 4.594590 0.000000 0.000000 
#    y 0.000000 4.457450 0.000000 
#    z 0.000000 0.000000 3.944860 
# 
# 
# High freq. dielectric constant tensor:
#      x y z
#    x 1.889770 0.000000 0.000000 
#    y 0.000000 1.858820 0.000000 
#    z 0.000000 0.000000 1.871190 
# 
# From -- ./inp_files/8389.got.cif
#   From: 2010.03.12/outbox.cif.g09.slc.cpg/sg46_5_cif.got.tgz:8389.got - 2010.04.14 02:56:35.
