data_PCOD8193349
_publ_section_title
;
Structure prediction by ZEFSAII (Michael W. Deem and Ramdas Pophale) SiO2 
 PCOD8193349
Probable space group: I M A 2
;
_chemical_formula_sum "Si O2"
_cell_formula_units_Z 64
_cell_length_a 8.356690
_cell_length_b 15.319204
_cell_length_c 23.440924
_cell_angle_alpha 90.000000
_cell_angle_beta 90.000000
_cell_angle_gamma 90.000000
_cell_volume 3000.856432
_symmetry_space_group_name_H-M "I M A 2"
_symmetry_group_IT_number 46
_symmetry_cell_setting 'orthorhombic'
loop_
_space_group_symop_operation_xyz
x,y,z
-x,-y,z
1/2-x,y,z
1/2+x,-y,z
1/2+x,1/2+y,1/2+z
1/2-x,1/2-y,1/2+z
-x,1/2+y,1/2+z
x,1/2-y,1/2+z
loop_
_atom_site_type_symbol
_atom_site_label
_atom_site_fract_x
_atom_site_fract_y
_atom_site_fract_z
Si Si1 0.064869 0.092409 0.613990
Si Si2 0.564429 0.409311 0.388799
Si Si3 0.065492 0.647073 0.998397
Si Si4 0.434726 0.743779 0.189530
Si Si5 0.062034 0.591433 0.615497
Si Si6 0.066422 0.335116 0.501686
Si Si7 0.060958 0.905570 0.372565
Si Si8 0.433464 0.260969 0.311917
O O1 0.250000 0.102256 0.629632
O O2 0.040989 0.099639 0.545984
O O3 0.963748 0.167686 0.644076
O O4 0.000000 0.000000 0.636348
O O5 0.500000 0.500000 0.362055
O O6 0.750000 0.416201 0.403929
O O7 0.465273 0.392765 0.446166
O O8 0.541171 0.331984 0.343770
O O9 0.250000 0.623302 0.009288
O O10 0.047016 0.751005 0.001022
O O11 0.005577 0.612705 0.937290
O O12 0.250000 0.744217 0.207876
O O13 0.484569 0.834950 0.161052
O O14 0.543176 0.728788 0.244564
O O15 0.250000 0.590381 0.603553
O O16 0.000000 0.500000 0.641053
O O17 0.969720 0.606869 0.556602
O O18 0.250000 0.304163 0.502673
O O19 0.250000 0.898478 0.366326
O O20 0.981478 0.835905 0.330698
O O21 0.000000 0.000000 0.353098
O O22 0.250000 0.278800 0.327566
#
# Coordination Sequence:
#
# PCOD8193349 Si02
#       8
#     8   8   8   8   8   8   8   8
#     4  12  25  42  67  98 133 172 217 267 324 386
#     4  12  25  44  68  97 133 171 217 266 324 387
#     4  11  22  39  65  97 134 173 214 262 323 386
#     4  11  25  46  69  93 128 171 219 271 326 383
#     4  11  24  42  67  96 132 171 215 265 323 384
#     4  12  23  38  65  98 134 172 214 261 323 387
#     4  11  24  42  67  97 133 173 217 267 323 385
#     4  12  26  45  69  96 129 169 220 271 326 386
#
# _framework density 21.327245000000001
#
# number of rings (size 3 to 8) (size 9 to 14) (size 15 to 20)
#    0.000    0.500    2.500    6.750    0.000    5.000 
#    0.000    3.750    0.000    0.000    0.000    0.000 
#    0.000    0.000    0.000    0.000    0.000    0.000 
#
# Total GULP energy -397123.393855 kJ/mol
# GULP energy per Si atom -12410.106058 kJ/mol
# Density = 2.127870 g / cm^3
# Si number density = 21.327245 Si / 1000 Ang^3
#
#
#
# Elastic Constant Matrix: (Units=GPa)
#
#
# Indices 1 2 3 4 5 6 
#
# 1 82.2674 23.0134 26.8993 0.0000 0.0000 0.0000
# 2 23.0134 129.6673 14.4432 0.0000 0.0000 0.0000
# 3 26.8993 14.4432 82.7135 0.0000 0.0000 0.0000
# 4 0.0000 0.0000 0.0000 3.0090 0.0000 0.0000
# 5 0.0000 0.0000 0.0000 0.0000 29.0368 0.0000
# 6 0.0000 0.0000 0.0000 0.0000 0.0000 35.9507
#
#
#
# Elastic Compliance Matrix: (Units=1/GPa)
#
#
# Indices 1 2 3 4 5 6 
#
# 1 0.014108 -0.002032 -0.004233 0.000000 0.000000 0.000000
# 2 -0.002032 0.008158 -0.000764 0.000000 0.000000 0.000000
# 3 -0.004233 -0.000764 0.013600 0.000000 0.000000 0.000000
# 4 0.000000 0.000000 0.000000 0.332338 0.000000 0.000000
# 5 0.000000 0.000000 0.000000 0.000000 0.034439 0.000000
# 6 0.000000 0.000000 0.000000 0.000000 0.000000 0.027816
#
#
# Mechanical properties :
#
#
# Convention : Reuss Voigt Hill
#
# Bulk Modulus (GPa) = 45.85559 47.03999 46.44779
# Shear Modulus (GPa) = 11.06718 28.95211 20.00965
#
# Velocity S-wave (km/s) = 2.28046 3.68845 3.06636
# Velocity P-wave (km/s) = 5.33682 6.34379 5.86197
#
# Compressibility (1/GPa) = 0.02180759
#
# Stress axis : x y z
#
# Youngs Moduli (GPa) = 70.88090 122.58204 73.52970
#
# Poissons Ratio (x) = 0.24914 0.31127
# Poissons Ratio (y) = 0.14406 0.05614
# Poissons Ratio (z) = 0.30006 0.09360
#
# Static dielectric constant tensor:
#      x y z
#    x 3.840040 0.000000 0.000000 
#    y 0.000000 3.997160 0.000000 
#    z 0.000000 0.000000 3.723170 
# 
# 
# High freq. dielectric constant tensor:
#      x y z
#    x 1.847710 0.000000 0.000000 
#    y 0.000000 1.851020 0.000000 
#    z 0.000000 0.000000 1.828800 
# 
# From -- ./inp_files/23161.got.cif
#   From: 2010.03.12/outbox.cif.g09.slc.cpg/sg46_12_cif.got.tgz:23161.got - 2010.04.14 02:56:35.
