data_PCOD8193022
_publ_section_title
;
Structure prediction by ZEFSAII (Michael W. Deem and Ramdas Pophale) SiO2 
 PCOD8193022
Probable space group: I M A 2
;
_chemical_formula_sum "Si O2"
_cell_formula_units_Z 64
_cell_length_a 17.228681
_cell_length_b 15.262320
_cell_length_c 11.936052
_cell_angle_alpha 90.000000
_cell_angle_beta 90.000000
_cell_angle_gamma 90.000000
_cell_volume 3138.580607
_symmetry_space_group_name_H-M "I M A 2"
_symmetry_group_IT_number 46
_symmetry_cell_setting 'orthorhombic'
loop_
_space_group_symop_operation_xyz
x,y,z
-x,-y,z
1/2-x,y,z
1/2+x,-y,z
1/2+x,1/2+y,1/2+z
1/2-x,1/2-y,1/2+z
-x,1/2+y,1/2+z
x,1/2-y,1/2+z
loop_
_atom_site_type_symbol
_atom_site_label
_atom_site_fract_x
_atom_site_fract_y
_atom_site_fract_z
Si Si1 0.603240 0.650137 0.647150
Si Si2 0.424227 0.660281 0.644201
Si Si3 0.612178 0.841910 0.617766
Si Si4 0.092942 0.994856 0.992440
Si Si5 0.435745 0.647842 0.110682
Si Si6 0.660281 0.593028 0.883512
Si Si7 0.661645 0.493342 0.245839
Si Si8 0.428856 0.932588 0.375562
O O1 0.514443 0.665112 0.615812
O O2 0.645951 0.743837 0.635853
O O3 0.632570 0.575634 0.560663
O O4 0.612910 0.619091 0.773557
O O5 0.382688 0.594805 0.556309
O O6 0.392066 0.759406 0.631324
O O7 0.411283 0.627102 0.769354
O O8 0.523169 0.851258 0.659147
O O9 0.620909 0.857386 0.486052
O O10 0.661428 0.910110 0.691105
O O11 0.127126 0.995505 0.869368
O O12 0.000000 0.000000 0.989639
O O13 0.388669 0.571314 0.170218
O O14 0.443592 0.631345 0.978703
O O15 0.750000 0.617102 0.872175
O O16 0.648630 0.489061 0.900789
O O17 0.750000 0.460121 0.250211
O O18 0.500000 0.000000 0.355349
#
# Coordination Sequence:
#
# PCOD8193022 Si02
#       8
#     8   8   8   8   8   8   8   8
#     4  10  22  40  65  95 125 160 211 263 313 372
#     4  10  21  39  70  98 119 157 217 267 311 360
#     4  11  23  41  64  96 123 166 217 260 309 379
#     4  10  21  42  66  92 123 163 207 259 310 377
#     4  11  23  39  70  97 120 162 217 269 311 370
#     4  12  24  39  63  94 128 167 209 260 323 382
#     4  12  26  43  60  89 132 171 202 257 326 381
#     4  12  19  41  68  91 126 167 211 266 309 367
#
# _framework density 20.391382
#
# number of rings (size 3 to 8) (size 9 to 14) (size 15 to 20)
#    0.000    1.000    5.000    1.875    3.500    1.500 
#    0.000    1.250    0.000    0.000    0.000    0.000 
#    0.000    0.000    0.000    0.000    0.000    0.000 
#
# Total GULP energy -396787.845140 kJ/mol
# GULP energy per Si atom -12399.620161 kJ/mol
# Density = 2.034497 g / cm^3
# Si number density = 20.391382 Si / 1000 Ang^3
#
#
#
# Elastic Constant Matrix: (Units=GPa)
#
#
# Indices 1 2 3 4 5 6 
#
# 1 49.8649 28.3469 17.5813 0.0000 0.0000 0.0000
# 2 28.3469 137.2270 40.8871 0.0000 0.0000 0.0000
# 3 17.5813 40.8871 129.6411 0.0000 0.0000 0.0000
# 4 0.0000 0.0000 0.0000 31.5350 0.0000 0.0000
# 5 0.0000 0.0000 0.0000 0.0000 2.4549 0.0000
# 6 0.0000 0.0000 0.0000 0.0000 0.0000 6.7268
#
#
#
# Elastic Compliance Matrix: (Units=1/GPa)
#
#
# Indices 1 2 3 4 5 6 
#
# 1 0.023095 -0.004236 -0.001796 0.000000 0.000000 0.000000
# 2 -0.004236 0.008820 -0.002207 0.000000 0.000000 0.000000
# 3 -0.001796 -0.002207 0.008653 0.000000 0.000000 0.000000
# 4 0.000000 0.000000 0.000000 0.031711 0.000000 0.000000
# 5 0.000000 0.000000 0.000000 0.000000 0.407351 0.000000
# 6 0.000000 0.000000 0.000000 0.000000 0.000000 0.148659
#
#
# Mechanical properties :
#
#
# Convention : Reuss Voigt Hill
#
# Bulk Modulus (GPa) = 41.51041 54.48485 47.99763
# Shear Modulus (GPa) = 7.65933 23.47117 15.56525
#
# Velocity S-wave (km/s) = 1.94018 3.39637 2.76583
# Velocity P-wave (km/s) = 5.04184 6.49292 5.81284
#
# Compressibility (1/GPa) = 0.02409034
#
# Stress axis : x y z
#
# Youngs Moduli (GPa) = 43.29874 113.38139 115.56244
#
# Poissons Ratio (x) = 0.48024 0.20758
# Poissons Ratio (y) = 0.18340 0.25507
# Poissons Ratio (z) = 0.07777 0.25026
#
# Static dielectric constant tensor:
#      x y z
#    x 3.449370 0.000000 0.000000 
#    y 0.000000 4.084160 0.000000 
#    z 0.000000 0.000000 3.661670 
# 
# 
# High freq. dielectric constant tensor:
#      x y z
#    x 1.765330 0.000000 0.000000 
#    y 0.000000 1.808940 0.000000 
#    z 0.000000 0.000000 1.807440 
# 
# From -- ./inp_files/11942.got.cif
#   From: 2010.03.12/outbox.cif.g09.slc.cpg/sg46_6_cif.got.tgz:11942.got - 2010.04.14 02:56:35.
