data_PCOD8193951
_publ_section_title
;
Structure prediction by ZEFSAII (Michael W. Deem and Ramdas Pophale) SiO2 
 PCOD8193951
Probable space group: P M M M
;
_chemical_formula_sum "Si O2"
_cell_formula_units_Z 44
_cell_length_a 17.341376
_cell_length_b 7.896726
_cell_length_c 18.070724
_cell_angle_alpha 90.000000
_cell_angle_beta 90.000000
_cell_angle_gamma 90.000000
_cell_volume 2474.606656
_symmetry_space_group_name_H-M "P M M M"
_symmetry_group_IT_number 47
_symmetry_cell_setting 'orthorhombic'
loop_
_space_group_symop_operation_xyz
x,y,z
-x,-y,z
x,-y,-z
-x,y,-z
-x,-y,-z
x,y,-z
-x,y,z
x,-y,z
loop_
_atom_site_type_symbol
_atom_site_label
_atom_site_fract_x
_atom_site_fract_y
_atom_site_fract_z
Si Si1 0.912002 0.700031 0.500000
Si Si2 0.316794 0.500000 0.919744
Si Si3 0.163658 0.194395 0.651222
Si Si4 0.770229 0.184415 0.129933
Si Si5 0.914191 0.693313 0.794677
Si Si6 0.680639 0.811378 0.282858
Si Si7 0.409314 0.500000 0.768056
O O1 0.910524 0.500000 0.500000
O O2 0.866894 0.769501 0.570138
O O3 0.000000 0.767376 0.500000
O O4 0.262493 0.334245 0.920403
O O5 0.375998 0.500000 0.851583
O O6 0.360030 0.500000 0.000000
O O7 0.116229 0.303041 0.710390
O O8 0.255741 0.235467 0.654468
O O9 0.150853 0.000000 0.673039
O O10 0.860606 0.206372 0.147768
O O11 0.725621 0.189340 0.206537
O O12 0.758654 0.000000 0.091521
O O13 0.914596 0.500000 0.820187
O O14 0.000000 0.771365 0.798155
O O15 0.615296 0.666780 0.278468
O O16 0.644575 0.000000 0.297121
O O17 0.500000 0.500000 0.776063
#
# Coordination Sequence:
#
# PCOD8193951 Si02
#       7
#     4   4   8   8   8   8   4
#     4  11  23  33  43  67 105 146 181 218 264 302
#     4  10  20  35  53  74 105 135 159 193 233 291
#     4  10  20  32  47  68  97 138 179 212 253 303
#     4   9  17  31  50  71  95 129 173 211 245 287
#     4  10  18  28  46  71  97 126 166 219 268 299
#     4   8  17  32  51  75 100 129 169 211 245 288
#     4  10  20  33  56  84 106 131 155 189 249 305
#
# _framework density 17.780602999999999
#
# number of rings (size 3 to 8) (size 9 to 14) (size 15 to 20)
#    0.000    2.455    0.909    3.000    5.091    5.273 
#    0.000    0.000    0.000    1.091    0.000    7.636 
#    0.000    2.909    0.000    0.000    0.000    0.000 
#
# Total GULP energy -545332.070006 kJ/mol
# GULP energy per Si atom -12393.910682 kJ/mol
# Density = 1.774013 g / cm^3
# Si number density = 17.780603 Si / 1000 Ang^3
#
#
#
# Elastic Constant Matrix: (Units=GPa)
#
#
# Indices 1 2 3 4 5 6 
#
# 1 115.1404 56.3138 33.1575 0.0000 0.0000 0.0000
# 2 56.3138 118.6701 20.7223 0.0000 0.0000 0.0000
# 3 33.1575 20.7223 57.4344 0.0000 0.0000 0.0000
# 4 0.0000 0.0000 0.0000 -40.1870 0.0000 0.0000
# 5 0.0000 0.0000 0.0000 0.0000 15.6668 0.0000
# 6 0.0000 0.0000 0.0000 0.0000 0.0000 16.7542
#
#
#
# Elastic Compliance Matrix: (Units=1/GPa)
#
#
# Indices 1 2 3 4 5 6 
#
# 1 0.012770 -0.005093 -0.005535 0.000000 0.000000 0.000000
# 2 -0.005093 0.011025 -0.001037 0.000000 0.000000 0.000000
# 3 -0.005535 -0.001037 0.020981 0.000000 0.000000 0.000000
# 4 0.000000 0.000000 0.000000 -0.024884 0.000000 0.000000
# 5 0.000000 0.000000 0.000000 0.000000 0.063829 0.000000
# 6 0.000000 0.000000 0.000000 0.000000 0.000000 0.059686
#
#
# Mechanical properties :
#
#
# Convention : Reuss Voigt Hill
#
# Bulk Modulus (GPa) = 46.63105 56.84800 51.73953
# Shear Modulus (GPa) = 28.75441 10.51689 19.63565
#
# Velocity S-wave (km/s) = 4.02578 2.43468 3.32675
# Velocity P-wave (km/s) = 6.92040 6.32019 6.62710
#
# Compressibility (1/GPa) = 0.02144494
#
# Stress axis : x y z
#
# Youngs Moduli (GPa) = 78.30853 90.70373 47.66319
#
# Poissons Ratio (x) = 0.46199 0.26379
# Poissons Ratio (y) = 0.39886 0.04944
# Poissons Ratio (z) = 0.43340 0.09408
#
# Static dielectric constant tensor:
#      x y z
#    x 3.176410 0.000000 0.000000 
#    y 0.000000 3.709710 0.000000 
#    z 0.000000 0.000000 2.948730 
# 
# 
# High freq. dielectric constant tensor:
#      x y z
#    x 1.662360 0.000000 0.000000 
#    y 0.000000 1.708420 0.000000 
#    z 0.000000 0.000000 1.653270 
# 
# From -- ./inp_files/27952.got.cif
#   From: 2010.03.12/outbox.cif.g09.slc.cpg/sg47_14_cif.got.tgz:27952.got - 2010.04.14 03:12:58.
