data_PCOD8193718
_publ_section_title
;
Structure prediction by ZEFSAII (Michael W. Deem and Ramdas Pophale) SiO2 
 PCOD8193718
Probable space group: P M M M
;
_chemical_formula_sum "Si O2"
_cell_formula_units_Z 36
_cell_length_a 8.996596
_cell_length_b 15.650277
_cell_length_c 14.532721
_cell_angle_alpha 90.000000
_cell_angle_beta 90.000000
_cell_angle_gamma 90.000000
_cell_volume 2046.195773
_symmetry_space_group_name_H-M "P M M M"
_symmetry_group_IT_number 47
_symmetry_cell_setting 'orthorhombic'
loop_
_space_group_symop_operation_xyz
x,y,z
-x,-y,z
x,-y,-z
-x,y,-z
-x,-y,-z
x,y,-z
-x,y,z
x,-y,z
loop_
_atom_site_type_symbol
_atom_site_label
_atom_site_fract_x
_atom_site_fract_y
_atom_site_fract_z
Si Si1 0.676423 0.905355 0.896663
Si Si2 0.822603 0.184483 0.395737
Si Si3 0.838949 0.000000 0.608275
Si Si4 0.676543 0.594817 0.102881
Si Si5 0.677010 0.749408 0.774659
O O1 0.500000 0.900084 0.898990
O O2 0.738568 0.832351 0.829309
O O3 0.726848 0.000000 0.862080
O O4 0.737282 0.889396 0.000000
O O5 0.776438 0.208519 0.500000
O O6 0.747204 0.251987 0.327201
O O7 0.000000 0.185359 0.386010
O O8 0.757277 0.089668 0.367684
O O9 0.865824 0.000000 0.500000
O O10 0.000000 0.000000 0.657266
O O11 0.500000 0.599164 0.101197
O O12 0.729112 0.500000 0.133877
O O13 0.738094 0.665172 0.173655
O O14 0.736178 0.614734 0.000000
O O15 0.500000 0.749376 0.767075
#
# Coordination Sequence:
#
# PCOD8193718 Si02
#       5
#     8   8   4   8   8
#     4   8  14  24  37  57  89 122 144 166 206 263
#     4   9  18  32  47  62  85 120 156 186 221 268
#     4   7  12  26  45  59  74 107 154 188 209 249
#     4   8  14  26  45  69  95 120 147 181 221 266
#     4  10  18  26  44  71  92 112 146 190 227 259
#
# _framework density 17.593623999999998
#
# number of rings (size 3 to 8) (size 9 to 14) (size 15 to 20)
#    0.000    3.444    0.000    3.333    1.556    3.111 
#    0.000    0.000    0.000    6.000    0.000    7.778 
#    0.000    0.000    0.000    0.000    0.000    0.000 
#
# Total GULP energy -445973.098457 kJ/mol
# GULP energy per Si atom -12388.141624 kJ/mol
# Density = 1.755358 g / cm^3
# Si number density = 17.593624 Si / 1000 Ang^3
#
#
#
# Elastic Constant Matrix: (Units=GPa)
#
#
# Indices 1 2 3 4 5 6 
#
# 1 12.5280 19.5015 21.5397 0.0000 0.0000 0.0000
# 2 19.5015 135.5973 87.4940 0.0000 0.0000 0.0000
# 3 21.5397 87.4940 121.8816 0.0000 0.0000 0.0000
# 4 0.0000 0.0000 0.0000 28.0867 0.0000 0.0000
# 5 0.0000 0.0000 0.0000 0.0000 3.4093 0.0000
# 6 0.0000 0.0000 0.0000 0.0000 0.0000 8.2739
#
#
#
# Elastic Compliance Matrix: (Units=1/GPa)
#
#
# Indices 1 2 3 4 5 6 
#
# 1 0.117686 -0.006530 -0.016110 0.000000 0.000000 0.000000
# 2 -0.006530 0.014101 -0.008968 0.000000 0.000000 0.000000
# 3 -0.016110 -0.008968 0.017490 0.000000 0.000000 0.000000
# 4 0.000000 0.000000 0.000000 0.035604 0.000000 0.000000
# 5 0.000000 0.000000 0.000000 0.000000 0.293317 0.000000
# 6 0.000000 0.000000 0.000000 0.000000 0.000000 0.120862
#
#
# Mechanical properties :
#
#
# Convention : Reuss Voigt Hill
#
# Bulk Modulus (GPa) = 11.62003 58.56413 35.09208
# Shear Modulus (GPa) = 7.23629 17.38543 12.31086
#
# Velocity S-wave (km/s) = 2.03026 3.14692 2.64812
# Velocity P-wave (km/s) = 3.48065 6.82375 5.41657
#
# Compressibility (1/GPa) = 0.08605832
#
# Stress axis : x y z
#
# Youngs Moduli (GPa) = 8.49722 70.91833 57.17625
#
# Poissons Ratio (x) = 0.46312 0.92113
# Poissons Ratio (y) = 0.05549 0.51277
# Poissons Ratio (z) = 0.13689 0.63602
#
# Static dielectric constant tensor:
#      x y z
#    x 2.607460 0.000000 0.000000 
#    y 0.000000 3.577400 0.000000 
#    z 0.000000 0.000000 3.295510 
# 
# 
# High freq. dielectric constant tensor:
#      x y z
#    x 1.616270 0.000000 0.000000 
#    y 0.000000 1.672780 0.000000 
#    z 0.000000 0.000000 1.676960 
# 
# From -- ./inp_files/5524.got.cif
#   From: 2010.03.12/outbox.cif.g09.slc.cpg/sg47_3_cif.got.tgz:5524.got - 2010.04.14 03:12:58.
