data_PCOD8193316
_publ_section_title
;
Structure prediction by ZEFSAII (Michael W. Deem and Ramdas Pophale) SiO2 
 PCOD8193316
Probable space group: I M A 2
;
_chemical_formula_sum "Si O2"
_cell_formula_units_Z 48
_cell_length_a 8.722405
_cell_length_b 9.621151
_cell_length_c 30.885925
_cell_angle_alpha 90.000000
_cell_angle_beta 90.000000
_cell_angle_gamma 90.000000
_cell_volume 2591.933718
_symmetry_space_group_name_H-M "I M A 2"
_symmetry_group_IT_number 46
_symmetry_cell_setting 'orthorhombic'
loop_
_space_group_symop_operation_xyz
x,y,z
-x,-y,z
1/2-x,y,z
1/2+x,-y,z
1/2+x,1/2+y,1/2+z
1/2-x,1/2-y,1/2+z
-x,1/2+y,1/2+z
x,1/2-y,1/2+z
loop_
_atom_site_type_symbol
_atom_site_label
_atom_site_fract_x
_atom_site_fract_y
_atom_site_fract_z
Si Si1 0.071202 0.149879 0.824540
Si Si2 0.570192 0.854683 0.155267
Si Si3 0.929491 0.849275 0.919064
Si Si4 0.568355 0.645192 0.752509
Si Si5 0.068223 0.654783 0.505651
Si Si6 0.931756 0.846620 0.579545
O O1 0.250000 0.130638 0.817431
O O2 0.040990 0.221311 0.871972
O O3 0.000727 0.243835 0.786429
O O4 0.000000 0.000000 0.820450
O O5 0.750000 0.876934 0.154202
O O6 0.513334 0.817362 0.203791
O O7 0.520515 0.728677 0.124271
O O8 0.500000 0.000000 0.138802
O O9 0.750000 0.857478 0.930252
O O10 0.000000 0.000000 0.914464
O O11 0.017180 0.777663 0.959351
O O12 0.500000 0.500000 0.767335
O O13 0.750000 0.637387 0.755230
O O14 0.250000 0.646445 0.509009
O O15 0.000000 0.500000 0.511574
O O16 0.003678 0.757912 0.541238
O O17 0.750000 0.854244 0.573593
O O18 0.000000 0.000000 0.579916
#
# Coordination Sequence:
#
# PCOD8193316 Si02
#       6
#     8   8   8   8   8   8
#     4   9  18  31  50  75 105 136 170 211 255 300
#     4   9  19  35  56  77 101 133 172 212 252 300
#     4   9  16  29  49  74 102 134 171 214 255 298
#     4   9  18  34  52  75 104 135 170 210 252 300
#     4  11  21  35  56  80 104 136 175 217 259 307
#     4  11  23  38  54  77 107 138 170 212 262 313
#
# _framework density 18.518992000000001
#
# number of rings (size 3 to 8) (size 9 to 14) (size 15 to 20)
#    0.000    2.333    0.000    4.000    0.000    4.667 
#    0.000    0.833    0.000    2.000    0.000    0.000 
#    0.000    0.000    0.000    0.000    0.000    0.000 
#
# Total GULP energy -297455.820150 kJ/mol
# GULP energy per Si atom -12393.992506 kJ/mol
# Density = 1.847684 g / cm^3
# Si number density = 18.518992 Si / 1000 Ang^3
#
#
#
# Elastic Constant Matrix: (Units=GPa)
#
#
# Indices 1 2 3 4 5 6 
#
# 1 75.1444 45.6848 55.6722 0.0000 0.0000 0.0000
# 2 45.6848 119.2589 93.5968 0.0000 0.0000 0.0000
# 3 55.6722 93.5968 162.0087 0.0000 0.0000 0.0000
# 4 0.0000 0.0000 0.0000 46.2966 0.0000 0.0000
# 5 0.0000 0.0000 0.0000 0.0000 27.1241 0.0000
# 6 0.0000 0.0000 0.0000 0.0000 0.0000 28.4817
#
#
#
# Elastic Compliance Matrix: (Units=1/GPa)
#
#
# Indices 1 2 3 4 5 6 
#
# 1 0.018794 -0.003898 -0.004206 0.000000 0.000000 0.000000
# 2 -0.003898 0.016149 -0.007990 0.000000 0.000000 0.000000
# 3 -0.004206 -0.007990 0.012234 0.000000 0.000000 0.000000
# 4 0.000000 0.000000 0.000000 0.021600 0.000000 0.000000
# 5 0.000000 0.000000 0.000000 0.000000 0.036868 0.000000
# 6 0.000000 0.000000 0.000000 0.000000 0.000000 0.035110
#
#
# Mechanical properties :
#
#
# Convention : Reuss Voigt Hill
#
# Bulk Modulus (GPa) = 66.72074 82.92441 74.82258
# Shear Modulus (GPa) = 28.09921 31.14435 29.62178
#
# Velocity S-wave (km/s) = 3.89950 4.10537 4.00376
# Velocity P-wave (km/s) = 7.50875 8.20654 7.86539
#
# Compressibility (1/GPa) = 0.01498784
#
# Stress axis : x y z
#
# Youngs Moduli (GPa) = 53.20860 61.92146 81.73869
#
# Poissons Ratio (x) = 0.24140 0.34380
# Poissons Ratio (y) = 0.20743 0.65312
# Poissons Ratio (z) = 0.22380 0.49477
#
# Static dielectric constant tensor:
#      x y z
#    x 3.416670 0.000000 0.000000 
#    y 0.000000 3.128980 0.000000 
#    z 0.000000 0.000000 4.309570 
# 
# 
# High freq. dielectric constant tensor:
#      x y z
#    x 1.722300 0.000000 0.000000 
#    y 0.000000 1.688480 0.000000 
#    z 0.000000 0.000000 1.742200 
# 
# From -- ./inp_files/24994.got.cif
#   From: 2010.03.12/outbox.cif.g09.slc.cpg/sg46_13_cif.got.tgz:24994.got - 2010.04.14 02:56:35.
