data_PCOD8193250
_publ_section_title
;
Structure prediction by ZEFSAII (Michael W. Deem and Ramdas Pophale) SiO2 
 PCOD8193250
Probable space group: I M A 2
;
_chemical_formula_sum "Si O2"
_cell_formula_units_Z 40
_cell_length_a 14.996596
_cell_length_b 15.843051
_cell_length_c 7.635140
_cell_angle_alpha 90.000000
_cell_angle_beta 90.000000
_cell_angle_gamma 90.000000
_cell_volume 1814.046925
_symmetry_space_group_name_H-M "I M A 2"
_symmetry_group_IT_number 46
_symmetry_cell_setting 'orthorhombic'
loop_
_space_group_symop_operation_xyz
x,y,z
-x,-y,z
1/2-x,y,z
1/2+x,-y,z
1/2+x,1/2+y,1/2+z
1/2-x,1/2-y,1/2+z
-x,1/2+y,1/2+z
x,1/2-y,1/2+z
loop_
_atom_site_type_symbol
_atom_site_label
_atom_site_fract_x
_atom_site_fract_y
_atom_site_fract_z
Si Si1 0.567621 0.846266 0.138720
Si Si2 0.750000 0.697111 0.814988
Si Si3 0.593974 0.981707 0.850832
Si Si4 0.959544 0.294137 0.953968
Si Si5 0.351093 0.656869 0.271971
Si Si6 0.750000 0.876034 0.699504
O O1 0.666131 0.832858 0.205822
O O2 0.497610 0.853547 0.299757
O O3 0.568557 0.932730 0.029233
O O4 0.540357 0.765865 0.019390
O O5 0.750000 0.798577 0.836319
O O6 0.750000 0.656017 0.003641
O O7 0.659961 0.928929 0.727593
O O8 0.500000 0.000000 0.752371
O O9 0.639854 0.072198 0.889571
O O10 0.878054 0.236677 0.887611
O O11 0.918333 0.351637 0.106800
O O12 0.250000 0.668114 0.207694
#
# Coordination Sequence:
#
# PCOD8193250 Si02
#       6
#     8   4   8   8   8   4
#     4  11  23  43  69 106 134 180 228 283 344 410
#     4  12  26  42  74 100 137 182 234 281 336 419
#     4  12  25  44  66  98 143 179 219 288 349 399
#     4  10  23  43  72 102 130 179 238 275 339 414
#     4  11  23  45  71  98 137 177 229 287 344 404
#     4  12  26  46  70 102 139 182 230 285 346 413
#
# _framework density 22.050145000000001
#
# number of rings (size 3 to 8) (size 9 to 14) (size 15 to 20)
#    0.000    0.800    3.000    4.800    5.600    0.000 
#    3.600    0.000    2.200    0.000    0.000    0.000 
#    0.000    0.000    0.000    0.000    0.000    0.000 
#
# Total GULP energy -248013.285453 kJ/mol
# GULP energy per Si atom -12400.664273 kJ/mol
# Density = 2.199996 g / cm^3
# Si number density = 22.050145 Si / 1000 Ang^3
#
#
#
# Elastic Constant Matrix: (Units=GPa)
#
#
# Indices 1 2 3 4 5 6 
#
# 1 170.6363 66.9487 57.1312 0.0000 0.0000 0.0000
# 2 66.9487 120.2135 56.8606 0.0000 0.0000 0.0000
# 3 57.1312 56.8606 119.9340 0.0000 0.0000 0.0000
# 4 0.0000 0.0000 0.0000 27.0176 0.0000 0.0000
# 5 0.0000 0.0000 0.0000 0.0000 10.1135 0.0000
# 6 0.0000 0.0000 0.0000 0.0000 0.0000 -417.1912
#
#
#
# Elastic Compliance Matrix: (Units=1/GPa)
#
#
# Indices 1 2 3 4 5 6 
#
# 1 0.007913 -0.003382 -0.002166 0.000000 0.000000 0.000000
# 2 -0.003382 0.012169 -0.004158 0.000000 0.000000 0.000000
# 3 -0.002166 -0.004158 0.011341 0.000000 0.000000 0.000000
# 4 0.000000 0.000000 0.000000 0.037013 0.000000 0.000000
# 5 0.000000 0.000000 0.000000 0.000000 0.098877 0.000000
# 6 0.000000 0.000000 0.000000 0.000000 0.000000 -0.002397
#
#
# Mechanical properties :
#
#
# Convention : Reuss Voigt Hill
#
# Bulk Modulus (GPa) = 83.26183 85.85163 84.55673
# Shear Modulus (GPa) = 26.54899 -60.68913 -17.07007
#
# Velocity S-wave (km/s) = 3.47367 -5.25195 -2.78537
# Velocity P-wave (km/s) = 7.34376 1.49731 5.29965
#
# Compressibility (1/GPa) = 0.01201030
#
# Stress axis : x y z
#
# Youngs Moduli (GPa) = 126.38189 82.17641 88.17643
#
# Poissons Ratio (x) = 0.27794 0.19096
# Poissons Ratio (y) = 0.42746 0.36665
# Poissons Ratio (z) = 0.27370 0.34170
#
# Static dielectric constant tensor:
#      x y z
#    x 4.317160 0.000000 0.000000 
#    y 0.000000 4.023710 0.000000 
#    z 0.000000 0.000000 3.954940 
# 
# 
# High freq. dielectric constant tensor:
#      x y z
#    x 1.892860 0.000000 0.000000 
#    y 0.000000 1.859590 0.000000 
#    z 0.000000 0.000000 1.856980 
# 
# From -- ./inp_files/5467.got.cif
#   From: 2010.03.12/outbox.cif.g09.slc.cpg/sg46_3_cif.got.tgz:5467.got - 2010.04.14 02:56:35.
