data_PCOD8193083
_publ_section_title
;
Structure prediction by ZEFSAII (Michael W. Deem and Ramdas Pophale) SiO2 
 PCOD8193083
Probable space group: I M A 2
;
_chemical_formula_sum "Si O2"
_cell_formula_units_Z 28
_cell_length_a 9.261091
_cell_length_b 6.915445
_cell_length_c 18.539325
_cell_angle_alpha 90.000000
_cell_angle_beta 90.000000
_cell_angle_gamma 90.000000
_cell_volume 1187.343013
_symmetry_space_group_name_H-M "I M A 2"
_symmetry_group_IT_number 46
_symmetry_cell_setting 'orthorhombic'
loop_
_space_group_symop_operation_xyz
x,y,z
-x,-y,z
1/2-x,y,z
1/2+x,-y,z
1/2+x,1/2+y,1/2+z
1/2-x,1/2-y,1/2+z
-x,1/2+y,1/2+z
x,1/2-y,1/2+z
loop_
_atom_site_type_symbol
_atom_site_label
_atom_site_fract_x
_atom_site_fract_y
_atom_site_fract_z
Si Si1 0.500000 0.500000 0.309840
Si Si2 0.584532 0.802252 0.197208
Si Si3 0.408795 0.669821 0.906865
Si Si4 0.423082 0.795411 0.062473
O O1 0.592966 0.648850 0.262424
O O2 0.598241 0.368379 0.361936
O O3 0.750000 0.853599 0.175651
O O4 0.497002 0.693173 0.132042
O O5 0.500000 0.000000 0.219507
O O6 0.500000 0.500000 0.868640
O O7 0.250000 0.584818 0.912285
O O8 0.470843 0.699583 0.987539
O O9 0.250000 0.807929 0.069693
O O10 0.500000 0.000000 0.065571
#
# Coordination Sequence:
#
# PCOD8193083 Si02
#       4
#     4   8   8   8
#     4  12  26  46  70 102 138 184 228 282 338 408
#     4  11  25  44  70 102 139 180 227 282 339 406
#     4  11  26  45  69 102 138 180 229 283 341 405
#     4  10  21  42  70 101 137 179 227 280 338 405
#
# _framework density 23.582066999999999
#
# number of rings (size 3 to 8) (size 9 to 14) (size 15 to 20)
#    0.000    1.143    1.429    5.143    2.000   11.429 
#    0.000    0.000    0.000    0.000    0.000    0.000 
#    0.000    0.000    0.000    0.000    0.000    0.000 
#
# Total GULP energy -173456.960447 kJ/mol
# GULP energy per Si atom -12389.782889 kJ/mol
# Density = 2.352839 g / cm^3
# Si number density = 23.582067 Si / 1000 Ang^3
#
#
#
# Elastic Constant Matrix: (Units=GPa)
#
#
# Indices 1 2 3 4 5 6 
#
# 1 131.6096 33.2021 50.4086 0.0000 0.0000 0.0000
# 2 33.2021 113.7351 63.2186 0.0000 0.0000 0.0000
# 3 50.4086 63.2186 143.4204 0.0000 0.0000 0.0000
# 4 0.0000 0.0000 0.0000 24.4323 0.0000 0.0000
# 5 0.0000 0.0000 0.0000 0.0000 11.2312 0.0000
# 6 0.0000 0.0000 0.0000 0.0000 0.0000 24.2514
#
#
#
# Elastic Compliance Matrix: (Units=1/GPa)
#
#
# Indices 1 2 3 4 5 6 
#
# 1 0.008890 -0.001137 -0.002623 0.000000 0.000000 0.000000
# 2 -0.001137 0.011791 -0.004798 0.000000 0.000000 0.000000
# 3 -0.002623 -0.004798 0.010009 0.000000 0.000000 0.000000
# 4 0.000000 0.000000 0.000000 0.040929 0.000000 0.000000
# 5 0.000000 0.000000 0.000000 0.000000 0.089038 0.000000
# 6 0.000000 0.000000 0.000000 0.000000 0.000000 0.041235
#
#
# Mechanical properties :
#
#
# Convention : Reuss Voigt Hill
#
# Bulk Modulus (GPa) = 73.67024 75.82487 74.74755
# Shear Modulus (GPa) = 22.36804 28.11202 25.24003
#
# Velocity S-wave (km/s) = 3.08314 3.45642 3.27510
# Velocity P-wave (km/s) = 6.63190 6.93920 6.78729
#
# Compressibility (1/GPa) = 0.01357400
#
# Stress axis : x y z
#
# Youngs Moduli (GPa) = 112.48762 84.80986 99.90613
#
# Poissons Ratio (x) = 0.09643 0.26209
# Poissons Ratio (y) = 0.12790 0.47933
# Poissons Ratio (z) = 0.29510 0.40690
#
# Static dielectric constant tensor:
#      x y z
#    x 4.011730 0.000000 0.000000 
#    y 0.000000 4.232310 0.000000 
#    z 0.000000 0.000000 5.168920 
# 
# 
# High freq. dielectric constant tensor:
#      x y z
#    x 1.924790 0.000000 0.000000 
#    y 0.000000 1.933010 0.000000 
#    z 0.000000 0.000000 1.953790 
# 
# From -- ./inp_files/17871.got.cif
#   From: 2010.03.12/outbox.cif.g09.slc.cpg/sg46_9_cif.got.tgz:17871.got - 2010.04.14 02:56:35.
