data_PCOD8193466
_publ_section_title
;
Structure prediction by ZEFSAII (Michael W. Deem and Ramdas Pophale) SiO2 
 PCOD8193466
Probable space group: P M M M
;
_chemical_formula_sum "Si O2"
_cell_formula_units_Z 48
_cell_length_a 14.634719
_cell_length_b 14.463426
_cell_length_c 15.887488
_cell_angle_alpha 90.000000
_cell_angle_beta 90.000000
_cell_angle_gamma 90.000000
_cell_volume 3362.875595
_symmetry_space_group_name_H-M "P M M M"
_symmetry_group_IT_number 47
_symmetry_cell_setting 'orthorhombic'
loop_
_space_group_symop_operation_xyz
x,y,z
-x,-y,z
x,-y,-z
-x,y,-z
-x,-y,-z
x,y,-z
-x,y,z
x,-y,z
loop_
_atom_site_type_symbol
_atom_site_label
_atom_site_fract_x
_atom_site_fract_y
_atom_site_fract_z
Si Si1 0.788791 0.393928 0.840847
Si Si2 0.104007 0.602648 0.672184
Si Si3 0.894118 0.229306 0.093500
Si Si4 0.893148 0.789613 0.591428
Si Si5 0.599093 0.390828 0.094366
Si Si6 0.109054 0.104236 0.753899
O O1 0.800307 0.500000 0.871645
O O2 0.825013 0.381518 0.746905
O O3 0.845592 0.328530 0.902635
O O4 0.682273 0.361931 0.844219
O O5 0.116420 0.500000 0.632847
O O6 0.125110 0.679984 0.602705
O O7 0.000000 0.614934 0.706599
O O8 0.854568 0.159158 0.164012
O O9 0.000000 0.246746 0.111202
O O10 0.878484 0.187180 0.000000
O O11 0.851041 0.818022 0.500000
O O12 0.850973 0.848233 0.668795
O O13 0.000000 0.810191 0.589418
O O14 0.500000 0.352141 0.126452
O O15 0.592891 0.500000 0.091096
O O16 0.618602 0.353116 0.000000
O O17 0.000000 0.105088 0.753034
O O18 0.146798 0.000000 0.758284
#
# Coordination Sequence:
#
# PCOD8193466 Si02
#       6
#     8   8   8   8   8   8
#     4  10  17  25  39  56  77 106 135 161 193 226
#     4   9  16  25  37  54  79 109 135 158 187 227
#     4  10  19  28  38  54  77 106 138 164 188 226
#     4   9  16  26  40  56  74  99 132 166 199 233
#     4   8  14  24  36  51  73 100 130 163 195 226
#     4   9  17  29  41  52  71  99 132 170 204 230
#
# _framework density 14.273498
#
# number of rings (size 3 to 8) (size 9 to 14) (size 15 to 20)
#    0.000    2.833    1.667    1.500    0.000    3.000 
#    0.000    5.833    0.000    0.000    0.000    0.000 
#    0.000    1.333    0.000   10.000    0.000    2.500 
#
# Total GULP energy -594685.155424 kJ/mol
# GULP energy per Si atom -12389.274071 kJ/mol
# Density = 1.424101 g / cm^3
# Si number density = 14.273498 Si / 1000 Ang^3
#
#
#
# Elastic Constant Matrix: (Units=GPa)
#
#
# Indices 1 2 3 4 5 6 
#
# 1 50.1940 18.5001 28.2746 0.0000 0.0000 0.0000
# 2 18.5001 81.1203 46.5695 0.0000 0.0000 0.0000
# 3 28.2746 46.5695 101.8976 0.0000 0.0000 0.0000
# 4 0.0000 0.0000 0.0000 12.4969 0.0000 0.0000
# 5 0.0000 0.0000 0.0000 0.0000 6.3681 0.0000
# 6 0.0000 0.0000 0.0000 0.0000 0.0000 4.0165
#
#
#
# Elastic Compliance Matrix: (Units=1/GPa)
#
#
# Indices 1 2 3 4 5 6 
#
# 1 0.023907 -0.002229 -0.005615 0.000000 0.000000 0.000000
# 2 -0.002229 0.016920 -0.007114 0.000000 0.000000 0.000000
# 3 -0.005615 -0.007114 0.014623 0.000000 0.000000 0.000000
# 4 0.000000 0.000000 0.000000 0.080020 0.000000 0.000000
# 5 0.000000 0.000000 0.000000 0.000000 0.157032 0.000000
# 6 0.000000 0.000000 0.000000 0.000000 0.000000 0.248972
#
#
# Mechanical properties :
#
#
# Convention : Reuss Voigt Hill
#
# Bulk Modulus (GPa) = 39.16361 46.65561 42.90961
# Shear Modulus (GPa) = 8.62214 13.90081 11.26147
#
# Velocity S-wave (km/s) = 2.46044 3.12411 2.81192
# Velocity P-wave (km/s) = 5.96400 6.76544 6.37732
#
# Compressibility (1/GPa) = 0.02553390
#
# Stress axis : x y z
#
# Youngs Moduli (GPa) = 41.82838 59.10224 68.38392
#
# Poissons Ratio (x) = 0.13172 0.38399
# Poissons Ratio (y) = 0.09322 0.48651
# Poissons Ratio (z) = 0.23488 0.42047
#
# Static dielectric constant tensor:
#      x y z
#    x 2.708600 0.000000 0.000000 
#    y 0.000000 2.811890 0.000000 
#    z 0.000000 0.000000 2.877880 
# 
# 
# High freq. dielectric constant tensor:
#      x y z
#    x 1.490470 0.000000 0.000000 
#    y 0.000000 1.532220 0.000000 
#    z 0.000000 0.000000 1.540810 
# 
# From -- ./inp_files/22697.got.cif
#   From: 2010.03.12/outbox.cif.g09.slc.cpg/sg47_12_cif.got.tgz:22697.got - 2010.04.14 03:12:58.
