data_PCOD8193582
_publ_section_title
;
Structure prediction by ZEFSAII (Michael W. Deem and Ramdas Pophale) SiO2 
 PCOD8193582
Probable space group: P M M M
;
_chemical_formula_sum "Si O2"
_cell_formula_units_Z 48
_cell_length_a 14.284877
_cell_length_b 9.566238
_cell_length_c 20.773639
_cell_angle_alpha 90.000000
_cell_angle_beta 90.000000
_cell_angle_gamma 90.000000
_cell_volume 2838.770393
_symmetry_space_group_name_H-M "P M M M"
_symmetry_group_IT_number 47
_symmetry_cell_setting 'orthorhombic'
loop_
_space_group_symop_operation_xyz
x,y,z
-x,-y,z
x,-y,-z
-x,y,-z
-x,-y,-z
x,y,-z
-x,y,z
x,-y,z
loop_
_atom_site_type_symbol
_atom_site_label
_atom_site_fract_x
_atom_site_fract_y
_atom_site_fract_z
Si Si1 0.895334 0.834170 0.188608
Si Si2 0.770466 0.838981 0.927980
Si Si3 0.895512 0.165859 0.428685
Si Si4 0.774138 0.833820 0.689666
Si Si5 0.393585 0.339139 0.732066
Si Si6 0.606104 0.339281 0.881393
O O1 0.846123 0.780515 0.123037
O O2 0.836038 0.782721 0.249851
O O3 0.000000 0.770207 0.192002
O O4 0.901966 0.000000 0.188848
O O5 0.673601 0.756099 0.923530
O O6 0.747947 0.000000 0.912629
O O7 0.811571 0.820985 0.000000
O O8 0.862114 0.213750 0.500000
O O9 0.824498 0.221968 0.374897
O O10 0.000000 0.224058 0.414916
O O11 0.898965 0.000000 0.424827
O O12 0.673173 0.761171 0.690999
O O13 0.760149 0.000000 0.689986
O O14 0.500000 0.311301 0.709898
O O15 0.366412 0.500000 0.719808
O O16 0.381932 0.301149 0.806740
O O17 0.500000 0.309846 0.903532
O O18 0.632254 0.500000 0.893645
#
# Coordination Sequence:
#
# PCOD8193582 Si02
#       6
#     8   8   8   8   8   8
#     4   9  17  29  45  67  93 119 151 190 227 267
#     4  10  20  32  46  67  94 122 152 189 234 276
#     4   8  14  25  43  71 105 133 155 185 229 277
#     4  10  17  27  49  76  96 119 155 195 230 266
#     4   9  18  32  49  69  94 123 153 189 236 284
#     4   9  18  33  51  68  88 118 154 190 233 285
#
# _framework density 16.908729999999998
#
# number of rings (size 3 to 8) (size 9 to 14) (size 15 to 20)
#    0.000    2.833    1.667    2.000    0.000    3.667 
#    0.000    5.000    0.000    4.500    0.000    5.833 
#    0.000    0.000    0.000    0.000    0.000    0.000 
#
# Total GULP energy -595079.487072 kJ/mol
# GULP energy per Si atom -12397.489314 kJ/mol
# Density = 1.687024 g / cm^3
# Si number density = 16.908730 Si / 1000 Ang^3
#
#
#
# Elastic Constant Matrix: (Units=GPa)
#
#
# Indices 1 2 3 4 5 6 
#
# 1 112.3367 35.5678 61.3312 0.0000 0.0000 0.0000
# 2 35.5678 32.8679 27.7096 0.0000 0.0000 0.0000
# 3 61.3312 27.7096 116.3775 0.0000 0.0000 0.0000
# 4 0.0000 0.0000 0.0000 12.8931 0.0000 0.0000
# 5 0.0000 0.0000 0.0000 0.0000 29.8749 0.0000
# 6 0.0000 0.0000 0.0000 0.0000 0.0000 4.8212
#
#
#
# Elastic Compliance Matrix: (Units=1/GPa)
#
#
# Indices 1 2 3 4 5 6 
#
# 1 0.015802 -0.012610 -0.005325 0.000000 0.000000 0.000000
# 2 -0.012610 0.048130 -0.004814 0.000000 0.000000 0.000000
# 3 -0.005325 -0.004814 0.012545 0.000000 0.000000 0.000000
# 4 0.000000 0.000000 0.000000 0.077561 0.000000 0.000000
# 5 0.000000 0.000000 0.000000 0.000000 0.033473 0.000000
# 6 0.000000 0.000000 0.000000 0.000000 0.000000 0.207419
#
#
# Mechanical properties :
#
#
# Convention : Reuss Voigt Hill
#
# Bulk Modulus (GPa) = 32.28128 56.75549 44.51839
# Shear Modulus (GPa) = 11.09252 18.64941 14.87097
#
# Velocity S-wave (km/s) = 2.56407 3.32467 2.96883
# Velocity P-wave (km/s) = 5.28194 6.95532 6.17557
#
# Compressibility (1/GPa) = 0.03097770
#
# Stress axis : x y z
#
# Youngs Moduli (GPa) = 63.28425 20.77725 79.71171
#
# Poissons Ratio (x) = 0.26201 0.42446
# Poissons Ratio (y) = 0.79804 0.38373
# Poissons Ratio (z) = 0.33699 0.10002
#
# Static dielectric constant tensor:
#      x y z
#    x 3.246540 0.000000 0.000000 
#    y 0.000000 2.770890 0.000000 
#    z 0.000000 0.000000 3.249100 
# 
# 
# High freq. dielectric constant tensor:
#      x y z
#    x 1.652040 0.000000 0.000000 
#    y 0.000000 1.612060 0.000000 
#    z 0.000000 0.000000 1.646050 
# 
# From -- ./inp_files/6737.got.cif
#   From: 2010.03.12/outbox.cif.g09.slc.cpg/sg47_4_cif.got.tgz:6737.got - 2010.04.14 03:12:58.
