data_PCOD8193783
_publ_section_title
;
Structure prediction by ZEFSAII (Michael W. Deem and Ramdas Pophale) SiO2 
 PCOD8193783
Probable space group: P M M M
;
_chemical_formula_sum "Si O2"
_cell_formula_units_Z 36
_cell_length_a 22.668129
_cell_length_b 7.536735
_cell_length_c 13.285348
_cell_angle_alpha 90.000000
_cell_angle_beta 90.000000
_cell_angle_gamma 90.000000
_cell_volume 2269.717759
_symmetry_space_group_name_H-M "P M M M"
_symmetry_group_IT_number 47
_symmetry_cell_setting 'orthorhombic'
loop_
_space_group_symop_operation_xyz
x,y,z
-x,-y,z
x,-y,-z
-x,y,-z
-x,-y,-z
x,y,-z
-x,y,z
x,-y,z
loop_
_atom_site_type_symbol
_atom_site_label
_atom_site_fract_x
_atom_site_fract_y
_atom_site_fract_z
Si Si1 0.778206 0.796296 0.304144
Si Si2 0.142059 0.500000 0.611962
Si Si3 0.345912 0.297615 0.383712
Si Si4 0.565335 0.000000 0.618940
Si Si5 0.149051 0.798413 0.886738
Si Si6 0.930551 0.500000 0.805741
O O1 0.817772 0.674445 0.375829
O O2 0.710196 0.744760 0.314962
O O3 0.796244 0.760397 0.187974
O O4 0.788835 0.000000 0.335344
O O5 0.115445 0.500000 0.500000
O O6 0.087589 0.500000 0.688626
O O7 0.329638 0.256526 0.500000
O O8 0.365972 0.500000 0.369654
O O9 0.399691 0.175529 0.346041
O O10 0.500000 0.000000 0.668249
O O11 0.558973 0.000000 0.500000
O O12 0.093934 0.674505 0.860428
O O13 0.126612 0.000000 0.875062
O O14 0.171262 0.759900 0.000000
O O15 0.000000 0.500000 0.815413
#
# Coordination Sequence:
#
# PCOD8193783 Si02
#       6
#     8   4   8   4   8   4
#     4  10  18  29  47  69  93 120 152 191 233 281
#     4  10  20  32  47  68  93 121 154 193 233 271
#     4  10  18  27  42  64  91 123 155 189 226 268
#     4   9  18  30  42  60  89 127 166 195 221 259
#     4   9  19  34  50  70  95 120 147 189 239 280
#     4  10  21  35  50  69  93 123 157 188 225 278
#
# _framework density 15.861003
#
# number of rings (size 3 to 8) (size 9 to 14) (size 15 to 20)
#    0.000    2.333    2.222    1.000    0.000    3.333 
#    0.000    3.333    0.000    0.000    0.000    6.222 
#    0.000    1.778    0.000    2.000    0.000    0.222 
#
# Total GULP energy -446388.861135 kJ/mol
# GULP energy per Si atom -12399.690587 kJ/mol
# Density = 1.582490 g / cm^3
# Si number density = 15.861003 Si / 1000 Ang^3
#
#
#
# Elastic Constant Matrix: (Units=GPa)
#
#
# Indices 1 2 3 4 5 6 
#
# 1 124.8321 55.6038 41.2095 0.0000 0.0000 0.0000
# 2 55.6038 121.0984 39.7873 0.0000 0.0000 0.0000
# 3 41.2095 39.7873 90.0503 0.0000 0.0000 0.0000
# 4 0.0000 0.0000 0.0000 17.1389 0.0000 0.0000
# 5 0.0000 0.0000 0.0000 0.0000 13.1468 0.0000
# 6 0.0000 0.0000 0.0000 0.0000 0.0000 22.2276
#
#
#
# Elastic Compliance Matrix: (Units=1/GPa)
#
#
# Indices 1 2 3 4 5 6 
#
# 1 0.010815 -0.003907 -0.003223 0.000000 0.000000 0.000000
# 2 -0.003907 0.011071 -0.003104 0.000000 0.000000 0.000000
# 3 -0.003223 -0.003104 0.013951 0.000000 0.000000 0.000000
# 4 0.000000 0.000000 0.000000 0.058347 0.000000 0.000000
# 5 0.000000 0.000000 0.000000 0.000000 0.076064 0.000000
# 6 0.000000 0.000000 0.000000 0.000000 0.000000 0.044989
#
#
# Mechanical properties :
#
#
# Convention : Reuss Voigt Hill
#
# Bulk Modulus (GPa) = 65.06131 67.68690 66.37411
# Shear Modulus (GPa) = 20.76167 23.79467 22.27817
#
# Velocity S-wave (km/s) = 3.62190 3.87744 3.75185
# Velocity P-wave (km/s) = 7.65504 7.92551 7.79145
#
# Compressibility (1/GPa) = 0.01537012
#
# Stress axis : x y z
#
# Youngs Moduli (GPa) = 92.46416 90.32266 71.67825
#
# Poissons Ratio (x) = 0.35288 0.23102
# Poissons Ratio (y) = 0.36125 0.22248
# Poissons Ratio (z) = 0.29802 0.28035
#
# Static dielectric constant tensor:
#      x y z
#    x 2.879660 0.000000 0.000000 
#    y 0.000000 3.351950 0.000000 
#    z 0.000000 0.000000 2.939230 
# 
# 
# High freq. dielectric constant tensor:
#      x y z
#    x 1.586900 0.000000 0.000000 
#    y 0.000000 1.633590 0.000000 
#    z 0.000000 0.000000 1.585040 
# 
# From -- ./inp_files/18865.got.cif
#   From: 2010.03.12/outbox.cif.g09.slc.cpg/sg47_10_cif.got.tgz:18865.got - 2010.04.14 03:12:58.
