data_PCOD8193770
_publ_section_title
;
Structure prediction by ZEFSAII (Michael W. Deem and Ramdas Pophale) SiO2 
 PCOD8193770
Probable space group: P M M M
;
_chemical_formula_sum "Si O2"
_cell_formula_units_Z 64
_cell_length_a 22.036731
_cell_length_b 9.276444
_cell_length_c 20.843792
_cell_angle_alpha 90.000000
_cell_angle_beta 90.000000
_cell_angle_gamma 90.000000
_cell_volume 4260.940092
_symmetry_space_group_name_H-M "P M M M"
_symmetry_group_IT_number 47
_symmetry_cell_setting 'orthorhombic'
loop_
_space_group_symop_operation_xyz
x,y,z
-x,-y,z
x,-y,-z
-x,y,-z
-x,-y,-z
x,y,-z
-x,y,z
x,-y,z
loop_
_atom_site_type_symbol
_atom_site_label
_atom_site_fract_x
_atom_site_fract_y
_atom_site_fract_z
Si Si1 0.648373 0.660502 0.140050
Si Si2 0.834040 0.671330 0.850067
Si Si3 0.744275 0.338942 0.255133
Si Si4 0.343191 0.164164 0.335852
Si Si5 0.928771 0.834514 0.927010
Si Si6 0.432726 0.160359 0.218184
Si Si7 0.568435 0.665021 0.424361
Si Si8 0.262700 0.158566 0.926381
O O1 0.638205 0.500000 0.113270
O O2 0.696196 0.662017 0.197836
O O3 0.584653 0.723933 0.164151
O O4 0.672452 0.765400 0.084487
O O5 0.837011 0.500000 0.857735
O O6 0.808864 0.710153 0.777765
O O7 0.898566 0.740262 0.869782
O O8 0.788793 0.735625 0.902030
O O9 0.750806 0.500000 0.283477
O O10 0.720758 0.237276 0.313331
O O11 0.389657 0.174066 0.278309
O O12 0.376623 0.243167 0.394427
O O13 0.328710 0.000000 0.355768
O O14 0.000000 0.819634 0.916189
O O15 0.907730 0.000000 0.918892
O O16 0.912248 0.783218 0.000000
O O17 0.500000 0.196011 0.242285
O O18 0.428197 0.000000 0.188658
O O19 0.576133 0.678054 0.500000
O O20 0.500000 0.718582 0.405151
O O21 0.576069 0.500000 0.401749
O O22 0.261088 0.000000 0.892414
O O23 0.251134 0.134690 0.000000
#
# Coordination Sequence:
#
# PCOD8193770 Si02
#       8
#     8   8   8   8   8   8   8   8
#     4   9  17  28  41  57  75  93 117 152 191 230
#     4  10  19  29  43  63  83 103 132 170 207 239
#     4   8  16  29  41  56  79 104 128 158 200 246
#     4  10  18  27  42  63  82 101 130 167 203 236
#     4   9  18  31  44  59  83 116 149 176 205 246
#     4   9  17  28  41  57  77  99 121 148 188 238
#     4   9  18  31  44  58  80 113 147 173 202 244
#     4  10  19  29  42  58  75  97 122 149 189 240
#
# _framework density 15.020160000000001
#
# number of rings (size 3 to 8) (size 9 to 14) (size 15 to 20)
#    0.000    2.750    0.000    3.750    0.000    8.250 
#    0.000    1.250    0.000    0.375    0.000    2.625 
#    0.000    0.000    0.000    0.000    0.000    0.625 
#
# Total GULP energy -792929.976087 kJ/mol
# GULP energy per Si atom -12389.530876 kJ/mol
# Density = 1.498597 g / cm^3
# Si number density = 15.020160 Si / 1000 Ang^3
#
#
#
# Elastic Constant Matrix: (Units=GPa)
#
#
# Indices 1 2 3 4 5 6 
#
# 1 52.8395 35.8728 24.7335 0.0000 0.0000 0.0000
# 2 35.8728 94.9218 32.3068 0.0000 0.0000 0.0000
# 3 24.7335 32.3068 38.3461 0.0000 0.0000 0.0000
# 4 0.0000 0.0000 0.0000 21.5044 0.0000 0.0000
# 5 0.0000 0.0000 0.0000 0.0000 38.5196 0.0000
# 6 0.0000 0.0000 0.0000 0.0000 0.0000 24.7624
#
#
#
# Elastic Compliance Matrix: (Units=1/GPa)
#
#
# Indices 1 2 3 4 5 6 
#
# 1 0.029809 -0.006620 -0.013650 0.000000 0.000000 0.000000
# 2 -0.006620 0.016240 -0.009413 0.000000 0.000000 0.000000
# 3 -0.013650 -0.009413 0.042813 0.000000 0.000000 0.000000
# 4 0.000000 0.000000 0.000000 0.046502 0.000000 0.000000
# 5 0.000000 0.000000 0.000000 0.000000 0.025961 0.000000
# 6 0.000000 0.000000 0.000000 0.000000 0.000000 0.040384
#
#
# Mechanical properties :
#
#
# Convention : Reuss Voigt Hill
#
# Bulk Modulus (GPa) = 33.90134 41.32595 37.61364
# Shear Modulus (GPa) = 18.45663 23.17023 20.81343
#
# Velocity S-wave (km/s) = 3.50921 3.93187 3.72654
# Velocity P-wave (km/s) = 6.24812 6.94162 6.60398
#
# Compressibility (1/GPa) = 0.02949736
#
# Stress axis : x y z
#
# Youngs Moduli (GPa) = 33.54745 61.57507 23.35748
#
# Poissons Ratio (x) = 0.40760 0.31882
# Poissons Ratio (y) = 0.22207 0.21986
# Poissons Ratio (z) = 0.45791 0.57960
#
# Static dielectric constant tensor:
#      x y z
#    x 2.926910 0.000000 0.000000 
#    y 0.000000 3.204540 0.000000 
#    z 0.000000 0.000000 2.688790 
# 
# 
# High freq. dielectric constant tensor:
#      x y z
#    x 1.550300 0.000000 0.000000 
#    y 0.000000 1.589810 0.000000 
#    z 0.000000 0.000000 1.532620 
# 
# From -- ./inp_files/31521.got.cif
#   From: 2010.03.12/outbox.cif.g09.slc.cpg/sg47_16_cif.got.tgz:31521.got - 2010.04.14 03:12:58.
