data_PCOD8193559
_publ_section_title
;
Structure prediction by ZEFSAII (Michael W. Deem and Ramdas Pophale) SiO2 
 PCOD8193559
Probable space group: P M M M
;
_chemical_formula_sum "Si O2"
_cell_formula_units_Z 52
_cell_length_a 27.276895
_cell_length_b 12.068692
_cell_length_c 9.413139
_cell_angle_alpha 90.000000
_cell_angle_beta 90.000000
_cell_angle_gamma 90.000000
_cell_volume 3098.771890
_symmetry_space_group_name_H-M "P M M M"
_symmetry_group_IT_number 47
_symmetry_cell_setting 'orthorhombic'
loop_
_space_group_symop_operation_xyz
x,y,z
-x,-y,z
x,-y,-z
-x,y,-z
-x,-y,-z
x,y,-z
-x,y,z
x,-y,z
loop_
_atom_site_type_symbol
_atom_site_label
_atom_site_fract_x
_atom_site_fract_y
_atom_site_fract_z
Si Si1 0.340765 0.000000 0.844159
Si Si2 0.000000 0.132167 0.838186
Si Si3 0.814665 0.127849 0.162242
Si Si4 0.445728 0.000000 0.757642
Si Si5 0.290648 0.217050 0.834236
Si Si6 0.645157 0.371426 0.333057
Si Si7 0.907406 0.131830 0.338927
Si Si8 0.447181 0.758669 0.338805
O O1 0.399785 0.000000 0.864599
O O2 0.320707 0.888511 0.769552
O O3 0.316163 0.000000 0.000000
O O4 0.047374 0.177791 0.753953
O O5 0.000000 0.000000 0.840609
O O6 0.000000 0.177675 0.000000
O O7 0.766938 0.201249 0.192131
O O8 0.857175 0.172173 0.265769
O O9 0.801567 0.000000 0.193639
O O10 0.832720 0.141037 0.000000
O O11 0.439430 0.890974 0.661987
O O12 0.500000 0.000000 0.832798
O O13 0.307152 0.325124 0.747375
O O14 0.302668 0.234554 0.000000
O O15 0.651407 0.348612 0.500000
O O16 0.639569 0.500000 0.298627
O O17 0.597375 0.308551 0.267063
O O18 0.910363 0.178035 0.500000
O O19 0.909280 0.000000 0.340156
O O20 0.449319 0.718578 0.500000
O O21 0.500000 0.729556 0.265719
#
# Coordination Sequence:
#
# PCOD8193559 Si02
#       8
#     4   4   8   4   8   8   8   8
#     4  10  18  30  47  68  92 118 150 185 228 283
#     4   9  15  23  35  51  75 115 164 201 228 263
#     4   9  16  27  43  62  85 114 149 187 229 277
#     4  10  17  27  46  69  93 118 147 184 230 284
#     4  10  19  33  51  69  91 120 152 189 234 283
#     4  10  21  35  50  69  91 117 153 193 230 273
#     4   9  16  24  35  54  83 116 152 193 234 271
#     4   9  17  29  46  68  92 117 146 183 228 277
#
# _framework density 16.780843000000001
#
# number of rings (size 3 to 8) (size 9 to 14) (size 15 to 20)
#    0.000    2.538    2.308    0.923    0.000    5.077 
#    0.000    1.923    0.000    0.462    0.000    1.077 
#    0.000    0.000    0.000    0.692    0.000   13.000 
#
# Total GULP energy -644456.159431 kJ/mol
# GULP energy per Si atom -12393.387681 kJ/mol
# Density = 1.674265 g / cm^3
# Si number density = 16.780843 Si / 1000 Ang^3
#
#
#
# Elastic Constant Matrix: (Units=GPa)
#
#
# Indices 1 2 3 4 5 6 
#
# 1 131.7126 43.9328 58.4775 0.0000 0.0000 0.0000
# 2 43.9328 70.7595 29.7464 0.0000 0.0000 0.0000
# 3 58.4775 29.7464 79.9286 0.0000 0.0000 0.0000
# 4 0.0000 0.0000 0.0000 16.1306 0.0000 0.0000
# 5 0.0000 0.0000 0.0000 0.0000 26.9680 0.0000
# 6 0.0000 0.0000 0.0000 0.0000 0.0000 8.4454
#
#
#
# Elastic Compliance Matrix: (Units=1/GPa)
#
#
# Indices 1 2 3 4 5 6 
#
# 1 0.012392 -0.004603 -0.007354 0.000000 0.000000 0.000000
# 2 -0.004603 0.018463 -0.003504 0.000000 0.000000 0.000000
# 3 -0.007354 -0.003504 0.019195 0.000000 0.000000 0.000000
# 4 0.000000 0.000000 0.000000 0.061994 0.000000 0.000000
# 5 0.000000 0.000000 0.000000 0.000000 0.037081 0.000000
# 6 0.000000 0.000000 0.000000 0.000000 0.000000 0.118407
#
#
# Mechanical properties :
#
#
# Convention : Reuss Voigt Hill
#
# Bulk Modulus (GPa) = 52.27281 60.74603 56.50942
# Shear Modulus (GPa) = 16.40260 20.32507 18.36383
#
# Velocity S-wave (km/s) = 3.12983 3.48401 3.31166
# Velocity P-wave (km/s) = 6.65425 7.24311 6.95492
#
# Compressibility (1/GPa) = 0.01913040
#
# Stress axis : x y z
#
# Youngs Moduli (GPa) = 80.69491 54.16221 52.09648
#
# Poissons Ratio (x) = 0.24930 0.38309
# Poissons Ratio (y) = 0.37142 0.18253
# Poissons Ratio (z) = 0.59339 0.18977
#
# Static dielectric constant tensor:
#      x y z
#    x 3.304700 0.000000 0.000000 
#    y 0.000000 2.740420 0.000000 
#    z 0.000000 0.000000 2.996740 
# 
# 
# High freq. dielectric constant tensor:
#      x y z
#    x 1.658210 0.000000 0.000000 
#    y 0.000000 1.591590 0.000000 
#    z 0.000000 0.000000 1.629420 
# 
# From -- ./inp_files/13342.got.cif
#   From: 2010.03.12/outbox.cif.g09.slc.cpg/sg47_7_cif.got.tgz:13342.got - 2010.04.14 03:12:58.
