data_PCOD8193267
_publ_section_title
;
Structure prediction by ZEFSAII (Michael W. Deem and Ramdas Pophale) SiO2 
 PCOD8193267
Probable space group: I M A 2
;
_chemical_formula_sum "Si O2"
_cell_formula_units_Z 40
_cell_length_a 20.296099
_cell_length_b 7.346060
_cell_length_c 11.788988
_cell_angle_alpha 90.000000
_cell_angle_beta 90.000000
_cell_angle_gamma 90.000000
_cell_volume 1757.695211
_symmetry_space_group_name_H-M "I M A 2"
_symmetry_group_IT_number 46
_symmetry_cell_setting 'orthorhombic'
loop_
_space_group_symop_operation_xyz
x,y,z
-x,-y,z
1/2-x,y,z
1/2+x,-y,z
1/2+x,1/2+y,1/2+z
1/2-x,1/2-y,1/2+z
-x,1/2+y,1/2+z
x,1/2-y,1/2+z
loop_
_atom_site_type_symbol
_atom_site_label
_atom_site_fract_x
_atom_site_fract_y
_atom_site_fract_z
Si Si1 0.572569 0.003546 0.541860
Si Si2 0.379090 0.002969 0.774767
Si Si3 0.177796 0.157347 0.383923
Si Si4 0.823651 0.123059 0.190084
Si Si5 0.428361 0.923121 0.017934
O O1 0.590849 0.212529 0.531325
O O2 0.500000 0.000000 0.488298
O O3 0.572064 0.935695 0.672943
O O4 0.620122 0.861996 0.476847
O O5 0.328994 0.163826 0.806139
O O6 0.341063 0.829906 0.724079
O O7 0.421935 0.969407 0.886662
O O8 0.250000 0.165704 0.443030
O O9 0.173607 0.978798 0.308660
O O10 0.750000 0.120779 0.137210
O O11 0.871436 0.007856 0.104049
O O12 0.500000 0.000000 0.058943
#
# Coordination Sequence:
#
# PCOD8193267 Si02
#       5
#     8   8   8   8   8
#     4  11  25  44  70 103 140 181 235 292 340 421
#     4  11  24  45  69 103 135 183 229 293 344 420
#     4  11  25  44  69 100 137 182 231 283 346 414
#     4  10  24  45  67 100 137 180 230 286 346 410
#     4  11  24  44  70 101 138 184 232 284 352 413
#
# _framework density 22.757072999999998
#
# number of rings (size 3 to 8) (size 9 to 14) (size 15 to 20)
#    0.000    1.200    2.000    2.400    5.600    6.400 
#    0.000    0.000    0.000    0.000    0.000    0.000 
#    0.000    0.000    0.000    0.000    0.000    0.000 
#
# Total GULP energy -247782.122619 kJ/mol
# GULP energy per Si atom -12389.106131 kJ/mol
# Density = 2.270528 g / cm^3
# Si number density = 22.757073 Si / 1000 Ang^3
#
#
#
# Elastic Constant Matrix: (Units=GPa)
#
#
# Indices 1 2 3 4 5 6 
#
# 1 200.3266 30.4546 77.4713 0.0000 0.0000 0.0000
# 2 30.4546 88.9337 34.3016 0.0000 0.0000 0.0000
# 3 77.4713 34.3016 112.3009 0.0000 0.0000 0.0000
# 4 0.0000 0.0000 0.0000 23.8487 0.0000 0.0000
# 5 0.0000 0.0000 0.0000 0.0000 -7.6105 0.0000
# 6 0.0000 0.0000 0.0000 0.0000 0.0000 23.7805
#
#
#
# Elastic Compliance Matrix: (Units=1/GPa)
#
#
# Indices 1 2 3 4 5 6 
#
# 1 0.006836 -0.000592 -0.004535 0.000000 0.000000 0.000000
# 2 -0.000592 0.012797 -0.003501 0.000000 0.000000 0.000000
# 3 -0.004535 -0.003501 0.013102 0.000000 0.000000 0.000000
# 4 0.000000 0.000000 0.000000 0.041931 0.000000 0.000000
# 5 0.000000 0.000000 0.000000 0.000000 -0.131397 0.000000
# 6 0.000000 0.000000 0.000000 0.000000 0.000000 0.042051
#
#
# Mechanical properties :
#
#
# Convention : Reuss Voigt Hill
#
# Bulk Modulus (GPa) = 64.59663 76.22401 70.41032
# Shear Modulus (GPa) = 646.49148 25.29267 335.89208
#
# Velocity S-wave (km/s) = 16.87307 3.33741 12.16221
# Velocity P-wave (km/s) = 20.20019 6.95834 15.10738
#
# Compressibility (1/GPa) = 0.01548068
#
# Stress axis : x y z
#
# Youngs Moduli (GPa) = 146.29483 78.14252 76.32297
#
# Poissons Ratio (x) = 0.04624 0.34611
# Poissons Ratio (y) = 0.08656 0.26718
# Poissons Ratio (z) = 0.66341 0.27355
#
# Static dielectric constant tensor:
#      x y z
#    x 4.372770 0.000000 0.000000 
#    y 0.000000 4.489750 0.000000 
#    z 0.000000 0.000000 4.122410 
# 
# 
# High freq. dielectric constant tensor:
#      x y z
#    x 1.897850 0.000000 0.000000 
#    y 0.000000 1.909340 0.000000 
#    z 0.000000 0.000000 1.895500 
# 
# From -- ./inp_files/11607.got.cif
#   From: 2010.03.12/outbox.cif.g09.slc.cpg/sg46_6_cif.got.tgz:11607.got - 2010.04.14 02:56:35.
