data_PCOD8193274
_publ_section_title
;
Structure prediction by ZEFSAII (Michael W. Deem and Ramdas Pophale) SiO2 
 PCOD8193274
Probable space group: I M A 2
;
_chemical_formula_sum "Si O2"
_cell_formula_units_Z 24
_cell_length_a 11.468369
_cell_length_b 10.396949
_cell_length_c 8.983685
_cell_angle_alpha 90.000000
_cell_angle_beta 90.000000
_cell_angle_gamma 90.000000
_cell_volume 1071.179092
_symmetry_space_group_name_H-M "I M A 2"
_symmetry_group_IT_number 46
_symmetry_cell_setting 'orthorhombic'
loop_
_space_group_symop_operation_xyz
x,y,z
-x,-y,z
1/2-x,y,z
1/2+x,-y,z
1/2+x,1/2+y,1/2+z
1/2-x,1/2-y,1/2+z
-x,1/2+y,1/2+z
x,1/2-y,1/2+z
loop_
_atom_site_type_symbol
_atom_site_label
_atom_site_fract_x
_atom_site_fract_y
_atom_site_fract_z
Si Si1 0.250000 0.931123 0.888231
Si Si2 0.006999 0.860487 0.476318
Si Si3 0.250000 0.720133 0.099843
Si Si4 0.878666 0.839161 0.780602
O O1 0.250000 0.807156 0.776620
O O2 0.134849 0.019797 0.859572
O O3 0.250000 0.873091 0.056184
O O4 0.917494 0.859966 0.612622
O O5 0.973242 0.748634 0.361987
O O6 0.137897 0.843858 0.528111
O O7 0.000000 0.000000 0.396808
O O8 0.750000 0.772295 0.778831
#
# Coordination Sequence:
#
# PCOD8193274 Si02
#       4
#     4   8   4   8
#     4  10  24  47  69  99 145 176 238 279 355 403
#     4  12  24  45  71 103 140 180 233 291 348 415
#     4  12  24  41  71 103 137 186 226 293 341 405
#     4  10  24  47  71  96 138 189 226 285 348 417
#
# _framework density 22.405217
#
# number of rings (size 3 to 8) (size 9 to 14) (size 15 to 20)
#    1.000    0.000    3.333    3.000    2.333    0.000 
#   12.000    0.000    0.000    0.000    0.000    0.000 
#    0.000    0.000    0.000    0.000    0.000    0.000 
#
# Total GULP energy -148740.408111 kJ/mol
# GULP energy per Si atom -12395.034009 kJ/mol
# Density = 2.235422 g / cm^3
# Si number density = 22.405217 Si / 1000 Ang^3
#
#
#
# Elastic Constant Matrix: (Units=GPa)
#
#
# Indices 1 2 3 4 5 6 
#
# 1 99.6411 3.6456 9.6292 0.0000 0.0000 0.0000
# 2 3.6456 135.9455 57.5055 0.0000 0.0000 0.0000
# 3 9.6292 57.5055 59.4236 0.0000 0.0000 0.0000
# 4 0.0000 0.0000 0.0000 41.8292 0.0000 0.0000
# 5 0.0000 0.0000 0.0000 0.0000 33.5269 0.0000
# 6 0.0000 0.0000 0.0000 0.0000 0.0000 11.5906
#
#
#
# Elastic Compliance Matrix: (Units=1/GPa)
#
#
# Indices 1 2 3 4 5 6 
#
# 1 0.010238 0.000723 -0.002359 0.000000 0.000000 0.000000
# 2 0.000723 0.012505 -0.012219 0.000000 0.000000 0.000000
# 3 -0.002359 -0.012219 0.029035 0.000000 0.000000 0.000000
# 4 0.000000 0.000000 0.000000 0.023907 0.000000 0.000000
# 5 0.000000 0.000000 0.000000 0.000000 0.029827 0.000000
# 6 0.000000 0.000000 0.000000 0.000000 0.000000 0.086277
#
#
# Mechanical properties :
#
#
# Convention : Reuss Voigt Hill
#
# Bulk Modulus (GPa) = 41.54729 48.50788 45.02758
# Shear Modulus (GPa) = 21.97620 32.33799 27.15710
#
# Velocity S-wave (km/s) = 3.13525 3.80323 3.48528
# Velocity P-wave (km/s) = 5.62941 6.40182 6.02800
#
# Compressibility (1/GPa) = 0.02406896
#
# Stress axis : x y z
#
# Youngs Moduli (GPa) = 97.67995 79.96813 34.44156
#
# Poissons Ratio (x) = -0.05784 0.08124
# Poissons Ratio (y) = -0.07065 0.42083
# Poissons Ratio (z) = 0.23041 0.97709
#
# Static dielectric constant tensor:
#      x y z
#    x 4.101620 0.000000 0.000000 
#    y 0.000000 4.184270 0.000000 
#    z 0.000000 0.000000 3.845290 
# 
# 
# High freq. dielectric constant tensor:
#      x y z
#    x 1.904410 0.000000 0.000000 
#    y 0.000000 1.880480 0.000000 
#    z 0.000000 0.000000 1.856430 
# 
# From -- ./inp_files/4157.got.cif
#   From: 2010.03.12/outbox.cif.g09.slc.cpg/sg46_3_cif.got.tgz:4157.got - 2010.04.14 02:56:35.
