data_PCOD8193137
_publ_section_title
;
Structure prediction by ZEFSAII (Michael W. Deem and Ramdas Pophale) SiO2 
 PCOD8193137
Probable space group: I M A 2
;
_chemical_formula_sum "Si O2"
_cell_formula_units_Z 56
_cell_length_a 14.286987
_cell_length_b 5.609258
_cell_length_c 29.026528
_cell_angle_alpha 90.000000
_cell_angle_beta 90.000000
_cell_angle_gamma 90.000000
_cell_volume 2326.168426
_symmetry_space_group_name_H-M "I M A 2"
_symmetry_group_IT_number 46
_symmetry_cell_setting 'orthorhombic'
loop_
_space_group_symop_operation_xyz
x,y,z
-x,-y,z
1/2-x,y,z
1/2+x,-y,z
1/2+x,1/2+y,1/2+z
1/2-x,1/2-y,1/2+z
-x,1/2+y,1/2+z
x,1/2-y,1/2+z
loop_
_atom_site_type_symbol
_atom_site_label
_atom_site_fract_x
_atom_site_fract_y
_atom_site_fract_z
Si Si1 0.351100 0.179429 0.851350
Si Si2 0.142547 0.404615 0.455266
Si Si3 0.860094 0.401576 0.994603
Si Si4 0.500000 0.000000 0.151144
Si Si5 0.148495 0.159770 0.681119
Si Si6 0.355044 0.681002 0.098755
Si Si7 0.899152 0.110989 0.768345
Si Si8 0.000000 0.500000 0.808435
O O1 0.250000 0.318210 0.852753
O O2 0.368017 0.060194 0.900683
O O3 0.443443 0.331144 0.842520
O O4 0.338390 0.982554 0.811187
O O5 0.250000 0.397262 0.471658
O O6 0.096141 0.649499 0.475598
O O7 0.097552 0.148641 0.472474
O O8 0.750000 0.397114 0.984061
O O9 0.884044 0.409920 0.048617
O O10 0.559463 0.833563 0.186176
O O11 0.427107 0.873619 0.117603
O O12 0.250000 0.289732 0.686535
O O13 0.140966 0.050578 0.630635
O O14 0.145924 0.948428 0.719074
O O15 0.250000 0.792027 0.098549
O O16 0.918136 0.391487 0.775554
O O17 0.000000 0.000000 0.772182
#
# Coordination Sequence:
#
# PCOD8193137 Si02
#       8
#     8   8   8   4   8   8   8   4
#     4  10  22  39  65 100 137 181 228 282 348 417
#     4   9  19  36  63  97 135 182 236 291 353 420
#     4   9  19  37  63  96 134 181 237 293 351 422
#     4  12  24  43  68  96 136 176 224 284 347 414
#     4  11  25  44  69 101 135 177 228 279 343 418
#     4  10  23  41  66  97 133 179 229 286 349 418
#     4  10  22  42  65  94 132 172 219 277 337 401
#     4  10  24  43  68  98 134 178 226 286 345 404
#
# _framework density 24.073920999999999
#
# number of rings (size 3 to 8) (size 9 to 14) (size 15 to 20)
#    0.000    2.000    0.000    2.143    4.000    6.286 
#    0.000    2.857    0.000    0.857    0.000    0.000 
#    0.000    0.000    0.000    0.000    0.000    0.000 
#
# Total GULP energy -346897.614462 kJ/mol
# GULP energy per Si atom -12389.200516 kJ/mol
# Density = 2.401913 g / cm^3
# Si number density = 24.073921 Si / 1000 Ang^3
#
#
#
# Elastic Constant Matrix: (Units=GPa)
#
#
# Indices 1 2 3 4 5 6 
#
# 1 104.6994 41.0338 29.5855 0.0000 0.0000 0.0000
# 2 41.0338 135.2027 59.9850 0.0000 0.0000 0.0000
# 3 29.5855 59.9850 172.1442 0.0000 0.0000 0.0000
# 4 0.0000 0.0000 0.0000 31.7704 0.0000 0.0000
# 5 0.0000 0.0000 0.0000 0.0000********** 0.0000
# 6 0.0000 0.0000 0.0000 0.0000 0.0000 33.0698
#
#
#
# Elastic Compliance Matrix: (Units=1/GPa)
#
#
# Indices 1 2 3 4 5 6 
#
# 1 0.010946 -0.002942 -0.000856 0.000000 0.000000 0.000000
# 2 -0.002942 0.009540 -0.002819 0.000000 0.000000 0.000000
# 3 -0.000856 -0.002819 0.006938 0.000000 0.000000 0.000000
# 4 0.000000 0.000000 0.000000 0.031476 0.000000 0.000000
# 5 0.000000 0.000000 0.000000 0.000000 -0.000081 0.000000
# 6 0.000000 0.000000 0.000000 0.000000 0.000000 0.030239
#
#
# Mechanical properties :
#
#
# Convention : Reuss Voigt Hill
#
# Bulk Modulus (GPa) = 70.46931 74.80609 72.63770
# Shear Modulus (GPa) = 46.71940 -2428.44298 -1190.86179
#
# Velocity S-wave (km/s) = 4.41008 -31.79519 -22.26528
# Velocity P-wave (km/s) = 7.43420 36.28734 25.11478
#
# Compressibility (1/GPa) = 0.01419057
#
# Stress axis : x y z
#
# Youngs Moduli (GPa) = 91.35580 104.82399 144.12691
#
# Poissons Ratio (x) = 0.30843 0.12337
# Poissons Ratio (y) = 0.26880 0.40623
# Poissons Ratio (z) = 0.07820 0.29545
#
# Static dielectric constant tensor:
#      x y z
#    x 83.853800 0.000000 0.000000 
#    y 0.000000 1.037210 0.000000 
#    z 0.000000 0.000000 4.341790 
# 
# 
# High freq. dielectric constant tensor:
#      x y z
#    x 1.957440 0.000000 0.000000 
#    y 0.000000 1.937520 0.000000 
#    z 0.000000 0.000000 1.961940 
# 
# From -- ./inp_files/25417.got.cif
#   From: 2010.03.12/outbox.cif.g09.slc.cpg/sg46_13_cif.got.tgz:25417.got - 2010.04.14 02:56:35.
