data_PCOD8193744
_publ_section_title
;
Structure prediction by ZEFSAII (Michael W. Deem and Ramdas Pophale) SiO2 
 PCOD8193744
Probable space group: P M M M
;
_chemical_formula_sum "Si O2"
_cell_formula_units_Z 56
_cell_length_a 15.208760
_cell_length_b 19.022764
_cell_length_c 13.346907
_cell_angle_alpha 90.000000
_cell_angle_beta 90.000000
_cell_angle_gamma 90.000000
_cell_volume 3861.429063
_symmetry_space_group_name_H-M "P M M M"
_symmetry_group_IT_number 47
_symmetry_cell_setting 'orthorhombic'
loop_
_space_group_symop_operation_xyz
x,y,z
-x,-y,z
x,-y,-z
-x,y,-z
-x,-y,-z
x,y,-z
-x,y,z
x,-y,z
loop_
_atom_site_type_symbol
_atom_site_label
_atom_site_fract_x
_atom_site_fract_y
_atom_site_fract_z
Si Si1 0.351205 0.314841 0.381579
Si Si2 0.397453 0.834284 0.299547
Si Si3 0.902036 0.828689 0.380497
Si Si4 0.000000 0.578278 0.380314
Si Si5 0.151710 0.322523 0.381979
Si Si6 0.604031 0.078740 0.889355
Si Si7 0.500000 0.421631 0.618067
Si Si8 0.251759 0.076680 0.384784
O O1 0.361640 0.296605 0.500000
O O2 0.377682 0.247753 0.314978
O O3 0.252664 0.338660 0.354337
O O4 0.413376 0.379071 0.348461
O O5 0.500000 0.849701 0.318054
O O6 0.365522 0.861826 0.189997
O O7 0.341526 0.879172 0.378385
O O8 0.895517 0.826574 0.500000
O O9 0.877966 0.752139 0.336582
O O10 0.831156 0.883030 0.334695
O O11 0.000000 0.850513 0.345861
O O12 0.912410 0.617122 0.339190
O O13 0.000000 0.500000 0.335599
O O14 0.000000 0.576402 0.500000
O O15 0.139630 0.319523 0.500000
O O16 0.500000 0.078090 0.893386
O O17 0.636710 0.000000 0.858687
O O18 0.641087 0.098343 0.000000
O O19 0.500000 0.500000 0.666742
O O20 0.500000 0.429667 0.500000
O O21 0.229546 0.066718 0.500000
O O22 0.262047 0.000000 0.333658
#
# Coordination Sequence:
#
# PCOD8193744 Si02
#       8
#     8   8   8   4   8   8   4   8
#     4  10  18  27  40  57  79 109 141 170 200 235
#     4  11  19  27  42  60  79 106 139 166 202 246
#     4   9  15  25  40  51  65  98 137 166 196 233
#     4   9  16  24  36  56  75  93 130 177 209 239
#     4   9  15  24  37  51  70  98 128 161 204 240
#     4   8  15  28  43  58  78 103 131 167 209 248
#     4   9  18  30  40  52  74 107 146 176 190 215
#     4  10  20  29  36  53  80 106 136 173 202 228
#
# _framework density 14.502402999999999
#
# number of rings (size 3 to 8) (size 9 to 14) (size 15 to 20)
#    0.000    2.571    2.857    1.286    0.000    2.571 
#    0.000    5.000    0.000    0.000    0.000    0.000 
#    0.000    1.714    0.000    3.000    1.143    1.000 
#
# Total GULP energy -693944.692547 kJ/mol
# GULP energy per Si atom -12391.869510 kJ/mol
# Density = 1.446940 g / cm^3
# Si number density = 14.502403 Si / 1000 Ang^3
#
#
#
# Elastic Constant Matrix: (Units=GPa)
#
#
# Indices 1 2 3 4 5 6 
#
# 1 118.2323 61.6126 9.9767 0.0000 0.0000 0.0000
# 2 61.6126 134.8305 21.6382 0.0000 0.0000 0.0000
# 3 9.9767 21.6382 30.1616 0.0000 0.0000 0.0000
# 4 0.0000 0.0000 0.0000 10.8753 0.0000 0.0000
# 5 0.0000 0.0000 0.0000 0.0000 3.3268 0.0000
# 6 0.0000 0.0000 0.0000 0.0000 0.0000 20.8499
#
#
#
# Elastic Compliance Matrix: (Units=1/GPa)
#
#
# Indices 1 2 3 4 5 6 
#
# 1 0.011102 -0.005067 -0.000037 0.000000 0.000000 0.000000
# 2 -0.005067 0.010694 -0.005996 0.000000 0.000000 0.000000
# 3 -0.000037 -0.005996 0.037469 0.000000 0.000000 0.000000
# 4 0.000000 0.000000 0.000000 0.091951 0.000000 0.000000
# 5 0.000000 0.000000 0.000000 0.000000 0.300588 0.000000
# 6 0.000000 0.000000 0.000000 0.000000 0.000000 0.047962
#
#
# Mechanical properties :
#
#
# Convention : Reuss Voigt Hill
#
# Bulk Modulus (GPa) = 26.98019 52.18660 39.58339
# Shear Modulus (GPa) = 9.35766 19.67686 14.51726
#
# Velocity S-wave (km/s) = 2.54293 3.68747 3.16733
# Velocity P-wave (km/s) = 5.22172 7.36158 6.38197
#
# Compressibility (1/GPa) = 0.03706424
#
# Stress axis : x y z
#
# Youngs Moduli (GPa) = 90.07728 93.50605 26.68888
#
# Poissons Ratio (x) = 0.47380 0.00099
# Poissons Ratio (y) = 0.45643 0.16003
# Poissons Ratio (z) = 0.00333 0.56069
#
# Static dielectric constant tensor:
#      x y z
#    x 2.936310 0.000000 0.000000 
#    y 0.000000 3.080730 0.000000 
#    z 0.000000 0.000000 2.431050 
# 
# 
# High freq. dielectric constant tensor:
#      x y z
#    x 1.560140 0.000000 0.000000 
#    y 0.000000 1.560160 0.000000 
#    z 0.000000 0.000000 1.474920 
# 
# From -- ./inp_files/24032.got.cif
#   From: 2010.03.12/outbox.cif.g09.slc.cpg/sg47_13_cif.got.tgz:24032.got - 2010.04.14 03:12:58.
