data_PCOD8193846
_publ_section_title
;
Structure prediction by ZEFSAII (Michael W. Deem and Ramdas Pophale) SiO2 
 PCOD8193846
Probable space group: P M M M
;
_chemical_formula_sum "Si O2"
_cell_formula_units_Z 60
_cell_length_a 24.694042
_cell_length_b 10.310073
_cell_length_c 14.762825
_cell_angle_alpha 90.000000
_cell_angle_beta 90.000000
_cell_angle_gamma 90.000000
_cell_volume 3758.576503
_symmetry_space_group_name_H-M "P M M M"
_symmetry_group_IT_number 47
_symmetry_cell_setting 'orthorhombic'
loop_
_space_group_symop_operation_xyz
x,y,z
-x,-y,z
x,-y,-z
-x,y,-z
-x,-y,-z
x,y,-z
-x,y,z
x,-y,z
loop_
_atom_site_type_symbol
_atom_site_label
_atom_site_fract_x
_atom_site_fract_y
_atom_site_fract_z
Si Si1 0.762166 0.855045 0.107754
Si Si2 0.936276 0.251572 0.787277
Si Si3 0.357317 0.152787 0.900609
Si Si4 0.436638 0.150353 0.745964
Si Si5 0.935889 0.855039 0.400793
Si Si6 0.564210 0.356180 0.600754
Si Si7 0.063445 0.000000 0.899528
Si Si8 0.153433 0.643254 0.896288
O O1 0.702002 0.812796 0.140284
O O2 0.804765 0.748994 0.144068
O O3 0.777572 0.000000 0.143408
O O4 0.761331 0.855930 0.000000
O O5 0.917551 0.236509 0.682197
O O6 0.918900 0.123953 0.842602
O O7 0.900809 0.362571 0.834518
O O8 0.000000 0.283812 0.795371
O O9 0.404627 0.200114 0.834172
O O10 0.360677 0.000000 0.912066
O O11 0.366126 0.217244 0.000000
O O12 0.500000 0.170683 0.765153
O O13 0.414732 0.240984 0.664958
O O14 0.424020 0.000000 0.722161
O O15 0.918079 0.799038 0.500000
O O16 0.000000 0.866252 0.396078
O O17 0.911831 0.000000 0.388465
O O18 0.587433 0.330934 0.500000
O O19 0.500000 0.351389 0.597653
O O20 0.582754 0.500000 0.634572
O O21 0.000000 0.000000 0.912809
O O22 0.091199 0.000000 0.000000
O O23 0.179838 0.500000 0.891050
O O24 0.137564 0.676667 0.000000
#
# Coordination Sequence:
#
# PCOD8193846 Si02
#       8
#     8   8   8   8   8   8   4   8
#     4   8  15  29  48  64  78 106 149 189 217 243
#     4  10  18  28  42  62  89 118 144 170 208 258
#     4   8  14  26  43  63  88 116 146 178 211 249
#     4   9  16  24  38  64  93 117 142 174 213 257
#     4   8  13  23  40  62  87 111 138 176 216 248
#     4   8  14  25  39  54  78 115 152 182 214 254
#     4   9  16  24  35  57  87 115 142 170 194 230
#     4  10  21  33  44  62  89 117 144 177 214 255
#
# _framework density 15.963490999999999
#
# number of rings (size 3 to 8) (size 9 to 14) (size 15 to 20)
#    0.000    3.267    0.667    2.000    0.933    1.600 
#    0.000    4.000    0.000    1.600    0.000    4.667 
#    0.000    1.067    0.000    0.000    0.000    0.000 
#
# Total GULP energy -743350.260416 kJ/mol
# GULP energy per Si atom -12389.171007 kJ/mol
# Density = 1.592716 g / cm^3
# Si number density = 15.963491 Si / 1000 Ang^3
#
#
#
# Elastic Constant Matrix: (Units=GPa)
#
#
# Indices 1 2 3 4 5 6 
#
# 1 58.8896 35.0042 37.3274 0.0000 0.0000 0.0000
# 2 35.0042 74.0098 41.7241 0.0000 0.0000 0.0000
# 3 37.3274 41.7241 101.8173 0.0000 0.0000 0.0000
# 4 0.0000 0.0000 0.0000 12.5583 0.0000 0.0000
# 5 0.0000 0.0000 0.0000 0.0000 3.6548 0.0000
# 6 0.0000 0.0000 0.0000 0.0000 0.0000 10.6714
#
#
#
# Elastic Compliance Matrix: (Units=1/GPa)
#
#
# Indices 1 2 3 4 5 6 
#
# 1 0.026055 -0.009022 -0.005855 0.000000 0.000000 0.000000
# 2 -0.009022 0.020695 -0.005173 0.000000 0.000000 0.000000
# 3 -0.005855 -0.005173 0.014088 0.000000 0.000000 0.000000
# 4 0.000000 0.000000 0.000000 0.079629 0.000000 0.000000
# 5 0.000000 0.000000 0.000000 0.000000 0.273610 0.000000
# 6 0.000000 0.000000 0.000000 0.000000 0.000000 0.093709
#
#
# Mechanical properties :
#
#
# Convention : Reuss Voigt Hill
#
# Bulk Modulus (GPa) = 48.22143 51.42534 49.82338
# Shear Modulus (GPa) = 9.01228 13.42097 11.21662
#
# Velocity S-wave (km/s) = 2.37862 2.90268 2.65362
# Velocity P-wave (km/s) = 6.14952 6.59684 6.37711
#
# Compressibility (1/GPa) = 0.02073767
#
# Stress axis : x y z
#
# Youngs Moduli (GPa) = 38.38042 48.31976 70.98322
#
# Poissons Ratio (x) = 0.43596 0.41559
# Poissons Ratio (y) = 0.34629 0.36721
# Poissons Ratio (z) = 0.22471 0.24996
#
# Static dielectric constant tensor:
#      x y z
#    x 2.862390 0.000000 0.000000 
#    y 0.000000 2.983130 0.000000 
#    z 0.000000 0.000000 3.430230 
# 
# 
# High freq. dielectric constant tensor:
#      x y z
#    x 1.577190 0.000000 0.000000 
#    y 0.000000 1.594670 0.000000 
#    z 0.000000 0.000000 1.600080 
# 
# From -- ./inp_files/25644.got.cif
#   From: 2010.03.12/outbox.cif.g09.slc.cpg/sg47_13_cif.got.tgz:25644.got - 2010.04.14 03:12:58.
