data_PCOD8193464
_publ_section_title
;
Structure prediction by ZEFSAII (Michael W. Deem and Ramdas Pophale) SiO2 
 PCOD8193464
Probable space group: P M M M
;
_chemical_formula_sum "Si O2"
_cell_formula_units_Z 40
_cell_length_a 15.776105
_cell_length_b 19.592987
_cell_length_c 9.177290
_cell_angle_alpha 90.000000
_cell_angle_beta 90.000000
_cell_angle_gamma 90.000000
_cell_volume 2836.709701
_symmetry_space_group_name_H-M "P M M M"
_symmetry_group_IT_number 47
_symmetry_cell_setting 'orthorhombic'
loop_
_space_group_symop_operation_xyz
x,y,z
-x,-y,z
x,-y,-z
-x,y,-z
-x,-y,-z
x,y,-z
-x,y,z
x,-y,z
loop_
_atom_site_type_symbol
_atom_site_label
_atom_site_fract_x
_atom_site_fract_y
_atom_site_fract_z
Si Si1 0.500000 0.923700 0.672932
Si Si2 0.399417 0.424978 0.336483
Si Si3 0.400884 0.293590 0.170167
Si Si4 0.818216 0.923418 0.674280
Si Si5 0.659576 0.836732 0.326771
Si Si6 0.000000 0.919090 0.659366
O O1 0.500000 0.927813 0.500000
O O2 0.417111 0.884223 0.728515
O O3 0.500000 0.000000 0.739070
O O4 0.367481 0.408325 0.500000
O O5 0.500000 0.426380 0.334464
O O6 0.365473 0.500000 0.287610
O O7 0.366841 0.366841 0.226404
O O8 0.500000 0.283762 0.207402
O O9 0.346823 0.236525 0.252260
O O10 0.383180 0.288761 0.000000
O O11 0.822631 0.924224 0.500000
O O12 0.746367 0.871506 0.728179
O O13 0.910734 0.898921 0.737951
O O14 0.796195 0.000000 0.729360
O O15 0.656966 0.827359 0.500000
O O16 0.000000 0.884441 0.500000
O O17 0.000000 0.000000 0.641384
#
# Coordination Sequence:
#
# PCOD8193464 Si02
#       6
#     4   8   8   8   8   4
#     4   9  16  24  35  51  68  89 124 167 197 214
#     4   8  14  25  41  58  73  91 120 157 191 221
#     4  10  19  28  37  50  73 103 131 157 186 223
#     4   8  13  21  35  55  75  94 120 156 198 239
#     4  10  17  25  38  54  72  97 128 161 192 223
#     4   7  10  18  32  52  77  95 108 143 200 247
#
# _framework density 14.100845
#
# number of rings (size 3 to 8) (size 9 to 14) (size 15 to 20)
#    0.000    3.200    1.000    3.000    0.000    3.600 
#    0.000    2.000    0.000    3.000    0.000    0.700 
#    0.000    2.400    0.000    0.900    0.000   20.600 
#
# Total GULP energy -495592.575488 kJ/mol
# GULP energy per Si atom -12389.814387 kJ/mol
# Density = 1.406875 g / cm^3
# Si number density = 14.100845 Si / 1000 Ang^3
#
#
#
# Elastic Constant Matrix: (Units=GPa)
#
#
# Indices 1 2 3 4 5 6 
#
# 1 95.5877 50.8426 21.9087 0.0000 0.0000 0.0000
# 2 50.8426 113.9333 34.3740 0.0000 0.0000 0.0000
# 3 21.9087 34.3740 33.3540 0.0000 0.0000 0.0000
# 4 0.0000 0.0000 0.0000 3.1277 0.0000 0.0000
# 5 0.0000 0.0000 0.0000 0.0000 4.7384 0.0000
# 6 0.0000 0.0000 0.0000 0.0000 0.0000 8.5402
#
#
#
# Elastic Compliance Matrix: (Units=1/GPa)
#
#
# Indices 1 2 3 4 5 6 
#
# 1 0.014080 -0.005069 -0.004025 0.000000 0.000000 0.000000
# 2 -0.005069 0.014562 -0.011678 0.000000 0.000000 0.000000
# 3 -0.004025 -0.011678 0.044660 0.000000 0.000000 0.000000
# 4 0.000000 0.000000 0.000000 0.319723 0.000000 0.000000
# 5 0.000000 0.000000 0.000000 0.000000 0.211042 0.000000
# 6 0.000000 0.000000 0.000000 0.000000 0.000000 0.117094
#
#
# Mechanical properties :
#
#
# Convention : Reuss Voigt Hill
#
# Bulk Modulus (GPa) = 31.48680 50.79175 41.13928
# Shear Modulus (GPa) = 6.46586 12.33123 9.39855
#
# Velocity S-wave (km/s) = 2.14369 2.96041 2.58451
# Velocity P-wave (km/s) = 5.33904 6.91259 6.17614
#
# Compressibility (1/GPa) = 0.03175934
#
# Stress axis : x y z
#
# Youngs Moduli (GPa) = 71.02158 68.66975 22.39126
#
# Poissons Ratio (x) = 0.34809 0.09012
# Poissons Ratio (y) = 0.36001 0.26149
# Poissons Ratio (z) = 0.28583 0.80194
#
# Static dielectric constant tensor:
#      x y z
#    x 2.819180 0.000000 0.000000 
#    y 0.000000 2.899090 0.000000 
#    z 0.000000 0.000000 2.445950 
# 
# 
# High freq. dielectric constant tensor:
#      x y z
#    x 1.505400 0.000000 0.000000 
#    y 0.000000 1.531680 0.000000 
#    z 0.000000 0.000000 1.503330 
# 
# From -- ./inp_files/6633.got.cif
#   From: 2010.03.12/outbox.cif.g09.slc.cpg/sg47_4_cif.got.tgz:6633.got - 2010.04.14 03:12:58.
