data_PCOD8193858
_publ_section_title
;
Structure prediction by ZEFSAII (Michael W. Deem and Ramdas Pophale) SiO2 
 PCOD8193858
Probable space group: P M M M
;
_chemical_formula_sum "Si O2"
_cell_formula_units_Z 36
_cell_length_a 7.853905
_cell_length_b 17.322322
_cell_length_c 16.895999
_cell_angle_alpha 90.000000
_cell_angle_beta 90.000000
_cell_angle_gamma 90.000000
_cell_volume 2298.664699
_symmetry_space_group_name_H-M "P M M M"
_symmetry_group_IT_number 47
_symmetry_cell_setting 'orthorhombic'
loop_
_space_group_symop_operation_xyz
x,y,z
-x,-y,z
x,-y,-z
-x,y,-z
-x,-y,-z
x,y,-z
-x,y,z
x,-y,z
loop_
_atom_site_type_symbol
_atom_site_label
_atom_site_fract_x
_atom_site_fract_y
_atom_site_fract_z
Si Si1 0.805446 0.649825 0.173965
Si Si2 0.303611 0.587665 0.332357
Si Si3 0.197373 0.803971 0.906952
Si Si4 0.500000 0.085715 0.093465
Si Si5 0.800558 0.411762 0.500000
Si Si6 0.796485 0.500000 0.910401
O O1 0.787677 0.642558 0.268703
O O2 0.730656 0.729718 0.140761
O O3 0.718380 0.575423 0.132745
O O4 0.000000 0.650890 0.148212
O O5 0.500000 0.586350 0.311496
O O6 0.227610 0.500000 0.328767
O O7 0.273479 0.625249 0.419327
O O8 0.324917 0.872129 0.880035
O O9 0.000000 0.825127 0.885619
O O10 0.213413 0.786273 0.000000
O O11 0.500000 0.000000 0.131370
O O12 0.500000 0.079601 0.000000
O O13 0.739417 0.500000 0.500000
O O14 0.000000 0.401666 0.500000
O O15 0.000000 0.500000 0.904196
O O16 0.732527 0.500000 0.000000
#
# Coordination Sequence:
#
# PCOD8193858 Si02
#       6
#     8   8   8   4   4   4
#     4  10  18  28  43  61  84 116 154 189 223 261
#     4  10  19  29  41  59  84 112 147 189 231 268
#     4   9  18  31  46  66  92 120 151 189 231 271
#     4   9  18  32  50  69  87 112 147 185 229 282
#     4   9  17  29  45  59  75 103 145 190 231 268
#     4   9  16  26  41  58  79 112 155 195 222 250
#
# _framework density 15.661267
#
# number of rings (size 3 to 8) (size 9 to 14) (size 15 to 20)
#    0.000    2.556    1.111    1.667    1.556    5.333 
#    0.000    2.222    0.000    0.667    0.000    0.000 
#    0.000    0.000    0.000    2.000    0.000   12.000 
#
# Total GULP energy -446202.003606 kJ/mol
# GULP energy per Si atom -12394.500100 kJ/mol
# Density = 1.562562 g / cm^3
# Si number density = 15.661267 Si / 1000 Ang^3
#
#
#
# Elastic Constant Matrix: (Units=GPa)
#
#
# Indices 1 2 3 4 5 6 
#
# 1 53.8023 39.0094 14.8329 0.0000 0.0000 0.0000
# 2 39.0094 111.6996 41.9014 0.0000 0.0000 0.0000
# 3 14.8329 41.9014 90.4075 0.0000 0.0000 0.0000
# 4 0.0000 0.0000 0.0000 8.6678 0.0000 0.0000
# 5 0.0000 0.0000 0.0000 0.0000 13.8838 0.0000
# 6 0.0000 0.0000 0.0000 0.0000 0.0000 16.1281
#
#
#
# Elastic Compliance Matrix: (Units=1/GPa)
#
#
# Indices 1 2 3 4 5 6 
#
# 1 0.024889 -0.008667 -0.000066 0.000000 0.000000 0.000000
# 2 -0.008667 0.013855 -0.004999 0.000000 0.000000 0.000000
# 3 -0.000066 -0.004999 0.013389 0.000000 0.000000 0.000000
# 4 0.000000 0.000000 0.000000 0.115369 0.000000 0.000000
# 5 0.000000 0.000000 0.000000 0.000000 0.072026 0.000000
# 6 0.000000 0.000000 0.000000 0.000000 0.000000 0.062003
#
#
# Mechanical properties :
#
#
# Convention : Reuss Voigt Hill
#
# Bulk Modulus (GPa) = 40.54017 49.71075 45.12546
# Shear Modulus (GPa) = 14.82710 18.41366 16.62038
#
# Velocity S-wave (km/s) = 3.08025 3.43263 3.26120
# Velocity P-wave (km/s) = 6.21228 6.89353 6.56175
#
# Compressibility (1/GPa) = 0.02466689
#
# Stress axis : x y z
#
# Youngs Moduli (GPa) = 40.17832 72.17684 74.68819
#
# Poissons Ratio (x) = 0.62557 0.00496
# Poissons Ratio (y) = 0.34823 0.37339
# Poissons Ratio (z) = 0.00267 0.36084
#
# Static dielectric constant tensor:
#      x y z
#    x 2.921160 0.000000 0.000000 
#    y 0.000000 2.912990 0.000000 
#    z 0.000000 0.000000 2.957270 
# 
# 
# High freq. dielectric constant tensor:
#      x y z
#    x 1.604090 0.000000 0.000000 
#    y 0.000000 1.553800 0.000000 
#    z 0.000000 0.000000 1.587280 
# 
# From -- ./inp_files/5602.got.cif
#   From: 2010.03.12/outbox.cif.g09.slc.cpg/sg47_3_cif.got.tgz:5602.got - 2010.04.14 03:12:58.
