data_PCOD8193144
_publ_section_title
;
Structure prediction by ZEFSAII (Michael W. Deem and Ramdas Pophale) SiO2 
 PCOD8193144
Probable space group: I M A 2
;
_chemical_formula_sum "Si O2"
_cell_formula_units_Z 36
_cell_length_a 17.433139
_cell_length_b 13.718564
_cell_length_c 6.885094
_cell_angle_alpha 90.000000
_cell_angle_beta 90.000000
_cell_angle_gamma 90.000000
_cell_volume 1646.622785
_symmetry_space_group_name_H-M "I M A 2"
_symmetry_group_IT_number 46
_symmetry_cell_setting 'orthorhombic'
loop_
_space_group_symop_operation_xyz
x,y,z
-x,-y,z
1/2-x,y,z
1/2+x,-y,z
1/2+x,1/2+y,1/2+z
1/2-x,1/2-y,1/2+z
-x,1/2+y,1/2+z
x,1/2-y,1/2+z
loop_
_atom_site_type_symbol
_atom_site_label
_atom_site_fract_x
_atom_site_fract_y
_atom_site_fract_z
Si Si1 0.250000 0.392206 0.648360
Si Si2 0.750000 0.320876 0.459989
Si Si3 0.000000 0.000000 0.336481
Si Si4 0.877646 0.967418 0.627526
Si Si5 0.250000 0.170882 0.581634
Si Si6 0.250000 0.604264 0.033935
Si Si7 0.877105 0.456330 0.542426
O O1 0.250000 0.285954 0.547680
O O2 0.173468 0.449313 0.592183
O O3 0.250000 0.377545 0.874095
O O4 0.750000 0.378227 0.261331
O O5 0.750000 0.205810 0.417268
O O6 0.826683 0.357731 0.568578
O O7 0.052507 0.064320 0.484534
O O8 0.947378 0.062819 0.189962
O O9 0.826482 0.872351 0.687437
O O10 0.826591 0.041893 0.493309
O O11 0.907016 0.023315 0.821727
#
# Coordination Sequence:
#
# PCOD8193144 Si02
#       7
#     4   4   4   8   4   4   8
#     4  11  20  38  66  91 115 153 211 256 291 347
#     4   9  20  36  64  88 114 149 206 254 282 336
#     4  12  22  38  64  82 132 160 194 228 316 380
#     4  10  22  40  60  91 119 159 199 250 298 346
#     4  11  20  38  66  91 115 153 211 256 291 347
#     4   9  20  36  64  88 114 149 206 254 282 336
#     4  10  22  40  60  91 119 159 199 250 298 346
#
# _framework density 21.862929999999999
#
# number of rings (size 3 to 8) (size 9 to 14) (size 15 to 20)
#    0.000    1.778    2.222    4.000    3.111    0.000 
#    0.000    2.222    0.000    0.000    0.000    0.000 
#    0.000    0.000    0.000    0.000    0.000    0.000 
#
# Total GULP energy -223009.017493 kJ/mol
# GULP energy per Si atom -12389.389861 kJ/mol
# Density = 2.181317 g / cm^3
# Si number density = 21.862930 Si / 1000 Ang^3
#
#
#
# Elastic Constant Matrix: (Units=GPa)
#
#
# Indices 1 2 3 4 5 6 
#
# 1 125.1559 28.7202 50.8110 0.0000 0.0000 0.0000
# 2 28.7202 121.3543 8.4590 0.0000 0.0000 0.0000
# 3 50.8110 8.4590 88.2143 0.0000 0.0000 0.0000
# 4 0.0000 0.0000 0.0000 25.0438 0.0000 0.0000
# 5 0.0000 0.0000 0.0000 0.0000 37.5005 0.0000
# 6 0.0000 0.0000 0.0000 0.0000 0.0000 6.3278
#
#
#
# Elastic Compliance Matrix: (Units=1/GPa)
#
#
# Indices 1 2 3 4 5 6 
#
# 1 0.010968 -0.002170 -0.006110 0.000000 0.000000 0.000000
# 2 -0.002170 0.008725 0.000413 0.000000 0.000000 0.000000
# 3 -0.006110 0.000413 0.014816 0.000000 0.000000 0.000000
# 4 0.000000 0.000000 0.000000 0.039930 0.000000 0.000000
# 5 0.000000 0.000000 0.000000 0.000000 0.026666 0.000000
# 6 0.000000 0.000000 0.000000 0.000000 0.000000 0.158032
#
#
# Mechanical properties :
#
#
# Convention : Reuss Voigt Hill
#
# Bulk Modulus (GPa) = 53.25884 56.74500 55.00192
# Shear Modulus (GPa) = 17.78542 30.22338 24.00440
#
# Velocity S-wave (km/s) = 2.85528 3.72210 3.31713
# Velocity P-wave (km/s) = 5.93998 6.66958 6.31533
#
# Compressibility (1/GPa) = 0.01877623
#
# Stress axis : x y z
#
# Youngs Moduli (GPa) = 91.17111 114.61216 67.49675
#
# Poissons Ratio (x) = 0.24870 0.41238
# Poissons Ratio (y) = 0.19784 -0.02789
# Poissons Ratio (z) = 0.55702 -0.04736
#
# Static dielectric constant tensor:
#      x y z
#    x 3.975600 0.000000 0.000000 
#    y 0.000000 4.109960 0.000000 
#    z 0.000000 0.000000 4.257210 
# 
# 
# High freq. dielectric constant tensor:
#      x y z
#    x 1.844840 0.000000 0.000000 
#    y 0.000000 1.818010 0.000000 
#    z 0.000000 0.000000 1.894640 
# 
# From -- ./inp_files/6480.got.cif
#   From: 2010.03.12/outbox.cif.g09.slc.cpg/sg46_4_cif.got.tgz:6480.got - 2010.04.14 02:56:35.
