data_PCOD8193717
_publ_section_title
;
Structure prediction by ZEFSAII (Michael W. Deem and Ramdas Pophale) SiO2 
 PCOD8193717
Probable space group: P M M M
;
_chemical_formula_sum "Si O2"
_cell_formula_units_Z 64
_cell_length_a 9.345106
_cell_length_b 23.587372
_cell_length_c 19.099180
_cell_angle_alpha 90.000000
_cell_angle_beta 90.000000
_cell_angle_gamma 90.000000
_cell_volume 4209.965240
_symmetry_space_group_name_H-M "P M M M"
_symmetry_group_IT_number 47
_symmetry_cell_setting 'orthorhombic'
loop_
_space_group_symop_operation_xyz
x,y,z
-x,-y,z
x,-y,-z
-x,y,-z
-x,-y,-z
x,y,-z
-x,y,z
x,-y,z
loop_
_atom_site_type_symbol
_atom_site_label
_atom_site_fract_x
_atom_site_fract_y
_atom_site_fract_z
Si Si1 0.669670 0.562448 0.921846
Si Si2 0.162550 0.158399 0.792170
Si Si3 0.835634 0.722890 0.721732
Si Si4 0.835151 0.237363 0.423041
Si Si5 0.331287 0.936332 0.716624
Si Si6 0.164890 0.768676 0.079783
Si Si7 0.666351 0.877053 0.422590
Si Si8 0.670450 0.672231 0.157610
O O1 0.500000 0.563349 0.924863
O O2 0.722788 0.500000 0.896912
O O3 0.722617 0.610364 0.868076
O O4 0.729239 0.575152 0.000000
O O5 0.196558 0.212422 0.743572
O O6 0.262225 0.105959 0.772495
O O7 0.193425 0.175825 0.872774
O O8 0.000000 0.138501 0.781868
O O9 0.800887 0.717340 0.638603
O O10 0.733361 0.680677 0.764485
O O11 0.000000 0.707267 0.738648
O O12 0.801670 0.263929 0.500000
O O13 0.745225 0.181533 0.409985
O O14 0.000000 0.219017 0.417396
O O15 0.500000 0.931473 0.725666
O O16 0.285336 0.921288 0.636910
O O17 0.277869 0.000000 0.731994
O O18 0.266943 0.717863 0.103643
O O19 0.000000 0.749066 0.089417
O O20 0.199838 0.784902 0.000000
O O21 0.702253 0.902043 0.500000
O O22 0.500000 0.863293 0.415817
O O23 0.500000 0.678334 0.159640
#
# Coordination Sequence:
#
# PCOD8193717 Si02
#       8
#     8   8   8   8   8   8   8   8
#     4   8  14  25  40  59  87 121 152 181 209 236
#     4   9  17  30  46  63  80 103 135 167 206 255
#     4   9  17  29  43  61  87 115 140 172 217 257
#     4   9  16  27  44  62  81 109 143 174 206 250
#     4  10  20  31  43  60  82 108 137 170 208 250
#     4   9  18  32  48  65  87 112 135 168 216 259
#     4   9  17  28  42  60  82 108 137 169 205 245
#     4  10  18  26  42  68  92 115 147 180 206 242
#
# _framework density 15.202026
#
# number of rings (size 3 to 8) (size 9 to 14) (size 15 to 20)
#    0.000    2.875    1.250    1.875    0.000    3.750 
#    0.000    1.250    0.000    1.875    0.000    9.625 
#    0.000    0.500    0.000    6.250    0.000    0.000 
#
# Total GULP energy -793214.355829 kJ/mol
# GULP energy per Si atom -12393.974310 kJ/mol
# Density = 1.516743 g / cm^3
# Si number density = 15.202026 Si / 1000 Ang^3
#
#
#
# Elastic Constant Matrix: (Units=GPa)
#
#
# Indices 1 2 3 4 5 6 
#
# 1 42.6020 36.7918 38.0553 0.0000 0.0000 0.0000
# 2 36.7918 94.3736 61.5386 0.0000 0.0000 0.0000
# 3 38.0553 61.5386 126.9888 0.0000 0.0000 0.0000
# 4 0.0000 0.0000 0.0000 21.9418 0.0000 0.0000
# 5 0.0000 0.0000 0.0000 0.0000 22.3726 0.0000
# 6 0.0000 0.0000 0.0000 0.0000 0.0000 -0.5285
#
#
#
# Elastic Compliance Matrix: (Units=1/GPa)
#
#
# Indices 1 2 3 4 5 6 
#
# 1 0.038489 -0.010941 -0.006232 0.000000 0.000000 0.000000
# 2 -0.010941 0.018602 -0.005736 0.000000 0.000000 0.000000
# 3 -0.006232 -0.005736 0.012522 0.000000 0.000000 0.000000
# 4 0.000000 0.000000 0.000000 0.045575 0.000000 0.000000
# 5 0.000000 0.000000 0.000000 0.000000 0.044698 0.000000
# 6 0.000000 0.000000 0.000000 0.000000 0.000000 -1.892024
#
#
# Mechanical properties :
#
#
# Convention : Reuss Voigt Hill
#
# Bulk Modulus (GPa) = 42.02606 59.63729 50.83168
# Shear Modulus (GPa) = -2.97905 17.26243 7.14169
#
# Velocity S-wave (km/s) = -1.40139 3.37343 2.16980
# Velocity P-wave (km/s) = 5.00865 7.38162 6.30773
#
# Compressibility (1/GPa) = 0.02379476
#
# Stress axis : x y z
#
# Youngs Moduli (GPa) = 25.98136 53.75868 79.86121
#
# Poissons Ratio (x) = 0.58819 0.49770
# Poissons Ratio (y) = 0.28427 0.45804
# Poissons Ratio (z) = 0.16192 0.30833
#
# Static dielectric constant tensor:
#      x y z
#    x 2.834390 0.000000 0.000000 
#    y 0.000000 2.784430 0.000000 
#    z 0.000000 0.000000 3.198480 
# 
# 
# High freq. dielectric constant tensor:
#      x y z
#    x 1.575610 0.000000 0.000000 
#    y 0.000000 1.545050 0.000000 
#    z 0.000000 0.000000 1.587990 
# 
# From -- ./inp_files/12929.got.cif
#   From: 2010.03.12/outbox.cif.g09.slc.cpg/sg47_7_cif.got.tgz:12929.got - 2010.04.14 03:12:58.
