data_PCOD8193501
_publ_section_title
;
Structure prediction by ZEFSAII (Michael W. Deem and Ramdas Pophale) SiO2 
 PCOD8193501
Probable space group: P M M M
;
_chemical_formula_sum "Si O2"
_cell_formula_units_Z 44
_cell_length_a 9.809452
_cell_length_b 14.029533
_cell_length_c 23.426479
_cell_angle_alpha 90.000000
_cell_angle_beta 90.000000
_cell_angle_gamma 90.000000
_cell_volume 3223.999609
_symmetry_space_group_name_H-M "P M M M"
_symmetry_group_IT_number 47
_symmetry_cell_setting 'orthorhombic'
loop_
_space_group_symop_operation_xyz
x,y,z
-x,-y,z
x,-y,-z
-x,y,-z
-x,-y,-z
x,y,-z
-x,y,z
x,-y,z
loop_
_atom_site_type_symbol
_atom_site_label
_atom_site_fract_x
_atom_site_fract_y
_atom_site_fract_z
Si Si1 0.338117 0.894223 0.714085
Si Si2 0.152592 0.113352 0.063316
Si Si3 0.844176 0.390698 0.433717
Si Si4 0.338783 0.106334 0.500000
Si Si5 0.338056 0.770976 0.392045
Si Si6 0.348287 0.113550 0.839695
O O1 0.500000 0.901724 0.713073
O O2 0.288084 0.820798 0.666201
O O3 0.292003 0.857504 0.776867
O O4 0.277960 0.000000 0.701565
O O5 0.251481 0.157704 0.111363
O O6 0.000000 0.151325 0.074644
O O7 0.153893 0.000000 0.067248
O O8 0.201695 0.145075 0.000000
O O9 0.807974 0.376939 0.500000
O O10 0.823007 0.500000 0.415661
O O11 0.740539 0.328850 0.396009
O O12 0.000000 0.359420 0.422103
O O13 0.500000 0.098265 0.500000
O O14 0.289747 0.161820 0.556130
O O15 0.275006 0.000000 0.500000
O O16 0.500000 0.752317 0.393298
O O17 0.500000 0.154814 0.849605
O O18 0.352543 0.000000 0.843391
#
# Coordination Sequence:
#
# PCOD8193501 Si02
#       6
#     8   8   8   4   8   8
#     4   8  14  24  37  53  75 101 125 151 184 220
#     4   8  13  20  29  42  61  84 111 148 191 221
#     4   9  18  32  46  57  73  97 118 142 187 239
#     4   9  16  24  36  57  80  98 119 149 184 219
#     4  10  17  26  42  62  77  93 122 157 186 215
#     4   8  13  21  32  45  62  88 121 150 175 208
#
# _framework density 13.647644
#
# number of rings (size 3 to 8) (size 9 to 14) (size 15 to 20)
#    0.000    3.364    0.909    2.727    0.000    2.909 
#    0.000    3.636    0.000    3.818    0.000    0.000 
#    0.000    0.000    0.000    0.000    0.000    0.909 
#
# Total GULP energy -545287.386499 kJ/mol
# GULP energy per Si atom -12392.895148 kJ/mol
# Density = 1.361658 g / cm^3
# Si number density = 13.647644 Si / 1000 Ang^3
#
#
#
# Elastic Constant Matrix: (Units=GPa)
#
#
# Indices 1 2 3 4 5 6 
#
# 1 50.5625 29.0912 48.8136 0.0000 0.0000 0.0000
# 2 29.0912 52.0592 36.4308 0.0000 0.0000 0.0000
# 3 48.8136 36.4308 123.1970 0.0000 0.0000 0.0000
# 4 0.0000 0.0000 0.0000 4.3528 0.0000 0.0000
# 5 0.0000 0.0000 0.0000 0.0000 15.5117 0.0000
# 6 0.0000 0.0000 0.0000 0.0000 0.0000 12.2988
#
#
#
# Elastic Compliance Matrix: (Units=1/GPa)
#
#
# Indices 1 2 3 4 5 6 
#
# 1 0.038434 -0.013644 -0.011194 0.000000 0.000000 0.000000
# 2 -0.013644 0.029065 -0.003189 0.000000 0.000000 0.000000
# 3 -0.011194 -0.003189 0.013495 0.000000 0.000000 0.000000
# 4 0.000000 0.000000 0.000000 0.229739 0.000000 0.000000
# 5 0.000000 0.000000 0.000000 0.000000 0.064468 0.000000
# 6 0.000000 0.000000 0.000000 0.000000 0.000000 0.081309
#
#
# Mechanical properties :
#
#
# Convention : Reuss Voigt Hill
#
# Bulk Modulus (GPa) = 40.09442 50.49889 45.29665
# Shear Modulus (GPa) = 9.59920 13.86485 11.73203
#
# Velocity S-wave (km/s) = 2.65497 3.19080 2.93514
# Velocity P-wave (km/s) = 6.23222 7.11739 6.68946
#
# Compressibility (1/GPa) = 0.02494113
#
# Stress axis : x y z
#
# Youngs Moduli (GPa) = 26.01837 34.40592 74.09982
#
# Poissons Ratio (x) = 0.46944 0.82947
# Poissons Ratio (y) = 0.35500 0.23628
# Poissons Ratio (z) = 0.29125 0.10971
#
# Static dielectric constant tensor:
#      x y z
#    x 2.621240 0.000000 0.000000 
#    y 0.000000 2.383140 0.000000 
#    z 0.000000 0.000000 2.969740 
# 
# 
# High freq. dielectric constant tensor:
#      x y z
#    x 1.501750 0.000000 0.000000 
#    y 0.000000 1.467400 0.000000 
#    z 0.000000 0.000000 1.521960 
# 
# From -- ./inp_files/31920.got.cif
#   From: 2010.03.12/outbox.cif.g09.slc.cpg/sg47_16_cif.got.tgz:31920.got - 2010.04.14 03:12:58.
