data_PCOD8193663
_publ_section_title
;
Structure prediction by ZEFSAII (Michael W. Deem and Ramdas Pophale) SiO2 
 PCOD8193663
Probable space group: P M M M
;
_chemical_formula_sum "Si O2"
_cell_formula_units_Z 64
_cell_length_a 19.910993
_cell_length_b 8.678644
_cell_length_c 20.878970
_cell_angle_alpha 90.000000
_cell_angle_beta 90.000000
_cell_angle_gamma 90.000000
_cell_volume 3607.894784
_symmetry_space_group_name_H-M "P M M M"
_symmetry_group_IT_number 47
_symmetry_cell_setting 'orthorhombic'
loop_
_space_group_symop_operation_xyz
x,y,z
-x,-y,z
x,-y,-z
-x,y,-z
-x,-y,-z
x,y,-z
-x,y,z
x,-y,z
loop_
_atom_site_type_symbol
_atom_site_label
_atom_site_fract_x
_atom_site_fract_y
_atom_site_fract_z
Si Si1 0.213456 0.819761 0.927918
Si Si2 0.927468 0.817282 0.882094
Si Si3 0.572653 0.817046 0.371940
Si Si4 0.212864 0.183338 0.692347
Si Si5 0.291741 0.679970 0.811998
Si Si6 0.927170 0.816960 0.737575
Si Si7 0.291801 0.183756 0.429509
Si Si8 0.575671 0.180533 0.225975
O O1 0.135975 0.760581 0.923446
O O2 0.259425 0.726272 0.879400
O O3 0.217644 0.000000 0.910302
O O4 0.238805 0.788535 0.000000
O O5 0.917802 0.756200 0.809771
O O6 0.000000 0.756588 0.908931
O O7 0.929456 0.000000 0.882123
O O8 0.500000 0.754521 0.396430
O O9 0.632840 0.753323 0.415900
O O10 0.584584 0.764436 0.299121
O O11 0.571568 0.000000 0.373730
O O12 0.255925 0.236974 0.752751
O O13 0.135908 0.244970 0.696335
O O14 0.242259 0.248434 0.625388
O O15 0.215701 0.000000 0.692967
O O16 0.284259 0.500000 0.801823
O O17 0.370098 0.727105 0.815882
O O18 0.000000 0.759603 0.710420
O O19 0.926045 0.000000 0.737415
O O20 0.269333 0.242778 0.500000
O O21 0.291808 0.000000 0.427703
O O22 0.500000 0.218827 0.202104
O O23 0.590299 0.000000 0.219167
#
# Coordination Sequence:
#
# PCOD8193663 Si02
#       8
#     8   8   8   8   8   8   8   8
#     4  10  20  34  53  75 100 133 170 204 243 294
#     4   8  13  23  43  73 102 124 157 205 248 288
#     4   8  13  22  39  65  95 124 154 191 234 282
#     4  10  17  30  51  69  94 129 169 214 250 295
#     4  12  23  33  50  75 104 134 165 203 246 294
#     4   8  13  22  42  70  93 119 160 210 256 291
#     4   9  16  24  39  67  98 128 163 206 253 292
#     4   9  17  32  55  78  98 124 163 207 248 291
#
# _framework density 17.738876999999999
#
# number of rings (size 3 to 8) (size 9 to 14) (size 15 to 20)
#    0.000    2.750    2.500    2.625    0.000    1.000 
#    0.000    2.500    0.000    2.625    0.000    6.125 
#    0.000    2.000    0.000    1.125    0.000    1.250 
#
# Total GULP energy -792963.238209 kJ/mol
# GULP energy per Si atom -12390.050597 kJ/mol
# Density = 1.769850 g / cm^3
# Si number density = 17.738877 Si / 1000 Ang^3
#
#
#
# Elastic Constant Matrix: (Units=GPa)
#
#
# Indices 1 2 3 4 5 6 
#
# 1 131.7564 15.9586 57.9391 0.0000 0.0000 0.0000
# 2 15.9586 19.1071 12.0341 0.0000 0.0000 0.0000
# 3 57.9391 12.0341 93.4748 0.0000 0.0000 0.0000
# 4 0.0000 0.0000 0.0000 3.8969 0.0000 0.0000
# 5 0.0000 0.0000 0.0000 0.0000 26.2324 0.0000
# 6 0.0000 0.0000 0.0000 0.0000 0.0000 3.2304
#
#
#
# Elastic Compliance Matrix: (Units=1/GPa)
#
#
# Indices 1 2 3 4 5 6 
#
# 1 0.010902 -0.005277 -0.006078 0.000000 0.000000 0.000000
# 2 -0.005277 0.059509 -0.004390 0.000000 0.000000 0.000000
# 3 -0.006078 -0.004390 0.015031 0.000000 0.000000 0.000000
# 4 0.000000 0.000000 0.000000 0.256613 0.000000 0.000000
# 5 0.000000 0.000000 0.000000 0.000000 0.038121 0.000000
# 6 0.000000 0.000000 0.000000 0.000000 0.000000 0.309561
#
#
# Mechanical properties :
#
#
# Convention : Reuss Voigt Hill
#
# Bulk Modulus (GPa) = 18.53541 46.24466 32.39003
# Shear Modulus (GPa) = 6.76397 17.23237 11.99817
#
# Velocity S-wave (km/s) = 1.95483 3.12018 2.60355
# Velocity P-wave (km/s) = 3.94549 6.25356 5.22847
#
# Compressibility (1/GPa) = 0.05395080
#
# Stress axis : x y z
#
# Youngs Moduli (GPa) = 91.72928 16.80404 66.53119
#
# Poissons Ratio (x) = 0.08868 0.40436
# Poissons Ratio (y) = 0.48408 0.29209
# Poissons Ratio (z) = 0.55751 0.07377
#
# Static dielectric constant tensor:
#      x y z
#    x 3.876560 0.000000 0.000000 
#    y 0.000000 2.713380 0.000000 
#    z 0.000000 0.000000 3.221650 
# 
# 
# High freq. dielectric constant tensor:
#      x y z
#    x 1.701520 0.000000 0.000000 
#    y 0.000000 1.626020 0.000000 
#    z 0.000000 0.000000 1.659650 
# 
# From -- ./inp_files/31533.got.cif
#   From: 2010.03.12/outbox.cif.g09.slc.cpg/sg47_16_cif.got.tgz:31533.got - 2010.04.14 03:12:58.
