data_PCOD8193404
_publ_section_title
;
Structure prediction by ZEFSAII (Michael W. Deem and Ramdas Pophale) SiO2 
 PCOD8193404
Probable space group: I M A 2
;
_chemical_formula_sum "Si O2"
_cell_formula_units_Z 40
_cell_length_a 27.304378
_cell_length_b 5.096617
_cell_length_c 11.595166
_cell_angle_alpha 90.000000
_cell_angle_beta 90.000000
_cell_angle_gamma 90.000000
_cell_volume 1613.582803
_symmetry_space_group_name_H-M "I M A 2"
_symmetry_group_IT_number 46
_symmetry_cell_setting 'orthorhombic'
loop_
_space_group_symop_operation_xyz
x,y,z
-x,-y,z
1/2-x,y,z
1/2+x,-y,z
1/2+x,1/2+y,1/2+z
1/2-x,1/2-y,1/2+z
-x,1/2+y,1/2+z
x,1/2-y,1/2+z
loop_
_atom_site_type_symbol
_atom_site_label
_atom_site_fract_x
_atom_site_fract_y
_atom_site_fract_z
Si Si1 0.353990 0.227538 0.991390
Si Si2 0.500000 0.500000 0.641375
Si Si3 0.144967 0.772568 0.638177
Si Si4 0.750000 0.719449 0.392603
Si Si5 0.000000 0.000000 0.490100
Si Si6 0.250000 0.721095 0.738589
Si Si7 0.083793 0.481596 0.812177
O O1 0.296202 0.254990 0.975264
O O2 0.379121 0.262255 0.864554
O O3 0.370571 0.448989 0.084153
O O4 0.369448 0.949528 0.044406
O O5 0.490898 0.747678 0.564905
O O6 0.453132 0.395732 0.712239
O O7 0.202828 0.761883 0.659144
O O8 0.116252 0.721890 0.759414
O O9 0.750000 0.426939 0.342552
O O10 0.750000 0.928219 0.289259
O O11 0.950916 0.042914 0.418575
#
# Coordination Sequence:
#
# PCOD8193404 Si02
#       7
#     8   4   8   4   4   4   8
#     4  12  26  44  70 105 142 187 239 289 352 419
#     4  11  26  49  72 104 142 183 236 293 366 428
#     4  12  26  44  70 105 142 187 239 289 352 419
#     4  12  24  46  70  99 145 194 234 290 354 415
#     4  11  26  49  72 104 142 183 236 293 366 428
#     4  12  24  46  70  99 145 194 234 290 354 415
#     4  11  26  45  76 104 142 187 234 301 352 430
#
# _framework density 24.789555
#
# number of rings (size 3 to 8) (size 9 to 14) (size 15 to 20)
#    0.000    0.400    2.000    6.000    0.000    6.400 
#    0.000    0.000    0.000    0.000    0.000    0.000 
#    0.000    0.000    0.000    0.000    0.000    0.000 
#
# Total GULP energy -247869.739704 kJ/mol
# GULP energy per Si atom -12393.486985 kJ/mol
# Density = 2.473313 g / cm^3
# Si number density = 24.789555 Si / 1000 Ang^3
#
#
#
# Elastic Constant Matrix: (Units=GPa)
#
#
# Indices 1 2 3 4 5 6 
#
# 1 130.4112 2.6454 31.9797 0.0000 0.0000 0.0000
# 2 2.6454 95.1080 24.6645 0.0000 0.0000 0.0000
# 3 31.9797 24.6645 105.0901 0.0000 0.0000 0.0000
# 4 0.0000 0.0000 0.0000 29.7032 0.0000 0.0000
# 5 0.0000 0.0000 0.0000 0.0000 48.4306 0.0000
# 6 0.0000 0.0000 0.0000 0.0000 0.0000 13.0267
#
#
#
# Elastic Compliance Matrix: (Units=1/GPa)
#
#
# Indices 1 2 3 4 5 6 
#
# 1 0.008305 0.000452 -0.002633 0.000000 0.000000 0.000000
# 2 0.000452 0.011220 -0.002771 0.000000 0.000000 0.000000
# 3 -0.002633 -0.002771 0.010967 0.000000 0.000000 0.000000
# 4 0.000000 0.000000 0.000000 0.033666 0.000000 0.000000
# 5 0.000000 0.000000 0.000000 0.000000 0.020648 0.000000
# 6 0.000000 0.000000 0.000000 0.000000 0.000000 0.076765
#
#
# Mechanical properties :
#
#
# Convention : Reuss Voigt Hill
#
# Bulk Modulus (GPa) = 48.57254 49.90986 49.24120
# Shear Modulus (GPa) = 28.03644 36.32006 32.17825
#
# Velocity S-wave (km/s) = 3.36665 3.83186 3.60676
# Velocity P-wave (km/s) = 5.89482 6.30513 6.10343
#
# Compressibility (1/GPa) = 0.02058776
#
# Stress axis : x y z
#
# Youngs Moduli (GPa) = 120.41506 89.12357 91.18024
#
# Poissons Ratio (x) = -0.04027 0.24010
# Poissons Ratio (y) = -0.05441 0.25265
# Poissons Ratio (z) = 0.31708 0.24695
#
# Static dielectric constant tensor:
#      x y z
#    x 4.961450 0.000000 0.000000 
#    y 0.000000 5.022830 0.000000 
#    z 0.000000 0.000000 4.694390 
# 
# 
# High freq. dielectric constant tensor:
#      x y z
#    x 2.014850 0.000000 0.000000 
#    y 0.000000 1.972910 0.000000 
#    z 0.000000 0.000000 2.002820 
# 
# From -- ./inp_files/12967.got.cif
#   From: 2010.03.12/outbox.cif.g09.slc.cpg/sg46_7_cif.got.tgz:12967.got - 2010.04.14 02:56:35.
