data_PCOD8193179
_publ_section_title
;
Structure prediction by ZEFSAII (Michael W. Deem and Ramdas Pophale) SiO2 
 PCOD8193179
Probable space group: I M A 2
;
_chemical_formula_sum "Si O2"
_cell_formula_units_Z 64
_cell_length_a 14.020589
_cell_length_b 23.843538
_cell_length_c 8.473306
_cell_angle_alpha 90.000000
_cell_angle_beta 90.000000
_cell_angle_gamma 90.000000
_cell_volume 2832.629980
_symmetry_space_group_name_H-M "I M A 2"
_symmetry_group_IT_number 46
_symmetry_cell_setting 'orthorhombic'
loop_
_space_group_symop_operation_xyz
x,y,z
-x,-y,z
1/2-x,y,z
1/2+x,-y,z
1/2+x,1/2+y,1/2+z
1/2-x,1/2-y,1/2+z
-x,1/2+y,1/2+z
x,1/2-y,1/2+z
loop_
_atom_site_type_symbol
_atom_site_label
_atom_site_fract_x
_atom_site_fract_y
_atom_site_fract_z
Si Si1 0.855979 0.400511 0.720540
Si Si2 0.637869 0.716725 0.483485
Si Si3 0.449810 0.318070 0.160383
Si Si4 0.107739 0.514159 0.213482
Si Si5 0.356898 0.414769 0.999278
Si Si6 0.852258 0.984662 0.053509
Si Si7 0.443617 0.119180 0.171220
Si Si8 0.143790 0.632034 0.080742
O O1 0.750000 0.382560 0.657224
O O2 0.880242 0.464091 0.668845
O O3 0.944262 0.363336 0.653476
O O4 0.861030 0.393213 0.906658
O O5 0.750000 0.717938 0.437627
O O6 0.570193 0.700858 0.337972
O O7 0.603626 0.777407 0.538293
O O8 0.620872 0.672186 0.624231
O O9 0.563355 0.320866 0.120036
O O10 0.402115 0.378916 0.141540
O O11 0.164007 0.501186 0.372795
O O12 0.124650 0.579737 0.192866
O O13 0.000000 0.500000 0.247174
O O14 0.143560 0.478997 0.060605
O O15 0.250000 0.395628 0.960950
O O16 0.421576 0.403117 0.846885
O O17 0.750000 0.961888 0.116308
O O18 0.927248 0.934099 0.058373
O O19 0.250000 0.657590 0.112157
#
# Coordination Sequence:
#
# PCOD8193179 Si02
#       8
#     8   8   8   8   8   8   8   8
#     4  10  22  41  65  94 134 183 223 270 327 393
#     4  12  27  47  74 101 134 171 220 287 352 414
#     4  12  26  48  70 101 132 174 225 280 349 409
#     4  12  22  39  62 100 141 187 230 278 336 395
#     4  12  23  39  66  97 137 179 226 278 336 406
#     4  11  23  37  60  98 144 184 225 275 333 401
#     4  12  23  42  64 102 134 180 229 275 339 402
#     4  11  24  46  70  99 139 185 230 278 335 404
#
# _framework density 22.593845000000002
#
# number of rings (size 3 to 8) (size 9 to 14) (size 15 to 20)
#    0.000    0.500    2.500    6.750    1.750    1.000 
#    0.000    1.250    0.000    0.000    0.000    0.000 
#    0.000    0.000    0.000    0.000    0.000    0.000 
#
# Total GULP energy -396682.236756 kJ/mol
# GULP energy per Si atom -12396.319899 kJ/mol
# Density = 2.254242 g / cm^3
# Si number density = 22.593845 Si / 1000 Ang^3
#
#
#
# Elastic Constant Matrix: (Units=GPa)
#
#
# Indices 1 2 3 4 5 6 
#
# 1 194.8711 33.1522 21.2200 -0.0005 0.0000 0.0002
# 2 33.1522 63.3387 27.0348 -0.0032 0.0001 -0.0001
# 3 21.2200 27.0348 93.2009 -0.0121 0.0030 -0.0026
# 4 -0.0005 -0.0032 -0.0121 35.2149 0.0006 -0.0007
# 5 0.0000 0.0001 0.0030 0.0006 27.3761 -0.0002
# 6 0.0002 -0.0001 -0.0026 -0.0007 -0.0002 34.7415
#
#
#
# Elastic Compliance Matrix: (Units=1/GPa)
#
#
# Indices 1 2 3 4 5 6 
#
# 1 0.005653 -0.002750 -0.000489 0.000000 0.000000 0.000000
# 2 -0.002750 0.019357 -0.004989 0.000000 0.000000 0.000000
# 3 -0.000489 -0.004989 0.012288 0.000004 -0.000001 0.000001
# 4 0.000000 0.000000 0.000004 0.028397 -0.000001 0.000001
# 5 0.000000 0.000000 -0.000001 -0.000001 0.036528 0.000000
# 6 0.000000 0.000000 0.000001 0.000001 0.000000 0.028784
#
#
# Mechanical properties :
#
#
# Convention : Reuss Voigt Hill
#
# Bulk Modulus (GPa) = 47.98090 57.13607 52.55849
# Shear Modulus (GPa) = 32.38136 37.46675 34.92405
#
# Velocity S-wave (km/s) = 3.78986 4.07661 3.93585
# Velocity P-wave (km/s) = 6.35870 6.89214 6.63079
#
# Compressibility (1/GPa) = 0.02084162
#
# Stress axis : x y z
#
# Youngs Moduli (GPa) = 176.90682 51.66155 81.38006
#
# Poissons Ratio (x) = 0.14206 0.03982
# Poissons Ratio (y) = 0.48646 0.40598
# Poissons Ratio (z) = 0.08657 0.25773
#
# Static dielectric constant tensor:
#      x y z
#    x 4.562140 0.000000 0.000010 
#    y 0.000000 3.895390 0.000000 
#    z 0.000010 0.000000 3.963380 
# 
# 
# High freq. dielectric constant tensor:
#      x y z
#    x 1.916110 0.000000 0.000000 
#    y 0.000000 1.860120 0.000000 
#    z 0.000000 0.000000 1.893100 
# 
# From -- ./inp_files/6084.got.cif
#   From: 2010.03.12/outbox.cif.g09.slc.cpg/sg46_4_cif.got.tgz:6084.got - 2010.04.14 02:56:35.
