data_PCOD8193517
_publ_section_title
;
Structure prediction by ZEFSAII (Michael W. Deem and Ramdas Pophale) SiO2 
 PCOD8193517
Probable space group: P M M M
;
_chemical_formula_sum "Si O2"
_cell_formula_units_Z 52
_cell_length_a 23.379322
_cell_length_b 9.375888
_cell_length_c 14.095010
_cell_angle_alpha 90.000000
_cell_angle_beta 90.000000
_cell_angle_gamma 90.000000
_cell_volume 3089.653037
_symmetry_space_group_name_H-M "P M M M"
_symmetry_group_IT_number 47
_symmetry_cell_setting 'orthorhombic'
loop_
_space_group_symop_operation_xyz
x,y,z
-x,-y,z
x,-y,-z
-x,y,-z
-x,-y,-z
x,y,-z
-x,y,z
x,-y,z
loop_
_atom_site_type_symbol
_atom_site_label
_atom_site_fract_x
_atom_site_fract_y
_atom_site_fract_z
Si Si1 0.721896 0.330755 0.606037
Si Si2 0.611240 0.669265 0.280350
Si Si3 0.830452 0.669401 0.274642
Si Si4 0.500000 0.330710 0.606854
Si Si5 0.651377 0.165918 0.107876
Si Si6 0.936595 0.330635 0.606098
Si Si7 0.782907 0.163987 0.108300
O O1 0.721602 0.266262 0.500000
O O2 0.721068 0.500000 0.600709
O O3 0.666155 0.275944 0.661333
O O4 0.778518 0.277370 0.659329
O O5 0.611282 0.500000 0.266538
O O6 0.555776 0.722902 0.337216
O O7 0.611497 0.741424 0.176911
O O8 0.830391 0.500000 0.262834
O O9 0.889164 0.727477 0.321106
O O10 0.824301 0.739025 0.171561
O O11 0.500000 0.500000 0.600823
O O12 0.500000 0.267405 0.500000
O O13 0.717263 0.211611 0.122177
O O14 0.643431 0.000000 0.131362
O O15 0.632391 0.197819 0.000000
O O16 0.924050 0.272302 0.500000
O O17 0.933173 0.500000 0.603249
O O18 0.000000 0.281350 0.639304
O O19 0.790293 0.000000 0.137955
O O20 0.801724 0.187274 0.000000
#
# Coordination Sequence:
#
# PCOD8193517 Si02
#       7
#     8   8   8   4   8   8   8
#     4   9  16  25  40  66  96 119 143 183 231 270
#     4  10  18  30  49  72  94 121 156 193 228 266
#     4  10  17  26  45  73  96 116 151 196 233 265
#     4   9  18  32  50  71  96 128 161 187 220 275
#     4   9  18  33  51  69  92 123 154 187 235 289
#     4   8  14  25  42  66  97 130 158 184 221 272
#     4   9  18  32  48  66  92 125 154 184 233 291
#
# _framework density 16.830368
#
# number of rings (size 3 to 8) (size 9 to 14) (size 15 to 20)
#    0.000    2.846    1.538    2.308    0.000    4.308 
#    0.000    2.308    0.000    8.308    0.000    4.308 
#    0.000    0.000    0.000    0.000    0.000    0.000 
#
# Total GULP energy -644694.881799 kJ/mol
# GULP energy per Si atom -12397.978496 kJ/mol
# Density = 1.679206 g / cm^3
# Si number density = 16.830368 Si / 1000 Ang^3
#
#
#
# Elastic Constant Matrix: (Units=GPa)
#
#
# Indices 1 2 3 4 5 6 
#
# 1 127.7327 27.2990 71.6587 0.0000 0.0000 0.0000
# 2 27.2990 27.2666 38.3560 0.0000 0.0000 0.0000
# 3 71.6587 38.3560 133.3814 0.0000 0.0000 0.0000
# 4 0.0000 0.0000 0.0000 6.3136 0.0000 0.0000
# 5 0.0000 0.0000 0.0000 0.0000 32.0819 0.0000
# 6 0.0000 0.0000 0.0000 0.0000 0.0000 11.8778
#
#
#
# Elastic Compliance Matrix: (Units=1/GPa)
#
#
# Indices 1 2 3 4 5 6 
#
# 1 0.011564 -0.004766 -0.004842 0.000000 0.000000 0.000000
# 2 -0.004766 0.063554 -0.015715 0.000000 0.000000 0.000000
# 3 -0.004842 -0.015715 0.014618 0.000000 0.000000 0.000000
# 4 0.000000 0.000000 0.000000 0.158387 0.000000 0.000000
# 5 0.000000 0.000000 0.000000 0.000000 0.031170 0.000000
# 6 0.000000 0.000000 0.000000 0.000000 0.000000 0.084191
#
#
# Mechanical properties :
#
#
# Convention : Reuss Voigt Hill
#
# Bulk Modulus (GPa) = 25.58319 62.55648 44.06984
# Shear Modulus (GPa) = 11.70521 20.12580 15.91550
#
# Velocity S-wave (km/s) = 2.64006 3.46179 3.07847
# Velocity P-wave (km/s) = 4.95246 7.29576 6.23518
#
# Compressibility (1/GPa) = 0.03908817
#
# Stress axis : x y z
#
# Youngs Moduli (GPa) = 86.47589 15.73476 68.40967
#
# Poissons Ratio (x) = 0.07500 0.33124
# Poissons Ratio (y) = 0.41217 1.07507
# Poissons Ratio (z) = 0.41872 0.24727
#
# Static dielectric constant tensor:
#      x y z
#    x 3.227190 0.000000 0.000000 
#    y 0.000000 2.682560 0.000000 
#    z 0.000000 0.000000 3.239200 
# 
# 
# High freq. dielectric constant tensor:
#      x y z
#    x 1.639310 0.000000 0.000000 
#    y 0.000000 1.603270 0.000000 
#    z 0.000000 0.000000 1.655950 
# 
# From -- ./inp_files/25024.got.cif
#   From: 2010.03.12/outbox.cif.g09.slc.cpg/sg47_13_cif.got.tgz:25024.got - 2010.04.14 03:12:58.
