data_PCOD8193387
_publ_section_title
;
Structure prediction by ZEFSAII (Michael W. Deem and Ramdas Pophale) SiO2 
 PCOD8193387
Probable space group: I M A 2
;
_chemical_formula_sum "Si O2"
_cell_formula_units_Z 40
_cell_length_a 9.982236
_cell_length_b 7.505422
_cell_length_c 25.131948
_cell_angle_alpha 90.000000
_cell_angle_beta 90.000000
_cell_angle_gamma 90.000000
_cell_volume 1882.908004
_symmetry_space_group_name_H-M "I M A 2"
_symmetry_group_IT_number 46
_symmetry_cell_setting 'orthorhombic'
loop_
_space_group_symop_operation_xyz
x,y,z
-x,-y,z
1/2-x,y,z
1/2+x,-y,z
1/2+x,1/2+y,1/2+z
1/2-x,1/2-y,1/2+z
-x,1/2+y,1/2+z
x,1/2-y,1/2+z
loop_
_atom_site_type_symbol
_atom_site_label
_atom_site_fract_x
_atom_site_fract_y
_atom_site_fract_z
Si Si1 0.250000 0.980586 0.533250
Si Si2 0.500000 0.500000 0.102986
Si Si3 0.250000 0.313059 0.466751
Si Si4 0.596420 0.660432 0.667874
Si Si5 0.402169 0.160994 0.776324
Si Si6 0.250000 0.802361 0.942411
Si Si7 0.485253 0.207725 0.390634
O O1 0.380916 0.926981 0.566128
O O2 0.250000 0.873981 0.478044
O O3 0.250000 0.193021 0.520094
O O4 0.446258 0.340795 0.138865
O O5 0.250000 0.523693 0.480720
O O6 0.380940 0.275426 0.433211
O O7 0.500000 0.500000 0.649758
O O8 0.750000 0.613154 0.652896
O O9 0.582177 0.689464 0.731026
O O10 0.250000 0.088193 0.777612
O O11 0.438668 0.251574 0.831530
O O12 0.500000 0.000000 0.762713
O O13 0.375805 0.807056 0.902571
O O14 0.500000 0.000000 0.398323
#
# Coordination Sequence:
#
# PCOD8193387 Si02
#       7
#     4   4   4   8   8   4   8
#     4  12  26  46  74 102 138 190 244 300 362 410
#     4  12  26  48  76 102 142 192 242 300 362 414
#     4  12  24  46  67  99 141 178 238 291 348 423
#     4  11  26  48  75 109 145 185 238 298 357 431
#     4  11  24  42  69 106 143 186 234 282 351 429
#     4  12  26  44  73  99 139 190 234 297 348 417
#     4  12  23  43  67 102 142 187 230 286 352 422
#
# _framework density 21.243735999999998
#
# number of rings (size 3 to 8) (size 9 to 14) (size 15 to 20)
#    0.000    0.400    5.000    3.600    2.800    2.400 
#    0.000    0.000    0.000    0.000    0.000    0.000 
#    0.000    0.000    0.000    0.000    0.000    0.000 
#
# Total GULP energy -248114.769751 kJ/mol
# GULP energy per Si atom -12405.738488 kJ/mol
# Density = 2.119538 g / cm^3
# Si number density = 21.243736 Si / 1000 Ang^3
#
#
#
# Elastic Constant Matrix: (Units=GPa)
#
#
# Indices 1 2 3 4 5 6 
#
# 1 175.4455 38.8113 37.7772 0.0000 0.0000 0.0000
# 2 38.8113 113.3246 6.9560 0.0000 0.0000 0.0000
# 3 37.7772 6.9560 80.4507 0.0000 0.0000 0.0000
# 4 0.0000 0.0000 0.0000 16.7733 0.0000 0.0000
# 5 0.0000 0.0000 0.0000 0.0000 36.8996 0.0000
# 6 0.0000 0.0000 0.0000 0.0000 0.0000 41.2763
#
#
#
# Elastic Compliance Matrix: (Units=1/GPa)
#
#
# Indices 1 2 3 4 5 6 
#
# 1 0.006826 -0.002152 -0.003019 0.000000 0.000000 0.000000
# 2 -0.002152 0.009550 0.000185 0.000000 0.000000 0.000000
# 3 -0.003019 0.000185 0.013832 0.000000 0.000000 0.000000
# 4 0.000000 0.000000 0.000000 0.059618 0.000000 0.000000
# 5 0.000000 0.000000 0.000000 0.000000 0.027101 0.000000
# 6 0.000000 0.000000 0.000000 0.000000 0.000000 0.024227
#
#
# Mechanical properties :
#
#
# Convention : Reuss Voigt Hill
#
# Bulk Modulus (GPa) = 49.42062 59.58998 54.50530
# Shear Modulus (GPa) = 31.67127 38.03494 34.85310
#
# Velocity S-wave (km/s) = 3.86534 4.23591 4.05486
# Velocity P-wave (km/s) = 6.57536 7.21356 6.90184
#
# Compressibility (1/GPa) = 0.02023447
#
# Stress axis : x y z
#
# Youngs Moduli (GPa) = 146.49813 104.71174 72.29778
#
# Poissons Ratio (x) = 0.22539 0.21828
# Poissons Ratio (y) = 0.31533 -0.01338
# Poissons Ratio (z) = 0.44230 -0.01937
#
# Static dielectric constant tensor:
#      x y z
#    x 4.134260 0.000000 0.000000 
#    y 0.000000 3.900590 0.000000 
#    z 0.000000 0.000000 3.872010 
# 
# 
# High freq. dielectric constant tensor:
#      x y z
#    x 1.855970 0.000000 0.000000 
#    y 0.000000 1.834620 0.000000 
#    z 0.000000 0.000000 1.835730 
# 
# From -- ./inp_files/22811.got.cif
#   From: 2010.03.12/outbox.cif.g09.slc.cpg/sg46_12_cif.got.tgz:22811.got - 2010.04.14 02:56:35.
