data_PCOD8193372
_publ_section_title
;
Structure prediction by ZEFSAII (Michael W. Deem and Ramdas Pophale) SiO2 
 PCOD8193372
Probable space group: I M A 2
;
_chemical_formula_sum "Si O2"
_cell_formula_units_Z 40
_cell_length_a 10.895767
_cell_length_b 12.413875
_cell_length_c 14.220082
_cell_angle_alpha 90.000000
_cell_angle_beta 90.000000
_cell_angle_gamma 90.000000
_cell_volume 1923.389657
_symmetry_space_group_name_H-M "I M A 2"
_symmetry_group_IT_number 46
_symmetry_cell_setting 'orthorhombic'
loop_
_space_group_symop_operation_xyz
x,y,z
-x,-y,z
1/2-x,y,z
1/2+x,-y,z
1/2+x,1/2+y,1/2+z
1/2-x,1/2-y,1/2+z
-x,1/2+y,1/2+z
x,1/2-y,1/2+z
loop_
_atom_site_type_symbol
_atom_site_label
_atom_site_fract_x
_atom_site_fract_y
_atom_site_fract_z
Si Si1 0.000000 0.000000 0.716610
Si Si2 0.999241 0.123111 0.014376
Si Si3 0.888582 0.312644 0.330919
Si Si4 0.002331 0.622698 0.726446
Si Si5 0.250000 0.418230 0.152180
Si Si6 0.750000 0.777330 0.275417
Si Si7 0.750000 0.755860 0.991809
O O1 0.016866 0.893799 0.780493
O O2 0.876655 0.987771 0.653006
O O3 0.134857 0.169395 0.010524
O O4 0.912720 0.188858 0.942810
O O5 0.946165 0.132199 0.119957
O O6 0.000000 0.000000 0.980810
O O7 0.750000 0.349502 0.310593
O O8 0.909570 0.191734 0.293706
O O9 0.865105 0.665875 0.728276
O O10 0.000000 0.500000 0.761947
O O11 0.250000 0.348070 0.247578
O O12 0.250000 0.347180 0.058847
O O13 0.750000 0.790460 0.386857
#
# Coordination Sequence:
#
# PCOD8193372 Si02
#       7
#     4   8   8   8   4   4   4
#     4  12  22  44  72 106 142 180 222 296 350 412
#     4  11  23  40  70 101 127 173 234 289 341 404
#     4  12  25  41  67 104 138 174 228 289 348 407
#     4  11  25  45  68  95 137 180 226 281 345 416
#     4  12  24  44  73 104 145 179 232 292 356 413
#     4  12  22  44  71  92 131 183 228 278 344 423
#     4  12  22  44  70  96 136 184 234 282 348 434
#
# _framework density 20.796619
#
# number of rings (size 3 to 8) (size 9 to 14) (size 15 to 20)
#    0.000    0.400    8.000    0.000    2.800    0.800 
#    1.800    0.000    0.000    0.000    0.000    0.000 
#    0.000    0.000    0.000    0.000    0.000    0.000 
#
# Total GULP energy -248074.843950 kJ/mol
# GULP energy per Si atom -12403.742198 kJ/mol
# Density = 2.074929 g / cm^3
# Si number density = 20.796619 Si / 1000 Ang^3
#
#
#
# Elastic Constant Matrix: (Units=GPa)
#
#
# Indices 1 2 3 4 5 6 
#
# 1 119.2486 29.4898 22.1995 0.0000 0.0000 0.0000
# 2 29.4898 114.5426 54.1881 0.0000 0.0000 0.0000
# 3 22.1995 54.1881 131.5452 0.0000 0.0000 0.0000
# 4 0.0000 0.0000 0.0000 28.6026 0.0000 0.0000
# 5 0.0000 0.0000 0.0000 0.0000 14.8897 0.0000
# 6 0.0000 0.0000 0.0000 0.0000 0.0000 30.0653
#
#
#
# Elastic Compliance Matrix: (Units=1/GPa)
#
#
# Indices 1 2 3 4 5 6 
#
# 1 0.009008 -0.001987 -0.000702 0.000000 0.000000 0.000000
# 2 -0.001987 0.011282 -0.004312 0.000000 0.000000 0.000000
# 3 -0.000702 -0.004312 0.009497 0.000000 0.000000 0.000000
# 4 0.000000 0.000000 0.000000 0.034962 0.000000 0.000000
# 5 0.000000 0.000000 0.000000 0.000000 0.067161 0.000000
# 6 0.000000 0.000000 0.000000 0.000000 0.000000 0.033261
#
#
# Mechanical properties :
#
#
# Convention : Reuss Voigt Hill
#
# Bulk Modulus (GPa) = 63.35227 64.12123 63.73675
# Shear Modulus (GPa) = 27.11007 32.00878 29.55942
#
# Velocity S-wave (km/s) = 3.61443 3.92744 3.77418
# Velocity P-wave (km/s) = 6.92443 7.17397 7.05030
#
# Compressibility (1/GPa) = 0.01578475
#
# Stress axis : x y z
#
# Youngs Moduli (GPa) = 111.01383 88.63700 105.30045
#
# Poissons Ratio (x) = 0.17614 0.07387
# Poissons Ratio (y) = 0.22061 0.45406
# Poissons Ratio (z) = 0.07788 0.38221
#
# Static dielectric constant tensor:
#      x y z
#    x 3.928330 0.000000 0.000000 
#    y 0.000000 3.743370 0.000000 
#    z 0.000000 0.000000 3.877160 
# 
# 
# High freq. dielectric constant tensor:
#      x y z
#    x 1.819210 0.000000 0.000000 
#    y 0.000000 1.809620 0.000000 
#    z 0.000000 0.000000 1.814190 
# 
# From -- ./inp_files/15065.got.cif
#   From: 2010.03.12/outbox.cif.g09.slc.cpg/sg46_8_cif.got.tgz:15065.got - 2010.04.14 02:56:35.
