data_PCOD8193622
_publ_section_title
;
Structure prediction by ZEFSAII (Michael W. Deem and Ramdas Pophale) SiO2 
 PCOD8193622
Probable space group: P M M M
;
_chemical_formula_sum "Si O2"
_cell_formula_units_Z 56
_cell_length_a 8.588240
_cell_length_b 19.129802
_cell_length_c 18.742800
_cell_angle_alpha 90.000000
_cell_angle_beta 90.000000
_cell_angle_gamma 90.000000
_cell_volume 3079.279554
_symmetry_space_group_name_H-M "P M M M"
_symmetry_group_IT_number 47
_symmetry_cell_setting 'orthorhombic'
loop_
_space_group_symop_operation_xyz
x,y,z
-x,-y,z
x,-y,-z
-x,y,-z
-x,-y,-z
x,y,-z
-x,y,z
x,-y,z
loop_
_atom_site_type_symbol
_atom_site_label
_atom_site_fract_x
_atom_site_fract_y
_atom_site_fract_z
Si Si1 0.680703 0.150554 0.919297
Si Si2 0.180940 0.578860 0.352551
Si Si3 0.316701 0.288846 0.421734
Si Si4 0.817220 0.278058 0.851626
Si Si5 0.184901 0.575477 0.807999
Si Si6 0.817533 0.920446 0.784910
Si Si7 0.316330 0.207366 0.714936
O O1 0.500000 0.140534 0.901559
O O2 0.724641 0.232254 0.909464
O O3 0.779003 0.102783 0.865740
O O4 0.718959 0.127710 0.000000
O O5 0.209105 0.500000 0.380622
O O6 0.270243 0.632223 0.403113
O O7 0.248316 0.585962 0.272236
O O8 0.000000 0.598170 0.354436
O O9 0.247747 0.269382 0.500000
O O10 0.500000 0.285394 0.424707
O O11 0.258001 0.232810 0.362853
O O12 0.762621 0.359432 0.857659
O O13 0.779233 0.251968 0.772267
O O14 0.000000 0.269875 0.866035
O O15 0.244169 0.500000 0.838475
O O16 0.000000 0.574222 0.803098
O O17 0.725472 0.874140 0.726660
O O18 0.000000 0.911091 0.772606
O O19 0.764135 0.000000 0.773980
O O20 0.500000 0.219014 0.725911
#
# Coordination Sequence:
#
# PCOD8193622 Si02
#       7
#     8   8   8   8   8   8   8
#     4  10  21  35  51  74 106 139 165 191 228 279
#     4   9  17  30  47  67  94 128 167 210 254 300
#     4  10  21  34  47  67  98 134 169 208 252 294
#     4  10  17  28  51  74  95 126 165 208 249 289
#     4   8  14  25  43  68  95 122 157 206 256 293
#     4  10  21  36  56  81 105 128 155 192 237 284
#     4  10  19  32  51  72  97 128 164 203 240 288
#
# _framework density 18.186070999999998
#
# number of rings (size 3 to 8) (size 9 to 14) (size 15 to 20)
#    0.000    2.429    1.429    4.286    0.000    4.000 
#    0.000    2.857    0.000    2.571    0.000    6.000 
#    0.000    0.000    0.000    0.000    0.000    0.000 
#
# Total GULP energy -694079.496167 kJ/mol
# GULP energy per Si atom -12394.276717 kJ/mol
# Density = 1.814468 g / cm^3
# Si number density = 18.186071 Si / 1000 Ang^3
#
#
#
# Elastic Constant Matrix: (Units=GPa)
#
#
# Indices 1 2 3 4 5 6 
#
# 1 18.8545 7.2194 9.4955 0.0000 0.0000 0.0000
# 2 7.2194 118.0566 29.1753 0.0000 0.0000 0.0000
# 3 9.4955 29.1753 63.0330 0.0000 0.0000 0.0000
# 4 0.0000 0.0000 0.0000 17.7250 0.0000 0.0000
# 5 0.0000 0.0000 0.0000 0.0000 16.1612 0.0000
# 6 0.0000 0.0000 0.0000 0.0000 0.0000 20.2620
#
#
#
# Elastic Compliance Matrix: (Units=1/GPa)
#
#
# Indices 1 2 3 4 5 6 
#
# 1 0.057644 -0.001557 -0.007963 0.000000 0.000000 0.000000
# 2 -0.001557 0.009607 -0.004212 0.000000 0.000000 0.000000
# 3 -0.007963 -0.004212 0.019014 0.000000 0.000000 0.000000
# 4 0.000000 0.000000 0.000000 0.056417 0.000000 0.000000
# 5 0.000000 0.000000 0.000000 0.000000 0.061877 0.000000
# 6 0.000000 0.000000 0.000000 0.000000 0.000000 0.049353
#
#
# Mechanical properties :
#
#
# Convention : Reuss Voigt Hill
#
# Bulk Modulus (GPa) = 17.00661 32.41380 24.71020
# Shear Modulus (GPa) = 16.61258 21.09990 18.85624
#
# Velocity S-wave (km/s) = 3.02566 3.40990 3.22351
# Velocity P-wave (km/s) = 4.64520 5.77627 5.24134
#
# Compressibility (1/GPa) = 0.05880068
#
# Stress axis : x y z
#
# Youngs Moduli (GPa) = 17.34774 104.09478 52.59343
#
# Poissons Ratio (x) = 0.16209 0.41880
# Poissons Ratio (y) = 0.02701 0.22152
# Poissons Ratio (z) = 0.13814 0.43844
#
# Static dielectric constant tensor:
#      x y z
#    x 3.187850 0.000000 0.000000 
#    y 0.000000 3.702180 0.000000 
#    z 0.000000 0.000000 3.375040 
# 
# 
# High freq. dielectric constant tensor:
#      x y z
#    x 1.694270 0.000000 0.000000 
#    y 0.000000 1.707420 0.000000 
#    z 0.000000 0.000000 1.675440 
# 
# From -- ./inp_files/26965.got.cif
#   From: 2010.03.12/outbox.cif.g09.slc.cpg/sg47_14_cif.got.tgz:26965.got - 2010.04.14 03:12:58.
