data_PCOD8193715
_publ_section_title
;
Structure prediction by ZEFSAII (Michael W. Deem and Ramdas Pophale) SiO2 
 PCOD8193715
Probable space group: P M M M
;
_chemical_formula_sum "Si O2"
_cell_formula_units_Z 52
_cell_length_a 8.923062
_cell_length_b 16.263030
_cell_length_c 19.137578
_cell_angle_alpha 90.000000
_cell_angle_beta 90.000000
_cell_angle_gamma 90.000000
_cell_volume 2777.169247
_symmetry_space_group_name_H-M "P M M M"
_symmetry_group_IT_number 47
_symmetry_cell_setting 'orthorhombic'
loop_
_space_group_symop_operation_xyz
x,y,z
-x,-y,z
x,-y,-z
-x,y,-z
-x,-y,-z
x,y,-z
-x,y,z
x,-y,z
loop_
_atom_site_type_symbol
_atom_site_label
_atom_site_fract_x
_atom_site_fract_y
_atom_site_fract_z
Si Si1 0.825482 0.500000 0.418648
Si Si2 0.324444 0.823123 0.689182
Si Si3 0.831774 0.595167 0.796193
Si Si4 0.676170 0.648573 0.338693
Si Si5 0.325328 0.328963 0.920132
Si Si6 0.324841 0.161289 0.846638
Si Si7 0.675824 0.000000 0.306513
Si Si8 0.823765 0.000000 0.842771
O O1 0.788822 0.500000 0.500000
O O2 0.759538 0.583665 0.387304
O O3 0.000000 0.500000 0.401908
O O4 0.500000 0.810531 0.695263
O O5 0.269724 0.743330 0.644237
O O6 0.261132 0.820996 0.768424
O O7 0.286553 0.913110 0.653403
O O8 0.835300 0.500000 0.777855
O O9 0.717659 0.637257 0.742374
O O10 0.770580 0.607788 0.874280
O O11 0.000000 0.631592 0.789059
O O12 0.500000 0.635147 0.349514
O O13 0.500000 0.348150 0.909469
O O14 0.286387 0.236788 0.896689
O O15 0.276618 0.340757 0.000000
O O16 0.500000 0.141901 0.844298
O O17 0.241542 0.081942 0.879121
O O18 0.772375 0.000000 0.237268
O O19 0.500000 0.000000 0.286323
O O20 0.000000 0.000000 0.849187
#
# Coordination Sequence:
#
# PCOD8193715 Si02
#       8
#     4   8   8   8   8   8   4   4
#     4  11  25  43  59  83 122 159 186 217 269 331
#     4   8  14  26  49  78 104 136 175 219 268 320
#     4  11  23  37  54  77 107 141 177 218 273 334
#     4  11  20  34  59  88 113 143 188 232 266 310
#     4  10  21  37  56  75  96 129 180 236 283 329
#     4   9  16  31  49  67  96 132 170 215 276 331
#     4   8  14  28  46  69 106 143 170 207 270 327
#     4  10  18  26  41  69  96 126 171 217 266 322
#
# _framework density 18.724101000000001
#
# number of rings (size 3 to 8) (size 9 to 14) (size 15 to 20)
#    0.000    2.231    2.308    2.769    0.000    2.769 
#    0.000    2.692    0.000    2.308    0.000    0.538 
#    0.000    4.308    0.000    0.000    0.000    0.000 
#
# Total GULP energy -644291.250710 kJ/mol
# GULP energy per Si atom -12390.216360 kJ/mol
# Density = 1.868148 g / cm^3
# Si number density = 18.724101 Si / 1000 Ang^3
#
#
#
# Elastic Constant Matrix: (Units=GPa)
#
#
# Indices 1 2 3 4 5 6 
#
# 1 58.6750 36.6752 28.6505 0.0000 0.0000 0.0000
# 2 36.6752 139.6710 44.8642 0.0000 0.0000 0.0000
# 3 28.6505 44.8642 59.0115 0.0000 0.0000 0.0000
# 4 0.0000 0.0000 0.0000 14.1225 0.0000 0.0000
# 5 0.0000 0.0000 0.0000 0.0000 18.9199 0.0000
# 6 0.0000 0.0000 0.0000 0.0000 0.0000 12.4092
#
#
#
# Elastic Compliance Matrix: (Units=1/GPa)
#
#
# Indices 1 2 3 4 5 6 
#
# 1 0.023439 -0.003307 -0.008866 0.000000 0.000000 0.000000
# 2 -0.003307 0.009940 -0.005951 0.000000 0.000000 0.000000
# 3 -0.008866 -0.005951 0.025775 0.000000 0.000000 0.000000
# 4 0.000000 0.000000 0.000000 0.070809 0.000000 0.000000
# 5 0.000000 0.000000 0.000000 0.000000 0.052854 0.000000
# 6 0.000000 0.000000 0.000000 0.000000 0.000000 0.080585
#
#
# Mechanical properties :
#
#
# Convention : Reuss Voigt Hill
#
# Bulk Modulus (GPa) = 43.65716 53.08193 48.36955
# Shear Modulus (GPa) = 16.27153 18.90149 17.58651
#
# Velocity S-wave (km/s) = 2.95110 3.18067 3.06803
# Velocity P-wave (km/s) = 5.91428 6.47302 6.19994
#
# Compressibility (1/GPa) = 0.02290575
#
# Stress axis : x y z
#
# Youngs Moduli (GPa) = 42.66371 100.60746 38.79772
#
# Poissons Ratio (x) = 0.33270 0.34397
# Poissons Ratio (y) = 0.14109 0.23089
# Poissons Ratio (z) = 0.37825 0.59873
#
# Static dielectric constant tensor:
#      x y z
#    x 3.310640 0.000000 0.000000 
#    y 0.000000 4.027800 0.000000 
#    z 0.000000 0.000000 3.019770 
# 
# 
# High freq. dielectric constant tensor:
#      x y z
#    x 1.711750 0.000000 0.000000 
#    y 0.000000 1.754700 0.000000 
#    z 0.000000 0.000000 1.669600 
# 
# From -- ./inp_files/26834.got.cif
#   From: 2010.03.12/outbox.cif.g09.slc.cpg/sg47_14_cif.got.tgz:26834.got - 2010.04.14 03:12:58.
