data_PCOD8193497
_publ_section_title
;
Structure prediction by ZEFSAII (Michael W. Deem and Ramdas Pophale) SiO2 
 PCOD8193497
Probable space group: P M M M
;
_chemical_formula_sum "Si O2"
_cell_formula_units_Z 44
_cell_length_a 9.140668
_cell_length_b 24.849993
_cell_length_c 12.934058
_cell_angle_alpha 90.000000
_cell_angle_beta 90.000000
_cell_angle_gamma 90.000000
_cell_volume 2937.913535
_symmetry_space_group_name_H-M "P M M M"
_symmetry_group_IT_number 47
_symmetry_cell_setting 'orthorhombic'
loop_
_space_group_symop_operation_xyz
x,y,z
-x,-y,z
x,-y,-z
-x,y,-z
-x,-y,-z
x,y,-z
-x,y,z
x,-y,z
loop_
_atom_site_type_symbol
_atom_site_label
_atom_site_fract_x
_atom_site_fract_y
_atom_site_fract_z
Si Si1 0.173613 0.939933 0.385284
Si Si2 0.664403 0.440683 0.122953
Si Si3 0.825861 0.129324 0.194602
Si Si4 0.163817 0.339037 0.122966
Si Si5 0.671647 0.767283 0.879527
Si Si6 0.173375 0.060165 0.000000
O O1 0.224741 0.921554 0.500000
O O2 0.231250 0.897958 0.300383
O O3 0.000000 0.941883 0.379603
O O4 0.233909 0.000000 0.361441
O O5 0.500000 0.431034 0.164051
O O6 0.720293 0.500000 0.158116
O O7 0.768819 0.394308 0.168970
O O8 0.663920 0.437455 0.000000
O O9 0.748171 0.186591 0.187091
O O10 0.771975 0.091489 0.101177
O O11 0.000000 0.137703 0.192047
O O12 0.262468 0.289139 0.159442
O O13 0.000000 0.332185 0.166743
O O14 0.161794 0.341858 0.000000
O O15 0.500000 0.766916 0.857987
O O16 0.707352 0.776840 0.000000
O O17 0.000000 0.056464 0.000000
O O18 0.240418 0.000000 0.000000
#
# Coordination Sequence:
#
# PCOD8193497 Si02
#       6
#     8   8   8   8   8   4
#     4   8  14  25  42  64  85 102 124 157 196 237
#     4   8  13  21  32  46  66  93 125 160 198 237
#     4  10  17  26  42  61  80 101 128 162 195 232
#     4   9  16  24  35  50  68  92 126 166 202 234
#     4  10  19  29  39  51  73 103 132 161 198 243
#     4   9  16  24  37  59  81  99 122 155 194 231
#
# _framework density 14.976616
#
# number of rings (size 3 to 8) (size 9 to 14) (size 15 to 20)
#    0.000    3.000    0.909    2.727    0.000    5.455 
#    0.000    1.818    0.000    3.273    0.000    1.273 
#    0.000    0.000    0.000    0.000    0.000    0.909 
#
# Total GULP energy -545375.424204 kJ/mol
# GULP energy per Si atom -12394.896005 kJ/mol
# Density = 1.494253 g / cm^3
# Si number density = 14.976616 Si / 1000 Ang^3
#
#
#
# Elastic Constant Matrix: (Units=GPa)
#
#
# Indices 1 2 3 4 5 6 
#
# 1 61.7799 52.6008 22.9372 0.0000 0.0000 0.0000
# 2 52.6008 146.3808 47.3898 0.0000 0.0000 0.0000
# 3 22.9372 47.3898 62.9749 0.0000 0.0000 0.0000
# 4 0.0000 0.0000 0.0000 10.1508 0.0000 0.0000
# 5 0.0000 0.0000 0.0000 0.0000 5.4735 0.0000
# 6 0.0000 0.0000 0.0000 0.0000 0.0000 15.1822
#
#
#
# Elastic Compliance Matrix: (Units=1/GPa)
#
#
# Indices 1 2 3 4 5 6 
#
# 1 0.023727 -0.007573 -0.002943 0.000000 0.000000 0.000000
# 2 -0.007573 0.011449 -0.005857 0.000000 0.000000 0.000000
# 3 -0.002943 -0.005857 0.021359 0.000000 0.000000 0.000000
# 4 0.000000 0.000000 0.000000 0.098515 0.000000 0.000000
# 5 0.000000 0.000000 0.000000 0.000000 0.182700 0.000000
# 6 0.000000 0.000000 0.000000 0.000000 0.000000 0.065866
#
#
# Mechanical properties :
#
#
# Convention : Reuss Voigt Hill
#
# Bulk Modulus (GPa) = 42.03786 57.44345 49.74066
# Shear Modulus (GPa) = 11.25382 16.04181 13.64782
#
# Velocity S-wave (km/s) = 2.74419 3.27635 3.02201
# Velocity P-wave (km/s) = 6.17824 7.26301 6.74248
#
# Compressibility (1/GPa) = 0.02378808
#
# Stress axis : x y z
#
# Youngs Moduli (GPa) = 42.14545 87.34220 46.81873
#
# Poissons Ratio (x) = 0.66148 0.13779
# Poissons Ratio (y) = 0.31919 0.27423
# Poissons Ratio (z) = 0.12403 0.51159
#
# Static dielectric constant tensor:
#      x y z
#    x 2.748850 0.000000 0.000000 
#    y 0.000000 3.125790 0.000000 
#    z 0.000000 0.000000 2.570540 
# 
# 
# High freq. dielectric constant tensor:
#      x y z
#    x 1.555050 0.000000 0.000000 
#    y 0.000000 1.586360 0.000000 
#    z 0.000000 0.000000 1.508620 
# 
# From -- ./inp_files/4438.got.cif
#   From: 2010.03.12/outbox.cif.g09.slc.cpg/sg47_3_cif.got.tgz:4438.got - 2010.04.14 03:12:58.
