data_PCOD8193752
_publ_section_title
;
Structure prediction by ZEFSAII (Michael W. Deem and Ramdas Pophale) SiO2 
 PCOD8193752
Probable space group: P M M M
;
_chemical_formula_sum "Si O2"
_cell_formula_units_Z 52
_cell_length_a 13.657530
_cell_length_b 12.510568
_cell_length_c 20.598588
_cell_angle_alpha 90.000000
_cell_angle_beta 90.000000
_cell_angle_gamma 90.000000
_cell_volume 3519.545971
_symmetry_space_group_name_H-M "P M M M"
_symmetry_group_IT_number 47
_symmetry_cell_setting 'orthorhombic'
loop_
_space_group_symop_operation_xyz
x,y,z
-x,-y,z
x,-y,-z
-x,y,-z
-x,-y,-z
x,y,-z
-x,y,z
x,-y,z
loop_
_atom_site_type_symbol
_atom_site_label
_atom_site_fract_x
_atom_site_fract_y
_atom_site_fract_z
Si Si1 0.113220 0.248477 0.376942
Si Si2 0.282097 0.623279 0.576412
Si Si3 0.890495 0.127238 0.138850
Si Si4 0.216816 0.871776 0.266931
Si Si5 0.384273 0.000000 0.428710
Si Si6 0.884220 0.116512 0.500000
Si Si7 0.116156 0.116953 0.000000
Si Si8 0.386587 0.798250 0.653431
O O1 0.179062 0.354608 0.386264
O O2 0.133764 0.180192 0.312603
O O3 0.150542 0.175727 0.435861
O O4 0.000000 0.281872 0.380057
O O5 0.277424 0.652739 0.500000
O O6 0.308848 0.500000 0.585556
O O7 0.366478 0.690149 0.613382
O O8 0.813169 0.160914 0.193880
O O9 0.000000 0.169529 0.156216
O O10 0.895166 0.000000 0.132744
O O11 0.854667 0.175033 0.068355
O O12 0.320964 0.814032 0.281714
O O13 0.220483 0.000000 0.275970
O O14 0.349761 0.105445 0.391848
O O15 0.500000 0.000000 0.433844
O O16 0.336581 0.000000 0.500000
O O17 0.000000 0.107951 0.500000
O O18 0.835415 0.000000 0.500000
O O19 0.000000 0.104684 0.000000
O O20 0.165865 0.000000 0.000000
O O21 0.500000 0.804002 0.673466
#
# Coordination Sequence:
#
# PCOD8193752 Si02
#       8
#     8   8   8   8   4   4   4   8
#     4  10  19  30  42  60  84 112 142 172 211 254
#     4  10  21  35  48  63  79 100 139 185 223 262
#     4   8  13  21  35  56  84 115 146 174 201 233
#     4  10  18  27  40  62  86 114 142 175 212 254
#     4   9  16  28  46  62  77  98 127 166 215 268
#     4   9  16  26  39  55  78 109 141 170 202 244
#     4   7  10  18  32  52  79 113 148 177 197 223
#     4  10  20  33  46  63  83 105 135 174 223 272
#
# _framework density 14.774632
#
# number of rings (size 3 to 8) (size 9 to 14) (size 15 to 20)
#    0.000    2.692    1.538    2.308    0.000    3.077 
#    0.000    1.538    0.000    0.000    0.000    0.538 
#    0.000    3.077    0.000   11.077    0.000   99.077 
#
# Total GULP energy -644264.186574 kJ/mol
# GULP energy per Si atom -12389.695896 kJ/mol
# Density = 1.474100 g / cm^3
# Si number density = 14.774632 Si / 1000 Ang^3
#
#
#
# Elastic Constant Matrix: (Units=GPa)
#
#
# Indices 1 2 3 4 5 6 
#
# 1 79.1445 16.7461 40.1285 0.0000 0.0000 0.0000
# 2 16.7461 56.4756 28.0829 0.0000 0.0000 0.0000
# 3 40.1285 28.0829 124.1571 0.0000 0.0000 0.0000
# 4 0.0000 0.0000 0.0000 8.2059 0.0000 0.0000
# 5 0.0000 0.0000 0.0000 0.0000 15.4132 0.0000
# 6 0.0000 0.0000 0.0000 0.0000 0.0000 11.8484
#
#
#
# Elastic Compliance Matrix: (Units=1/GPa)
#
#
# Indices 1 2 3 4 5 6 
#
# 1 0.015384 -0.002354 -0.004440 0.000000 0.000000 0.000000
# 2 -0.002354 0.020311 -0.003833 0.000000 0.000000 0.000000
# 3 -0.004440 -0.003833 0.010356 0.000000 0.000000 0.000000
# 4 0.000000 0.000000 0.000000 0.121863 0.000000 0.000000
# 5 0.000000 0.000000 0.000000 0.000000 0.064879 0.000000
# 6 0.000000 0.000000 0.000000 0.000000 0.000000 0.084400
#
#
# Mechanical properties :
#
#
# Convention : Reuss Voigt Hill
#
# Bulk Modulus (GPa) = 40.32697 47.74358 44.03528
# Shear Modulus (GPa) = 14.42111 18.74816 16.58463
#
# Velocity S-wave (km/s) = 3.12761 3.56609 3.35402
# Velocity P-wave (km/s) = 6.35583 7.02429 6.69840
#
# Compressibility (1/GPa) = 0.02479730
#
# Stress axis : x y z
#
# Youngs Moduli (GPa) = 65.00122 49.23471 96.55914
#
# Poissons Ratio (x) = 0.11590 0.42871
# Poissons Ratio (y) = 0.15301 0.37014
# Poissons Ratio (z) = 0.28860 0.18873
#
# Static dielectric constant tensor:
#      x y z
#    x 2.715860 0.000000 0.000000 
#    y 0.000000 2.605050 0.000000 
#    z 0.000000 0.000000 3.048780 
# 
# 
# High freq. dielectric constant tensor:
#      x y z
#    x 1.558730 0.000000 0.000000 
#    y 0.000000 1.529130 0.000000 
#    z 0.000000 0.000000 1.551850 
# 
# From -- ./inp_files/31157.got.cif
#   From: 2010.03.12/outbox.cif.g09.slc.cpg/sg47_16_cif.got.tgz:31157.got - 2010.04.14 03:12:58.
