data_PCOD8193139
_publ_section_title
;
Structure prediction by ZEFSAII (Michael W. Deem and Ramdas Pophale) SiO2 
 PCOD8193139
Probable space group: I M A 2
;
_chemical_formula_sum "Si O2"
_cell_formula_units_Z 64
_cell_length_a 26.862751
_cell_length_b 8.729158
_cell_length_c 12.676554
_cell_angle_alpha 90.000000
_cell_angle_beta 90.000000
_cell_angle_gamma 90.000000
_cell_volume 2972.514978
_symmetry_space_group_name_H-M "I M A 2"
_symmetry_group_IT_number 46
_symmetry_cell_setting 'orthorhombic'
loop_
_space_group_symop_operation_xyz
x,y,z
-x,-y,z
1/2-x,y,z
1/2+x,-y,z
1/2+x,1/2+y,1/2+z
1/2-x,1/2-y,1/2+z
-x,1/2+y,1/2+z
x,1/2-y,1/2+z
loop_
_atom_site_type_symbol
_atom_site_label
_atom_site_fract_x
_atom_site_fract_y
_atom_site_fract_z
Si Si1 0.374310 0.386660 0.070020
Si Si2 0.693059 0.737079 0.740559
Si Si3 0.380799 0.622601 0.553470
Si Si4 0.627160 0.118028 0.405712
Si Si5 0.694438 0.126827 0.225546
Si Si6 0.444436 0.538600 0.240971
Si Si7 0.551110 0.405165 0.739496
Si Si8 0.382764 0.140609 0.910782
O O1 0.330431 0.309023 0.135680
O O2 0.411455 0.486068 0.141845
O O3 0.347884 0.499673 0.986755
O O4 0.404128 0.264341 0.995733
O O5 0.750000 0.793845 0.753292
O O6 0.691117 0.555716 0.729435
O O7 0.660869 0.788047 0.840612
O O8 0.400490 0.751800 0.473685
O O9 0.337181 0.690889 0.627521
O O10 0.426871 0.559997 0.623782
O O11 0.357423 0.488030 0.483643
O O12 0.670479 0.192703 0.333311
O O13 0.587194 0.028862 0.330839
O O14 0.750000 0.190051 0.214961
O O15 0.500000 0.500000 0.211144
O O16 0.445787 0.721632 0.258756
O O17 0.426712 0.440069 0.342866
O O18 0.500000 0.500000 0.749754
#
# Coordination Sequence:
#
# PCOD8193139 Si02
#       8
#     8   8   8   8   8   8   8   8
#     4  11  23  42  67  95 132 177 217 268 331 391
#     4  10  22  39  65 101 132 168 222 278 323 386
#     4  11  23  44  65  90 134 175 214 268 334 392
#     4  11  23  44  65  90 134 175 214 268 334 392
#     4  10  22  39  65  99 132 170 222 273 327 390
#     4  11  26  44  64  98 131 164 224 278 324 399
#     4  11  26  44  66  94 131 172 218 276 333 393
#     4  11  23  42  67  95 132 177 217 268 331 391
#
# _framework density 21.53059
#
# number of rings (size 3 to 8) (size 9 to 14) (size 15 to 20)
#    0.000    1.250    5.000    0.000    3.500    3.000 
#    0.000    1.250    0.000    0.000    0.000    0.000 
#    0.000    0.000    0.000    0.000    0.000    0.000 
#
# Total GULP energy -396512.746495 kJ/mol
# GULP energy per Si atom -12391.023328 kJ/mol
# Density = 2.148159 g / cm^3
# Si number density = 21.530590 Si / 1000 Ang^3
#
#
#
# Elastic Constant Matrix: (Units=GPa)
#
#
# Indices 1 2 3 4 5 6 
#
# 1 116.6324 7.8550 26.9948 0.0000 0.0000 0.0000
# 2 7.8550 70.8267 28.1295 0.0000 0.0000 0.0000
# 3 26.9948 28.1295 118.1349 0.0000 0.0000 0.0000
# 4 0.0000 0.0000 0.0000 40.3710 0.0000 0.0000
# 5 0.0000 0.0000 0.0000 0.0000 9.2142 0.0000
# 6 0.0000 0.0000 0.0000 0.0000 0.0000 27.7017
#
#
#
# Elastic Compliance Matrix: (Units=1/GPa)
#
#
# Indices 1 2 3 4 5 6 
#
# 1 0.009055 -0.000202 -0.002021 0.000000 0.000000 0.000000
# 2 -0.000202 0.015598 -0.003668 0.000000 0.000000 0.000000
# 3 -0.002021 -0.003668 0.009800 0.000000 0.000000 0.000000
# 4 0.000000 0.000000 0.000000 0.024770 0.000000 0.000000
# 5 0.000000 0.000000 0.000000 0.000000 0.108529 0.000000
# 6 0.000000 0.000000 0.000000 0.000000 0.000000 0.036099
#
#
# Mechanical properties :
#
#
# Convention : Reuss Voigt Hill
#
# Bulk Modulus (GPa) = 44.10731 47.95031 46.02881
# Shear Modulus (GPa) = 22.40240 31.63168 27.01704
#
# Velocity S-wave (km/s) = 3.22916 3.83711 3.54619
# Velocity P-wave (km/s) = 5.86802 6.47691 6.17997
#
# Compressibility (1/GPa) = 0.02267198
#
# Stress axis : x y z
#
# Youngs Moduli (GPa) = 110.43205 64.11023 102.03888
#
# Poissons Ratio (x) = 0.01292 0.20624
# Poissons Ratio (y) = 0.02225 0.37429
# Poissons Ratio (z) = 0.22321 0.23516
#
# Static dielectric constant tensor:
#      x y z
#    x 3.734490 0.000000 0.000000 
#    y 0.000000 4.101450 0.000000 
#    z 0.000000 0.000000 4.216620 
# 
# 
# High freq. dielectric constant tensor:
#      x y z
#    x 1.814680 0.000000 0.000000 
#    y 0.000000 1.852050 0.000000 
#    z 0.000000 0.000000 1.872580 
# 
# From -- ./inp_files/13194.got.cif
#   From: 2010.03.12/outbox.cif.g09.slc.cpg/sg46_7_cif.got.tgz:13194.got - 2010.04.14 02:56:35.
