data_PCOD8193193
_publ_section_title
;
Structure prediction by ZEFSAII (Michael W. Deem and Ramdas Pophale) SiO2 
 PCOD8193193
Probable space group: I M A 2
;
_chemical_formula_sum "Si O2"
_cell_formula_units_Z 64
_cell_length_a 8.735679
_cell_length_b 29.484989
_cell_length_c 12.737923
_cell_angle_alpha 90.000000
_cell_angle_beta 90.000000
_cell_angle_gamma 90.000000
_cell_volume 3280.924650
_symmetry_space_group_name_H-M "I M A 2"
_symmetry_group_IT_number 46
_symmetry_cell_setting 'orthorhombic'
loop_
_space_group_symop_operation_xyz
x,y,z
-x,-y,z
1/2-x,y,z
1/2+x,-y,z
1/2+x,1/2+y,1/2+z
1/2-x,1/2-y,1/2+z
-x,1/2+y,1/2+z
x,1/2-y,1/2+z
loop_
_atom_site_type_symbol
_atom_site_label
_atom_site_fract_x
_atom_site_fract_y
_atom_site_fract_z
Si Si1 0.929723 0.645712 0.953540
Si Si2 0.930339 0.622830 0.723991
Si Si3 0.571069 0.451291 0.335038
Si Si4 0.420120 0.797260 0.796458
Si Si5 0.069375 0.950819 0.073241
Si Si6 0.430305 0.122032 0.681103
Si Si7 0.573056 0.746883 0.965956
Si Si8 0.420695 0.784977 0.155236
O O1 0.750000 0.651514 0.968777
O O2 0.969524 0.616990 0.848556
O O3 0.996891 0.696808 0.942177
O O4 0.990085 0.620550 0.059452
O O5 0.750000 0.629964 0.708208
O O6 0.986524 0.579845 0.659297
O O7 0.020182 0.665449 0.680094
O O8 0.500000 0.500000 0.312465
O O9 0.750000 0.456340 0.320110
O O10 0.532740 0.434391 0.453873
O O11 0.509727 0.416519 0.249372
O O12 0.250000 0.819009 0.802226
O O13 0.527313 0.828942 0.726626
O O14 0.490763 0.789848 0.910888
O O15 0.413172 0.745432 0.758422
O O16 0.250000 0.951380 0.094405
O O17 0.000000 0.000000 0.090322
O O18 0.250000 0.114582 0.688345
O O19 0.750000 0.748144 0.935656
O O20 0.543349 0.757792 0.086480
O O21 0.250000 0.788456 0.104633
#
# Coordination Sequence:
#
# PCOD8193193 Si02
#       8
#     8   8   8   8   8   8   8   8
#     4   9  20  37  58  84 117 156 201 250 289 342
#     4  11  22  39  62  88 118 157 203 245 295 353
#     4  10  22  42  66  92 121 151 188 240 299 357
#     4  11  23  37  54  82 119 157 199 247 297 349
#     4  10  22  42  66  92 121 151 188 240 299 357
#     4  11  22  39  62  88 118 157 203 245 295 353
#     4  11  21  37  57  78 111 158 205 250 295 343
#     4  11  23  37  54  82 119 157 199 247 297 349
#
# _framework density 19.506698
#
# number of rings (size 3 to 8) (size 9 to 14) (size 15 to 20)
#    0.000    1.500    2.500    2.625    1.750    2.500 
#    0.000    3.125    0.000    0.000    0.000    0.000 
#    0.000    0.000    0.000    0.000    0.000    0.000 
#
# Total GULP energy -396663.817058 kJ/mol
# GULP energy per Si atom -12395.744283 kJ/mol
# Density = 1.946230 g / cm^3
# Si number density = 19.506698 Si / 1000 Ang^3
#
#
#
# Elastic Constant Matrix: (Units=GPa)
#
#
# Indices 1 2 3 4 5 6 
#
# 1 66.3550 35.9171 39.4795 0.0012 0.0002 0.0000
# 2 35.9171 97.4229 64.6124 0.0008 0.0001 0.0000
# 3 39.4795 64.6124 129.3638 0.0049 0.0009 0.0002
# 4 0.0012 0.0008 0.0049 -8.7769 0.0007 0.0006
# 5 0.0002 0.0001 0.0009 0.0007 24.9235 0.0004
# 6 0.0000 0.0000 0.0002 0.0006 0.0004 35.9093
#
#
#
# Elastic Compliance Matrix: (Units=1/GPa)
#
#
# Indices 1 2 3 4 5 6 
#
# 1 0.019889 -0.004945 -0.003600 0.000000 0.000000 0.000000
# 2 -0.004945 0.016578 -0.006771 -0.000003 0.000000 0.000000
# 3 -0.003600 -0.006771 0.012211 0.000006 0.000000 0.000000
# 4 0.000000 -0.000003 0.000006 -0.113935 0.000003 0.000002
# 5 0.000000 0.000000 0.000000 0.000003 0.040123 0.000000
# 6 0.000000 0.000000 0.000000 0.000002 0.000000 0.027848
#
#
# Mechanical properties :
#
#
# Convention : Reuss Voigt Hill
#
# Bulk Modulus (GPa) = 55.41419 63.68441 59.54930
# Shear Modulus (GPa) = 127.02913 20.62001 73.82457
#
# Velocity S-wave (km/s) = 8.07850 3.25479 6.15856
# Velocity P-wave (km/s) = 10.74642 6.84421 9.00913
#
# Compressibility (1/GPa) = 0.01804592
#
# Stress axis : x y z
#
# Youngs Moduli (GPa) = 50.27910 60.31965 81.89535
#
# Poissons Ratio (x) = 0.29828 0.29482
# Poissons Ratio (y) = 0.24863 0.55453
# Poissons Ratio (z) = 0.18100 0.40843
#
# Static dielectric constant tensor:
#      x y z
#    x 3.652320 0.000000 0.000000 
#    y 0.000000 3.548610 0.000000 
#    z 0.000000 0.000000 3.782080 
# 
# 
# High freq. dielectric constant tensor:
#      x y z
#    x 1.762870 0.000000 0.000000 
#    y 0.000000 1.745320 0.000000 
#    z 0.000000 0.000000 1.768630 
# 
# From -- ./inp_files/9805.got.cif
#   From: 2010.03.12/outbox.cif.g09.slc.cpg/sg46_5_cif.got.tgz:9805.got - 2010.04.14 02:56:35.
