data_PCOD8193467
_publ_section_title
;
Structure prediction by ZEFSAII (Michael W. Deem and Ramdas Pophale) SiO2 
 PCOD8193467
Probable space group: P M M M
;
_chemical_formula_sum "Si O2"
_cell_formula_units_Z 64
_cell_length_a 19.575133
_cell_length_b 20.852981
_cell_length_c 8.904952
_cell_angle_alpha 90.000000
_cell_angle_beta 90.000000
_cell_angle_gamma 90.000000
_cell_volume 3635.000307
_symmetry_space_group_name_H-M "P M M M"
_symmetry_group_IT_number 47
_symmetry_cell_setting 'orthorhombic'
loop_
_space_group_symop_operation_xyz
x,y,z
-x,-y,z
x,-y,-z
-x,y,-z
-x,-y,-z
x,y,-z
-x,y,z
x,-y,z
loop_
_atom_site_type_symbol
_atom_site_label
_atom_site_fract_x
_atom_site_fract_y
_atom_site_fract_z
Si Si1 0.316319 0.189472 0.325794
Si Si2 0.828426 0.930271 0.675876
Si Si3 0.424072 0.571431 0.822611
Si Si4 0.921021 0.426142 0.827876
Si Si5 0.319414 0.069535 0.824743
Si Si6 0.675407 0.330570 0.671733
Si Si7 0.830880 0.193753 0.822526
Si Si8 0.167818 0.321936 0.675906
O O1 0.299678 0.177240 0.500000
O O2 0.359580 0.129176 0.256096
O O3 0.353852 0.257942 0.306366
O O4 0.246976 0.192539 0.231430
O O5 0.822553 0.915993 0.500000
O O6 0.753718 0.934216 0.746950
O O7 0.867995 0.870490 0.755178
O O8 0.864591 0.000000 0.703573
O O9 0.500000 0.589576 0.763185
O O10 0.404649 0.500000 0.765203
O O11 0.368885 0.621827 0.768923
O O12 0.424112 0.572291 0.000000
O O13 0.904209 0.500000 0.793571
O O14 0.875737 0.383933 0.717402
O O15 0.000000 0.411725 0.795251
O O16 0.903138 0.409743 0.000000
O O17 0.356467 0.000000 0.801781
O O18 0.310786 0.084599 0.000000
O O19 0.669347 0.352156 0.500000
O O20 0.753932 0.334080 0.725448
O O21 0.863767 0.259558 0.759618
O O22 0.837454 0.192906 0.000000
O O23 0.163989 0.308410 0.500000
#
# Coordination Sequence:
#
# PCOD8193467 Si02
#       8
#     8   8   8   8   8   8   8   8
#     4   9  16  26  38  55  83 115 148 186 227 272
#     4   9  15  22  33  50  76 112 150 186 227 274
#     4   9  19  35  52  70  92 118 150 188 229 275
#     4   9  19  36  55  74  97 124 155 192 233 278
#     4   9  15  21  31  50  76 108 148 187 221 264
#     4   9  19  32  46  68  95 123 155 191 230 273
#     4  10  17  25  39  58  83 116 153 191 232 275
#     4  10  20  33  48  69  98 127 158 195 233 278
#
# _framework density 17.606601999999999
#
# number of rings (size 3 to 8) (size 9 to 14) (size 15 to 20)
#    0.000    2.750    0.000    5.625    0.000    6.000 
#    0.000    3.750    0.000    0.000    0.000    0.000 
#    0.000    1.000    0.000   10.750    0.000   11.500 
#
# Total GULP energy -792857.514901 kJ/mol
# GULP energy per Si atom -12388.398670 kJ/mol
# Density = 1.756653 g / cm^3
# Si number density = 17.606602 Si / 1000 Ang^3
#
#
#
# Elastic Constant Matrix: (Units=GPa)
#
#
# Indices 1 2 3 4 5 6 
#
# 1 35.3155 45.3986 25.4921 0.0000 0.0000 0.0000
# 2 45.3986 156.3017 63.3549 0.0000 0.0000 0.0000
# 3 25.4921 63.3549 96.9684 0.0000 0.0000 0.0000
# 4 0.0000 0.0000 0.0000 37.4186 0.0000 0.0000
# 5 0.0000 0.0000 0.0000 0.0000 13.5252 0.0000
# 6 0.0000 0.0000 0.0000 0.0000 0.0000 -2.6264
#
#
#
# Elastic Compliance Matrix: (Units=1/GPa)
#
#
# Indices 1 2 3 4 5 6 
#
# 1 0.046677 -0.011676 -0.004642 0.000000 0.000000 0.000000
# 2 -0.011676 0.011623 -0.004525 0.000000 0.000000 0.000000
# 3 -0.004642 -0.004525 0.014489 0.000000 0.000000 0.000000
# 4 0.000000 0.000000 0.000000 0.026725 0.000000 0.000000
# 5 0.000000 0.000000 0.000000 0.000000 0.073936 0.000000
# 6 0.000000 0.000000 0.000000 0.000000 0.000000 -0.380750
#
#
# Mechanical properties :
#
#
# Convention : Reuss Voigt Hill
#
# Bulk Modulus (GPa) = 32.15071 61.89743 47.02407
# Shear Modulus (GPa) = -32.20683 19.95281 -6.12701
#
# Velocity S-wave (km/s) = -4.28161 3.37004 -1.86749
# Velocity P-wave (km/s) = 2.47844 7.09754 4.70278
#
# Compressibility (1/GPa) = 0.03110352
#
# Stress axis : x y z
#
# Youngs Moduli (GPa) = 21.42399 86.03519 69.01654
#
# Poissons Ratio (x) = 1.00452 0.32041
# Poissons Ratio (y) = 0.25014 0.31227
# Poissons Ratio (z) = 0.09946 0.38928
#
# Static dielectric constant tensor:
#      x y z
#    x 2.661880 0.000000 0.000000 
#    y 0.000000 4.315060 0.000000 
#    z 0.000000 0.000000 3.285010 
# 
# 
# High freq. dielectric constant tensor:
#      x y z
#    x 1.597730 0.000000 0.000000 
#    y 0.000000 1.713900 0.000000 
#    z 0.000000 0.000000 1.690080 
# 
# From -- ./inp_files/11832.got.cif
#   From: 2010.03.12/outbox.cif.g09.slc.cpg/sg47_6_cif.got.tgz:11832.got - 2010.04.14 03:12:58.
