data_PCOD8193500
_publ_section_title
;
Structure prediction by ZEFSAII (Michael W. Deem and Ramdas Pophale) SiO2 
 PCOD8193500
Probable space group: P M M M
;
_chemical_formula_sum "Si O2"
_cell_formula_units_Z 48
_cell_length_a 9.783702
_cell_length_b 14.039085
_cell_length_c 26.270076
_cell_angle_alpha 90.000000
_cell_angle_beta 90.000000
_cell_angle_gamma 90.000000
_cell_volume 3608.305903
_symmetry_space_group_name_H-M "P M M M"
_symmetry_group_IT_number 47
_symmetry_cell_setting 'orthorhombic'
loop_
_space_group_symop_operation_xyz
x,y,z
-x,-y,z
x,-y,-z
-x,y,-z
-x,-y,-z
x,y,-z
-x,y,z
x,-y,z
loop_
_atom_site_type_symbol
_atom_site_label
_atom_site_fract_x
_atom_site_fract_y
_atom_site_fract_z
Si Si1 0.652195 0.113431 0.697004
Si Si2 0.843670 0.609179 0.940917
Si Si3 0.846413 0.114248 0.390726
Si Si4 0.661676 0.106290 0.000000
Si Si5 0.337629 0.228653 0.903672
Si Si6 0.662306 0.894246 0.808971
Si Si7 0.162214 0.104226 0.500000
O O1 0.500000 0.154268 0.687905
O O2 0.749796 0.156379 0.653373
O O3 0.708015 0.143018 0.753017
O O4 0.649090 0.000000 0.694215
O O5 0.822151 0.500000 0.924740
O O6 0.740458 0.671318 0.907183
O O7 0.000000 0.640229 0.930748
O O8 0.806910 0.622859 0.000000
O O9 0.796455 0.155007 0.446384
O O10 0.000000 0.148771 0.378757
O O11 0.841285 0.000000 0.392450
O O12 0.710996 0.161697 0.050051
O O13 0.500000 0.098391 0.000000
O O14 0.725470 0.000000 0.000000
O O15 0.500000 0.246938 0.904724
O O16 0.287221 0.178846 0.851770
O O17 0.500000 0.901857 0.810077
O O18 0.722829 0.000000 0.819854
O O19 0.000000 0.092538 0.500000
O O20 0.231172 0.000000 0.500000
#
# Coordination Sequence:
#
# PCOD8193500 Si02
#       7
#     8   8   8   4   8   8   4
#     4   8  13  21  31  42  58  83 112 138 165 200
#     4   9  18  32  46  57  73  97 116 133 171 224
#     4   8  12  18  28  40  54  74 102 137 174 208
#     4   9  16  24  36  57  80  96 113 141 176 209
#     4  10  17  26  42  62  76  90 117 151 177 201
#     4   8  14  24  37  52  72  97 120 142 174 214
#     4   7  10  16  25  37  53  73  97 129 174 217
#
# _framework density 13.302640999999999
#
# number of rings (size 3 to 8) (size 9 to 14) (size 15 to 20)
#    0.000    3.500    0.833    3.000    0.000    2.333 
#    0.000    2.083    0.000    6.000    0.000    0.000 
#    0.000    0.000    0.000    0.000    0.000    0.000 
#
# Total GULP energy -594681.097028 kJ/mol
# GULP energy per Si atom -12389.189521 kJ/mol
# Density = 1.327236 g / cm^3
# Si number density = 13.302641 Si / 1000 Ang^3
#
#
#
# Elastic Constant Matrix: (Units=GPa)
#
#
# Indices 1 2 3 4 5 6 
#
# 1 45.0767 24.7726 45.1907 0.0000 0.0000 0.0000
# 2 24.7726 46.0006 34.2318 0.0000 0.0000 0.0000
# 3 45.1907 34.2318 130.9174 0.0000 0.0000 0.0000
# 4 0.0000 0.0000 0.0000 3.2954 0.0000 0.0000
# 5 0.0000 0.0000 0.0000 0.0000 18.9691 0.0000
# 6 0.0000 0.0000 0.0000 0.0000 0.0000 11.0013
#
#
#
# Elastic Compliance Matrix: (Units=1/GPa)
#
#
# Indices 1 2 3 4 5 6 
#
# 1 0.040085 -0.014018 -0.010172 0.000000 0.000000 0.000000
# 2 -0.014018 0.031893 -0.003500 0.000000 0.000000 0.000000
# 3 -0.010172 -0.003500 0.012065 0.000000 0.000000 0.000000
# 4 0.000000 0.000000 0.000000 0.303453 0.000000 0.000000
# 5 0.000000 0.000000 0.000000 0.000000 0.052717 0.000000
# 6 0.000000 0.000000 0.000000 0.000000 0.000000 0.090898
#
#
# Mechanical properties :
#
#
# Convention : Reuss Voigt Hill
#
# Bulk Modulus (GPa) = 34.88793 47.82057 41.35425
# Shear Modulus (GPa) = 8.38862 14.50647 11.44755
#
# Velocity S-wave (km/s) = 2.51390 3.30585 2.93669
# Velocity P-wave (km/s) = 5.89148 7.11321 6.53097
#
# Compressibility (1/GPa) = 0.02866321
#
# Stress axis : x y z
#
# Youngs Moduli (GPa) = 24.94670 31.35512 82.88606
#
# Poissons Ratio (x) = 0.43953 0.84308
# Poissons Ratio (y) = 0.34970 0.29014
# Poissons Ratio (z) = 0.25375 0.10976
#
# Static dielectric constant tensor:
#      x y z
#    x 2.501450 0.000000 0.000000 
#    y 0.000000 2.286910 0.000000 
#    z 0.000000 0.000000 3.029570 
# 
# 
# High freq. dielectric constant tensor:
#      x y z
#    x 1.483410 0.000000 0.000000 
#    y 0.000000 1.446320 0.000000 
#    z 0.000000 0.000000 1.513870 
# 
# From -- ./inp_files/32448.got.cif
#   From: 2010.03.12/outbox.cif.g09.slc.cpg/sg47_17_cif.got.tgz:32448.got - 2010.04.14 03:12:58.
