data_PCOD8193625
_publ_section_title
;
Structure prediction by ZEFSAII (Michael W. Deem and Ramdas Pophale) SiO2 
 PCOD8193625
Probable space group: P M M M
;
_chemical_formula_sum "Si O2"
_cell_formula_units_Z 52
_cell_length_a 20.803957
_cell_length_b 16.097589
_cell_length_c 9.065783
_cell_angle_alpha 90.000000
_cell_angle_beta 90.000000
_cell_angle_gamma 90.000000
_cell_volume 3036.072247
_symmetry_space_group_name_H-M "P M M M"
_symmetry_group_IT_number 47
_symmetry_cell_setting 'orthorhombic'
loop_
_space_group_symop_operation_xyz
x,y,z
-x,-y,z
x,-y,-z
-x,y,-z
-x,-y,-z
x,y,-z
-x,y,z
x,-y,z
loop_
_atom_site_type_symbol
_atom_site_label
_atom_site_fract_x
_atom_site_fract_y
_atom_site_fract_z
Si Si1 0.190537 0.404326 0.669552
Si Si2 0.500000 0.905656 0.325251
Si Si3 0.145594 0.000000 0.325884
Si Si4 0.073178 0.333399 0.170819
Si Si5 0.862308 0.836365 0.169547
Si Si6 0.290388 0.000000 0.325423
Si Si7 0.263250 0.736555 0.825857
Si Si8 0.635439 0.160647 0.674871
O O1 0.191799 0.375652 0.500000
O O2 0.209699 0.500000 0.686505
O O3 0.118691 0.391069 0.731165
O O4 0.242738 0.352069 0.760475
O O5 0.500000 0.915440 0.500000
O O6 0.561782 0.852356 0.274448
O O7 0.500000 0.000000 0.259204
O O8 0.114206 0.915634 0.263964
O O9 0.139006 0.000000 0.500000
O O10 0.218353 0.000000 0.265674
O O11 0.086817 0.236413 0.201194
O O12 0.000000 0.353427 0.213464
O O13 0.087424 0.353417 0.000000
O O14 0.791290 0.804364 0.216771
O O15 0.862452 0.863236 0.000000
O O16 0.326903 0.080340 0.266368
O O17 0.291471 0.000000 0.500000
O O18 0.332046 0.761046 0.755930
O O19 0.270092 0.727197 0.000000
O O20 0.641151 0.173277 0.500000
#
# Coordination Sequence:
#
# PCOD8193625 Si02
#       8
#     8   4   4   8   8   4   8   8
#     4  10  21  36  55  80 105 126 153 195 246 298
#     4   9  16  26  45  71 102 141 182 217 247 286
#     4  11  19  27  43  68  91 121 166 212 254 289
#     4   9  19  36  55  74  99 132 165 195 235 292
#     4   9  18  31  46  66  92 123 162 206 246 285
#     4   9  16  24  41  67  94 127 167 209 249 286
#     4  10  20  33  50  72  98 130 166 204 248 298
#     4  10  17  29  47  70 100 136 176 213 248 287
#
# _framework density 17.127392
#
# number of rings (size 3 to 8) (size 9 to 14) (size 15 to 20)
#    0.000    2.385    2.308    2.077    0.000    4.308 
#    0.000    2.692    0.000    2.769    0.000    0.538 
#    0.000    4.308    0.000    0.000    0.000    0.000 
#
# Total GULP energy -644751.383223 kJ/mol
# GULP energy per Si atom -12399.065062 kJ/mol
# Density = 1.708841 g / cm^3
# Si number density = 17.127392 Si / 1000 Ang^3
#
#
#
# Elastic Constant Matrix: (Units=GPa)
#
#
# Indices 1 2 3 4 5 6 
#
# 1 89.5280 33.1630 30.9826 0.0000 0.0000 0.0000
# 2 33.1630 84.3550 43.4173 0.0000 0.0000 0.0000
# 3 30.9826 43.4173 72.5597 0.0000 0.0000 0.0000
# 4 0.0000 0.0000 0.0000 25.6002 0.0000 0.0000
# 5 0.0000 0.0000 0.0000 0.0000 22.1064 0.0000
# 6 0.0000 0.0000 0.0000 0.0000 0.0000 17.6269
#
#
#
# Elastic Compliance Matrix: (Units=1/GPa)
#
#
# Indices 1 2 3 4 5 6 
#
# 1 0.013767 -0.003449 -0.003815 0.000000 0.000000 0.000000
# 2 -0.003449 0.017994 -0.009295 0.000000 0.000000 0.000000
# 3 -0.003815 -0.009295 0.020972 0.000000 0.000000 0.000000
# 4 0.000000 0.000000 0.000000 0.039062 0.000000 0.000000
# 5 0.000000 0.000000 0.000000 0.000000 0.045236 0.000000
# 6 0.000000 0.000000 0.000000 0.000000 0.000000 0.056732
#
#
# Mechanical properties :
#
#
# Convention : Reuss Voigt Hill
#
# Bulk Modulus (GPa) = 50.97544 51.28539 51.13042
# Shear Modulus (GPa) = 21.42064 22.32535 21.87299
#
# Velocity S-wave (km/s) = 3.54031 3.61430 3.57750
# Velocity P-wave (km/s) = 6.82194 6.88666 6.85438
#
# Compressibility (1/GPa) = 0.01961729
#
# Stress axis : x y z
#
# Youngs Moduli (GPa) = 72.63499 55.57256 47.68202
#
# Poissons Ratio (x) = 0.19167 0.18190
# Poissons Ratio (y) = 0.25052 0.44319
# Poissons Ratio (z) = 0.27709 0.51653
#
# Static dielectric constant tensor:
#      x y z
#    x 3.202520 0.000000 0.000000 
#    y 0.000000 3.056280 0.000000 
#    z 0.000000 0.000000 3.035750 
# 
# 
# High freq. dielectric constant tensor:
#      x y z
#    x 1.642920 0.000000 0.000000 
#    y 0.000000 1.648530 0.000000 
#    z 0.000000 0.000000 1.651060 
# 
# From -- ./inp_files/7129.got.cif
#   From: 2010.03.12/outbox.cif.g09.slc.cpg/sg47_4_cif.got.tgz:7129.got - 2010.04.14 03:12:58.
