data_PCOD8193584
_publ_section_title
;
Structure prediction by ZEFSAII (Michael W. Deem and Ramdas Pophale) SiO2 
 PCOD8193584
Probable space group: P M M M
;
_chemical_formula_sum "Si O2"
_cell_formula_units_Z 52
_cell_length_a 15.357976
_cell_length_b 18.699489
_cell_length_c 11.934944
_cell_angle_alpha 90.000000
_cell_angle_beta 90.000000
_cell_angle_gamma 90.000000
_cell_volume 3427.552447
_symmetry_space_group_name_H-M "P M M M"
_symmetry_group_IT_number 47
_symmetry_cell_setting 'orthorhombic'
loop_
_space_group_symop_operation_xyz
x,y,z
-x,-y,z
x,-y,-z
-x,y,-z
-x,-y,-z
x,y,-z
-x,y,z
x,-y,z
loop_
_atom_site_type_symbol
_atom_site_label
_atom_site_fract_x
_atom_site_fract_y
_atom_site_fract_z
Si Si1 0.103295 0.420526 0.720970
Si Si2 0.595633 0.083907 0.734781
Si Si3 0.151170 0.178167 0.500000
Si Si4 0.103335 0.663009 0.500000
Si Si5 0.103326 0.702634 0.124715
Si Si6 0.901527 0.157101 0.253712
Si Si7 0.245209 0.084026 0.875354
Si Si8 0.678839 0.917031 0.500000
O O1 0.144250 0.500000 0.730294
O O2 0.131753 0.383663 0.605863
O O3 0.137941 0.372033 0.823747
O O4 0.000000 0.426007 0.724253
O O5 0.500000 0.117363 0.759876
O O6 0.668580 0.117813 0.817109
O O7 0.619893 0.099548 0.606847
O O8 0.591695 0.000000 0.755942
O O9 0.158948 0.264089 0.500000
O O10 0.100090 0.154541 0.611718
O O11 0.243195 0.139130 0.500000
O O12 0.000000 0.681881 0.500000
O O13 0.132327 0.766791 0.206420
O O14 0.000000 0.700731 0.119259
O O15 0.142627 0.712549 0.000000
O O16 0.839433 0.097637 0.200455
O O17 0.000000 0.141465 0.214024
O O18 0.256499 0.000000 0.883333
O O19 0.234437 0.117043 0.000000
O O20 0.712291 0.000000 0.500000
#
# Coordination Sequence:
#
# PCOD8193584 Si02
#       8
#     8   8   4   4   8   8   8   4
#     4   9  16  25  39  58  79 104 138 185 232 265
#     4   9  17  31  51  71  90 112 138 176 229 282
#     4  12  20  30  50  66  84 115 150 192 234 267
#     4  10  17  28  41  58  82 111 148 186 223 266
#     4   9  17  28  41  57  79 110 148 184 219 265
#     4  11  21  33  47  63  86 119 157 195 232 266
#     4  10  21  35  49  67  90 116 151 191 226 267
#     4  10  19  32  49  69  92 114 142 185 233 275
#
# _framework density 15.171175
#
# number of rings (size 3 to 8) (size 9 to 14) (size 15 to 20)
#    0.000    2.154    3.077    1.615    0.000    3.692 
#    0.000    3.846    0.000    2.538    0.000    0.000 
#    0.000    0.000    0.000    0.000    0.000   31.538 
#
# Total GULP energy -644541.447116 kJ/mol
# GULP energy per Si atom -12395.027829 kJ/mol
# Density = 1.513664 g / cm^3
# Si number density = 15.171175 Si / 1000 Ang^3
#
#
#
# Elastic Constant Matrix: (Units=GPa)
#
#
# Indices 1 2 3 4 5 6 
#
# 1 74.8414 24.3456 32.4534 0.0000 0.0000 0.0000
# 2 24.3456 44.1340 22.4900 0.0000 0.0000 0.0000
# 3 32.4534 22.4900 123.6371 0.0000 0.0000 0.0000
# 4 0.0000 0.0000 0.0000 19.5570 0.0000 0.0000
# 5 0.0000 0.0000 0.0000 0.0000 15.2987 0.0000
# 6 0.0000 0.0000 0.0000 0.0000 0.0000 3.6551
#
#
#
# Elastic Compliance Matrix: (Units=1/GPa)
#
#
# Indices 1 2 3 4 5 6 
#
# 1 0.017292 -0.007964 -0.003090 0.000000 0.000000 0.000000
# 2 -0.007964 0.028641 -0.003119 0.000000 0.000000 0.000000
# 3 -0.003090 -0.003119 0.009467 0.000000 0.000000 0.000000
# 4 0.000000 0.000000 0.000000 0.051133 0.000000 0.000000
# 5 0.000000 0.000000 0.000000 0.000000 0.065365 0.000000
# 6 0.000000 0.000000 0.000000 0.000000 0.000000 0.273588
#
#
# Mechanical properties :
#
#
# Convention : Reuss Voigt Hill
#
# Bulk Modulus (GPa) = 36.96526 44.57673 40.77100
# Shear Modulus (GPa) = 10.35516 18.59040 14.47278
#
# Velocity S-wave (km/s) = 2.61541 3.50434 3.09198
# Velocity P-wave (km/s) = 5.79127 6.76906 6.29917
#
# Compressibility (1/GPa) = 0.02705242
#
# Stress axis : x y z
#
# Youngs Moduli (GPa) = 57.82897 34.91483 105.63237
#
# Poissons Ratio (x) = 0.27807 0.32644
# Poissons Ratio (y) = 0.46056 0.32951
# Poissons Ratio (z) = 0.17871 0.10891
#
# Static dielectric constant tensor:
#      x y z
#    x 2.701890 0.000000 0.000000 
#    y 0.000000 2.871000 0.000000 
#    z 0.000000 0.000000 3.254860 
# 
# 
# High freq. dielectric constant tensor:
#      x y z
#    x 1.532330 0.000000 0.000000 
#    y 0.000000 1.557030 0.000000 
#    z 0.000000 0.000000 1.603380 
# 
# From -- ./inp_files/17827.got.cif
#   From: 2010.03.12/outbox.cif.g09.slc.cpg/sg47_9_cif.got.tgz:17827.got - 2010.04.14 03:12:58.
