data_PCOD8193653
_publ_section_title
;
Structure prediction by ZEFSAII (Michael W. Deem and Ramdas Pophale) SiO2 
 PCOD8193653
Probable space group: P M M M
;
_chemical_formula_sum "Si O2"
_cell_formula_units_Z 42
_cell_length_a 12.527729
_cell_length_b 17.707737
_cell_length_c 11.706472
_cell_angle_alpha 90.000000
_cell_angle_beta 90.000000
_cell_angle_gamma 90.000000
_cell_volume 2596.937179
_symmetry_space_group_name_H-M "P M M M"
_symmetry_group_IT_number 47
_symmetry_cell_setting 'orthorhombic'
loop_
_space_group_symop_operation_xyz
x,y,z
-x,-y,z
x,-y,-z
-x,y,-z
-x,-y,-z
x,y,-z
-x,y,z
x,-y,z
loop_
_atom_site_type_symbol
_atom_site_label
_atom_site_fract_x
_atom_site_fract_y
_atom_site_fract_z
Si Si1 0.876330 0.797379 0.133031
Si Si2 0.732286 0.159021 0.500000
Si Si3 0.500000 0.082840 0.254787
Si Si4 0.500000 0.869423 0.500000
Si Si5 0.875372 0.352306 0.746869
Si Si6 0.731843 0.089858 0.257469
Si Si7 0.123201 0.305323 0.500000
Si Si8 0.872541 0.500000 0.869650
O O1 0.828048 0.724816 0.199684
O O2 0.815386 0.872325 0.172187
O O3 0.000000 0.809786 0.163026
O O4 0.858490 0.783312 0.000000
O O5 0.606726 0.182623 0.500000
O O6 0.759994 0.110134 0.388073
O O7 0.803123 0.232913 0.500000
O O8 0.500000 0.075267 0.392078
O O9 0.612924 0.121589 0.220688
O O10 0.500000 0.000000 0.200476
O O11 0.852257 0.355837 0.611417
O O12 0.824598 0.426091 0.806486
O O13 0.000000 0.352273 0.774496
O O14 0.737871 0.000000 0.242893
O O15 0.000000 0.278140 0.500000
O O16 0.000000 0.500000 0.862486
O O17 0.833017 0.500000 0.000000
#
# Coordination Sequence:
#
# PCOD8193653 Si02
#       8
#     8   4   4   2   8   8   4   4
#     4  10  20  33  47  63  89 125 160 193 230 273
#     4  10  17  30  47  68  94 118 152 191 232 279
#     4   8  15  28  45  66  89 111 144 192 242 283
#     4   8  15  24  44  68  88 115 144 188 234 273
#     4   9  17  29  45  66  92 122 154 186 226 273
#     4  10  19  31  48  68  90 119 155 195 237 277
#     4  10  18  28  45  67  97 128 147 179 232 282
#     4   9  16  27  45  67  91 122 160 192 216 259
#
# _framework density 16.172896999999999
#
# number of rings (size 3 to 8) (size 9 to 14) (size 15 to 20)
#    0.000    2.571    1.905    1.000    0.000    5.714 
#    0.000    3.333    0.000    3.429    0.000    0.000 
#    0.000    3.810    0.000    5.524    0.000    2.286 
#
# Total GULP energy -520472.235087 kJ/mol
# GULP energy per Si atom -12392.196074 kJ/mol
# Density = 1.613609 g / cm^3
# Si number density = 16.172897 Si / 1000 Ang^3
#
#
#
# Elastic Constant Matrix: (Units=GPa)
#
#
# Indices 1 2 3 4 5 6 
#
# 1 56.4043 36.8117 36.2107 0.0000 0.0000 0.0000
# 2 36.8117 100.5960 45.8506 0.0000 0.0000 0.0000
# 3 36.2107 45.8506 94.4934 0.0000 0.0000 0.0000
# 4 0.0000 0.0000 0.0000 27.3109 0.0000 0.0000
# 5 0.0000 0.0000 0.0000 0.0000 16.3643 0.0000
# 6 0.0000 0.0000 0.0000 0.0000 0.0000 4.7185
#
#
#
# Elastic Compliance Matrix: (Units=1/GPa)
#
#
# Indices 1 2 3 4 5 6 
#
# 1 0.026453 -0.006497 -0.006985 0.000000 0.000000 0.000000
# 2 -0.006497 0.014359 -0.004478 0.000000 0.000000 0.000000
# 3 -0.006985 -0.004478 0.015432 0.000000 0.000000 0.000000
# 4 0.000000 0.000000 0.000000 0.036615 0.000000 0.000000
# 5 0.000000 0.000000 0.000000 0.000000 0.061109 0.000000
# 6 0.000000 0.000000 0.000000 0.000000 0.000000 0.211933
#
#
# Mechanical properties :
#
#
# Convention : Reuss Voigt Hill
#
# Bulk Modulus (GPa) = 49.19812 54.35998 51.77905
# Shear Modulus (GPa) = 12.23706 18.52012 15.37859
#
# Velocity S-wave (km/s) = 2.75369 3.38765 3.08699
# Velocity P-wave (km/s) = 6.37154 6.99902 6.69264
#
# Compressibility (1/GPa) = 0.02032598
#
# Stress axis : x y z
#
# Youngs Moduli (GPa) = 37.80258 69.64260 64.79987
#
# Poissons Ratio (x) = 0.45244 0.45261
# Poissons Ratio (y) = 0.24559 0.29016
# Poissons Ratio (z) = 0.26404 0.31185
#
# Static dielectric constant tensor:
#      x y z
#    x 2.968410 0.000000 0.000000 
#    y 0.000000 3.014090 0.000000 
#    z 0.000000 0.000000 3.122420 
# 
# 
# High freq. dielectric constant tensor:
#      x y z
#    x 1.586630 0.000000 0.000000 
#    y 0.000000 1.605500 0.000000 
#    z 0.000000 0.000000 1.628380 
# 
# From -- ./inp_files/16299.got.cif
#   From: 2010.03.12/outbox.cif.g09.slc.cpg/sg47_9_cif.got.tgz:16299.got - 2010.04.14 03:12:58.
