data_PCOD8193912
_publ_section_title
;
Structure prediction by ZEFSAII (Michael W. Deem and Ramdas Pophale) SiO2 
 PCOD8193912
Probable space group: P M M M
;
_chemical_formula_sum "Si O2"
_cell_formula_units_Z 52
_cell_length_a 8.813872
_cell_length_b 11.864148
_cell_length_c 28.231528
_cell_angle_alpha 90.000000
_cell_angle_beta 90.000000
_cell_angle_gamma 90.000000
_cell_volume 2952.144962
_symmetry_space_group_name_H-M "P M M M"
_symmetry_group_IT_number 47
_symmetry_cell_setting 'orthorhombic'
loop_
_space_group_symop_operation_xyz
x,y,z
-x,-y,z
x,-y,-z
-x,y,-z
-x,-y,-z
x,y,-z
-x,y,z
x,-y,z
loop_
_atom_site_type_symbol
_atom_site_label
_atom_site_fract_x
_atom_site_fract_y
_atom_site_fract_z
Si Si1 0.679410 0.630301 0.596823
Si Si2 0.830001 0.366683 0.500000
Si Si3 0.323667 0.254280 0.141599
Si Si4 0.176584 0.500000 0.735796
Si Si5 0.180501 0.723101 0.312853
Si Si6 0.680448 0.872290 0.051788
Si Si7 0.672780 0.500000 0.167250
Si Si8 0.677715 0.130969 0.764674
O O1 0.500000 0.641354 0.597776
O O2 0.729464 0.500000 0.606583
O O3 0.739701 0.673708 0.546308
O O4 0.752173 0.716753 0.634444
O O5 0.837994 0.500000 0.500000
O O6 0.000000 0.315571 0.500000
O O7 0.500000 0.222954 0.142039
O O8 0.247690 0.201028 0.094511
O O9 0.296365 0.388099 0.136781
O O10 0.256077 0.201436 0.190234
O O11 0.246859 0.388031 0.713024
O O12 0.208632 0.500000 0.790855
O O13 0.000000 0.500000 0.726080
O O14 0.239560 0.830600 0.283540
O O15 0.000000 0.727858 0.315348
O O16 0.500000 0.864016 0.052555
O O17 0.733310 0.000000 0.059974
O O18 0.738693 0.829961 0.000000
O O19 0.500000 0.500000 0.186935
O O20 0.500000 0.153460 0.758094
O O21 0.713153 0.000000 0.773470
#
# Coordination Sequence:
#
# PCOD8193912 Si02
#       8
#     8   4   8   4   8   8   4   8
#     4  10  19  30  47  71 100 133 169 206 245 291
#     4   9  17  29  45  67 100 137 170 205 247 292
#     4   9  16  26  41  63  90 121 157 194 236 289
#     4  10  20  32  46  66  94 127 162 198 236 286
#     4  11  21  33  49  70  98 129 163 201 245 294
#     4   8  13  22  37  57  84 120 158 194 236 288
#     4  10  18  28  45  66  91 123 156 192 239 292
#     4  10  20  33  49  69  94 125 161 201 244 290
#
# _framework density 17.61431
#
# number of rings (size 3 to 8) (size 9 to 14) (size 15 to 20)
#    0.000    2.385    2.308    2.077    0.000    4.308 
#    0.000    0.385    0.000    2.308    0.000    0.538 
#    0.000    7.385    0.000    8.462    0.000    7.692 
#
# Total GULP energy -644595.639389 kJ/mol
# GULP energy per Si atom -12396.069988 kJ/mol
# Density = 1.757422 g / cm^3
# Si number density = 17.614310 Si / 1000 Ang^3
#
#
#
# Elastic Constant Matrix: (Units=GPa)
#
#
# Indices 1 2 3 4 5 6 
#
# 1 45.8868 25.1840 33.0513 0.0000 0.0000 0.0000
# 2 25.1840 88.9977 59.6190 0.0000 0.0000 0.0000
# 3 33.0513 59.6190 158.8299 0.0000 0.0000 0.0000
# 4 0.0000 0.0000 0.0000 25.0350 0.0000 0.0000
# 5 0.0000 0.0000 0.0000 0.0000 10.8416 0.0000
# 6 0.0000 0.0000 0.0000 0.0000 0.0000 14.3204
#
#
#
# Elastic Compliance Matrix: (Units=1/GPa)
#
#
# Indices 1 2 3 4 5 6 
#
# 1 0.027354 -0.005247 -0.003723 0.000000 0.000000 0.000000
# 2 -0.005247 0.016017 -0.004920 0.000000 0.000000 0.000000
# 3 -0.003723 -0.004920 0.008918 0.000000 0.000000 0.000000
# 4 0.000000 0.000000 0.000000 0.039944 0.000000 0.000000
# 5 0.000000 0.000000 0.000000 0.000000 0.092237 0.000000
# 6 0.000000 0.000000 0.000000 0.000000 0.000000 0.069830
#
#
# Mechanical properties :
#
#
# Convention : Reuss Voigt Hill
#
# Bulk Modulus (GPa) = 40.80143 58.82476 49.81310
# Shear Modulus (GPa) = 17.22658 21.76341 19.49499
#
# Velocity S-wave (km/s) = 3.13067 3.51886 3.33042
# Velocity P-wave (km/s) = 6.02347 7.06953 6.56736
#
# Compressibility (1/GPa) = 0.02450894
#
# Stress axis : x y z
#
# Youngs Moduli (GPa) = 36.55824 62.43340 112.13679
#
# Poissons Ratio (x) = 0.32756 0.41745
# Poissons Ratio (y) = 0.19180 0.55177
# Poissons Ratio (z) = 0.13610 0.30720
#
# Static dielectric constant tensor:
#      x y z
#    x 2.927500 0.000000 0.000000 
#    y 0.000000 3.147640 0.000000 
#    z 0.000000 0.000000 3.533670 
# 
# 
# High freq. dielectric constant tensor:
#      x y z
#    x 1.649830 0.000000 0.000000 
#    y 0.000000 1.653610 0.000000 
#    z 0.000000 0.000000 1.688380 
# 
# From -- ./inp_files/15583.got.cif
#   From: 2010.03.12/outbox.cif.g09.slc.cpg/sg47_8_cif.got.tgz:15583.got - 2010.04.14 03:12:58.
