data_PCOD8193456
_publ_section_title
;
Structure prediction by ZEFSAII (Michael W. Deem and Ramdas Pophale) SiO2 
 PCOD8193456
Probable space group: P M M M
;
_chemical_formula_sum "Si O2"
_cell_formula_units_Z 40
_cell_length_a 20.329675
_cell_length_b 8.683478
_cell_length_c 11.729264
_cell_angle_alpha 90.000000
_cell_angle_beta 90.000000
_cell_angle_gamma 90.000000
_cell_volume 2070.593782
_symmetry_space_group_name_H-M "P M M M"
_symmetry_group_IT_number 47
_symmetry_cell_setting 'orthorhombic'
loop_
_space_group_symop_operation_xyz
x,y,z
-x,-y,z
x,-y,-z
-x,y,-z
-x,-y,-z
x,y,-z
-x,y,z
x,-y,z
loop_
_atom_site_type_symbol
_atom_site_label
_atom_site_fract_x
_atom_site_fract_y
_atom_site_fract_z
Si Si1 0.378303 0.182386 0.239031
Si Si2 0.135588 0.177174 0.779609
Si Si3 0.000000 0.814823 0.869001
Si Si4 0.642126 0.678740 0.000000
Si Si5 0.221845 0.173373 0.000000
Si Si6 0.500000 0.323495 0.634702
Si Si7 0.249569 0.815921 0.628042
O O1 0.389588 0.247017 0.112489
O O2 0.435720 0.239464 0.319996
O O3 0.309261 0.242420 0.292225
O O4 0.379349 0.000000 0.233327
O O5 0.179531 0.248397 0.676794
O O6 0.063653 0.251960 0.800716
O O7 0.123360 0.000000 0.751986
O O8 0.177066 0.200707 0.892421
O O9 0.000000 0.000000 0.871828
O O10 0.000000 0.755323 0.000000
O O11 0.720043 0.704539 0.000000
O O12 0.625537 0.500000 0.000000
O O13 0.251950 0.000000 0.000000
O O14 0.500000 0.500000 0.675093
O O15 0.500000 0.308581 0.500000
O O16 0.258857 0.752340 0.500000
O O17 0.248918 0.000000 0.629466
#
# Coordination Sequence:
#
# PCOD8193456 Si02
#       7
#     8   8   4   4   4   4   8
#     4  11  22  39  63  86 111 148 196 236 274 334
#     4   9  15  24  42  70 104 138 181 230 277 327
#     4   9  14  20  35  65 103 141 179 224 279 334
#     4  12  24  37  56  87 121 145 175 229 300 354
#     4  10  16  29  51  75 104 143 186 229 273 332
#     4  11  25  44  63  88 125 159 187 229 282 327
#     4   9  17  29  48  75 105 138 181 232 275 316
#
# _framework density 19.318128999999999
#
# number of rings (size 3 to 8) (size 9 to 14) (size 15 to 20)
#    0.000    2.000    3.000    2.400    0.000    2.000 
#    0.000    2.500    0.000    3.000    0.000    1.400 
#    0.000    0.000    0.000    1.800    0.000    2.000 
#
# Total GULP energy -495801.935507 kJ/mol
# GULP energy per Si atom -12395.048388 kJ/mol
# Density = 1.927416 g / cm^3
# Si number density = 19.318129 Si / 1000 Ang^3
#
#
#
# Elastic Constant Matrix: (Units=GPa)
#
#
# Indices 1 2 3 4 5 6 
#
# 1 131.9998 25.1126 47.7606 0.0000 0.0000 0.0000
# 2 25.1126 51.9429 28.2558 0.0000 0.0000 0.0000
# 3 47.7606 28.2558 126.9538 0.0000 0.0000 0.0000
# 4 0.0000 0.0000 0.0000 29.7074 0.0000 0.0000
# 5 0.0000 0.0000 0.0000 0.0000 42.8735 0.0000
# 6 0.0000 0.0000 0.0000 0.0000 0.0000 6.6606
#
#
#
# Elastic Compliance Matrix: (Units=1/GPa)
#
#
# Indices 1 2 3 4 5 6 
#
# 1 0.009138 -0.002899 -0.002792 0.000000 0.000000 0.000000
# 2 -0.002899 0.022823 -0.003989 0.000000 0.000000 0.000000
# 3 -0.002792 -0.003989 0.009815 0.000000 0.000000 0.000000
# 4 0.000000 0.000000 0.000000 0.033662 0.000000 0.000000
# 5 0.000000 0.000000 0.000000 0.000000 0.023324 0.000000
# 6 0.000000 0.000000 0.000000 0.000000 0.000000 0.150137
#
#
# Mechanical properties :
#
#
# Convention : Reuss Voigt Hill
#
# Bulk Modulus (GPa) = 44.61194 57.01717 50.81455
# Shear Modulus (GPa) = 18.13354 29.83280 23.98317
#
# Velocity S-wave (km/s) = 3.06711 3.93401 3.52729
# Velocity P-wave (km/s) = 5.97380 7.08620 6.55364
#
# Compressibility (1/GPa) = 0.02241553
#
# Stress axis : x y z
#
# Youngs Moduli (GPa) = 109.43779 43.81467 101.88180
#
# Poissons Ratio (x) = 0.12700 0.28450
# Poissons Ratio (y) = 0.31723 0.40643
# Poissons Ratio (z) = 0.30560 0.17479
#
# Static dielectric constant tensor:
#      x y z
#    x 3.784050 0.000000 0.000000 
#    y 0.000000 3.048310 0.000000 
#    z 0.000000 0.000000 3.548100 
# 
# 
# High freq. dielectric constant tensor:
#      x y z
#    x 1.762200 0.000000 0.000000 
#    y 0.000000 1.694720 0.000000 
#    z 0.000000 0.000000 1.758850 
# 
# From -- ./inp_files/18996.got.cif
#   From: 2010.03.12/outbox.cif.g09.slc.cpg/sg47_10_cif.got.tgz:18996.got - 2010.04.14 03:12:58.
