data_PCOD8193699
_publ_section_title
;
Structure prediction by ZEFSAII (Michael W. Deem and Ramdas Pophale) SiO2 
 PCOD8193699
Probable space group: P M M M
;
_chemical_formula_sum "Si O2"
_cell_formula_units_Z 60
_cell_length_a 23.844971
_cell_length_b 9.236039
_cell_length_c 18.312982
_cell_angle_alpha 90.000000
_cell_angle_beta 90.000000
_cell_angle_gamma 90.000000
_cell_volume 4033.124468
_symmetry_space_group_name_H-M "P M M M"
_symmetry_group_IT_number 47
_symmetry_cell_setting 'orthorhombic'
loop_
_space_group_symop_operation_xyz
x,y,z
-x,-y,z
x,-y,-z
-x,y,-z
-x,-y,-z
x,y,-z
-x,y,z
x,-y,z
loop_
_atom_site_type_symbol
_atom_site_label
_atom_site_fract_x
_atom_site_fract_y
_atom_site_fract_z
Si Si1 0.110835 0.162358 0.203247
Si Si2 0.063841 0.666426 0.331203
Si Si3 0.772222 0.839886 0.286385
Si Si4 0.833372 0.331606 0.083892
Si Si5 0.280629 0.331362 0.834267
Si Si6 0.621492 0.167429 0.913462
Si Si7 0.500000 0.829334 0.079465
Si Si8 0.156397 0.830637 0.416621
O O1 0.068361 0.253476 0.253209
O O2 0.170135 0.157724 0.242642
O O3 0.118675 0.240868 0.125350
O O4 0.087370 0.000000 0.191035
O O5 0.082686 0.500000 0.321132
O O6 0.102120 0.740166 0.392735
O O7 0.000000 0.677024 0.358544
O O8 0.728755 0.732425 0.247182
O O9 0.788630 0.788275 0.368452
O O10 0.745113 0.000000 0.287583
O O11 0.846744 0.500000 0.094878
O O12 0.771785 0.294213 0.114094
O O13 0.834970 0.284781 0.000000
O O14 0.290339 0.500000 0.825258
O O15 0.335261 0.264959 0.870379
O O16 0.559217 0.211985 0.882250
O O17 0.634831 0.000000 0.897089
O O18 0.625120 0.197521 0.000000
O O19 0.500000 0.000000 0.067863
O O20 0.500000 0.754653 0.000000
O O21 0.170900 0.794343 0.500000
O O22 0.142316 0.000000 0.404659
#
# Coordination Sequence:
#
# PCOD8193699 Si02
#       8
#     8   8   8   8   8   8   4   8
#     4   9  17  29  45  62  79 102 133 168 204 241
#     4  10  20  32  46  64  85 109 136 163 192 232
#     4   8  15  28  43  59  80 106 134 160 192 237
#     4   9  17  28  41  58  82 109 133 162 205 253
#     4  10  18  26  38  58  83 108 136 170 204 238
#     4   9  16  26  40  56  76 106 144 182 216 248
#     4   7  12  24  39  53  71 101 142 181 214 249
#     4   9  18  32  49  68  88 109 133 162 196 233
#
# _framework density 14.876803000000001
#
# number of rings (size 3 to 8) (size 9 to 14) (size 15 to 20)
#    0.000    3.000    0.000    3.200    0.000    6.400 
#    0.000    1.667    0.000    1.600    0.000    2.800 
#    0.000    0.000    0.000    0.600    0.000   13.733 
#
# Total GULP energy -743615.243461 kJ/mol
# GULP energy per Si atom -12393.587391 kJ/mol
# Density = 1.484294 g / cm^3
# Si number density = 14.876803 Si / 1000 Ang^3
#
#
#
# Elastic Constant Matrix: (Units=GPa)
#
#
# Indices 1 2 3 4 5 6 
#
# 1 52.5293 36.8083 37.4912 0.0000 0.0000 0.0000
# 2 36.8083 78.9230 47.5273 0.0000 0.0000 0.0000
# 3 37.4912 47.5273 105.7103 0.0000 0.0000 0.0000
# 4 0.0000 0.0000 0.0000 19.6809 0.0000 0.0000
# 5 0.0000 0.0000 0.0000 0.0000 12.8434 0.0000
# 6 0.0000 0.0000 0.0000 0.0000 0.0000 19.5942
#
#
#
# Elastic Compliance Matrix: (Units=1/GPa)
#
#
# Indices 1 2 3 4 5 6 
#
# 1 0.030945 -0.010727 -0.006152 0.000000 0.000000 0.000000
# 2 -0.010727 0.021094 -0.005679 0.000000 0.000000 0.000000
# 3 -0.006152 -0.005679 0.014195 0.000000 0.000000 0.000000
# 4 0.000000 0.000000 0.000000 0.050811 0.000000 0.000000
# 5 0.000000 0.000000 0.000000 0.000000 0.077861 0.000000
# 6 0.000000 0.000000 0.000000 0.000000 0.000000 0.051036
#
#
# Mechanical properties :
#
#
# Convention : Reuss Voigt Hill
#
# Bulk Modulus (GPa) = 47.35623 53.42401 50.39012
# Shear Modulus (GPa) = 16.77315 18.11275 17.44295
#
# Velocity S-wave (km/s) = 3.36142 3.49308 3.42788
# Velocity P-wave (km/s) = 6.85324 7.22895 7.04360
#
# Compressibility (1/GPa) = 0.02111655
#
# Stress axis : x y z
#
# Youngs Moduli (GPa) = 32.31587 47.40774 70.44778
#
# Poissons Ratio (x) = 0.50856 0.43338
# Poissons Ratio (y) = 0.34667 0.40008
# Poissons Ratio (z) = 0.19880 0.26923
#
# Static dielectric constant tensor:
#      x y z
#    x 2.770880 0.000000 0.000000 
#    y 0.000000 2.951270 0.000000 
#    z 0.000000 0.000000 2.921630 
# 
# 
# High freq. dielectric constant tensor:
#      x y z
#    x 1.539130 0.000000 0.000000 
#    y 0.000000 1.573870 0.000000 
#    z 0.000000 0.000000 1.549610 
# 
# From -- ./inp_files/28888.got.cif
#   From: 2010.03.12/outbox.cif.g09.slc.cpg/sg47_15_cif.got.tgz:28888.got - 2010.04.14 03:12:58.
