data_PCOD8193015
_publ_section_title
;
Structure prediction by ZEFSAII (Michael W. Deem and Ramdas Pophale) SiO2 
 PCOD8193015
Probable space group: I M A 2
;
_chemical_formula_sum "Si O2"
_cell_formula_units_Z 56
_cell_length_a 21.793139
_cell_length_b 8.761434
_cell_length_c 14.199238
_cell_angle_alpha 90.000000
_cell_angle_beta 90.000000
_cell_angle_gamma 90.000000
_cell_volume 2711.190420
_symmetry_space_group_name_H-M "I M A 2"
_symmetry_group_IT_number 46
_symmetry_cell_setting 'orthorhombic'
loop_
_space_group_symop_operation_xyz
x,y,z
-x,-y,z
1/2-x,y,z
1/2+x,-y,z
1/2+x,1/2+y,1/2+z
1/2-x,1/2-y,1/2+z
-x,1/2+y,1/2+z
x,1/2-y,1/2+z
loop_
_atom_site_type_symbol
_atom_site_label
_atom_site_fract_x
_atom_site_fract_y
_atom_site_fract_z
Si Si1 0.392697 0.620158 0.000000
Si Si2 0.678919 0.910007 0.378399
Si Si3 0.890526 0.625958 0.359861
Si Si4 0.180119 0.616992 0.710897
Si Si5 0.508590 0.323156 0.845319
Si Si6 0.179032 0.581144 0.501668
Si Si7 0.412828 0.873444 0.711906
O O1 0.424495 0.595386 0.101531
O O2 0.362341 0.460125 0.967803
O O3 0.445039 0.683809 0.931963
O O4 0.336519 0.739768 0.996878
O O5 0.750000 0.935972 0.400604
O O6 0.668809 0.734122 0.350277
O O7 0.653243 0.007379 0.290702
O O8 0.872405 0.510145 0.443331
O O9 0.905365 0.533789 0.265070
O O10 0.947455 0.738245 0.382736
O O11 0.250000 0.651497 0.731437
O O12 0.170594 0.533134 0.610789
O O13 0.149988 0.781597 0.721099
O O14 0.500000 0.500000 0.814933
O O15 0.532403 0.228080 0.755124
O O16 0.250000 0.555422 0.468705
#
# Coordination Sequence:
#
# PCOD8193015 Si02
#       7
#     8   8   8   8   8   8   8
#     4  11  23  44  68  97 129 176 220 270 331 396
#     4  11  22  41  66  95 133 176 214 268 335 396
#     4  12  24  41  65  94 137 168 219 275 323 389
#     4   9  19  39  66  93 130 172 214 264 328 398
#     4  12  24  47  65  90 132 177 224 273 330 392
#     4  10  21  39  66  99 130 167 218 271 328 395
#     4  11  24  42  66 100 128 168 227 272 330 386
#
# _framework density 20.655131999999998
#
# number of rings (size 3 to 8) (size 9 to 14) (size 15 to 20)
#    0.000    1.143    4.286    1.286    0.000    5.143 
#    7.714    1.429    0.000    0.000    0.000    0.000 
#    0.000    0.000    0.000    0.000    0.000    0.000 
#
# Total GULP energy -347118.452231 kJ/mol
# GULP energy per Si atom -12397.087580 kJ/mol
# Density = 2.060812 g / cm^3
# Si number density = 20.655132 Si / 1000 Ang^3
#
#
#
# Elastic Constant Matrix: (Units=GPa)
#
#
# Indices 1 2 3 4 5 6 
#
# 1 88.0291 37.0587 52.9330 0.0000 0.0000 0.0000
# 2 37.0587 112.6984 47.0605 0.0000 0.0000 0.0000
# 3 52.9330 47.0605 120.1338 0.0000 0.0000 0.0000
# 4 0.0000 0.0000 0.0000 13.6345 0.0000 0.0000
# 5 0.0000 0.0000 0.0000 0.0000 25.9884 0.0000
# 6 0.0000 0.0000 0.0000 0.0000 0.0000 41.9337
#
#
#
# Elastic Compliance Matrix: (Units=1/GPa)
#
#
# Indices 1 2 3 4 5 6 
#
# 1 0.016160 -0.002798 -0.006024 0.000000 0.000000 0.000000
# 2 -0.002798 0.011093 -0.003113 0.000000 0.000000 0.000000
# 3 -0.006024 -0.003113 0.012198 0.000000 0.000000 0.000000
# 4 0.000000 0.000000 0.000000 0.073343 0.000000 0.000000
# 5 0.000000 0.000000 0.000000 0.000000 0.038479 0.000000
# 6 0.000000 0.000000 0.000000 0.000000 0.000000 0.023847
#
#
# Mechanical properties :
#
#
# Convention : Reuss Voigt Hill
#
# Bulk Modulus (GPa) = 64.18151 66.10728 65.14440
# Shear Modulus (GPa) = 24.48764 28.56527 26.52646
#
# Velocity S-wave (km/s) = 3.44691 3.72285 3.58754
# Velocity P-wave (km/s) = 6.85434 7.11015 6.98342
#
# Compressibility (1/GPa) = 0.01558081
#
# Stress axis : x y z
#
# Youngs Moduli (GPa) = 61.87936 90.14543 81.98220
#
# Poissons Ratio (x) = 0.25227 0.49389
# Poissons Ratio (y) = 0.17317 0.25517
# Poissons Ratio (z) = 0.37278 0.28058
#
# Static dielectric constant tensor:
#      x y z
#    x 3.799080 0.000000 0.000000 
#    y 0.000000 3.791710 0.000000 
#    z 0.000000 0.000000 3.876880 
# 
# 
# High freq. dielectric constant tensor:
#      x y z
#    x 1.816390 0.000000 0.000000 
#    y 0.000000 1.808050 0.000000 
#    z 0.000000 0.000000 1.804630 
# 
# From -- ./inp_files/17090.got.cif
#   From: 2010.03.12/outbox.cif.g09.slc.cpg/sg46_9_cif.got.tgz:17090.got - 2010.04.14 02:56:35.
