data_PCOD8193138
_publ_section_title
;
Structure prediction by ZEFSAII (Michael W. Deem and Ramdas Pophale) SiO2 
 PCOD8193138
Probable space group: I M A 2
;
_chemical_formula_sum "Si O2"
_cell_formula_units_Z 56
_cell_length_a 14.248972
_cell_length_b 14.280605
_cell_length_c 11.908041
_cell_angle_alpha 90.000000
_cell_angle_beta 90.000000
_cell_angle_gamma 90.000000
_cell_volume 2423.095110
_symmetry_space_group_name_H-M "I M A 2"
_symmetry_group_IT_number 46
_symmetry_cell_setting 'orthorhombic'
loop_
_space_group_symop_operation_xyz
x,y,z
-x,-y,z
1/2-x,y,z
1/2+x,-y,z
1/2+x,1/2+y,1/2+z
1/2-x,1/2-y,1/2+z
-x,1/2+y,1/2+z
x,1/2-y,1/2+z
loop_
_atom_site_type_symbol
_atom_site_label
_atom_site_fract_x
_atom_site_fract_y
_atom_site_fract_z
Si Si1 0.045040 0.878455 0.483300
Si Si2 0.606802 0.482154 0.419425
Si Si3 0.144854 0.806815 0.058193
Si Si4 0.852502 0.889008 0.110364
Si Si5 0.362966 0.559808 0.754089
Si Si6 0.645779 0.999230 0.661130
Si Si7 0.357193 0.312833 0.051263
O O1 0.085173 0.779829 0.519041
O O2 0.087897 0.923917 0.372288
O O3 0.932851 0.859452 0.464541
O O4 0.067933 0.951060 0.583451
O O5 0.500000 0.500000 0.449540
O O6 0.642134 0.381750 0.459090
O O7 0.660039 0.563289 0.487872
O O8 0.625380 0.480300 0.288974
O O9 0.250000 0.771070 0.077460
O O10 0.106894 0.854699 0.172712
O O11 0.750000 0.867061 0.158980
O O12 0.899858 0.786539 0.095642
O O13 0.900921 0.961758 0.198422
O O14 0.250000 0.556651 0.766605
O O15 0.750000 0.035985 0.627537
O O16 0.643557 0.886361 0.653204
O O17 0.250000 0.303028 0.000395
#
# Coordination Sequence:
#
# PCOD8193138 Si02
#       7
#     8   8   8   8   8   8   8
#     4  12  23  41  67 101 139 176 226 279 348 420
#     4  11  21  38  65  97 132 174 222 273 328 396
#     4  10  22  39  65 100 138 179 225 276 337 408
#     4   9  19  42  69  94 130 174 226 279 333 402
#     4   9  20  40  67 101 138 179 226 281 343 408
#     4  11  24  43  66  96 133 173 219 281 344 404
#     4  10  23  45  67  95 135 179 230 283 341 410
#
# _framework density 23.110935999999999
#
# number of rings (size 3 to 8) (size 9 to 14) (size 15 to 20)
#    0.000    1.714    0.000    5.571    2.000    0.000 
#    5.143    7.143    0.000    0.000    0.000    4.000 
#    0.000    0.000    0.000    0.000    0.000    0.000 
#
# Total GULP energy -346931.664660 kJ/mol
# GULP energy per Si atom -12390.416595 kJ/mol
# Density = 2.305833 g / cm^3
# Si number density = 23.110936 Si / 1000 Ang^3
#
#
#
# Elastic Constant Matrix: (Units=GPa)
#
#
# Indices 1 2 3 4 5 6 
#
# 1 99.7185 41.2917 29.4667 0.0000 0.0000 0.0000
# 2 41.2917 150.6723 60.7051 0.0000 0.0000 0.0000
# 3 29.4667 60.7051 162.6848 0.0000 0.0000 0.0000
# 4 0.0000 0.0000 0.0000 35.8562 0.0000 0.0000
# 5 0.0000 0.0000 0.0000 0.0000 18.6565 0.0000
# 6 0.0000 0.0000 0.0000 0.0000 0.0000 35.0871
#
#
#
# Elastic Compliance Matrix: (Units=1/GPa)
#
#
# Indices 1 2 3 4 5 6 
#
# 1 0.011466 -0.002714 -0.001064 0.000000 0.000000 0.000000
# 2 -0.002714 0.008453 -0.002663 0.000000 0.000000 0.000000
# 3 -0.001064 -0.002663 0.007333 0.000000 0.000000 0.000000
# 4 0.000000 0.000000 0.000000 0.027889 0.000000 0.000000
# 5 0.000000 0.000000 0.000000 0.000000 0.053601 0.000000
# 6 0.000000 0.000000 0.000000 0.000000 0.000000 0.028500
#
#
# Mechanical properties :
#
#
# Convention : Reuss Voigt Hill
#
# Bulk Modulus (GPa) = 69.58168 75.11139 72.34654
# Shear Modulus (GPa) = 32.27571 36.69411 34.48491
#
# Velocity S-wave (km/s) = 3.74111 3.98897 3.86702
# Velocity P-wave (km/s) = 6.98815 7.33394 7.16313
#
# Compressibility (1/GPa) = 0.01437160
#
# Stress axis : x y z
#
# Youngs Moduli (GPa) = 87.21153 118.29533 136.36484
#
# Poissons Ratio (x) = 0.32100 0.14514
# Poissons Ratio (y) = 0.23665 0.36312
# Poissons Ratio (z) = 0.09282 0.31500
#
# Static dielectric constant tensor:
#      x y z
#    x 4.739590 0.000000 0.000000 
#    y 0.000000 4.294550 0.000000 
#    z 0.000000 0.000000 3.847120 
# 
# 
# High freq. dielectric constant tensor:
#      x y z
#    x 1.932760 0.000000 0.000000 
#    y 0.000000 1.927170 0.000000 
#    z 0.000000 0.000000 1.886430 
# 
# From -- ./inp_files/11145.got.cif
#   From: 2010.03.12/outbox.cif.g09.slc.cpg/sg46_6_cif.got.tgz:11145.got - 2010.04.14 02:56:35.
