data_PCOD8193163
_publ_section_title
;
Structure prediction by ZEFSAII (Michael W. Deem and Ramdas Pophale) SiO2 
 PCOD8193163
Probable space group: I M A 2
;
_chemical_formula_sum "Si O2"
_cell_formula_units_Z 40
_cell_length_a 24.976736
_cell_length_b 14.350230
_cell_length_c 5.071164
_cell_angle_alpha 90.000000
_cell_angle_beta 90.000000
_cell_angle_gamma 90.000000
_cell_volume 1817.616268
_symmetry_space_group_name_H-M "I M A 2"
_symmetry_group_IT_number 46
_symmetry_cell_setting 'orthorhombic'
loop_
_space_group_symop_operation_xyz
x,y,z
-x,-y,z
1/2-x,y,z
1/2+x,-y,z
1/2+x,1/2+y,1/2+z
1/2-x,1/2-y,1/2+z
-x,1/2+y,1/2+z
x,1/2-y,1/2+z
loop_
_atom_site_type_symbol
_atom_site_label
_atom_site_fract_x
_atom_site_fract_y
_atom_site_fract_z
Si Si1 0.250000 0.691788 0.135280
Si Si2 0.689237 0.688657 0.617657
Si Si3 0.614132 0.982611 0.086372
Si Si4 0.140085 0.904884 0.591723
Si Si5 0.500000 0.000000 0.879699
Si Si6 0.536518 0.308190 0.168941
O O1 0.250000 0.719326 0.441956
O O2 0.300252 0.629477 0.067863
O O3 0.750000 0.648360 0.645096
O O4 0.680114 0.729431 0.327466
O O5 0.644803 0.610499 0.673560
O O6 0.622604 0.061156 0.304405
O O7 0.638054 0.012660 0.805016
O O8 0.550085 0.971131 0.062597
O O9 0.100937 0.820260 0.677066
O O10 0.511814 0.088473 0.692546
O O11 0.517191 0.239752 0.400461
#
# Coordination Sequence:
#
# PCOD8193163 Si02
#       6
#     4   8   8   8   4   8
#     4  12  24  40  64  94 128 164 212 268 318 404
#     4  10  22  40  64  94 129 170 220 279 339 408
#     4  11  24  42  65  93 135 171 222 281 337 401
#     4  11  24  40  64  96 128 173 218 268 331 410
#     4  10  26  44  66 102 132 176 238 282 332 430
#     4  11  23  42  66  92 131 176 216 278 341 389
#
# _framework density 22.006847
#
# number of rings (size 3 to 8) (size 9 to 14) (size 15 to 20)
#    0.000    1.200    0.000    6.000    2.800    8.800 
#    0.000    0.000    0.000    0.000    0.000    0.000 
#    0.000    0.000    0.000    0.000    0.000    0.000 
#
# Total GULP energy -248080.805669 kJ/mol
# GULP energy per Si atom -12404.040283 kJ/mol
# Density = 2.195676 g / cm^3
# Si number density = 22.006847 Si / 1000 Ang^3
#
#
#
# Elastic Constant Matrix: (Units=GPa)
#
#
# Indices 1 2 3 4 5 6 
#
# 1 160.0198 63.5926 43.8116 0.0000 0.0000 0.0000
# 2 63.5926 106.9143 23.2649 0.0000 0.0000 0.0000
# 3 43.8116 23.2649 92.1543 0.0000 0.0000 0.0000
# 4 0.0000 0.0000 0.0000 37.6193 0.0000 0.0000
# 5 0.0000 0.0000 0.0000 0.0000 83.8852 0.0000
# 6 0.0000 0.0000 0.0000 0.0000 0.0000 41.5047
#
#
#
# Elastic Compliance Matrix: (Units=1/GPa)
#
#
# Indices 1 2 3 4 5 6 
#
# 1 0.008938 -0.004647 -0.003076 0.000000 0.000000 0.000000
# 2 -0.004647 0.012313 -0.000899 0.000000 0.000000 0.000000
# 3 -0.003076 -0.000899 0.012541 0.000000 0.000000 0.000000
# 4 0.000000 0.000000 0.000000 0.026582 0.000000 0.000000
# 5 0.000000 0.000000 0.000000 0.000000 0.011921 0.000000
# 6 0.000000 0.000000 0.000000 0.000000 0.000000 0.024094
#
#
# Mechanical properties :
#
#
# Convention : Reuss Voigt Hill
#
# Bulk Modulus (GPa) = 60.43333 68.93630 64.68482
# Shear Modulus (GPa) = 41.96408 47.82981 44.89694
#
# Velocity S-wave (km/s) = 4.37150 4.66704 4.52169
# Velocity P-wave (km/s) = 7.28017 7.77397 7.53112
#
# Compressibility (1/GPa) = 0.01654716
#
# Stress axis : x y z
#
# Youngs Moduli (GPa) = 111.87912 81.21476 79.73941
#
# Poissons Ratio (x) = 0.37741 0.24529
# Poissons Ratio (y) = 0.51991 0.07170
# Poissons Ratio (z) = 0.34416 0.07303
#
# Static dielectric constant tensor:
#      x y z
#    x 4.057370 0.000000 0.000000 
#    y 0.000000 3.794210 0.000000 
#    z 0.000000 0.000000 3.999210 
# 
# 
# High freq. dielectric constant tensor:
#      x y z
#    x 1.869940 0.000000 0.000000 
#    y 0.000000 1.859930 0.000000 
#    z 0.000000 0.000000 1.879980 
# 
# From -- ./inp_files/2320.got.cif
#   From: 2010.03.12/outbox.cif.g09.slc.cpg/sg46_2_cif.got.tgz:2320.got - 2010.04.14 02:56:35.
