data_PCOD8193539
_publ_section_title
;
Structure prediction by ZEFSAII (Michael W. Deem and Ramdas Pophale) SiO2 
 PCOD8193539
Probable space group: P M M M
;
_chemical_formula_sum "Si O2"
_cell_formula_units_Z 52
_cell_length_a 19.124704
_cell_length_b 12.953682
_cell_length_c 14.093293
_cell_angle_alpha 90.000000
_cell_angle_beta 90.000000
_cell_angle_gamma 90.000000
_cell_volume 3491.406648
_symmetry_space_group_name_H-M "P M M M"
_symmetry_group_IT_number 47
_symmetry_cell_setting 'orthorhombic'
loop_
_space_group_symop_operation_xyz
x,y,z
-x,-y,z
x,-y,-z
-x,y,-z
-x,-y,-z
x,y,-z
-x,y,z
x,-y,z
loop_
_atom_site_type_symbol
_atom_site_label
_atom_site_fract_x
_atom_site_fract_y
_atom_site_fract_z
Si Si1 0.157813 0.298719 0.888295
Si Si2 0.078394 0.237579 0.392948
Si Si3 0.287460 0.621210 0.210389
Si Si4 0.423024 0.377677 0.106423
Si Si5 0.793326 0.380740 0.606180
Si Si6 0.080024 0.116581 0.788785
Si Si7 0.078562 0.500000 0.113122
O O1 0.237547 0.312049 0.856951
O O2 0.127569 0.192216 0.849716
O O3 0.115398 0.397011 0.846809
O O4 0.152783 0.294631 0.000000
O O5 0.090848 0.197731 0.500000
O O6 0.135550 0.323009 0.364478
O O7 0.087298 0.140727 0.323085
O O8 0.000000 0.285143 0.382623
O O9 0.277910 0.500000 0.187459
O O10 0.365882 0.658881 0.184229
O O11 0.269485 0.645481 0.320614
O O12 0.500000 0.334519 0.135170
O O13 0.425819 0.500000 0.105574
O O14 0.403215 0.339037 0.000000
O O15 0.768211 0.349865 0.500000
O O16 0.813052 0.500000 0.611296
O O17 0.000000 0.129745 0.822292
O O18 0.106033 0.000000 0.805767
O O19 0.000000 0.500000 0.151468
O O20 0.081569 0.500000 0.000000
#
# Coordination Sequence:
#
# PCOD8193539 Si02
#       7
#     8   8   8   8   8   8   4
#     4  11  20  30  44  64  86 112 149 185 222 264
#     4   9  17  30  47  64  82 107 144 190 233 267
#     4  10  17  27  44  65  89 117 145 177 221 263
#     4   8  14  24  39  61  89 119 148 177 209 250
#     4   9  17  28  42  63  90 117 144 175 219 273
#     4  10  21  35  47  60  82 114 152 189 225 267
#     4   9  18  30  42  58  82 110 142 183 222 258
#
# _framework density 14.893711
#
# number of rings (size 3 to 8) (size 9 to 14) (size 15 to 20)
#    0.000    2.538    2.308    1.385    0.000    2.462 
#    0.000    3.846    0.000    0.462    0.000    3.231 
#    0.000    0.615    0.000    3.231    0.000    5.077 
#
# Total GULP energy -644525.583825 kJ/mol
# GULP energy per Si atom -12394.722766 kJ/mol
# Density = 1.485981 g / cm^3
# Si number density = 14.893711 Si / 1000 Ang^3
#
#
#
# Elastic Constant Matrix: (Units=GPa)
#
#
# Indices 1 2 3 4 5 6 
#
# 1 113.4675 40.1364 53.0794 0.0000 0.0000 0.0000
# 2 40.1364 67.4605 34.7261 0.0000 0.0000 0.0000
# 3 53.0794 34.7261 78.4642 0.0000 0.0000 0.0000
# 4 0.0000 0.0000 0.0000 15.7974 0.0000 0.0000
# 5 0.0000 0.0000 0.0000 0.0000 24.7321 0.0000
# 6 0.0000 0.0000 0.0000 0.0000 0.0000 9.2264
#
#
#
# Elastic Compliance Matrix: (Units=1/GPa)
#
#
# Indices 1 2 3 4 5 6 
#
# 1 0.013842 -0.004423 -0.007407 0.000000 0.000000 0.000000
# 2 -0.004423 0.020610 -0.006129 0.000000 0.000000 0.000000
# 3 -0.007407 -0.006129 0.020468 0.000000 0.000000 0.000000
# 4 0.000000 0.000000 0.000000 0.063301 0.000000 0.000000
# 5 0.000000 0.000000 0.000000 0.000000 0.040433 0.000000
# 6 0.000000 0.000000 0.000000 0.000000 0.000000 0.108384
#
#
# Mechanical properties :
#
#
# Convention : Reuss Voigt Hill
#
# Bulk Modulus (GPa) = 52.62524 57.25292 54.93908
# Shear Modulus (GPa) = 16.16597 18.71455 17.44026
#
# Velocity S-wave (km/s) = 3.29815 3.54862 3.42567
# Velocity P-wave (km/s) = 7.06500 7.43739 7.25359
#
# Compressibility (1/GPa) = 0.01900229
#
# Stress axis : x y z
#
# Youngs Moduli (GPa) = 72.24180 48.51959 48.85734
#
# Poissons Ratio (x) = 0.21461 0.36187
# Poissons Ratio (y) = 0.31953 0.29947
# Poissons Ratio (z) = 0.53506 0.29740
#
# Static dielectric constant tensor:
#      x y z
#    x 2.962080 0.000000 0.000000 
#    y 0.000000 2.585650 0.000000 
#    z 0.000000 0.000000 2.999180 
# 
# 
# High freq. dielectric constant tensor:
#      x y z
#    x 1.552810 0.000000 0.000000 
#    y 0.000000 1.529310 0.000000 
#    z 0.000000 0.000000 1.577430 
# 
# From -- ./inp_files/17944.got.cif
#   From: 2010.03.12/outbox.cif.g09.slc.cpg/sg47_9_cif.got.tgz:17944.got - 2010.04.14 03:12:58.
