data_PCOD8193684
_publ_section_title
;
Structure prediction by ZEFSAII (Michael W. Deem and Ramdas Pophale) SiO2 
 PCOD8193684
Probable space group: P M M M
;
_chemical_formula_sum "Si O2"
_cell_formula_units_Z 52
_cell_length_a 11.721083
_cell_length_b 17.784724
_cell_length_c 14.237401
_cell_angle_alpha 90.000000
_cell_angle_beta 90.000000
_cell_angle_gamma 90.000000
_cell_volume 2967.874882
_symmetry_space_group_name_H-M "P M M M"
_symmetry_group_IT_number 47
_symmetry_cell_setting 'orthorhombic'
loop_
_space_group_symop_operation_xyz
x,y,z
-x,-y,z
x,-y,-z
-x,y,-z
-x,-y,-z
x,y,-z
-x,y,z
x,-y,z
loop_
_atom_site_type_symbol
_atom_site_label
_atom_site_fract_x
_atom_site_fract_y
_atom_site_fract_z
Si Si1 0.864644 0.000000 0.895298
Si Si2 0.135173 0.083905 0.397584
Si Si3 0.500000 0.411922 0.297665
Si Si4 0.868643 0.587947 0.778870
Si Si5 0.500000 0.335324 0.104702
Si Si6 0.135177 0.149964 0.207777
Si Si7 0.251090 0.287697 0.892776
Si Si8 0.725791 0.588823 0.604594
O O1 0.821244 0.924931 0.844405
O O2 0.000000 0.000000 0.895157
O O3 0.814434 0.000000 0.000000
O O4 0.176500 0.113405 0.500000
O O5 0.173629 0.141508 0.316577
O O6 0.000000 0.077609 0.394843
O O7 0.184467 0.000000 0.379033
O O8 0.500000 0.500000 0.311644
O O9 0.500000 0.397322 0.186221
O O10 0.611141 0.376957 0.348496
O O11 0.847429 0.500000 0.798426
O O12 0.794112 0.632437 0.854856
O O13 0.831381 0.609377 0.672530
O O14 0.000000 0.610522 0.789885
O O15 0.612010 0.283544 0.115181
O O16 0.500000 0.373304 0.000000
O O17 0.199035 0.221535 0.168312
O O18 0.000000 0.161583 0.195813
O O19 0.210360 0.278808 0.000000
O O20 0.745308 0.623026 0.500000
O O21 0.713092 0.500000 0.596164
#
# Coordination Sequence:
#
# PCOD8193684 Si02
#       8
#     4   8   4   8   4   8   8   8
#     4   9  16  26  43  72 106 134 164 206 252 302
#     4   8  13  24  45  74 108 141 168 198 243 299
#     4  10  17  31  56  81 100 123 168 227 272 311
#     4  10  21  36  53  76 107 142 178 214 257 317
#     4  10  22  38  55  73  96 132 175 222 272 313
#     4  10  18  30  50  78 108 137 170 208 253 311
#     4  11  23  38  55  74 100 137 178 222 272 317
#     4   9  17  30  51  78 104 132 168 214 267 316
#
# _framework density 17.520955000000001
#
# number of rings (size 3 to 8) (size 9 to 14) (size 15 to 20)
#    0.000    2.385    2.308    1.615    0.000    3.538 
#    0.000    4.615    0.000    2.308    0.000    2.154 
#    0.000    1.231    0.000    0.000    0.000    0.000 
#
# Total GULP energy -644531.116170 kJ/mol
# GULP energy per Si atom -12394.829157 kJ/mol
# Density = 1.748108 g / cm^3
# Si number density = 17.520955 Si / 1000 Ang^3
#
#
#
# Elastic Constant Matrix: (Units=GPa)
#
#
# Indices 1 2 3 4 5 6 
#
# 1 80.5218 33.8560 43.5435 0.0000 0.0000 0.0000
# 2 33.8560 67.5836 49.7763 0.0000 0.0000 0.0000
# 3 43.5435 49.7763 157.9297 0.0000 0.0000 0.0000
# 4 0.0000 0.0000 0.0000 28.5309 0.0000 0.0000
# 5 0.0000 0.0000 0.0000 0.0000 23.2031 0.0000
# 6 0.0000 0.0000 0.0000 0.0000 0.0000 10.9930
#
#
#
# Elastic Compliance Matrix: (Units=1/GPa)
#
#
# Indices 1 2 3 4 5 6 
#
# 1 0.016473 -0.006390 -0.002528 0.000000 0.000000 0.000000
# 2 -0.006390 0.021749 -0.005093 0.000000 0.000000 0.000000
# 3 -0.002528 -0.005093 0.008634 0.000000 0.000000 0.000000
# 4 0.000000 0.000000 0.000000 0.035050 0.000000 0.000000
# 5 0.000000 0.000000 0.000000 0.000000 0.043098 0.000000
# 6 0.000000 0.000000 0.000000 0.000000 0.000000 0.090967
#
#
# Mechanical properties :
#
#
# Convention : Reuss Voigt Hill
#
# Bulk Modulus (GPa) = 53.09626 62.26519 57.68073
# Shear Modulus (GPa) = 19.97846 24.46935 22.22390
#
# Velocity S-wave (km/s) = 3.38044 3.74113 3.56535
# Velocity P-wave (km/s) = 6.75327 7.36723 7.06692
#
# Compressibility (1/GPa) = 0.01883372
#
# Stress axis : x y z
#
# Youngs Moduli (GPa) = 60.70632 45.97980 115.82114
#
# Poissons Ratio (x) = 0.29383 0.29276
# Poissons Ratio (y) = 0.38794 0.58986
# Poissons Ratio (z) = 0.15345 0.23417
#
# Static dielectric constant tensor:
#      x y z
#    x 3.098730 0.000000 0.000000 
#    y 0.000000 2.991600 0.000000 
#    z 0.000000 0.000000 3.727700 
# 
# 
# High freq. dielectric constant tensor:
#      x y z
#    x 1.645590 0.000000 0.000000 
#    y 0.000000 1.645880 0.000000 
#    z 0.000000 0.000000 1.699190 
# 
# From -- ./inp_files/22937.got.cif
#   From: 2010.03.12/outbox.cif.g09.slc.cpg/sg47_12_cif.got.tgz:22937.got - 2010.04.14 03:12:58.
