data_PCOD8193857
_publ_section_title
;
Structure prediction by ZEFSAII (Michael W. Deem and Ramdas Pophale) SiO2 
 PCOD8193857
Probable space group: P M M M
;
_chemical_formula_sum "Si O2"
_cell_formula_units_Z 64
_cell_length_a 9.108132
_cell_length_b 26.092181
_cell_length_c 18.116024
_cell_angle_alpha 90.000000
_cell_angle_beta 90.000000
_cell_angle_gamma 90.000000
_cell_volume 4305.291740
_symmetry_space_group_name_H-M "P M M M"
_symmetry_group_IT_number 47
_symmetry_cell_setting 'orthorhombic'
loop_
_space_group_symop_operation_xyz
x,y,z
-x,-y,z
x,-y,-z
-x,y,-z
-x,-y,-z
x,y,-z
-x,y,z
x,-y,z
loop_
_atom_site_type_symbol
_atom_site_label
_atom_site_fract_x
_atom_site_fract_y
_atom_site_fract_z
Si Si1 0.668161 0.440662 0.084695
Si Si2 0.665209 0.695215 0.297462
Si Si3 0.662082 0.797221 0.201480
Si Si4 0.168599 0.941275 0.585381
Si Si5 0.169269 0.244581 0.413972
Si Si6 0.326268 0.149775 0.344428
Si Si7 0.827602 0.256322 0.082584
Si Si8 0.172957 0.356233 0.827123
O O1 0.500000 0.423969 0.098143
O O2 0.689463 0.500000 0.104266
O O3 0.775047 0.409213 0.137542
O O4 0.712287 0.430356 0.000000
O O5 0.500000 0.676965 0.316574
O O6 0.661691 0.745690 0.248489
O O7 0.752662 0.708115 0.372306
O O8 0.748680 0.650832 0.252038
O O9 0.500000 0.809418 0.171166
O O10 0.715275 0.841526 0.257952
O O11 0.766755 0.791174 0.130785
O O12 0.207393 0.932470 0.500000
O O13 0.275317 0.907050 0.634975
O O14 0.000000 0.926071 0.600250
O O15 0.196628 0.000000 0.607594
O O16 0.183742 0.256143 0.500000
O O17 0.245122 0.190403 0.396675
O O18 0.000000 0.241436 0.388778
O O19 0.500000 0.156416 0.356145
O O20 0.780856 0.310502 0.117607
O O21 0.000000 0.250291 0.080940
O O22 0.762009 0.253621 0.000000
O O23 0.000000 0.357653 0.813996
#
# Coordination Sequence:
#
# PCOD8193857 Si02
#       8
#     8   8   8   8   8   8   8   8
#     4   9  18  31  44  59  82 112 145 180 215 249
#     4   9  17  29  43  59  81 108 139 173 206 244
#     4   8  16  28  39  55  78 104 134 166 199 236
#     4   9  18  31  44  59  81 108 138 172 208 245
#     4  10  19  29  42  61  85 112 141 172 207 247
#     4  10  19  29  42  60  82 109 142 175 205 242
#     4   9  17  27  39  58  82 106 134 167 201 239
#     4  10  18  28  43  61  83 111 141 173 211 252
#
# _framework density 14.865425999999999
#
# number of rings (size 3 to 8) (size 9 to 14) (size 15 to 20)
#    0.000    2.750    0.000    3.750    0.000    8.250 
#    0.000    1.250    0.000    0.000    0.000    0.000 
#    0.000    1.000    0.000   10.750    0.000    6.250 
#
# Total GULP energy -793490.041795 kJ/mol
# GULP energy per Si atom -12398.281903 kJ/mol
# Density = 1.483159 g / cm^3
# Si number density = 14.865426 Si / 1000 Ang^3
#
#
#
# Elastic Constant Matrix: (Units=GPa)
#
#
# Indices 1 2 3 4 5 6 
#
# 1 82.1451 36.6492 47.4268 0.0000 0.0000 0.0000
# 2 36.6492 61.4846 39.9462 0.0000 0.0000 0.0000
# 3 47.4268 39.9462 82.0810 0.0000 0.0000 0.0000
# 4 0.0000 0.0000 0.0000 26.4655 0.0000 0.0000
# 5 0.0000 0.0000 0.0000 0.0000 25.6309 0.0000
# 6 0.0000 0.0000 0.0000 0.0000 0.0000 25.1503
#
#
#
# Elastic Compliance Matrix: (Units=1/GPa)
#
#
# Indices 1 2 3 4 5 6 
#
# 1 0.019856 -0.006408 -0.008354 0.000000 0.000000 0.000000
# 2 -0.006408 0.025852 -0.008879 0.000000 0.000000 0.000000
# 3 -0.008354 -0.008879 0.021331 0.000000 0.000000 0.000000
# 4 0.000000 0.000000 0.000000 0.037785 0.000000 0.000000
# 5 0.000000 0.000000 0.000000 0.000000 0.039015 0.000000
# 6 0.000000 0.000000 0.000000 0.000000 0.000000 0.039761
#
#
# Mechanical properties :
#
#
# Convention : Reuss Voigt Hill
#
# Bulk Modulus (GPa) = 50.61423 52.63946 51.62685
# Shear Modulus (GPa) = 21.05536 22.22857 21.64196
#
# Velocity S-wave (km/s) = 3.76759 3.87113 3.81971
# Velocity P-wave (km/s) = 7.28344 7.44771 7.36603
#
# Compressibility (1/GPa) = 0.01975729
#
# Stress axis : x y z
#
# Youngs Moduli (GPa) = 50.36305 38.68118 46.87909
#
# Poissons Ratio (x) = 0.24786 0.39165
# Poissons Ratio (y) = 0.32271 0.41624
# Poissons Ratio (z) = 0.42075 0.34345
#
# Static dielectric constant tensor:
#      x y z
#    x 2.965650 0.000000 0.000000 
#    y 0.000000 2.663180 0.000000 
#    z 0.000000 0.000000 2.926840 
# 
# 
# High freq. dielectric constant tensor:
#      x y z
#    x 1.580340 0.000000 0.000000 
#    y 0.000000 1.533670 0.000000 
#    z 0.000000 0.000000 1.556170 
# 
# From -- ./inp_files/10187.got.cif
#   From: 2010.03.12/outbox.cif.g09.slc.cpg/sg47_6_cif.got.tgz:10187.got - 2010.04.14 03:12:58.
