data_PCOD8193894
_publ_section_title
;
Structure prediction by ZEFSAII (Michael W. Deem and Ramdas Pophale) SiO2 
 PCOD8193894
Probable space group: P M M M
;
_chemical_formula_sum "Si O2"
_cell_formula_units_Z 56
_cell_length_a 18.176917
_cell_length_b 9.220646
_cell_length_c 21.154395
_cell_angle_alpha 90.000000
_cell_angle_beta 90.000000
_cell_angle_gamma 90.000000
_cell_volume 3545.538310
_symmetry_space_group_name_H-M "P M M M"
_symmetry_group_IT_number 47
_symmetry_cell_setting 'orthorhombic'
loop_
_space_group_symop_operation_xyz
x,y,z
-x,-y,z
x,-y,-z
-x,y,-z
-x,-y,-z
x,y,-z
-x,y,z
x,-y,z
loop_
_atom_site_type_symbol
_atom_site_label
_atom_site_fract_x
_atom_site_fract_y
_atom_site_fract_z
Si Si1 0.084419 0.670073 0.190114
Si Si2 0.822318 0.333279 0.929324
Si Si3 0.674703 0.330264 0.674273
Si Si4 0.796218 0.835679 0.740175
Si Si5 0.416036 0.668458 0.201162
Si Si6 0.298648 0.837033 0.133543
Si Si7 0.415824 0.834145 0.573551
O O1 0.094320 0.500000 0.202842
O O2 0.115143 0.712984 0.120733
O O3 0.126828 0.755849 0.245364
O O4 0.000000 0.718218 0.192355
O O5 0.800645 0.500000 0.918697
O O6 0.747743 0.241904 0.920894
O O7 0.853260 0.306262 0.000000
O O8 0.690538 0.500000 0.667337
O O9 0.752487 0.249915 0.685520
O O10 0.618704 0.296072 0.730970
O O11 0.638685 0.271493 0.610422
O O12 0.748020 0.832432 0.802837
O O13 0.811642 0.000000 0.717808
O O14 0.500000 0.720152 0.203097
O O15 0.408483 0.500000 0.185031
O O16 0.375537 0.755722 0.145427
O O17 0.315515 0.000000 0.111571
O O18 0.398057 0.816013 0.500000
O O19 0.500000 0.789332 0.587442
O O20 0.402633 0.000000 0.594932
#
# Coordination Sequence:
#
# PCOD8193894 Si02
#       7
#     8   8   8   8   8   8   8
#     4   9  17  29  45  66  92 117 140 172 213 253
#     4   9  17  29  45  63  83 111 144 172 203 250
#     4  10  18  28  44  65  88 114 148 187 222 257
#     4   9  17  29  44  62  85 114 146 177 213 259
#     4   9  17  28  42  61  84 108 135 172 219 265
#     4   9  17  28  42  60  81 106 137 174 214 253
#     4   9  18  31  44  60  88 126 161 190 222 259
#
# _framework density 15.794499999999999
#
# number of rings (size 3 to 8) (size 9 to 14) (size 15 to 20)
#    0.000    2.857    0.000    2.143    0.000    6.286 
#    0.000    2.143    0.000    0.429    0.000    7.000 
#    0.000    0.571    0.000    6.000    0.000    2.571 
#
# Total GULP energy -694377.375584 kJ/mol
# GULP energy per Si atom -12399.595993 kJ/mol
# Density = 1.575855 g / cm^3
# Si number density = 15.794500 Si / 1000 Ang^3
#
#
#
# Elastic Constant Matrix: (Units=GPa)
#
#
# Indices 1 2 3 4 5 6 
#
# 1 115.7264 58.6747 44.3232 0.0000 0.0000 0.0000
# 2 58.6747 86.3544 37.1146 0.0000 0.0000 0.0000
# 3 44.3232 37.1146 54.2177 0.0000 0.0000 0.0000
# 4 0.0000 0.0000 0.0000 22.4614 0.0000 0.0000
# 5 0.0000 0.0000 0.0000 0.0000 21.4812 0.0000
# 6 0.0000 0.0000 0.0000 0.0000 0.0000 23.3579
#
#
#
# Elastic Compliance Matrix: (Units=1/GPa)
#
#
# Indices 1 2 3 4 5 6 
#
# 1 0.015078 -0.007010 -0.007528 0.000000 0.000000 0.000000
# 2 -0.007010 0.019666 -0.007732 0.000000 0.000000 0.000000
# 3 -0.007528 -0.007732 0.029891 0.000000 0.000000 0.000000
# 4 0.000000 0.000000 0.000000 0.044521 0.000000 0.000000
# 5 0.000000 0.000000 0.000000 0.000000 0.046552 0.000000
# 6 0.000000 0.000000 0.000000 0.000000 0.000000 0.042812
#
#
# Mechanical properties :
#
#
# Convention : Reuss Voigt Hill
#
# Bulk Modulus (GPa) = 49.76054 59.61372 54.68713
# Shear Modulus (GPa) = 20.01926 21.20583 20.61255
#
# Velocity S-wave (km/s) = 3.56403 3.66814 3.61646
# Velocity P-wave (km/s) = 6.96490 7.46764 7.22064
#
# Compressibility (1/GPa) = 0.02009624
#
# Stress axis : x y z
#
# Youngs Moduli (GPa) = 66.32045 50.84882 33.45439
#
# Poissons Ratio (x) = 0.35643 0.25185
# Poissons Ratio (y) = 0.46488 0.25867
# Poissons Ratio (z) = 0.49927 0.39317
#
# Static dielectric constant tensor:
#      x y z
#    x 2.960400 0.000000 0.000000 
#    y 0.000000 3.094050 0.000000 
#    z 0.000000 0.000000 2.741650 
# 
# 
# High freq. dielectric constant tensor:
#      x y z
#    x 1.592460 0.000000 0.000000 
#    y 0.000000 1.614390 0.000000 
#    z 0.000000 0.000000 1.572740 
# 
# From -- ./inp_files/9792.got.cif
#   From: 2010.03.12/outbox.cif.g09.slc.cpg/sg47_5_cif.got.tgz:9792.got - 2010.04.14 03:12:58.
