data_PCOD8193570
_publ_section_title
;
Structure prediction by ZEFSAII (Michael W. Deem and Ramdas Pophale) SiO2 
 PCOD8193570
Probable space group: P M M M
;
_chemical_formula_sum "Si O2"
_cell_formula_units_Z 48
_cell_length_a 20.598934
_cell_length_b 14.710759
_cell_length_c 9.383995
_cell_angle_alpha 90.000000
_cell_angle_beta 90.000000
_cell_angle_gamma 90.000000
_cell_volume 2843.594035
_symmetry_space_group_name_H-M "P M M M"
_symmetry_group_IT_number 47
_symmetry_cell_setting 'orthorhombic'
loop_
_space_group_symop_operation_xyz
x,y,z
-x,-y,z
x,-y,-z
-x,y,-z
-x,-y,-z
x,y,-z
-x,y,z
x,-y,z
loop_
_atom_site_type_symbol
_atom_site_label
_atom_site_fract_x
_atom_site_fract_y
_atom_site_fract_z
Si Si1 0.126386 0.401186 0.830589
Si Si2 0.193062 0.897591 0.830413
Si Si3 0.071473 0.784643 0.169846
Si Si4 0.727551 0.401199 0.169065
Si Si5 0.680264 0.211110 0.169105
Si Si6 0.425021 0.103933 0.664007
O O1 0.098740 0.500000 0.780643
O O2 0.083196 0.318044 0.772053
O O3 0.199511 0.389088 0.772201
O O4 0.127571 0.397624 0.000000
O O5 0.127101 0.851602 0.769982
O O6 0.255710 0.842050 0.776851
O O7 0.197159 0.000000 0.770478
O O8 0.191263 0.897496 0.000000
O O9 0.000000 0.816644 0.222135
O O10 0.074457 0.784841 0.000000
O O11 0.699445 0.500000 0.219800
O O12 0.684361 0.316237 0.221658
O O13 0.730361 0.398620 0.000000
O O14 0.616401 0.169698 0.237633
O O15 0.673779 0.203305 0.000000
O O16 0.406681 0.120395 0.500000
O O17 0.500000 0.127021 0.691045
O O18 0.410470 0.000000 0.706720
#
# Coordination Sequence:
#
# PCOD8193570 Si02
#       6
#     8   8   8   8   8   8
#     4   8  12  19  30  44  67 101 140 179 218 260
#     4   9  16  24  33  50  77 106 140 183 224 257
#     4   9  15  21  28  41  68 108 147 178 214 264
#     4   8  13  22  38  60  86 114 143 179 225 270
#     4  10  17  27  47  71  91 114 149 190 224 255
#     4   9  19  35  51  68  94 124 147 171 213 267
#
# _framework density 16.880047000000001
#
# number of rings (size 3 to 8) (size 9 to 14) (size 15 to 20)
#    0.000    3.167    1.667    2.000    0.000    2.000 
#    0.000    4.167    0.000    1.000    0.000    3.500 
#    0.000    0.667    0.000    3.500    0.000    8.667 
#
# Total GULP energy -594725.128328 kJ/mol
# GULP energy per Si atom -12390.106840 kJ/mol
# Density = 1.684163 g / cm^3
# Si number density = 16.880047 Si / 1000 Ang^3
#
#
#
# Elastic Constant Matrix: (Units=GPa)
#
#
# Indices 1 2 3 4 5 6 
#
# 1 96.4398 67.2455 21.2133 0.0000 0.0000 0.0000
# 2 67.2455 149.7120 20.7381 0.0000 0.0000 0.0000
# 3 21.2133 20.7381 12.8782 0.0000 0.0000 0.0000
# 4 0.0000 0.0000 0.0000 7.6626 0.0000 0.0000
# 5 0.0000 0.0000 0.0000 0.0000 -0.8636 0.0000
# 6 0.0000 0.0000 0.0000 0.0000 0.0000 29.9805
#
#
#
# Elastic Compliance Matrix: (Units=1/GPa)
#
#
# Indices 1 2 3 4 5 6 
#
# 1 0.019199 -0.005461 -0.022831 0.000000 0.000000 0.000000
# 2 -0.005461 0.010151 -0.007350 0.000000 0.000000 0.000000
# 3 -0.022831 -0.007350 0.127096 0.000000 0.000000 0.000000
# 4 0.000000 0.000000 0.000000 0.130504 0.000000 0.000000
# 5 0.000000 0.000000 0.000000 0.000000 -1.157908 0.000000
# 6 0.000000 0.000000 0.000000 0.000000 0.000000 0.033355
#
#
# Mechanical properties :
#
#
# Convention : Reuss Voigt Hill
#
# Bulk Modulus (GPa) = 11.74258 53.04708 32.39483
# Shear Modulus (GPa) = -6.77569 17.34477 5.28454
#
# Velocity S-wave (km/s) = -2.00568 3.20899 1.77128
# Velocity P-wave (km/s) = 1.26804 6.72490 4.83902
#
# Compressibility (1/GPa) = 0.08516014
#
# Stress axis : x y z
#
# Youngs Moduli (GPa) = 52.08596 98.51711 7.86810
#
# Poissons Ratio (x) = 0.53800 0.17964
# Poissons Ratio (y) = 0.28444 0.05783
# Poissons Ratio (z) = 1.18919 0.72413
#
# Static dielectric constant tensor:
#      x y z
#    x 3.107830 0.000000 0.000000 
#    y 0.000000 3.622540 0.000000 
#    z 0.000000 0.000000 2.428780 
# 
# 
# High freq. dielectric constant tensor:
#      x y z
#    x 1.640060 0.000000 0.000000 
#    y 0.000000 1.667390 0.000000 
#    z 0.000000 0.000000 1.567820 
# 
# From -- ./inp_files/6734.got.cif
#   From: 2010.03.12/outbox.cif.g09.slc.cpg/sg47_4_cif.got.tgz:6734.got - 2010.04.14 03:12:58.
