data_PCOD8193535
_publ_section_title
;
Structure prediction by ZEFSAII (Michael W. Deem and Ramdas Pophale) SiO2 
 PCOD8193535
Probable space group: P M M M
;
_chemical_formula_sum "Si O2"
_cell_formula_units_Z 32
_cell_length_a 10.310874
_cell_length_b 11.677504
_cell_length_c 16.613899
_cell_angle_alpha 90.000000
_cell_angle_beta 90.000000
_cell_angle_gamma 90.000000
_cell_volume 2000.401034
_symmetry_space_group_name_H-M "P M M M"
_symmetry_group_IT_number 47
_symmetry_cell_setting 'orthorhombic'
loop_
_space_group_symop_operation_xyz
x,y,z
-x,-y,z
x,-y,-z
-x,y,-z
-x,-y,-z
x,y,-z
-x,y,z
x,-y,z
loop_
_atom_site_type_symbol
_atom_site_label
_atom_site_fract_x
_atom_site_fract_y
_atom_site_fract_z
Si Si1 0.500000 0.364621 0.909225
Si Si2 0.000000 0.364652 0.088633
Si Si3 0.752685 0.363906 0.188222
Si Si4 0.847287 0.000000 0.409317
Si Si5 0.153555 0.626357 0.500000
Si Si6 0.153801 0.241610 0.342483
O O1 0.500000 0.500000 0.917124
O O2 0.374537 0.324315 0.859795
O O3 0.500000 0.312250 0.000000
O O4 0.126983 0.323313 0.134703
O O5 0.000000 0.500000 0.081223
O O6 0.000000 0.308951 0.000000
O O7 0.754690 0.500000 0.206056
O O8 0.761356 0.293866 0.270745
O O9 0.806260 0.890064 0.356895
O O10 0.785758 0.000000 0.500000
O O11 0.000000 0.000000 0.421882
O O12 0.214925 0.500000 0.500000
O O13 0.200779 0.691730 0.578717
O O14 0.000000 0.620499 0.500000
O O15 0.000000 0.257171 0.325851
#
# Coordination Sequence:
#
# PCOD8193535 Si02
#       6
#     4   4   8   4   4   8
#     4   9  18  32  48  68  97 132 162 188 231 293
#     4   9  16  26  42  66  95 122 148 188 241 285
#     4  10  18  28  45  70  99 125 156 196 235 284
#     4   9  16  28  44  65  94 129 163 201 233 275
#     4   9  16  23  37  62  96 128 152 184 233 284
#     4  10  17  27  43  67  96 127 160 196 237 275
#
# _framework density 15.996793
#
# number of rings (size 3 to 8) (size 9 to 14) (size 15 to 20)
#    0.000    2.500    2.500    1.500    0.000    4.000 
#    0.000    0.000    0.000    1.500    0.000    9.625 
#    0.000    0.000    0.000    0.000    0.000    0.000 
#
# Total GULP energy -396683.603302 kJ/mol
# GULP energy per Si atom -12396.362603 kJ/mol
# Density = 1.596038 g / cm^3
# Si number density = 15.996793 Si / 1000 Ang^3
#
#
#
# Elastic Constant Matrix: (Units=GPa)
#
#
# Indices 1 2 3 4 5 6 
#
# 1 90.6100 25.6232 60.7981 0.0000 0.0000 0.0000
# 2 25.6232 92.2118 59.2132 0.0000 0.0000 0.0000
# 3 60.7981 59.2132 163.8899 0.0000 0.0000 0.0000
# 4 0.0000 0.0000 0.0000 -4.8972 0.0000 0.0000
# 5 0.0000 0.0000 0.0000 0.0000 22.1878 0.0000
# 6 0.0000 0.0000 0.0000 0.0000 0.0000 8.1741
#
#
#
# Elastic Compliance Matrix: (Units=1/GPa)
#
#
# Indices 1 2 3 4 5 6 
#
# 1 0.014735 -0.000761 -0.005191 0.000000 0.000000 0.000000
# 2 -0.000761 0.014160 -0.004834 0.000000 0.000000 0.000000
# 3 -0.005191 -0.004834 0.009774 0.000000 0.000000 0.000000
# 4 0.000000 0.000000 0.000000 -0.204200 0.000000 0.000000
# 5 0.000000 0.000000 0.000000 0.000000 0.045070 0.000000
# 6 0.000000 0.000000 0.000000 0.000000 0.000000 0.122337
#
#
# Mechanical properties :
#
#
# Convention : Reuss Voigt Hill
#
# Bulk Modulus (GPa) = 58.49010 70.88674 64.68842
# Shear Modulus (GPa) = 171.54999 18.49811 95.02405
#
# Velocity S-wave (km/s) = 10.36692 3.40422 7.71563
# Velocity P-wave (km/s) = 13.41419 7.73699 10.94992
#
# Compressibility (1/GPa) = 0.01709691
#
# Stress axis : x y z
#
# Youngs Moduli (GPa) = 67.86693 70.62168 102.31370
#
# Poissons Ratio (x) = 0.05373 0.53113
# Poissons Ratio (y) = 0.05164 0.49456
# Poissons Ratio (z) = 0.35231 0.34137
#
# Static dielectric constant tensor:
#      x y z
#    x 2.767930 0.000000 0.000000 
#    y 0.000000 2.970580 0.000000 
#    z 0.000000 0.000000 3.226870 
# 
# 
# High freq. dielectric constant tensor:
#      x y z
#    x 1.577300 0.000000 0.000000 
#    y 0.000000 1.582580 0.000000 
#    z 0.000000 0.000000 1.630680 
# 
# From -- ./inp_files/26118.got.cif
#   From: 2010.03.12/outbox.cif.g09.slc.cpg/sg47_14_cif.got.tgz:26118.got - 2010.04.14 03:12:58.
