data_PCOD8193167
_publ_section_title
;
Structure prediction by ZEFSAII (Michael W. Deem and Ramdas Pophale) SiO2 
 PCOD8193167
Probable space group: I M A 2
;
_chemical_formula_sum "Si O2"
_cell_formula_units_Z 64
_cell_length_a 19.358866
_cell_length_b 11.098060
_cell_length_c 14.228677
_cell_angle_alpha 90.000000
_cell_angle_beta 90.000000
_cell_angle_gamma 90.000000
_cell_volume 3056.972296
_symmetry_space_group_name_H-M "I M A 2"
_symmetry_group_IT_number 46
_symmetry_cell_setting 'orthorhombic'
loop_
_space_group_symop_operation_xyz
x,y,z
-x,-y,z
1/2-x,y,z
1/2+x,-y,z
1/2+x,1/2+y,1/2+z
1/2-x,1/2-y,1/2+z
-x,1/2+y,1/2+z
x,1/2-y,1/2+z
loop_
_atom_site_type_symbol
_atom_site_label
_atom_site_fract_x
_atom_site_fract_y
_atom_site_fract_z
Si Si1 0.326704 0.523382 0.575980
Si Si2 0.329205 0.073720 0.271092
Si Si3 0.670295 0.263437 0.178137
Si Si4 0.049853 0.331177 0.080165
Si Si5 0.439896 0.090404 0.961964
Si Si6 0.439530 0.241860 0.789779
Si Si7 0.911710 0.159409 0.331336
Si Si8 0.096991 0.916009 0.541127
O O1 0.250000 0.544835 0.537350
O O2 0.327232 0.421235 0.657520
O O3 0.355957 0.648570 0.617668
O O4 0.369666 0.477676 0.487181
O O5 0.250000 0.064599 0.310553
O O6 0.368973 0.187087 0.315836
O O7 0.376945 0.960812 0.294138
O O8 0.750000 0.250149 0.205581
O O9 0.627489 0.268874 0.276767
O O10 0.658667 0.379840 0.112188
O O11 0.073168 0.297855 0.183815
O O12 0.054000 0.216744 0.013932
O O13 0.096065 0.438165 0.032452
O O14 0.972002 0.374291 0.092357
O O15 0.443460 0.120478 0.851536
O O16 0.500000 0.000000 0.992464
O O17 0.506480 0.328013 0.808013
O O18 0.898082 0.156458 0.442885
#
# Coordination Sequence:
#
# PCOD8193167 Si02
#       8
#     8   8   8   8   8   8   8   8
#     4   9  20  40  64  90 126 167 217 276 329 391
#     4  10  22  40  65  95 130 174 225 278 331 397
#     4  10  22  42  67  98 131 172 223 278 339 396
#     4  11  24  42  62  97 131 175 212 281 335 395
#     4  12  25  39  66 102 125 170 230 272 330 404
#     4  12  24  39  65  96 133 174 221 282 341 399
#     4  11  22  38  68  98 127 177 233 280 321 400
#     4  11  23  42  65  90 140 172 221 275 339 397
#
# _framework density 20.935748
#
# number of rings (size 3 to 8) (size 9 to 14) (size 15 to 20)
#    0.000    1.250    3.750    3.000    5.250    1.500 
#    0.000    1.250    0.000    0.000    0.000    0.000 
#    0.000    0.000    0.000    0.000    0.000    0.000 
#
# Total GULP energy -396614.473953 kJ/mol
# GULP energy per Si atom -12394.202311 kJ/mol
# Density = 2.088810 g / cm^3
# Si number density = 20.935748 Si / 1000 Ang^3
#
#
#
# Elastic Constant Matrix: (Units=GPa)
#
#
# Indices 1 2 3 4 5 6 
#
# 1 109.8399 38.5882 27.8298 0.0000 0.0000 0.0000
# 2 38.5882 94.4589 32.9921 0.0000 0.0000 0.0000
# 3 27.8298 32.9921 88.8845 0.0000 0.0000 0.0000
# 4 0.0000 0.0000 0.0000 28.9953 0.0000 0.0000
# 5 0.0000 0.0000 0.0000 0.0000 19.0763 0.0000
# 6 0.0000 0.0000 0.0000 0.0000 0.0000 26.6903
#
#
#
# Elastic Compliance Matrix: (Units=1/GPa)
#
#
# Indices 1 2 3 4 5 6 
#
# 1 0.010939 -0.003760 -0.002029 0.000000 0.000000 0.000000
# 2 -0.003760 0.013456 -0.003817 0.000000 0.000000 0.000000
# 3 -0.002029 -0.003817 0.013303 0.000000 0.000000 0.000000
# 4 0.000000 0.000000 0.000000 0.034488 0.000000 0.000000
# 5 0.000000 0.000000 0.000000 0.000000 0.052421 0.000000
# 6 0.000000 0.000000 0.000000 0.000000 0.000000 0.037467
#
#
# Mechanical properties :
#
#
# Convention : Reuss Voigt Hill
#
# Bulk Modulus (GPa) = 54.09934 54.66708 54.38321
# Shear Modulus (GPa) = 26.67384 27.87058 27.27221
#
# Velocity S-wave (km/s) = 3.57330 3.65258 3.61316
# Velocity P-wave (km/s) = 6.55144 6.63001 6.59084
#
# Compressibility (1/GPa) = 0.01848451
#
# Stress axis : x y z
#
# Youngs Moduli (GPa) = 91.41335 74.31644 75.17170
#
# Poissons Ratio (x) = 0.27944 0.15256
# Poissons Ratio (y) = 0.34372 0.28695
# Poissons Ratio (z) = 0.18552 0.28369
#
# Static dielectric constant tensor:
#      x y z
#    x 3.843060 0.000000 0.000000 
#    y 0.000000 3.880040 0.000000 
#    z 0.000000 0.000000 3.991810 
# 
# 
# High freq. dielectric constant tensor:
#      x y z
#    x 1.813160 0.000000 0.000000 
#    y 0.000000 1.809840 0.000000 
#    z 0.000000 0.000000 1.817360 
# 
# From -- ./inp_files/16794.got.cif
#   From: 2010.03.12/outbox.cif.g09.slc.cpg/sg46_9_cif.got.tgz:16794.got - 2010.04.14 02:56:35.
