data_PCOD8193046
_publ_section_title
;
Structure prediction by ZEFSAII (Michael W. Deem and Ramdas Pophale) SiO2 
 PCOD8193046
Probable space group: I M A 2
;
_chemical_formula_sum "Si O2"
_cell_formula_units_Z 60
_cell_length_a 24.617269
_cell_length_b 11.435513
_cell_length_c 10.066113
_cell_angle_alpha 90.000000
_cell_angle_beta 90.000000
_cell_angle_gamma 90.000000
_cell_volume 2833.722540
_symmetry_space_group_name_H-M "I M A 2"
_symmetry_group_IT_number 46
_symmetry_cell_setting 'orthorhombic'
loop_
_space_group_symop_operation_xyz
x,y,z
-x,-y,z
1/2-x,y,z
1/2+x,-y,z
1/2+x,1/2+y,1/2+z
1/2-x,1/2-y,1/2+z
-x,1/2+y,1/2+z
x,1/2-y,1/2+z
loop_
_atom_site_type_symbol
_atom_site_label
_atom_site_fract_x
_atom_site_fract_y
_atom_site_fract_z
Si Si1 0.187107 0.995407 0.977960
Si Si2 0.097965 0.847173 0.851948
Si Si3 0.391169 0.070893 0.507857
Si Si4 0.859566 0.615321 0.727403
Si Si5 0.000000 0.500000 0.417840
Si Si6 0.434873 0.830335 0.576820
Si Si7 0.689684 0.641649 0.227941
Si Si8 0.043919 0.284373 0.582826
O O1 0.250000 0.960467 0.000090
O O2 0.155633 0.889264 0.907843
O O3 0.180751 0.107177 0.881799
O O4 0.157412 0.021206 0.116808
O O5 0.051564 0.949347 0.836713
O O6 0.106262 0.803693 0.699784
O O7 0.078282 0.744388 0.947109
O O8 0.358669 0.051576 0.370091
O O9 0.350527 0.070642 0.632688
O O10 0.420404 0.196442 0.492913
O O11 0.433289 0.965369 0.530970
O O12 0.816158 0.719260 0.720512
O O13 0.919970 0.667848 0.704413
O O14 0.975956 0.603663 0.504654
O O15 0.493719 0.793217 0.635468
O O16 0.750000 0.607915 0.181258
#
# Coordination Sequence:
#
# PCOD8193046 Si02
#       8
#     8   8   8   8   4   8   8   8
#     4  11  23  44  69  93 132 179 226 280 342 411
#     4  11  25  44  67  96 129 180 223 280 336 404
#     4  11  24  40  64  99 135 174 223 275 327 406
#     4  11  23  37  66  98 137 165 220 271 339 400
#     4  10  22  40  66  94 138 172 212 266 336 406
#     4  11  26  43  67  92 138 171 229 272 338 394
#     4  10  21  40  65  94 130 173 216 273 334 395
#     4  10  23  40  62 100 134 181 210 271 331 405
#
# _framework density 21.173560999999999
#
# number of rings (size 3 to 8) (size 9 to 14) (size 15 to 20)
#    0.000    1.333    2.667    2.400    7.467    2.133 
#    0.000    1.333    0.000    0.000    0.000    0.000 
#    0.000    0.000    0.000    0.000    0.000    0.000 
#
# Total GULP energy -371953.584050 kJ/mol
# GULP energy per Si atom -12398.452802 kJ/mol
# Density = 2.112537 g / cm^3
# Si number density = 21.173561 Si / 1000 Ang^3
#
#
#
# Elastic Constant Matrix: (Units=GPa)
#
#
# Indices 1 2 3 4 5 6 
#
# 1 98.7525 35.7094 27.1737 0.0000 0.0000 0.0000
# 2 35.7094 74.9447 23.5327 0.0000 0.0000 0.0000
# 3 27.1737 23.5327 122.8738 0.0000 0.0000 0.0000
# 4 0.0000 0.0000 0.0000 24.0207 0.0000 0.0000
# 5 0.0000 0.0000 0.0000 0.0000 21.3802 0.0000
# 6 0.0000 0.0000 0.0000 0.0000 0.0000 29.2573
#
#
#
# Elastic Compliance Matrix: (Units=1/GPa)
#
#
# Indices 1 2 3 4 5 6 
#
# 1 0.012574 -0.005445 -0.001738 0.000000 0.000000 0.000000
# 2 -0.005445 0.016555 -0.001966 0.000000 0.000000 0.000000
# 3 -0.001738 -0.001966 0.008899 0.000000 0.000000 0.000000
# 4 0.000000 0.000000 0.000000 0.041631 0.000000 0.000000
# 5 0.000000 0.000000 0.000000 0.000000 0.046772 0.000000
# 6 0.000000 0.000000 0.000000 0.000000 0.000000 0.034180
#
#
# Mechanical properties :
#
#
# Convention : Reuss Voigt Hill
#
# Bulk Modulus (GPa) = 50.68657 52.15583 51.42120
# Shear Modulus (GPa) = 26.95620 28.94198 27.94909
#
# Velocity S-wave (km/s) = 3.57193 3.70116 3.63712
# Velocity P-wave (km/s) = 6.40329 6.55369 6.47893
#
# Compressibility (1/GPa) = 0.01972909
#
# Stress axis : x y z
#
# Youngs Moduli (GPa) = 79.53193 60.40397 112.36783
#
# Poissons Ratio (x) = 0.32892 0.19527
# Poissons Ratio (y) = 0.43308 0.22096
# Poissons Ratio (z) = 0.13821 0.11878
#
# Static dielectric constant tensor:
#      x y z
#    x 3.939230 0.000000 0.000000 
#    y 0.000000 3.691950 0.000000 
#    z 0.000000 0.000000 3.808670 
# 
# 
# High freq. dielectric constant tensor:
#      x y z
#    x 1.824250 0.000000 0.000000 
#    y 0.000000 1.818080 0.000000 
#    z 0.000000 0.000000 1.835890 
# 
# From -- ./inp_files/8213.got.cif
#   From: 2010.03.12/outbox.cif.g09.slc.cpg/sg46_5_cif.got.tgz:8213.got - 2010.04.14 02:56:35.
