data_PCOD8193688
_publ_section_title
;
Structure prediction by ZEFSAII (Michael W. Deem and Ramdas Pophale) SiO2 
 PCOD8193688
Probable space group: P M M M
;
_chemical_formula_sum "Si O2"
_cell_formula_units_Z 44
_cell_length_a 8.979376
_cell_length_b 16.881787
_cell_length_c 15.650416
_cell_angle_alpha 90.000000
_cell_angle_beta 90.000000
_cell_angle_gamma 90.000000
_cell_volume 2372.413899
_symmetry_space_group_name_H-M "P M M M"
_symmetry_group_IT_number 47
_symmetry_cell_setting 'orthorhombic'
loop_
_space_group_symop_operation_xyz
x,y,z
-x,-y,z
x,-y,-z
-x,y,-z
-x,-y,-z
x,y,-z
-x,y,z
x,-y,z
loop_
_atom_site_type_symbol
_atom_site_label
_atom_site_fract_x
_atom_site_fract_y
_atom_site_fract_z
Si Si1 0.666099 0.406231 0.000000
Si Si2 0.676210 0.000000 0.332544
Si Si3 0.323419 0.165814 0.594106
Si Si4 0.323901 0.730757 0.248878
Si Si5 0.175205 0.409155 0.171638
Si Si6 0.176192 0.000000 0.149448
Si Si7 0.329133 0.844348 0.904565
O O1 0.753262 0.378040 0.083583
O O2 0.656090 0.500000 0.000000
O O3 0.500000 0.368657 0.000000
O O4 0.728245 0.923253 0.385157
O O5 0.757819 0.000000 0.243334
O O6 0.500000 0.000000 0.315572
O O7 0.262062 0.189418 0.500000
O O8 0.500000 0.168864 0.594766
O O9 0.263323 0.226164 0.665790
O O10 0.500000 0.717108 0.251350
O O11 0.242427 0.645704 0.246215
O O12 0.275207 0.781665 0.166240
O O13 0.218572 0.500000 0.191448
O O14 0.000000 0.398662 0.164811
O O15 0.230093 0.077284 0.099236
O O16 0.000000 0.000000 0.153576
O O17 0.500000 0.868001 0.885678
O O18 0.312252 0.807383 0.000000
#
# Coordination Sequence:
#
# PCOD8193688 Si02
#       7
#     4   4   8   8   8   4   8
#     4   9  17  31  53  79 105 136 177 220 261 309
#     4  10  17  33  57  79 106 139 176 215 265 323
#     4   9  17  31  56  86 109 132 170 222 274 320
#     4  10  20  34  55  82 108 136 176 225 271 321
#     4  10  21  36  53  76 109 146 181 218 267 323
#     4  12  23  34  51  75 108 146 186 224 260 306
#     4  10  21  37  55  75 103 143 185 223 264 312
#
# _framework density 18.546512
#
# number of rings (size 3 to 8) (size 9 to 14) (size 15 to 20)
#    0.000    2.091    1.818    2.182    1.273    5.455 
#    0.000    0.000    0.000    3.273    0.000    3.818 
#    0.000    0.000    0.000    0.000    0.000    0.000 
#
# Total GULP energy -545602.878315 kJ/mol
# GULP energy per Si atom -12400.065416 kJ/mol
# Density = 1.850430 g / cm^3
# Si number density = 18.546512 Si / 1000 Ang^3
#
#
#
# Elastic Constant Matrix: (Units=GPa)
#
#
# Indices 1 2 3 4 5 6 
#
# 1 57.6613 38.3595 29.8333 0.0000 0.0000 0.0000
# 2 38.3595 114.2374 67.0451 0.0000 0.0000 0.0000
# 3 29.8333 67.0451 149.3564 0.0000 0.0000 0.0000
# 4 0.0000 0.0000 0.0000 44.3995 0.0000 0.0000
# 5 0.0000 0.0000 0.0000 0.0000 11.6802 0.0000
# 6 0.0000 0.0000 0.0000 0.0000 0.0000 19.0479
#
#
#
# Elastic Compliance Matrix: (Units=1/GPa)
#
#
# Indices 1 2 3 4 5 6 
#
# 1 0.022577 -0.006699 -0.001502 0.000000 0.000000 0.000000
# 2 -0.006699 0.013873 -0.004889 0.000000 0.000000 0.000000
# 3 -0.001502 -0.004889 0.009190 0.000000 0.000000 0.000000
# 4 0.000000 0.000000 0.000000 0.022523 0.000000 0.000000
# 5 0.000000 0.000000 0.000000 0.000000 0.085615 0.000000
# 6 0.000000 0.000000 0.000000 0.000000 0.000000 0.052499
#
#
# Mechanical properties :
#
#
# Convention : Reuss Voigt Hill
#
# Bulk Modulus (GPa) = 51.39284 65.74786 58.57035
# Shear Modulus (GPa) = 20.92541 27.42666 24.17604
#
# Velocity S-wave (km/s) = 3.36261 3.84969 3.61437
# Velocity P-wave (km/s) = 6.54573 7.43555 7.00479
#
# Compressibility (1/GPa) = 0.01945796
#
# Stress axis : x y z
#
# Youngs Moduli (GPa) = 44.29347 72.08421 108.81149
#
# Poissons Ratio (x) = 0.48291 0.16347
# Poissons Ratio (y) = 0.29673 0.53200
# Poissons Ratio (z) = 0.06654 0.35243
#
# Static dielectric constant tensor:
#      x y z
#    x 3.152040 0.000000 0.000000 
#    y 0.000000 3.476940 0.000000 
#    z 0.000000 0.000000 3.582760 
# 
# 
# High freq. dielectric constant tensor:
#      x y z
#    x 1.693720 0.000000 0.000000 
#    y 0.000000 1.717150 0.000000 
#    z 0.000000 0.000000 1.712250 
# 
# From -- ./inp_files/20963.got.cif
#   From: 2010.03.12/outbox.cif.g09.slc.cpg/sg47_11_cif.got.tgz:20963.got - 2010.04.14 03:12:58.
