data_PCOD8193275
_publ_section_title
;
Structure prediction by ZEFSAII (Michael W. Deem and Ramdas Pophale) SiO2 
 PCOD8193275
Probable space group: I M A 2
;
_chemical_formula_sum "Si O2"
_cell_formula_units_Z 36
_cell_length_a 18.160052
_cell_length_b 8.500834
_cell_length_c 9.487667
_cell_angle_alpha 90.000000
_cell_angle_beta 90.000000
_cell_angle_gamma 90.000000
_cell_volume 1464.664167
_symmetry_space_group_name_H-M "I M A 2"
_symmetry_group_IT_number 46
_symmetry_cell_setting 'orthorhombic'
loop_
_space_group_symop_operation_xyz
x,y,z
-x,-y,z
1/2-x,y,z
1/2+x,-y,z
1/2+x,1/2+y,1/2+z
1/2-x,1/2-y,1/2+z
-x,1/2+y,1/2+z
x,1/2-y,1/2+z
loop_
_atom_site_type_symbol
_atom_site_label
_atom_site_fract_x
_atom_site_fract_y
_atom_site_fract_z
Si Si1 0.517350 0.818530 0.338590
Si Si2 0.750000 0.656790 0.268349
Si Si3 0.099955 0.373877 0.111277
Si Si4 0.750000 0.420388 0.520858
Si Si5 0.627254 0.320935 0.978903
Si Si6 0.250000 0.012357 0.323876
O O1 0.539891 0.707393 0.210572
O O2 0.582935 0.809061 0.453917
O O3 0.441339 0.744656 0.397152
O O4 0.500000 0.000000 0.293639
O O5 0.818624 0.662610 0.163073
O O6 0.750000 0.503407 0.368680
O O7 0.750000 0.806347 0.373694
O O8 0.093831 0.565118 0.101850
O O9 0.823300 0.316664 0.541956
O O10 0.750000 0.534231 0.654091
O O11 0.677014 0.426102 0.874960
#
# Coordination Sequence:
#
# PCOD8193275 Si02
#       6
#     8   4   8   4   8   4
#     4  10  24  47  74 110 155 200 253 312 377 449
#     4  12  26  45  74 110 145 199 255 307 384 458
#     4  11  25  45  77 109 151 201 252 321 372 452
#     4  11  28  43  79 109 147 202 246 313 397 444
#     4  10  25  48  72 112 148 196 256 315 375 462
#     4  11  26  46  75 103 152 195 253 326 361 468
#
# _framework density 24.579011000000001
#
# number of rings (size 3 to 8) (size 9 to 14) (size 15 to 20)
#    0.000    1.333    0.000    4.000   15.556    3.556 
#    0.000    3.333    0.000    0.000    0.000    0.000 
#    0.000    0.000    0.000    0.000    0.000    0.000 
#
# Total GULP energy -223112.861998 kJ/mol
# GULP energy per Si atom -12395.159000 kJ/mol
# Density = 2.452307 g / cm^3
# Si number density = 24.579011 Si / 1000 Ang^3
#
#
#
# Elastic Constant Matrix: (Units=GPa)
#
#
# Indices 1 2 3 4 5 6 
#
# 1 137.6728 46.9560 46.3529 0.0000 0.0000 0.0000
# 2 46.9560 105.0626 58.3869 0.0000 0.0000 0.0000
# 3 46.3529 58.3869 114.0372 0.0000 0.0000 0.0000
# 4 0.0000 0.0000 0.0000 39.1553 0.0000 0.0000
# 5 0.0000 0.0000 0.0000 0.0000 13.8218 0.0000
# 6 0.0000 0.0000 0.0000 0.0000 0.0000 34.0812
#
#
#
# Elastic Compliance Matrix: (Units=1/GPa)
#
#
# Indices 1 2 3 4 5 6 
#
# 1 0.008956 -0.002767 -0.002224 0.000000 0.000000 0.000000
# 2 -0.002767 0.014158 -0.006124 0.000000 0.000000 0.000000
# 3 -0.002224 -0.006124 0.012809 0.000000 0.000000 0.000000
# 4 0.000000 0.000000 0.000000 0.025539 0.000000 0.000000
# 5 0.000000 0.000000 0.000000 0.000000 0.072350 0.000000
# 6 0.000000 0.000000 0.000000 0.000000 0.000000 0.029342
#
#
# Mechanical properties :
#
#
# Convention : Reuss Voigt Hill
#
# Bulk Modulus (GPa) = 73.03046 73.35161 73.19103
# Shear Modulus (GPa) = 26.32303 31.08344 28.70324
#
# Velocity S-wave (km/s) = 3.27610 3.56003 3.42101
# Velocity P-wave (km/s) = 6.63984 6.84152 6.74143
#
# Compressibility (1/GPa) = 0.01369292
#
# Stress axis : x y z
#
# Youngs Moduli (GPa) = 111.65676 70.62999 78.07261
#
# Poissons Ratio (x) = 0.19543 0.17361
# Poissons Ratio (y) = 0.30895 0.47814
# Poissons Ratio (z) = 0.24829 0.43256
#
# Static dielectric constant tensor:
#      x y z
#    x 4.716230 0.000000 0.000000 
#    y 0.000000 4.412280 0.000000 
#    z 0.000000 0.000000 4.265870 
# 
# 
# High freq. dielectric constant tensor:
#      x y z
#    x 2.004450 0.000000 0.000000 
#    y 0.000000 1.968470 0.000000 
#    z 0.000000 0.000000 1.968940 
# 
# From -- ./inp_files/7183.got.cif
#   From: 2010.03.12/outbox.cif.g09.slc.cpg/sg46_4_cif.got.tgz:7183.got - 2010.04.14 02:56:35.
