data_PCOD8193558
_publ_section_title
;
Structure prediction by ZEFSAII (Michael W. Deem and Ramdas Pophale) SiO2 
 PCOD8193558
Probable space group: P M M M
;
_chemical_formula_sum "Si O2"
_cell_formula_units_Z 52
_cell_length_a 7.676437
_cell_length_b 14.414205
_cell_length_c 24.605116
_cell_angle_alpha 90.000000
_cell_angle_beta 90.000000
_cell_angle_gamma 90.000000
_cell_volume 2722.549604
_symmetry_space_group_name_H-M "P M M M"
_symmetry_group_IT_number 47
_symmetry_cell_setting 'orthorhombic'
loop_
_space_group_symop_operation_xyz
x,y,z
-x,-y,z
x,-y,-z
-x,y,-z
-x,-y,-z
x,y,-z
-x,y,z
x,-y,z
loop_
_atom_site_type_symbol
_atom_site_label
_atom_site_fract_x
_atom_site_fract_y
_atom_site_fract_z
Si Si1 0.000000 0.106843 0.435923
Si Si2 0.706892 0.399084 0.790783
Si Si3 0.292767 0.790208 0.836313
Si Si4 0.199777 0.105045 0.729180
Si Si5 0.292977 0.104213 0.940154
Si Si6 0.706479 0.398670 0.330993
Si Si7 0.302709 0.792053 0.374229
O O1 0.824202 0.153276 0.414053
O O2 0.000000 0.117596 0.500000
O O3 0.000000 0.000000 0.417419
O O4 0.500000 0.397067 0.788772
O O5 0.770109 0.500000 0.813077
O O6 0.775099 0.315667 0.828919
O O7 0.781103 0.384418 0.729864
O O8 0.500000 0.795589 0.834165
O O9 0.217621 0.854101 0.789081
O O10 0.218980 0.827106 0.893904
O O11 0.309586 0.163899 0.685931
O O12 0.000000 0.107970 0.710159
O O13 0.270438 0.000000 0.729860
O O14 0.500000 0.104887 0.938847
O O15 0.225543 0.000000 0.928454
O O16 0.227818 0.136762 0.000000
O O17 0.500000 0.395538 0.327783
O O18 0.768147 0.500000 0.353544
O O19 0.768528 0.314284 0.369466
O O20 0.500000 0.795120 0.397734
#
# Coordination Sequence:
#
# PCOD8193558 Si02
#       7
#     4   8   8   8   8   8   8
#     4  11  26  46  63  83 115 151 189 233 271 308
#     4   8  13  22  38  64  97 127 156 197 253 313
#     4  10  17  27  46  69  91 124 171 214 253 314
#     4  11  22  33  46  71 109 141 164 208 274 327
#     4   8  14  24  38  59  88 121 162 215 265 306
#     4   8  14  27  50  81 113 142 175 216 266 326
#     4  11  21  37  62  86 111 147 187 225 270 325
#
# _framework density 19.099743
#
# number of rings (size 3 to 8) (size 9 to 14) (size 15 to 20)
#    0.000    2.538    2.308    2.769    0.000    3.077 
#    0.000    1.154    0.000    3.231    0.000    7.538 
#    0.000    0.000    0.000    1.385    0.000    1.692 
#
# Total GULP energy -644449.174521 kJ/mol
# GULP energy per Si atom -12393.253356 kJ/mol
# Density = 1.905627 g / cm^3
# Si number density = 19.099743 Si / 1000 Ang^3
#
#
#
# Elastic Constant Matrix: (Units=GPa)
#
#
# Indices 1 2 3 4 5 6 
#
# 1 48.3332 29.8783 21.1512 0.0000 0.0000 0.0000
# 2 29.8783 184.1568 66.6752 0.0000 0.0000 0.0000
# 3 21.1512 66.6752 87.0877 0.0000 0.0000 0.0000
# 4 0.0000 0.0000 0.0000 22.6999 0.0000 0.0000
# 5 0.0000 0.0000 0.0000 0.0000 12.4473 0.0000
# 6 0.0000 0.0000 0.0000 0.0000 0.0000 5.9621
#
#
#
# Elastic Compliance Matrix: (Units=1/GPa)
#
#
# Indices 1 2 3 4 5 6 
#
# 1 0.023930 -0.002460 -0.003928 0.000000 0.000000 0.000000
# 2 -0.002460 0.007766 -0.005348 0.000000 0.000000 0.000000
# 3 -0.003928 -0.005348 0.016531 0.000000 0.000000 0.000000
# 4 0.000000 0.000000 0.000000 0.044053 0.000000 0.000000
# 5 0.000000 0.000000 0.000000 0.000000 0.080339 0.000000
# 6 0.000000 0.000000 0.000000 0.000000 0.000000 0.167727
#
#
# Mechanical properties :
#
#
# Convention : Reuss Voigt Hill
#
# Bulk Modulus (GPa) = 40.39818 61.66524 51.03171
# Shear Modulus (GPa) = 13.43839 21.68006 17.55923
#
# Velocity S-wave (km/s) = 2.65541 3.37277 3.03536
# Velocity P-wave (km/s) = 5.53160 6.89373 6.24988
#
# Compressibility (1/GPa) = 0.02475359
#
# Stress axis : x y z
#
# Youngs Moduli (GPa) = 41.78926 128.77426 60.49191
#
# Poissons Ratio (x) = 0.31681 0.23763
# Poissons Ratio (y) = 0.10281 0.32350
# Poissons Ratio (z) = 0.16416 0.68867
#
# Static dielectric constant tensor:
#      x y z
#    x 3.130080 0.000000 0.000000 
#    y 0.000000 4.080860 0.000000 
#    z 0.000000 0.000000 3.365600 
# 
# 
# High freq. dielectric constant tensor:
#      x y z
#    x 1.720420 0.000000 0.000000 
#    y 0.000000 1.755990 0.000000 
#    z 0.000000 0.000000 1.704980 
# 
# From -- ./inp_files/32014.got.cif
#   From: 2010.03.12/outbox.cif.g09.slc.cpg/sg47_17_cif.got.tgz:32014.got - 2010.04.14 03:12:58.
