data_PCOD8193658
_publ_section_title
;
Structure prediction by ZEFSAII (Michael W. Deem and Ramdas Pophale) SiO2 
 PCOD8193658
Probable space group: P M M M
;
_chemical_formula_sum "Si O2"
_cell_formula_units_Z 52
_cell_length_a 16.408668
_cell_length_b 20.923318
_cell_length_c 8.734310
_cell_angle_alpha 90.000000
_cell_angle_beta 90.000000
_cell_angle_gamma 90.000000
_cell_volume 2998.696312
_symmetry_space_group_name_H-M "P M M M"
_symmetry_group_IT_number 47
_symmetry_cell_setting 'orthorhombic'
loop_
_space_group_symop_operation_xyz
x,y,z
-x,-y,z
x,-y,-z
-x,y,-z
-x,-y,-z
x,y,-z
-x,y,z
x,-y,z
loop_
_atom_site_type_symbol
_atom_site_label
_atom_site_fract_x
_atom_site_fract_y
_atom_site_fract_z
Si Si1 0.661968 0.929113 0.181830
Si Si2 0.500000 0.718750 0.318380
Si Si3 0.183956 0.378529 0.681445
Si Si4 0.668674 0.688615 0.818627
Si Si5 0.909673 0.748051 0.319783
Si Si6 0.500000 0.141036 0.181661
Si Si7 0.094460 0.500000 0.818417
Si Si8 0.767115 0.813999 0.819955
O O1 0.576629 0.900188 0.236570
O O2 0.733038 0.881861 0.239592
O O3 0.674737 0.000000 0.251946
O O4 0.662103 0.932801 0.000000
O O5 0.500000 0.715064 0.500000
O O6 0.420716 0.682270 0.253916
O O7 0.500000 0.791631 0.264988
O O8 0.190539 0.386525 0.500000
O O9 0.274197 0.367521 0.750488
O O10 0.127855 0.319245 0.731419
O O11 0.141389 0.439421 0.753394
O O12 0.705210 0.757658 0.770889
O O13 0.662814 0.680806 0.000000
O O14 0.912240 0.753702 0.500000
O O15 0.855284 0.805564 0.255326
O O16 0.000000 0.753729 0.249589
O O17 0.500000 0.154473 0.000000
O O18 0.000000 0.500000 0.763544
O O19 0.099567 0.500000 0.000000
O O20 0.778063 0.813538 0.000000
#
# Coordination Sequence:
#
# PCOD8193658 Si02
#       8
#     8   4   8   8   8   4   4   8
#     4   9  16  27  46  71  97 127 166 209 255 309
#     4  12  22  31  49  76 105 138 175 216 257 300
#     4  10  20  35  55  80 108 138 172 212 261 311
#     4  10  19  34  53  75 103 136 173 216 261 306
#     4   9  18  32  50  72  98 128 163 204 252 305
#     4  10  17  30  48  70  97 131 169 208 255 307
#     4  11  23  37  55  82 115 150 183 213 249 299
#     4   9  17  29  47  71  96 124 162 208 257 305
#
# _framework density 17.340869999999999
#
# number of rings (size 3 to 8) (size 9 to 14) (size 15 to 20)
#    0.000    2.231    1.538    2.538    0.000    3.692 
#    0.000    0.000    0.000    3.231    0.000    6.462 
#    0.000    0.000    0.000    0.000    0.000    0.000 
#
# Total GULP energy -644774.857473 kJ/mol
# GULP energy per Si atom -12399.516490 kJ/mol
# Density = 1.730140 g / cm^3
# Si number density = 17.340870 Si / 1000 Ang^3
#
#
#
# Elastic Constant Matrix: (Units=GPa)
#
#
# Indices 1 2 3 4 5 6 
#
# 1 172.9688 80.7672 45.3163 0.0000 0.0000 0.0000
# 2 80.7672 115.7928 33.1400 0.0000 0.0000 0.0000
# 3 45.3163 33.1400 54.9443 0.0000 0.0000 0.0000
# 4 0.0000 0.0000 0.0000 18.6305 0.0000 0.0000
# 5 0.0000 0.0000 0.0000 0.0000 28.2734 0.0000
# 6 0.0000 0.0000 0.0000 0.0000 0.0000 25.2700
#
#
#
# Elastic Compliance Matrix: (Units=1/GPa)
#
#
# Indices 1 2 3 4 5 6 
#
# 1 0.009453 -0.005272 -0.004616 0.000000 0.000000 0.000000
# 2 -0.005272 0.013378 -0.003721 0.000000 0.000000 0.000000
# 3 -0.004616 -0.003721 0.024252 0.000000 0.000000 0.000000
# 4 0.000000 0.000000 0.000000 0.053675 0.000000 0.000000
# 5 0.000000 0.000000 0.000000 0.000000 0.035369 0.000000
# 6 0.000000 0.000000 0.000000 0.000000 0.000000 0.039573
#
#
# Mechanical properties :
#
#
# Convention : Reuss Voigt Hill
#
# Bulk Modulus (GPa) = 50.34189 73.57252 61.95720
# Shear Modulus (GPa) = 23.86175 26.73360 25.29768
#
# Velocity S-wave (km/s) = 3.71353 3.93065 3.82363
# Velocity P-wave (km/s) = 6.89063 7.94477 7.43640
#
# Compressibility (1/GPa) = 0.01986417
#
# Stress axis : x y z
#
# Youngs Moduli (GPa) = 105.79057 74.74684 41.23376
#
# Poissons Ratio (x) = 0.39408 0.19035
# Poissons Ratio (y) = 0.55775 0.15343
# Poissons Ratio (z) = 0.48836 0.27813
#
# Static dielectric constant tensor:
#      x y z
#    x 3.575440 0.000000 0.000000 
#    y 0.000000 3.256820 0.000000 
#    z 0.000000 0.000000 3.083550 
# 
# 
# High freq. dielectric constant tensor:
#      x y z
#    x 1.675750 0.000000 0.000000 
#    y 0.000000 1.651440 0.000000 
#    z 0.000000 0.000000 1.658760 
# 
# From -- ./inp_files/7166.got.cif
#   From: 2010.03.12/outbox.cif.g09.slc.cpg/sg47_4_cif.got.tgz:7166.got - 2010.04.14 03:12:58.
