data_PCOD8193691
_publ_section_title
;
Structure prediction by ZEFSAII (Michael W. Deem and Ramdas Pophale) SiO2 
 PCOD8193691
Probable space group: P M M M
;
_chemical_formula_sum "Si O2"
_cell_formula_units_Z 52
_cell_length_a 16.279051
_cell_length_b 20.580463
_cell_length_c 9.417498
_cell_angle_alpha 90.000000
_cell_angle_beta 90.000000
_cell_angle_gamma 90.000000
_cell_volume 3155.148186
_symmetry_space_group_name_H-M "P M M M"
_symmetry_group_IT_number 47
_symmetry_cell_setting 'orthorhombic'
loop_
_space_group_symop_operation_xyz
x,y,z
-x,-y,z
x,-y,-z
-x,y,-z
-x,-y,-z
x,y,-z
-x,y,z
x,-y,z
loop_
_atom_site_type_symbol
_atom_site_label
_atom_site_fract_x
_atom_site_fract_y
_atom_site_fract_z
Si Si1 0.594522 0.799145 0.334539
Si Si2 0.836584 0.364870 0.662775
Si Si3 0.316466 0.071970 0.336528
Si Si4 0.734465 0.265758 0.833108
Si Si5 0.093066 0.500000 0.331397
Si Si6 0.000000 0.158362 0.833864
Si Si7 0.178074 0.867904 0.835671
Si Si8 0.000000 0.284079 0.656370
O O1 0.612943 0.785672 0.500000
O O2 0.500000 0.787424 0.297178
O O3 0.616173 0.874005 0.294945
O O4 0.647070 0.750215 0.238756
O O5 0.804765 0.364023 0.500000
O O6 0.768857 0.331374 0.762853
O O7 0.854029 0.437736 0.718192
O O8 0.921795 0.328458 0.677245
O O9 0.292325 0.078511 0.500000
O O10 0.232422 0.081737 0.251125
O O11 0.351994 0.000000 0.302680
O O12 0.796884 0.206489 0.801732
O O13 0.721408 0.277020 0.000000
O O14 0.084147 0.500000 0.500000
O O15 0.000000 0.500000 0.266973
O O16 0.916876 0.120723 0.788912
O O17 0.000000 0.229668 0.772949
O O18 0.000000 0.169837 0.000000
O O19 0.191779 0.883563 0.000000
O O20 0.000000 0.251823 0.500000
#
# Coordination Sequence:
#
# PCOD8193691 Si02
#       8
#     8   8   8   8   4   4   8   4
#     4   9  18  33  53  76  99 120 147 188 235 286
#     4  10  18  29  46  69  97 131 169 202 236 277
#     4   9  18  32  49  69  94 122 150 184 230 283
#     4  10  19  31  48  69  96 127 158 196 238 283
#     4   9  16  28  45  67  98 135 172 207 237 270
#     4  10  18  30  44  62  89 121 161 204 241 276
#     4   9  18  30  45  64  87 120 159 198 236 274
#     4  10  18  25  42  69  93 122 161 203 241 276
#
# _framework density 16.481000000000002
#
# number of rings (size 3 to 8) (size 9 to 14) (size 15 to 20)
#    0.000    2.538    2.308    0.462    0.000    2.154 
#    0.000    2.308    0.000    2.769    0.000    4.846 
#    0.000    4.308    0.000    0.000    0.000    0.000 
#
# Total GULP energy -644664.132844 kJ/mol
# GULP energy per Si atom -12397.387170 kJ/mol
# Density = 1.644349 g / cm^3
# Si number density = 16.481000 Si / 1000 Ang^3
#
#
#
# Elastic Constant Matrix: (Units=GPa)
#
#
# Indices 1 2 3 4 5 6 
#
# 1 112.0067 42.6299 49.1554 0.0000 0.0000 0.0000
# 2 42.6299 86.5190 36.3297 0.0000 0.0000 0.0000
# 3 49.1554 36.3297 54.9785 0.0000 0.0000 0.0000
# 4 0.0000 0.0000 0.0000 17.1062 0.0000 0.0000
# 5 0.0000 0.0000 0.0000 0.0000 22.8595 0.0000
# 6 0.0000 0.0000 0.0000 0.0000 0.0000 39.2657
#
#
#
# Elastic Compliance Matrix: (Units=1/GPa)
#
#
# Indices 1 2 3 4 5 6 
#
# 1 0.015058 -0.002444 -0.011848 0.000000 0.000000 0.000000
# 2 -0.002444 0.016394 -0.008647 0.000000 0.000000 0.000000
# 3 -0.011848 -0.008647 0.034496 0.000000 0.000000 0.000000
# 4 0.000000 0.000000 0.000000 0.058458 0.000000 0.000000
# 5 0.000000 0.000000 0.000000 0.000000 0.043745 0.000000
# 6 0.000000 0.000000 0.000000 0.000000 0.000000 0.025468
#
#
# Mechanical properties :
#
#
# Convention : Reuss Voigt Hill
#
# Bulk Modulus (GPa) = 49.82955 56.63714 53.23334
# Shear Modulus (GPa) = 20.30973 24.20556 22.25764
#
# Velocity S-wave (km/s) = 3.51424 3.83651 3.67891
# Velocity P-wave (km/s) = 6.83862 7.35288 7.10040
#
# Compressibility (1/GPa) = 0.02006841
#
# Stress axis : x y z
#
# Youngs Moduli (GPa) = 66.41028 60.99920 28.98894
#
# Poissons Ratio (x) = 0.14911 0.34345
# Poissons Ratio (y) = 0.16234 0.25068
# Poissons Ratio (z) = 0.78681 0.52748
#
# Static dielectric constant tensor:
#      x y z
#    x 3.077720 0.000000 0.000000 
#    y 0.000000 3.077320 0.000000 
#    z 0.000000 0.000000 3.059460 
# 
# 
# High freq. dielectric constant tensor:
#      x y z
#    x 1.622700 0.000000 0.000000 
#    y 0.000000 1.616250 0.000000 
#    z 0.000000 0.000000 1.627390 
# 
# From -- ./inp_files/7127.got.cif
#   From: 2010.03.12/outbox.cif.g09.slc.cpg/sg47_4_cif.got.tgz:7127.got - 2010.04.14 03:12:58.
