data_PCOD8193421
_publ_section_title
;
Structure prediction by ZEFSAII (Michael W. Deem and Ramdas Pophale) SiO2 
 PCOD8193421
Probable space group: I M A 2
;
_chemical_formula_sum "Si O2"
_cell_formula_units_Z 40
_cell_length_a 9.419781
_cell_length_b 7.624422
_cell_length_c 25.366792
_cell_angle_alpha 90.000000
_cell_angle_beta 90.000000
_cell_angle_gamma 90.000000
_cell_volume 1821.852780
_symmetry_space_group_name_H-M "I M A 2"
_symmetry_group_IT_number 46
_symmetry_cell_setting 'orthorhombic'
loop_
_space_group_symop_operation_xyz
x,y,z
-x,-y,z
1/2-x,y,z
1/2+x,-y,z
1/2+x,1/2+y,1/2+z
1/2-x,1/2-y,1/2+z
-x,1/2+y,1/2+z
x,1/2-y,1/2+z
loop_
_atom_site_type_symbol
_atom_site_label
_atom_site_fract_x
_atom_site_fract_y
_atom_site_fract_z
Si Si1 0.250000 0.000327 0.541430
Si Si2 0.500000 0.500000 0.119649
Si Si3 0.250000 0.296536 0.450782
Si Si4 0.575185 0.670178 0.686979
Si Si5 0.583744 0.175834 0.777005
Si Si6 0.250000 0.810212 0.971116
Si Si7 0.518030 0.204409 0.391208
O O1 0.123238 0.036162 0.579512
O O2 0.250000 0.795426 0.525732
O O3 0.250000 0.133762 0.491377
O O4 0.498129 0.331400 0.156891
O O5 0.250000 0.481064 0.482431
O O6 0.373974 0.295253 0.408197
O O7 0.500000 0.500000 0.660755
O O8 0.750000 0.667057 0.686468
O O9 0.508348 0.677278 0.746145
O O10 0.750000 0.167273 0.758774
O O11 0.581519 0.210361 0.839064
O O12 0.500000 0.000000 0.763294
O O13 0.114726 0.742773 0.940621
O O14 0.500000 0.000000 0.381534
#
# Coordination Sequence:
#
# PCOD8193421 Si02
#       7
#     4   4   4   8   8   4   8
#     4  12  26  48  78 108 144 200 256 318 382 440
#     4  12  28  50  80 106 152 196 260 322 384 438
#     4  12  26  44  75 105 149 196 248 309 370 457
#     4  12  28  50  80 114 152 197 253 318 385 462
#     4  12  26  44  74 112 153 200 253 309 382 461
#     4  12  24  48  71 105 147 194 250 307 370 449
#     4  12  24  44  70 107 152 196 245 303 373 452
#
# _framework density 21.955670999999999
#
# number of rings (size 3 to 8) (size 9 to 14) (size 15 to 20)
#    0.000    0.000    5.000    4.800    5.600    1.600 
#    0.000    0.000    0.000    0.000    0.000    0.000 
#    0.000    0.000    0.000    0.000    0.000    0.000 
#
# Total GULP energy -247828.252517 kJ/mol
# GULP energy per Si atom -12391.412626 kJ/mol
# Density = 2.190570 g / cm^3
# Si number density = 21.955671 Si / 1000 Ang^3
#
#
#
# Elastic Constant Matrix: (Units=GPa)
#
#
# Indices 1 2 3 4 5 6 
#
# 1 133.4815 20.1479 9.3998 0.0000 0.0000 0.0000
# 2 20.1479 146.2733 19.7017 0.0000 0.0000 0.0000
# 3 9.3998 19.7017 72.2724 0.0000 0.0000 0.0000
# 4 0.0000 0.0000 0.0000 25.1391 0.0000 0.0000
# 5 0.0000 0.0000 0.0000 0.0000 -7.0414 0.0000
# 6 0.0000 0.0000 0.0000 0.0000 0.0000 32.3475
#
#
#
# Elastic Compliance Matrix: (Units=1/GPa)
#
#
# Indices 1 2 3 4 5 6 
#
# 1 0.007689 -0.000960 -0.000738 0.000000 0.000000 0.000000
# 2 -0.000960 0.007217 -0.001843 0.000000 0.000000 0.000000
# 3 -0.000738 -0.001843 0.014435 0.000000 0.000000 0.000000
# 4 0.000000 0.000000 0.000000 0.039779 0.000000 0.000000
# 5 0.000000 0.000000 0.000000 0.000000 -0.142018 0.000000
# 6 0.000000 0.000000 0.000000 0.000000 0.000000 0.030914
#
#
# Mechanical properties :
#
#
# Convention : Reuss Voigt Hill
#
# Bulk Modulus (GPa) = 44.92519 50.05846 47.49182
# Shear Modulus (GPa) = -181.92281 30.27423 -75.82429
#
# Velocity S-wave (km/s) = -9.11257 3.71736 -5.88304
# Velocity P-wave (km/s) = 9.49803 6.42450 4.94663
#
# Compressibility (1/GPa) = 0.02225923
#
# Stress axis : x y z
#
# Youngs Moduli (GPa) = 130.06421 138.56435 69.27673
#
# Poissons Ratio (x) = 0.13296 0.05115
# Poissons Ratio (y) = 0.12481 0.12765
# Poissons Ratio (z) = 0.09604 0.25531
#
# Static dielectric constant tensor:
#      x y z
#    x 4.268050 0.000000 0.000000 
#    y 0.000000 4.044950 0.000000 
#    z 0.000000 0.000000 3.983520 
# 
# 
# High freq. dielectric constant tensor:
#      x y z
#    x 1.883850 0.000000 0.000000 
#    y 0.000000 1.878270 0.000000 
#    z 0.000000 0.000000 1.864570 
# 
# From -- ./inp_files/22812.got.cif
#   From: 2010.03.12/outbox.cif.g09.slc.cpg/sg46_12_cif.got.tgz:22812.got - 2010.04.14 02:56:35.
