data_PCOD8193449
_publ_section_title
;
Structure prediction by ZEFSAII (Michael W. Deem and Ramdas Pophale) SiO2 
 PCOD8193449
Probable space group: P M M M
;
_chemical_formula_sum "Si O2"
_cell_formula_units_Z 52
_cell_length_a 13.685462
_cell_length_b 12.044043
_cell_length_c 18.516403
_cell_angle_alpha 90.000000
_cell_angle_beta 90.000000
_cell_angle_gamma 90.000000
_cell_volume 3052.027095
_symmetry_space_group_name_H-M "P M M M"
_symmetry_group_IT_number 47
_symmetry_cell_setting 'orthorhombic'
loop_
_space_group_symop_operation_xyz
x,y,z
-x,-y,z
x,-y,-z
-x,y,-z
-x,-y,-z
x,y,-z
-x,y,z
x,-y,z
loop_
_atom_site_type_symbol
_atom_site_label
_atom_site_fract_x
_atom_site_fract_y
_atom_site_fract_z
Si Si1 0.855938 0.000000 0.205013
Si Si2 0.113236 0.238351 0.417996
Si Si3 0.391386 0.628344 0.790570
Si Si4 0.894061 0.237876 0.838429
Si Si5 0.800005 0.631107 0.289587
Si Si6 0.708925 0.000000 0.921600
Si Si7 0.113756 0.000000 0.637416
Si Si8 0.693414 0.758476 0.919740
O O1 0.913857 0.886869 0.189931
O O2 0.823076 0.000000 0.288911
O O3 0.764875 0.000000 0.152876
O O4 0.136767 0.272434 0.500000
O O5 0.178657 0.315475 0.367028
O O6 0.139845 0.108650 0.408815
O O7 0.000000 0.259221 0.399461
O O8 0.500000 0.658317 0.762092
O O9 0.381560 0.500000 0.809402
O O10 0.312649 0.661088 0.729634
O O11 0.372330 0.689179 0.865836
O O12 0.869446 0.317258 0.771205
O O13 0.808613 0.242542 0.897983
O O14 0.000000 0.276475 0.870373
O O15 0.818465 0.500000 0.293252
O O16 0.649436 0.884338 0.919865
O O17 0.767544 0.000000 0.000000
O O18 0.000000 0.000000 0.660065
O O19 0.685618 0.706925 0.000000
#
# Coordination Sequence:
#
# PCOD8193449 Si02
#       8
#     4   8   8   8   8   4   4   8
#     4  10  16  25  46  68  89 127 175 209 230 261
#     4  10  20  32  48  73 104 135 162 190 227 271
#     4   9  19  36  56  74  90 114 155 207 252 285
#     4  10  18  28  44  67  95 129 166 200 232 271
#     4  10  20  33  49  69  95 125 157 195 237 287
#     4   8  16  30  44  65 101 133 156 192 240 287
#     4  10  17  28  46  70  99 129 167 206 229 256
#     4   9  18  31  47  69  97 128 159 195 240 288
#
# _framework density 17.037856000000001
#
# number of rings (size 3 to 8) (size 9 to 14) (size 15 to 20)
#    0.000    2.462    1.538    1.385    0.000    3.385 
#    0.000    1.923    0.000    7.615    0.000    6.462 
#    0.000    1.231    0.000    0.000    0.000    0.000 
#
# Total GULP energy -644267.956429 kJ/mol
# GULP energy per Si atom -12389.768393 kJ/mol
# Density = 1.699908 g / cm^3
# Si number density = 17.037856 Si / 1000 Ang^3
#
#
#
# Elastic Constant Matrix: (Units=GPa)
#
#
# Indices 1 2 3 4 5 6 
#
# 1 79.9363 39.9260 35.4776 0.0000 0.0000 0.0000
# 2 39.9260 86.2033 46.2224 0.0000 0.0000 0.0000
# 3 35.4776 46.2224 112.5872 0.0000 0.0000 0.0000
# 4 0.0000 0.0000 0.0000 17.9057 0.0000 0.0000
# 5 0.0000 0.0000 0.0000 0.0000 15.4678 0.0000
# 6 0.0000 0.0000 0.0000 0.0000 0.0000 11.7398
#
#
#
# Elastic Compliance Matrix: (Units=1/GPa)
#
#
# Indices 1 2 3 4 5 6 
#
# 1 0.016895 -0.006373 -0.002707 0.000000 0.000000 0.000000
# 2 -0.006373 0.017279 -0.005086 0.000000 0.000000 0.000000
# 3 -0.002707 -0.005086 0.011823 0.000000 0.000000 0.000000
# 4 0.000000 0.000000 0.000000 0.055848 0.000000 0.000000
# 5 0.000000 0.000000 0.000000 0.000000 0.064651 0.000000
# 6 0.000000 0.000000 0.000000 0.000000 0.000000 0.085180
#
#
# Mechanical properties :
#
#
# Convention : Reuss Voigt Hill
#
# Bulk Modulus (GPa) = 56.61027 57.99764 57.30396
# Shear Modulus (GPa) = 17.48884 19.49604 18.49244
#
# Velocity S-wave (km/s) = 3.20733 3.38639 3.29808
# Velocity P-wave (km/s) = 6.85670 7.02883 6.94330
#
# Compressibility (1/GPa) = 0.01766464
#
# Stress axis : x y z
#
# Youngs Moduli (GPa) = 59.18974 57.87250 84.58117
#
# Poissons Ratio (x) = 0.36885 0.22897
# Poissons Ratio (y) = 0.37724 0.43015
# Poissons Ratio (z) = 0.16024 0.29432
#
# Static dielectric constant tensor:
#      x y z
#    x 3.020240 0.000000 0.000000 
#    y 0.000000 3.395330 0.000000 
#    z 0.000000 0.000000 3.120450 
# 
# 
# High freq. dielectric constant tensor:
#      x y z
#    x 1.623060 0.000000 0.000000 
#    y 0.000000 1.667470 0.000000 
#    z 0.000000 0.000000 1.651350 
# 
# From -- ./inp_files/28221.got.cif
#   From: 2010.03.12/outbox.cif.g09.slc.cpg/sg47_15_cif.got.tgz:28221.got - 2010.04.14 03:12:58.
