data_PCOD8193187
_publ_section_title
;
Structure prediction by ZEFSAII (Michael W. Deem and Ramdas Pophale) SiO2 
 PCOD8193187
Probable space group: I M A 2
;
_chemical_formula_sum "Si O2"
_cell_formula_units_Z 48
_cell_length_a 10.218228
_cell_length_b 17.704645
_cell_length_c 13.942699
_cell_angle_alpha 90.000000
_cell_angle_beta 90.000000
_cell_angle_gamma 90.000000
_cell_volume 2522.375060
_symmetry_space_group_name_H-M "I M A 2"
_symmetry_group_IT_number 46
_symmetry_cell_setting 'orthorhombic'
loop_
_space_group_symop_operation_xyz
x,y,z
-x,-y,z
1/2-x,y,z
1/2+x,-y,z
1/2+x,1/2+y,1/2+z
1/2-x,1/2-y,1/2+z
-x,1/2+y,1/2+z
x,1/2-y,1/2+z
loop_
_atom_site_type_symbol
_atom_site_label
_atom_site_fract_x
_atom_site_fract_y
_atom_site_fract_z
Si Si1 0.750000 0.075036 0.796330
Si Si2 0.250000 0.810178 0.638024
Si Si3 0.397796 0.364454 0.503567
Si Si4 0.250000 0.741672 0.339802
Si Si5 0.900533 0.932663 0.412716
Si Si6 0.536665 0.210026 0.479073
Si Si7 0.000000 0.500000 0.380367
Si Si8 0.395110 0.061609 0.195292
O O1 0.750000 0.105476 0.685613
O O2 0.750000 0.150851 0.864331
O O3 0.623048 0.022604 0.813755
O O4 0.250000 0.748104 0.724329
O O5 0.378442 0.796755 0.575199
O O6 0.250000 0.372039 0.468295
O O7 0.447144 0.282666 0.477827
O O8 0.476552 0.428761 0.448370
O O9 0.410393 0.371427 0.618772
O O10 0.374549 0.784200 0.384253
O O11 0.750000 0.956462 0.435399
O O12 0.917211 0.907557 0.302169
O O13 0.941165 0.861606 0.476338
O O14 0.000000 0.000000 0.437783
O O15 0.250000 0.025015 0.186998
O O16 0.500000 0.000000 0.166395
#
# Coordination Sequence:
#
# PCOD8193187 Si02
#       8
#     4   4   8   4   8   8   4   8
#     4  10  22  42  62  94 128 174 217 258 327 382
#     4   9  23  44  61  93 125 167 220 263 316 394
#     4  11  21  34  60  94 128 162 209 261 321 383
#     4   9  21  40  61  91 123 159 215 257 317 384
#     4  10  23  42  63  87 121 164 211 264 320 377
#     4  11  22  40  66  90 122 171 212 269 321 381
#     4  12  20  38  66  94 136 172 210 266 318 396
#     4   9  19  35  54  86 121 155 194 248 306 369
#
# _framework density 19.029684
#
# number of rings (size 3 to 8) (size 9 to 14) (size 15 to 20)
#    0.500    1.333    3.333    0.500    4.667    0.000 
#    4.500    0.000    1.833    0.000    0.000    0.000 
#    0.000    0.000    0.000    0.000    0.000    0.000 
#
# Total GULP energy -297500.169637 kJ/mol
# GULP energy per Si atom -12395.840402 kJ/mol
# Density = 1.898637 g / cm^3
# Si number density = 19.029684 Si / 1000 Ang^3
#
#
#
# Elastic Constant Matrix: (Units=GPa)
#
#
# Indices 1 2 3 4 5 6 
#
# 1 113.6991 42.6952 35.8060 0.0000 0.0000 0.0000
# 2 42.6952 102.2649 29.1029 0.0002 0.0000 0.0000
# 3 35.8060 29.1029 88.2882 0.0006 0.0001 0.0000
# 4 0.0000 0.0002 0.0006 21.2847 0.0000 0.0000
# 5 0.0000 0.0000 0.0001 0.0000 18.3467 0.0000
# 6 0.0000 0.0000 0.0000 0.0000 0.0000 35.7176
#
#
#
# Elastic Compliance Matrix: (Units=1/GPa)
#
#
# Indices 1 2 3 4 5 6 
#
# 1 0.011251 -0.003751 -0.003327 0.000000 0.000000 0.000000
# 2 -0.003751 0.012041 -0.002448 0.000000 0.000000 0.000000
# 3 -0.003327 -0.002448 0.013483 0.000000 0.000000 0.000000
# 4 0.000000 0.000000 0.000000 0.046982 0.000000 0.000000
# 5 0.000000 0.000000 0.000000 0.000000 0.054506 0.000000
# 6 0.000000 0.000000 0.000000 0.000000 0.000000 0.027997
#
#
# Mechanical properties :
#
#
# Convention : Reuss Voigt Hill
#
# Bulk Modulus (GPa) = 56.42000 57.71782 57.06891
# Shear Modulus (GPa) = 26.14806 28.17969 27.16387
#
# Velocity S-wave (km/s) = 3.71086 3.85233 3.78226
# Velocity P-wave (km/s) = 6.93350 7.08403 7.00917
#
# Compressibility (1/GPa) = 0.01772421
#
# Stress axis : x y z
#
# Youngs Moduli (GPa) = 88.87974 83.04916 74.16925
#
# Poissons Ratio (x) = 0.31148 0.24674
# Poissons Ratio (y) = 0.33335 0.18157
# Poissons Ratio (z) = 0.29567 0.20331
#
# Static dielectric constant tensor:
#      x y z
#    x 3.569980 0.000000 0.000000 
#    y 0.000000 3.254550 0.000000 
#    z 0.000000 0.000000 3.380670 
# 
# 
# High freq. dielectric constant tensor:
#      x y z
#    x 1.754570 0.000000 0.000000 
#    y 0.000000 1.725010 0.000000 
#    z 0.000000 0.000000 1.729840 
# 
# From -- ./inp_files/13986.got.cif
#   From: 2010.03.12/outbox.cif.g09.slc.cpg/sg46_7_cif.got.tgz:13986.got - 2010.04.14 02:56:35.
