data_PCOD8193737
_publ_section_title
;
Structure prediction by ZEFSAII (Michael W. Deem and Ramdas Pophale) SiO2 
 PCOD8193737
Probable space group: P M M M
;
_chemical_formula_sum "Si O2"
_cell_formula_units_Z 64
_cell_length_a 9.493529
_cell_length_b 18.399471
_cell_length_c 26.209845
_cell_angle_alpha 90.000000
_cell_angle_beta 90.000000
_cell_angle_gamma 90.000000
_cell_volume 4578.228566
_symmetry_space_group_name_H-M "P M M M"
_symmetry_group_IT_number 47
_symmetry_cell_setting 'orthorhombic'
loop_
_space_group_symop_operation_xyz
x,y,z
-x,-y,z
x,-y,-z
-x,y,-z
-x,-y,-z
x,y,-z
-x,y,z
x,-y,z
loop_
_atom_site_type_symbol
_atom_site_label
_atom_site_fract_x
_atom_site_fract_y
_atom_site_fract_z
Si Si1 0.664967 0.332252 0.639956
Si Si2 0.832400 0.919285 0.251919
Si Si3 0.842760 0.215430 0.688151
Si Si4 0.831897 0.163845 0.846234
Si Si5 0.156671 0.303253 0.207226
Si Si6 0.167576 0.081877 0.056307
Si Si7 0.839716 0.416240 0.559141
Si Si8 0.336293 0.417300 0.742759
O O1 0.500000 0.321171 0.631183
O O2 0.734750 0.253369 0.649267
O O3 0.731790 0.366536 0.589709
O O4 0.697687 0.385421 0.687118
O O5 0.788817 0.866288 0.298868
O O6 0.772286 0.888824 0.198245
O O7 0.000000 0.921156 0.248559
O O8 0.770900 0.000000 0.261735
O O9 0.847917 0.258677 0.740741
O O10 0.000000 0.214263 0.663954
O O11 0.785217 0.247710 0.836268
O O12 0.771293 0.136243 0.900595
O O13 0.000000 0.160865 0.845194
O O14 0.257002 0.372961 0.212787
O O15 0.000000 0.331154 0.193426
O O16 0.000000 0.082746 0.058077
O O17 0.220728 0.000000 0.067481
O O18 0.219541 0.107014 0.000000
O O19 0.822653 0.396682 0.500000
O O20 0.800909 0.500000 0.568850
O O21 0.000000 0.401126 0.577005
O O22 0.500000 0.411711 0.755178
O O23 0.282685 0.500000 0.743645
#
# Coordination Sequence:
#
# PCOD8193737 Si02
#       8
#     8   8   8   8   8   8   8   8
#     4  10  18  27  40  56  75 100 127 151 177 212
#     4   8  12  18  31  50  69  92 124 158 187 214
#     4   8  14  24  36  51  72  96 123 154 184 215
#     4   8  12  18  28  43  67  96 123 152 183 213
#     4   8  14  23  34  49  68  92 121 149 178 213
#     4   8  12  16  23  39  66  99 128 149 174 212
#     4   9  18  31  44  58  77 100 125 153 183 211
#     4   9  17  27  37  51  72  95 118 146 180 215
#
# _framework density 13.979205
#
# number of rings (size 3 to 8) (size 9 to 14) (size 15 to 20)
#    0.000    3.500    0.000    3.375    0.000    3.250 
#    0.000    0.625    0.000    0.375    0.000    0.000 
#    0.000    3.000    0.000   13.375    0.000    5.250 
#
# Total GULP energy -793073.670611 kJ/mol
# GULP energy per Si atom -12391.776103 kJ/mol
# Density = 1.394739 g / cm^3
# Si number density = 13.979205 Si / 1000 Ang^3
#
#
#
# Elastic Constant Matrix: (Units=GPa)
#
#
# Indices 1 2 3 4 5 6 
#
# 1 43.3037 37.9656 32.1866 0.0000 0.0000 0.0000
# 2 37.9656 105.2597 48.4643 0.0000 0.0000 0.0000
# 3 32.1866 48.4643 68.4533 0.0000 0.0000 0.0000
# 4 0.0000 0.0000 0.0000 26.1660 0.0000 0.0000
# 5 0.0000 0.0000 0.0000 0.0000 7.8307 0.0000
# 6 0.0000 0.0000 0.0000 0.0000 0.0000 9.0667
#
#
#
# Elastic Compliance Matrix: (Units=1/GPa)
#
#
# Indices 1 2 3 4 5 6 
#
# 1 0.040124 -0.008584 -0.012789 0.000000 0.000000 0.000000
# 2 -0.008584 0.015931 -0.007243 0.000000 0.000000 0.000000
# 3 -0.012789 -0.007243 0.025750 0.000000 0.000000 0.000000
# 4 0.000000 0.000000 0.000000 0.038218 0.000000 0.000000
# 5 0.000000 0.000000 0.000000 0.000000 0.127702 0.000000
# 6 0.000000 0.000000 0.000000 0.000000 0.000000 0.110293
#
#
# Mechanical properties :
#
#
# Convention : Reuss Voigt Hill
#
# Bulk Modulus (GPa) = 40.69426 50.47217 45.58321
# Shear Modulus (GPa) = 11.80801 15.17270 13.49035
#
# Velocity S-wave (km/s) = 2.90950 3.29808 3.10986
# Velocity P-wave (km/s) = 6.36087 7.11946 6.75083
#
# Compressibility (1/GPa) = 0.02457349
#
# Stress axis : x y z
#
# Youngs Moduli (GPa) = 24.92261 62.76959 38.83507
#
# Poissons Ratio (x) = 0.53880 0.49666
# Poissons Ratio (y) = 0.21393 0.28129
# Poissons Ratio (z) = 0.31874 0.45465
#
# Static dielectric constant tensor:
#      x y z
#    x 2.510440 0.000000 0.000000 
#    y 0.000000 2.985860 0.000000 
#    z 0.000000 0.000000 2.690290 
# 
# 
# High freq. dielectric constant tensor:
#      x y z
#    x 1.501920 0.000000 0.000000 
#    y 0.000000 1.526440 0.000000 
#    z 0.000000 0.000000 1.503240 
# 
# From -- ./inp_files/13528.got.cif
#   From: 2010.03.12/outbox.cif.g09.slc.cpg/sg47_7_cif.got.tgz:13528.got - 2010.04.14 03:12:58.
