data_PCOD8193366
_publ_section_title
;
Structure prediction by ZEFSAII (Michael W. Deem and Ramdas Pophale) SiO2 
 PCOD8193366
Probable space group: I M A 2
;
_chemical_formula_sum "Si O2"
_cell_formula_units_Z 64
_cell_length_a 8.681188
_cell_length_b 29.530161
_cell_length_c 12.671892
_cell_angle_alpha 90.000000
_cell_angle_beta 90.000000
_cell_angle_gamma 90.000000
_cell_volume 3248.526688
_symmetry_space_group_name_H-M "I M A 2"
_symmetry_group_IT_number 46
_symmetry_cell_setting 'orthorhombic'
loop_
_space_group_symop_operation_xyz
x,y,z
-x,-y,z
1/2-x,y,z
1/2+x,-y,z
1/2+x,1/2+y,1/2+z
1/2-x,1/2-y,1/2+z
-x,1/2+y,1/2+z
x,1/2-y,1/2+z
loop_
_atom_site_type_symbol
_atom_site_label
_atom_site_fract_x
_atom_site_fract_y
_atom_site_fract_z
Si Si1 0.567981 0.048008 0.563500
Si Si2 0.420444 0.204657 0.591007
Si Si3 0.067061 0.876532 0.160762
Si Si4 0.567333 0.644028 0.444044
Si Si5 0.921495 0.784906 0.236249
Si Si6 0.570693 0.258520 0.424914
Si Si7 0.067198 0.626226 0.221308
Si Si8 0.431787 0.547845 0.825271
O O1 0.750000 0.044554 0.567845
O O2 0.508569 0.085558 0.646200
O O3 0.512925 0.060896 0.444408
O O4 0.500000 0.000000 0.598901
O O5 0.250000 0.184496 0.568155
O O6 0.403158 0.255985 0.630954
O O7 0.518718 0.212409 0.485221
O O8 0.509033 0.172919 0.672229
O O9 0.250000 0.875270 0.148970
O O10 0.010436 0.915851 0.239830
O O11 0.009112 0.830813 0.213568
O O12 0.991863 0.884117 0.045653
O O13 0.750000 0.642073 0.438842
O O14 0.515119 0.695719 0.458324
O O15 0.500428 0.620700 0.338632
O O16 0.750000 0.793978 0.284398
O O17 0.028744 0.752645 0.305927
O O18 0.750000 0.267338 0.440900
O O19 0.250000 0.627623 0.229263
O O20 0.500000 0.500000 0.790517
O O21 0.250000 0.544228 0.823550
#
# Coordination Sequence:
#
# PCOD8193366 Si02
#       8
#     8   8   8   8   8   8   8   8
#     4   9  20  40  65  93 122 152 189 240 298 359
#     4  11  23  38  57  84 120 158 201 247 295 349
#     4  11  23  39  62  90 120 158 204 247 297 358
#     4  12  24  40  59  83 120 161 204 250 300 353
#     4  11  23  38  57  84 120 158 201 247 295 349
#     4  12  24  38  58  81 114 159 204 250 299 349
#     4  11  23  39  62  90 120 158 204 247 297 358
#     4   9  20  40  65  93 122 152 189 240 298 359
#
# _framework density 19.701239999999999
#
# number of rings (size 3 to 8) (size 9 to 14) (size 15 to 20)
#    0.000    1.250    2.500    3.750    1.750    3.000 
#    0.000    0.625    0.000    0.000    0.000    0.000 
#    0.000    0.000    0.000    0.000    0.000    0.000 
#
# Total GULP energy -396754.084761 kJ/mol
# GULP energy per Si atom -12398.565149 kJ/mol
# Density = 1.965640 g / cm^3
# Si number density = 19.701240 Si / 1000 Ang^3
#
#
#
# Elastic Constant Matrix: (Units=GPa)
#
#
# Indices 1 2 3 4 5 6 
#
# 1 104.8240 43.0172 45.9222 0.0001 -0.0001 0.0000
# 2 43.0172 100.4342 65.3396 0.0009 0.0000 0.0000
# 3 45.9222 65.3396 124.7396 0.0015 -0.0001 -0.0002
# 4 0.0001 0.0009 0.0015 35.4637 0.0003 0.0000
# 5 -0.0001 0.0000 -0.0001 0.0003 24.9129 0.0001
# 6 0.0000 0.0000 -0.0002 0.0000 0.0001 30.8713
#
#
#
# Elastic Compliance Matrix: (Units=1/GPa)
#
#
# Indices 1 2 3 4 5 6 
#
# 1 0.012123 -0.003472 -0.002644 0.000000 0.000000 0.000000
# 2 -0.003472 0.016098 -0.007154 0.000000 0.000000 0.000000
# 3 -0.002644 -0.007154 0.012738 0.000000 0.000000 0.000000
# 4 0.000000 0.000000 0.000000 0.028198 0.000000 0.000000
# 5 0.000000 0.000000 0.000000 0.000000 0.040140 0.000000
# 6 0.000000 0.000000 0.000000 0.000000 0.000000 0.032393
#
#
# Mechanical properties :
#
#
# Convention : Reuss Voigt Hill
#
# Bulk Modulus (GPa) = 69.35909 70.95063 70.15486
# Shear Modulus (GPa) = 28.89569 29.96417 29.42993
#
# Velocity S-wave (km/s) = 3.83390 3.90414 3.86918
# Velocity P-wave (km/s) = 7.40812 7.51096 7.45972
#
# Compressibility (1/GPa) = 0.01441772
#
# Stress axis : x y z
#
# Youngs Moduli (GPa) = 82.48683 62.11876 78.50797
#
# Poissons Ratio (x) = 0.21569 0.20760
# Poissons Ratio (y) = 0.28641 0.56165
# Poissons Ratio (z) = 0.21812 0.44440
#
# Static dielectric constant tensor:
#      x y z
#    x 3.642350 0.000000 0.000000 
#    y 0.000000 3.430940 0.000000 
#    z 0.000000 0.000000 3.851760 
# 
# 
# High freq. dielectric constant tensor:
#      x y z
#    x 1.777230 0.000000 0.000000 
#    y 0.000000 1.749410 0.000000 
#    z 0.000000 0.000000 1.778690 
# 
# From -- ./inp_files/9660.got.cif
#   From: 2010.03.12/outbox.cif.g09.slc.cpg/sg46_5_cif.got.tgz:9660.got - 2010.04.14 02:56:35.
