data_PCOD8193414
_publ_section_title
;
Structure prediction by ZEFSAII (Michael W. Deem and Ramdas Pophale) SiO2 
 PCOD8193414
Probable space group: I M A 2
;
_chemical_formula_sum "Si O2"
_cell_formula_units_Z 32
_cell_length_a 14.200533
_cell_length_b 5.016437
_cell_length_c 20.557061
_cell_angle_alpha 90.000000
_cell_angle_beta 90.000000
_cell_angle_gamma 90.000000
_cell_volume 1464.404425
_symmetry_space_group_name_H-M "I M A 2"
_symmetry_group_IT_number 46
_symmetry_cell_setting 'orthorhombic'
loop_
_space_group_symop_operation_xyz
x,y,z
-x,-y,z
1/2-x,y,z
1/2+x,-y,z
1/2+x,1/2+y,1/2+z
1/2-x,1/2-y,1/2+z
-x,1/2+y,1/2+z
x,1/2-y,1/2+z
loop_
_atom_site_type_symbol
_atom_site_label
_atom_site_fract_x
_atom_site_fract_y
_atom_site_fract_z
Si Si1 0.937333 0.260280 0.656320
Si Si2 0.143814 0.911640 0.019029
Si Si3 0.398638 0.091316 0.437968
Si Si4 0.250000 0.199840 0.331673
Si Si5 0.750000 0.296562 0.239641
O O1 0.911675 0.329887 0.582848
O O2 0.842635 0.207063 0.695792
O O3 0.000000 0.500000 0.686627
O O4 0.000000 0.000000 0.657729
O O5 0.250000 0.003490 0.035893
O O6 0.151598 0.661944 0.970370
O O7 0.089928 0.165938 0.988798
O O8 0.341866 0.201385 0.376630
O O9 0.500000 0.000000 0.412572
O O10 0.250000 0.451619 0.285751
O O11 0.250000 0.950856 0.285931
#
# Coordination Sequence:
#
# PCOD8193414 Si02
#       5
#     8   8   8   4   4
#     4  12  26  46  74 105 140 181 231 291 352 414
#     4  12  22  44  72 105 141 176 217 286 359 415
#     4  12  25  43  71 104 139 177 225 283 346 414
#     4  12  26  46  70  98 142 188 234 282 334 404
#     4  12  28  48  70 100 140 190 242 284 336 406
#
# _framework density 21.851884999999999
#
# number of rings (size 3 to 8) (size 9 to 14) (size 15 to 20)
#    0.000    0.000    3.750    7.500    0.000    3.000 
#    0.000    0.000    0.000    0.000    0.000    0.000 
#    0.000    0.000    0.000    0.000    0.000    0.000 
#
# Total GULP energy -198496.245597 kJ/mol
# GULP energy per Si atom -12406.015350 kJ/mol
# Density = 2.180215 g / cm^3
# Si number density = 21.851885 Si / 1000 Ang^3
#
#
#
# Elastic Constant Matrix: (Units=GPa)
#
#
# Indices 1 2 3 4 5 6 
#
# 1 193.9857 74.3479 85.5472 0.0000 0.0000 0.0000
# 2 74.3479 185.7496 67.6968 0.0000 0.0000 0.0000
# 3 85.5472 67.6968 122.2486 0.0000 0.0000 0.0000
# 4 0.0000 0.0000 0.0000 -12.5660 0.0000 0.0000
# 5 0.0000 0.0000 0.0000 0.0000 5.6277 0.0000
# 6 0.0000 0.0000 0.0000 0.0000 0.0000 41.6755
#
#
#
# Elastic Compliance Matrix: (Units=1/GPa)
#
#
# Indices 1 2 3 4 5 6 
#
# 1 0.007739 -0.001408 -0.004636 0.000000 0.000000 0.000000
# 2 -0.001408 0.007001 -0.002892 0.000000 0.000000 0.000000
# 3 -0.004636 -0.002892 0.013025 0.000000 0.000000 0.000000
# 4 0.000000 0.000000 0.000000 -0.079580 0.000000 0.000000
# 5 0.000000 0.000000 0.000000 0.000000 0.177692 0.000000
# 6 0.000000 0.000000 0.000000 0.000000 0.000000 0.023995
#
#
# Mechanical properties :
#
#
# Convention : Reuss Voigt Hill
#
# Bulk Modulus (GPa) = 101.06717 106.35196 103.70956
# Shear Modulus (GPa) = 29.23249 25.24024 27.23637
#
# Velocity S-wave (km/s) = 3.66150 3.40230 3.53428
# Velocity P-wave (km/s) = 8.01417 8.01307 8.01362
#
# Compressibility (1/GPa) = 0.00989441
#
# Stress axis : x y z
#
# Youngs Moduli (GPa) = 129.21358 142.83621 76.77283
#
# Poissons Ratio (x) = 0.20112 0.35591
# Poissons Ratio (y) = 0.18194 0.22199
# Poissons Ratio (z) = 0.59903 0.41302
#
# Static dielectric constant tensor:
#      x y z
#    x 4.100040 0.000000 0.000000 
#    y 0.000000 4.178350 0.000000 
#    z 0.000000 0.000000 3.962540 
# 
# 
# High freq. dielectric constant tensor:
#      x y z
#    x 1.885690 0.000000 0.000000 
#    y 0.000000 1.881680 0.000000 
#    z 0.000000 0.000000 1.853210 
# 
# From -- ./inp_files/19111.got.cif
#   From: 2010.03.12/outbox.cif.g09.slc.cpg/sg46_10_cif.got.tgz:19111.got - 2010.04.14 02:56:35.
