data_PCOD8193221
_publ_section_title
;
Structure prediction by ZEFSAII (Michael W. Deem and Ramdas Pophale) SiO2 
 PCOD8193221
Probable space group: I M A 2
;
_chemical_formula_sum "Si O2"
_cell_formula_units_Z 56
_cell_length_a 8.512227
_cell_length_b 20.295553
_cell_length_c 15.687431
_cell_angle_alpha 90.000000
_cell_angle_beta 90.000000
_cell_angle_gamma 90.000000
_cell_volume 2710.166136
_symmetry_space_group_name_H-M "I M A 2"
_symmetry_group_IT_number 46
_symmetry_cell_setting 'orthorhombic'
loop_
_space_group_symop_operation_xyz
x,y,z
-x,-y,z
1/2-x,y,z
1/2+x,-y,z
1/2+x,1/2+y,1/2+z
1/2-x,1/2-y,1/2+z
-x,1/2+y,1/2+z
x,1/2-y,1/2+z
loop_
_atom_site_type_symbol
_atom_site_label
_atom_site_fract_x
_atom_site_fract_y
_atom_site_fract_z
Si Si1 0.929831 0.118736 0.457260
Si Si2 0.069382 0.251717 0.023817
Si Si3 0.933341 0.208193 0.201367
Si Si4 0.566726 0.429898 0.271507
Si Si5 0.433909 0.571127 0.775561
Si Si6 0.432130 0.434496 0.108782
Si Si7 0.565439 0.693308 0.342679
O O1 0.750000 0.142584 0.447796
O O2 0.000181 0.093942 0.368027
O O3 0.039510 0.171415 0.506167
O O4 0.952192 0.061838 0.526859
O O5 0.250000 0.240872 0.047363
O O6 0.018108 0.217629 0.936745
O O7 0.970299 0.227545 0.104529
O O8 0.750000 0.217773 0.218920
O O9 0.979111 0.130251 0.211195
O O10 0.020718 0.251361 0.272671
O O11 0.500000 0.500000 0.305521
O O12 0.750000 0.437389 0.252118
O O13 0.478261 0.390231 0.190496
O O14 0.532838 0.374279 0.341785
O O15 0.500000 0.500000 0.746469
O O16 0.250000 0.561083 0.784099
O O17 0.500000 0.500000 0.156964
O O18 0.250000 0.432014 0.084361
O O19 0.750000 0.679857 0.335351
#
# Coordination Sequence:
#
# PCOD8193221 Si02
#       7
#     8   8   8   8   8   8   8
#     4  11  21  37  58  86 121 158 203 255 312 378
#     4  11  24  40  62  92 122 160 207 260 317 376
#     4  11  23  42  65  93 127 168 215 265 321 383
#     4  11  22  38  60  86 119 159 202 251 310 372
#     4  10  23  40  62  90 124 167 214 263 323 382
#     4  11  21  34  52  80 117 155 197 240 297 364
#     4  11  23  41  64  91 124 161 206 258 315 377
#
# _framework density 20.662938
#
# number of rings (size 3 to 8) (size 9 to 14) (size 15 to 20)
#    0.000    1.143    1.429    6.429    0.000    5.143 
#    0.000    0.714    0.000    1.714    0.000    0.000 
#    0.000    0.000    0.000    0.000    0.000    0.000 
#
# Total GULP energy -346885.753725 kJ/mol
# GULP energy per Si atom -12388.776919 kJ/mol
# Density = 2.061591 g / cm^3
# Si number density = 20.662938 Si / 1000 Ang^3
#
#
#
# Elastic Constant Matrix: (Units=GPa)
#
#
# Indices 1 2 3 4 5 6 
#
# 1 81.4853 26.8294 27.2367 0.0000 0.0000 0.0000
# 2 26.8294 112.1924 39.6117 0.0000 0.0000 0.0000
# 3 27.2367 39.6117 98.9356 0.0000 0.0000 0.0000
# 4 0.0000 0.0000 0.0000 23.4225 0.0000 0.0000
# 5 0.0000 0.0000 0.0000 0.0000 26.1264 0.0000
# 6 0.0000 0.0000 0.0000 0.0000 0.0000 35.4196
#
#
#
# Elastic Compliance Matrix: (Units=1/GPa)
#
#
# Indices 1 2 3 4 5 6 
#
# 1 0.014014 -0.002317 -0.002931 0.000000 0.000000 0.000000
# 2 -0.002317 0.010764 -0.003672 0.000000 0.000000 0.000000
# 3 -0.002931 -0.003672 0.012384 0.000000 0.000000 0.000000
# 4 0.000000 0.000000 0.000000 0.042694 0.000000 0.000000
# 5 0.000000 0.000000 0.000000 0.000000 0.038275 0.000000
# 6 0.000000 0.000000 0.000000 0.000000 0.000000 0.028233
#
#
# Mechanical properties :
#
#
# Convention : Reuss Voigt Hill
#
# Bulk Modulus (GPa) = 51.74771 53.32987 52.53879
# Shear Modulus (GPa) = 29.30068 30.25608 29.77838
#
# Velocity S-wave (km/s) = 3.76976 3.83073 3.80037
# Velocity P-wave (km/s) = 6.63673 6.74028 6.68871
#
# Compressibility (1/GPa) = 0.01932453
#
# Stress axis : x y z
#
# Youngs Moduli (GPa) = 71.35477 92.90535 80.74640
#
# Poissons Ratio (x) = 0.21523 0.23663
# Poissons Ratio (y) = 0.16531 0.29648
# Poissons Ratio (z) = 0.20911 0.34113
#
# Static dielectric constant tensor:
#      x y z
#    x 3.567400 0.000000 0.000000 
#    y 0.000000 3.967900 0.000000 
#    z 0.000000 0.000000 3.722080 
# 
# 
# High freq. dielectric constant tensor:
#      x y z
#    x 1.809800 0.000000 0.000000 
#    y 0.000000 1.816390 0.000000 
#    z 0.000000 0.000000 1.806470 
# 
# From -- ./inp_files/14230.got.cif
#   From: 2010.03.12/outbox.cif.g09.slc.cpg/sg46_8_cif.got.tgz:14230.got - 2010.04.14 02:56:35.
