data_PCOD8193203
_publ_section_title
;
Structure prediction by ZEFSAII (Michael W. Deem and Ramdas Pophale) SiO2 
 PCOD8193203
Probable space group: I M A 2
;
_chemical_formula_sum "Si O2"
_cell_formula_units_Z 56
_cell_length_a 16.118443
_cell_length_b 12.284326
_cell_length_c 13.731728
_cell_angle_alpha 90.000000
_cell_angle_beta 90.000000
_cell_angle_gamma 90.000000
_cell_volume 2718.939933
_symmetry_space_group_name_H-M "I M A 2"
_symmetry_group_IT_number 46
_symmetry_cell_setting 'orthorhombic'
loop_
_space_group_symop_operation_xyz
x,y,z
-x,-y,z
1/2-x,y,z
1/2+x,-y,z
1/2+x,1/2+y,1/2+z
1/2-x,1/2-y,1/2+z
-x,1/2+y,1/2+z
x,1/2-y,1/2+z
loop_
_atom_site_type_symbol
_atom_site_label
_atom_site_fract_x
_atom_site_fract_y
_atom_site_fract_z
Si Si1 0.151479 0.643006 0.430730
Si Si2 0.347659 0.087911 0.854527
Si Si3 0.842499 0.741413 0.516908
Si Si4 0.653713 0.354102 0.818956
Si Si5 0.090571 0.235787 0.216845
Si Si6 0.346918 0.082643 0.379123
Si Si7 0.552376 0.111815 0.130039
O O1 0.250000 0.651421 0.455413
O O2 0.133426 0.539974 0.360781
O O3 0.116644 0.746205 0.369638
O O4 0.099341 0.634531 0.529413
O O5 0.250000 0.107698 0.833696
O O6 0.380948 0.139076 0.957433
O O7 0.401194 0.146722 0.769372
O O8 0.750000 0.739974 0.478410
O O9 0.841401 0.729994 0.631975
O O10 0.877855 0.857532 0.477979
O O11 0.750000 0.333191 0.804310
O O12 0.632950 0.455149 0.890617
O O13 0.620024 0.389740 0.714579
O O14 0.102662 0.136302 0.290322
O O15 0.005255 0.216038 0.157207
O O16 0.250000 0.098052 0.355539
O O17 0.500000 0.000000 0.125138
#
# Coordination Sequence:
#
# PCOD8193203 Si02
#       7
#     8   8   8   8   8   8   8
#     4  10  23  44  66  88 120 166 214 253 291 356
#     4   9  19  36  60  90 120 158 206 255 303 354
#     4   9  17  31  55  87 121 156 196 248 302 360
#     4  10  22  43  65  85 117 163 211 253 290 355
#     4  11  20  34  56  90 129 156 191 248 318 371
#     4   9  18  34  58  87 117 156 204 249 297 354
#     4  12  24  39  61  95 122 159 203 252 311 369
#
# _framework density 20.596264000000001
#
# number of rings (size 3 to 8) (size 9 to 14) (size 15 to 20)
#    0.000    2.000    1.429    3.429    0.000    3.429 
#    2.571    0.000    0.000    0.000    0.000    0.000 
#    0.000    0.000    0.000    0.000    0.000    0.000 
#
# Total GULP energy -346871.409222 kJ/mol
# GULP energy per Si atom -12388.264615 kJ/mol
# Density = 2.054939 g / cm^3
# Si number density = 20.596264 Si / 1000 Ang^3
#
#
#
# Elastic Constant Matrix: (Units=GPa)
#
#
# Indices 1 2 3 4 5 6 
#
# 1 44.1653 37.0525 24.4471 0.0000 0.0000 0.0000
# 2 37.0525 145.0215 44.9410 0.0000 0.0000 0.0000
# 3 24.4471 44.9410 97.7953 0.0000 0.0000 0.0000
# 4 0.0000 0.0000 0.0000 23.4399 0.0000 0.0000
# 5 0.0000 0.0000 0.0000 0.0000 29.4640 0.0000
# 6 0.0000 0.0000 0.0000 0.0000 0.0000 24.5092
#
#
#
# Elastic Compliance Matrix: (Units=1/GPa)
#
#
# Indices 1 2 3 4 5 6 
#
# 1 0.030586 -0.006349 -0.004728 0.000000 0.000000 0.000000
# 2 -0.006349 0.009359 -0.002713 0.000000 0.000000 0.000000
# 3 -0.004728 -0.002713 0.012654 0.000000 0.000000 0.000000
# 4 0.000000 0.000000 0.000000 0.042662 0.000000 0.000000
# 5 0.000000 0.000000 0.000000 0.000000 0.033940 0.000000
# 6 0.000000 0.000000 0.000000 0.000000 0.000000 0.040801
#
#
# Mechanical properties :
#
#
# Convention : Reuss Voigt Hill
#
# Bulk Modulus (GPa) = 39.97262 55.54035 47.75649
# Shear Modulus (GPa) = 24.28085 27.51872 25.89978
#
# Velocity S-wave (km/s) = 3.43723 3.65924 3.54997
# Velocity P-wave (km/s) = 5.93318 6.69911 6.32774
#
# Compressibility (1/GPa) = 0.02501712
#
# Stress axis : x y z
#
# Youngs Moduli (GPa) = 32.69438 106.85275 79.02425
#
# Poissons Ratio (x) = 0.67846 0.37364
# Poissons Ratio (y) = 0.20759 0.21443
# Poissons Ratio (z) = 0.15459 0.28994
#
# Static dielectric constant tensor:
#      x y z
#    x 3.627110 0.000000 0.000000 
#    y 0.000000 4.046160 0.000000 
#    z 0.000000 0.000000 3.660650 
# 
# 
# High freq. dielectric constant tensor:
#      x y z
#    x 1.791910 0.000000 0.000000 
#    y 0.000000 1.809160 0.000000 
#    z 0.000000 0.000000 1.798160 
# 
# From -- ./inp_files/15947.got.cif
#   From: 2010.03.12/outbox.cif.g09.slc.cpg/sg46_8_cif.got.tgz:15947.got - 2010.04.14 02:56:35.
