data_PCOD8193537
_publ_section_title
;
Structure prediction by ZEFSAII (Michael W. Deem and Ramdas Pophale) SiO2 
 PCOD8193537
Probable space group: P M M M
;
_chemical_formula_sum "Si O2"
_cell_formula_units_Z 64
_cell_length_a 8.786088
_cell_length_b 23.920619
_cell_length_c 19.324980
_cell_angle_alpha 90.000000
_cell_angle_beta 90.000000
_cell_angle_gamma 90.000000
_cell_volume 4061.505220
_symmetry_space_group_name_H-M "P M M M"
_symmetry_group_IT_number 47
_symmetry_cell_setting 'orthorhombic'
loop_
_space_group_symop_operation_xyz
x,y,z
-x,-y,z
x,-y,-z
-x,y,-z
-x,-y,-z
x,y,-z
-x,y,z
x,-y,z
loop_
_atom_site_type_symbol
_atom_site_label
_atom_site_fract_x
_atom_site_fract_y
_atom_site_fract_z
Si Si1 0.320754 0.336160 0.290881
Si Si2 0.680832 0.832391 0.659062
Si Si3 0.680929 0.061839 0.422374
Si Si4 0.321013 0.274490 0.576023
Si Si5 0.820418 0.563535 0.216002
Si Si6 0.819365 0.385011 0.924687
Si Si7 0.820155 0.770584 0.221151
Si Si8 0.819621 0.259337 0.074683
O O1 0.500000 0.330500 0.278031
O O2 0.280458 0.325124 0.371843
O O3 0.262834 0.397669 0.272004
O O4 0.237156 0.290078 0.244704
O O5 0.500000 0.832115 0.664493
O O6 0.744397 0.891466 0.630399
O O7 0.740328 0.783750 0.607842
O O8 0.746730 0.821187 0.735514
O O9 0.741620 0.073910 0.500000
O O10 0.500000 0.064735 0.423517
O O11 0.734778 0.000000 0.398106
O O12 0.247238 0.284908 0.500000
O O13 0.500000 0.268895 0.567686
O O14 0.777455 0.500000 0.233739
O O15 0.758803 0.577208 0.138590
O O16 0.000000 0.573995 0.221095
O O17 0.755959 0.322158 0.915352
O O18 0.000000 0.384840 0.922680
O O19 0.764965 0.408560 0.000000
O O20 0.769777 0.778330 0.140429
O O21 0.000000 0.772578 0.230297
O O22 0.000000 0.262972 0.073253
O O23 0.761513 0.235086 0.000000
#
# Coordination Sequence:
#
# PCOD8193537 Si02
#       8
#     8   8   8   8   8   8   8   8
#     4  10  19  30  45  63  83 105 131 166 209 252
#     4   9  16  25  40  64  91 114 139 175 212 244
#     4   8  13  22  39  63  89 120 158 191 211 232
#     4   8  14  25  42  62  80 101 131 167 204 239
#     4  10  19  30  45  63  82 106 135 166 201 245
#     4   8  13  23  40  61  81 101 132 171 201 229
#     4  10  17  27  44  62  84 111 138 170 207 250
#     4   8  13  22  39  60  79 103 136 171 203 238
#
# _framework density 15.757705
#
# number of rings (size 3 to 8) (size 9 to 14) (size 15 to 20)
#    0.000    3.125    1.250    3.000    0.000    2.000 
#    0.000    1.250    0.000   16.125    0.000    4.375 
#    0.000    0.500    0.000    6.250    0.000    0.000 
#
# Total GULP energy -792914.679425 kJ/mol
# GULP energy per Si atom -12389.291866 kJ/mol
# Density = 1.572184 g / cm^3
# Si number density = 15.757705 Si / 1000 Ang^3
#
#
#
# Elastic Constant Matrix: (Units=GPa)
#
#
# Indices 1 2 3 4 5 6 
#
# 1 21.8637 17.9816 21.4629 0.0000 0.0000 0.0000
# 2 17.9816 103.8410 70.4461 0.0000 0.0000 0.0000
# 3 21.4629 70.4461 142.4338 0.0000 0.0000 0.0000
# 4 0.0000 0.0000 0.0000 27.6429 0.0000 0.0000
# 5 0.0000 0.0000 0.0000 0.0000 28.8648 0.0000
# 6 0.0000 0.0000 0.0000 0.0000 0.0000 13.9881
#
#
#
# Elastic Compliance Matrix: (Units=1/GPa)
#
#
# Indices 1 2 3 4 5 6 
#
# 1 0.056044 -0.005983 -0.005486 0.000000 0.000000 0.000000
# 2 -0.005983 0.015132 -0.006582 0.000000 0.000000 0.000000
# 3 -0.005486 -0.006582 0.011103 0.000000 0.000000 0.000000
# 4 0.000000 0.000000 0.000000 0.036176 0.000000 0.000000
# 5 0.000000 0.000000 0.000000 0.000000 0.034644 0.000000
# 6 0.000000 0.000000 0.000000 0.000000 0.000000 0.071489
#
#
# Mechanical properties :
#
#
# Convention : Reuss Voigt Hill
#
# Bulk Modulus (GPa) = 21.65633 54.21330 37.93481
# Shear Modulus (GPa) = 18.11052 24.64904 21.37978
#
# Velocity S-wave (km/s) = 3.39383 3.95935 3.68745
# Velocity P-wave (km/s) = 5.39728 7.44184 6.50045
#
# Compressibility (1/GPa) = 0.04617588
#
# Stress axis : x y z
#
# Youngs Moduli (GPa) = 17.84309 66.08656 90.06565
#
# Poissons Ratio (x) = 0.39541 0.49409
# Poissons Ratio (y) = 0.10676 0.59284
# Poissons Ratio (z) = 0.09789 0.43501
#
# Static dielectric constant tensor:
#      x y z
#    x 2.619800 0.000000 0.000000 
#    y 0.000000 2.925450 0.000000 
#    z 0.000000 0.000000 3.471520 
# 
# 
# High freq. dielectric constant tensor:
#      x y z
#    x 1.566240 0.000000 0.000000 
#    y 0.000000 1.572180 0.000000 
#    z 0.000000 0.000000 1.610910 
# 
# From -- ./inp_files/30210.got.cif
#   From: 2010.03.12/outbox.cif.g09.slc.cpg/sg47_16_cif.got.tgz:30210.got - 2010.04.14 03:12:58.
