data_PCOD8193981
_publ_section_title
;
Structure prediction by ZEFSAII (Michael W. Deem and Ramdas Pophale) SiO2 
 PCOD8193981
Probable space group: P M M M
;
_chemical_formula_sum "Si O2"
_cell_formula_units_Z 52
_cell_length_a 18.104993
_cell_length_b 17.040233
_cell_length_c 9.047713
_cell_angle_alpha 90.000000
_cell_angle_beta 90.000000
_cell_angle_gamma 90.000000
_cell_volume 2791.339788
_symmetry_space_group_name_H-M "P M M M"
_symmetry_group_IT_number 47
_symmetry_cell_setting 'orthorhombic'
loop_
_space_group_symop_operation_xyz
x,y,z
-x,-y,z
x,-y,-z
-x,y,-z
-x,-y,-z
x,y,-z
-x,y,z
x,-y,z
loop_
_atom_site_type_symbol
_atom_site_label
_atom_site_fract_x
_atom_site_fract_y
_atom_site_fract_z
Si Si1 0.416735 0.303745 0.830232
Si Si2 0.714425 0.587503 0.175389
Si Si3 0.000000 0.411193 0.823933
Si Si4 0.798474 0.000000 0.669241
Si Si5 0.856697 0.319710 0.175137
Si Si6 0.812759 0.829846 0.332221
Si Si7 0.647268 0.000000 0.174150
Si Si8 0.640559 0.844337 0.327135
O O1 0.500000 0.335909 0.813637
O O2 0.361352 0.371298 0.773691
O O3 0.407827 0.227334 0.730683
O O4 0.398689 0.281735 0.000000
O O5 0.716344 0.500000 0.243139
O O6 0.784017 0.636487 0.237195
O O7 0.719435 0.582702 0.000000
O O8 0.927972 0.365869 0.764218
O O9 0.000000 0.500000 0.761842
O O10 0.000000 0.413158 0.000000
O O11 0.844575 0.080911 0.691246
O O12 0.765428 0.000000 0.500000
O O13 0.733690 0.000000 0.788009
O O14 0.858037 0.230036 0.230664
O O15 0.857052 0.317811 0.000000
O O16 0.823916 0.802511 0.500000
O O17 0.726410 0.829014 0.289381
O O18 0.611099 0.077837 0.244599
O O19 0.634307 0.000000 0.000000
O O20 0.627647 0.855237 0.500000
#
# Coordination Sequence:
#
# PCOD8193981 Si02
#       8
#     8   8   4   4   8   8   4   8
#     4  10  20  33  50  74 103 132 168 217 265 307
#     4   9  17  30  50  75 101 130 166 209 258 311
#     4   9  18  32  51  78 109 138 170 213 261 307
#     4   8  16  30  46  72 106 140 174 210 253 303
#     4  10  18  30  52  78 104 134 172 211 253 307
#     4   9  17  30  50  74 102 134 170 211 253 299
#     4  10  18  28  49  77 105 133 169 217 262 305
#     4  10  19  33  51  72 102 139 176 212 256 311
#
# _framework density 18.629045999999999
#
# number of rings (size 3 to 8) (size 9 to 14) (size 15 to 20)
#    0.000    2.538    1.538    2.538    0.000    4.923 
#    0.000    2.308    0.000    6.462    0.000    4.308 
#    0.000    0.000    0.000    0.000    0.000    0.000 
#
# Total GULP energy -644651.807567 kJ/mol
# GULP energy per Si atom -12397.150146 kJ/mol
# Density = 1.858665 g / cm^3
# Si number density = 18.629046 Si / 1000 Ang^3
#
#
#
# Elastic Constant Matrix: (Units=GPa)
#
#
# Indices 1 2 3 4 5 6 
#
# 1 102.5340 64.3022 23.9653 0.0000 0.0000 0.0000
# 2 64.3022 165.7380 35.6354 0.0000 0.0000 0.0000
# 3 23.9653 35.6354 51.2872 0.0000 0.0000 0.0000
# 4 0.0000 0.0000 0.0000 14.8230 0.0000 0.0000
# 5 0.0000 0.0000 0.0000 0.0000 13.0238 0.0000
# 6 0.0000 0.0000 0.0000 0.0000 0.0000 20.7573
#
#
#
# Elastic Compliance Matrix: (Units=1/GPa)
#
#
# Indices 1 2 3 4 5 6 
#
# 1 0.013293 -0.004493 -0.003090 0.000000 0.000000 0.000000
# 2 -0.004493 0.008612 -0.003884 0.000000 0.000000 0.000000
# 3 -0.003090 -0.003884 0.023641 0.000000 0.000000 0.000000
# 4 0.000000 0.000000 0.000000 0.067463 0.000000 0.000000
# 5 0.000000 0.000000 0.000000 0.000000 0.076782 0.000000
# 6 0.000000 0.000000 0.000000 0.000000 0.000000 0.048176
#
#
# Mechanical properties :
#
#
# Convention : Reuss Voigt Hill
#
# Bulk Modulus (GPa) = 44.22507 63.04054 53.63280
# Shear Modulus (GPa) = 18.62637 22.76460 20.69548
#
# Velocity S-wave (km/s) = 3.16548 3.49950 3.33667
# Velocity P-wave (km/s) = 6.09522 7.08816 6.61036
#
# Compressibility (1/GPa) = 0.02261161
#
# Stress axis : x y z
#
# Youngs Moduli (GPa) = 75.22961 116.11808 42.30007
#
# Poissons Ratio (x) = 0.52171 0.13069
# Poissons Ratio (y) = 0.33800 0.16431
# Poissons Ratio (z) = 0.23243 0.45104
#
# Static dielectric constant tensor:
#      x y z
#    x 3.221870 0.000000 0.000000 
#    y 0.000000 3.724360 0.000000 
#    z 0.000000 0.000000 3.075370 
# 
# 
# High freq. dielectric constant tensor:
#      x y z
#    x 1.690470 0.000000 0.000000 
#    y 0.000000 1.739590 0.000000 
#    z 0.000000 0.000000 1.692690 
# 
# From -- ./inp_files/9644.got.cif
#   From: 2010.03.12/outbox.cif.g09.slc.cpg/sg47_5_cif.got.tgz:9644.got - 2010.04.14 03:12:58.
