data_PCOD8193127
_publ_section_title
;
Structure prediction by ZEFSAII (Michael W. Deem and Ramdas Pophale) SiO2 
 PCOD8193127
Probable space group: I M A 2
;
_chemical_formula_sum "Si O2"
_cell_formula_units_Z 48
_cell_length_a 16.917028
_cell_length_b 9.013375
_cell_length_c 15.204725
_cell_angle_alpha 90.000000
_cell_angle_beta 90.000000
_cell_angle_gamma 90.000000
_cell_volume 2318.409128
_symmetry_space_group_name_H-M "I M A 2"
_symmetry_group_IT_number 46
_symmetry_cell_setting 'orthorhombic'
loop_
_space_group_symop_operation_xyz
x,y,z
-x,-y,z
1/2-x,y,z
1/2+x,-y,z
1/2+x,1/2+y,1/2+z
1/2-x,1/2-y,1/2+z
-x,1/2+y,1/2+z
x,1/2-y,1/2+z
loop_
_atom_site_type_symbol
_atom_site_label
_atom_site_fract_x
_atom_site_fract_y
_atom_site_fract_z
Si Si1 0.587737 0.053623 0.468390
Si Si2 0.419225 0.577969 0.651460
Si Si3 0.158534 0.403154 0.808709
Si Si4 0.156911 0.628152 0.474260
Si Si5 0.920324 0.423885 0.167017
Si Si6 0.341069 0.075232 0.818737
O O1 0.602178 0.228805 0.456099
O O2 0.603480 0.015431 0.570593
O O3 0.500000 0.000000 0.441235
O O4 0.648867 0.965963 0.407199
O O5 0.500000 0.500000 0.621854
O O6 0.387370 0.504124 0.739693
O O7 0.356918 0.562603 0.571729
O O8 0.434074 0.749548 0.670825
O O9 0.250000 0.404595 0.782539
O O10 0.120746 0.237894 0.805659
O O11 0.250000 0.666841 0.462657
O O12 0.125462 0.506806 0.404924
O O13 0.851579 0.472275 0.233309
O O14 0.000000 0.500000 0.200967
O O15 0.250000 0.102754 0.835968
#
# Coordination Sequence:
#
# PCOD8193127 Si02
#       6
#     8   8   8   8   8   8
#     4  10  22  39  60  89 119 153 202 254 304 359
#     4  11  23  39  62  90 120 156 200 253 307 361
#     4  11  23  39  60  88 122 161 201 248 304 362
#     4  10  22  41  63  89 121 162 206 249 300 364
#     4  10  22  39  60  85 116 154 196 243 298 357
#     4  10  23  39  58  85 118 156 198 243 295 353
#
# _framework density 20.703852999999999
#
# number of rings (size 3 to 8) (size 9 to 14) (size 15 to 20)
#    0.000    1.667    0.000    3.500    0.000   12.667 
#    0.000    3.333    0.000    0.000    0.000    0.000 
#    0.000    0.000    0.000    0.000    0.000    0.000 
#
# Total GULP energy -297639.741988 kJ/mol
# GULP energy per Si atom -12401.655916 kJ/mol
# Density = 2.065673 g / cm^3
# Si number density = 20.703853 Si / 1000 Ang^3
#
#
#
# Elastic Constant Matrix: (Units=GPa)
#
#
# Indices 1 2 3 4 5 6 
#
# 1 65.4548 37.5261 30.1220 0.0000 0.0000 0.0000
# 2 37.5261 140.2473 69.1909 0.0000 0.0000 0.0000
# 3 30.1220 69.1909 119.4450 0.0000 0.0000 0.0000
# 4 0.0000 0.0000 0.0000 35.9046 0.0000 0.0000
# 5 0.0000 0.0000 0.0000 0.0000 34.1682 0.0000
# 6 0.0000 0.0000 0.0000 0.0000 0.0000 34.3984
#
#
#
# Elastic Compliance Matrix: (Units=1/GPa)
#
#
# Indices 1 2 3 4 5 6 
#
# 1 0.018576 -0.003723 -0.002528 0.000000 0.000000 0.000000
# 2 -0.003723 0.010730 -0.005276 0.000000 0.000000 0.000000
# 3 -0.002528 -0.005276 0.012066 0.000000 0.000000 0.000000
# 4 0.000000 0.000000 0.000000 0.027852 0.000000 0.000000
# 5 0.000000 0.000000 0.000000 0.000000 0.029267 0.000000
# 6 0.000000 0.000000 0.000000 0.000000 0.000000 0.029071
#
#
# Mechanical properties :
#
#
# Convention : Reuss Voigt Hill
#
# Bulk Modulus (GPa) = 54.59572 66.53613 60.56592
# Shear Modulus (GPa) = 31.90387 33.44813 32.67600
#
# Velocity S-wave (km/s) = 3.92977 4.02375 3.97704
# Velocity P-wave (km/s) = 6.85696 7.33446 7.09972
#
# Compressibility (1/GPa) = 0.01831646
#
# Stress axis : x y z
#
# Youngs Moduli (GPa) = 53.83423 93.20011 82.87791
#
# Poissons Ratio (x) = 0.34701 0.20949
# Poissons Ratio (y) = 0.20044 0.43730
# Poissons Ratio (z) = 0.13607 0.49176
#
# Static dielectric constant tensor:
#      x y z
#    x 3.622910 0.000000 0.000000 
#    y 0.000000 3.953040 0.000000 
#    z 0.000000 0.000000 3.825030 
# 
# 
# High freq. dielectric constant tensor:
#      x y z
#    x 1.799640 0.000000 0.000000 
#    y 0.000000 1.821020 0.000000 
#    z 0.000000 0.000000 1.821740 
# 
# From -- ./inp_files/16508.got.cif
#   From: 2010.03.12/outbox.cif.g09.slc.cpg/sg46_9_cif.got.tgz:16508.got - 2010.04.14 02:56:35.
