data_PCOD8193521
_publ_section_title
;
Structure prediction by ZEFSAII (Michael W. Deem and Ramdas Pophale) SiO2 
 PCOD8193521
Probable space group: P M M M
;
_chemical_formula_sum "Si O2"
_cell_formula_units_Z 56
_cell_length_a 8.977394
_cell_length_b 14.456916
_cell_length_c 23.365169
_cell_angle_alpha 90.000000
_cell_angle_beta 90.000000
_cell_angle_gamma 90.000000
_cell_volume 3032.458528
_symmetry_space_group_name_H-M "P M M M"
_symmetry_group_IT_number 47
_symmetry_cell_setting 'orthorhombic'
loop_
_space_group_symop_operation_xyz
x,y,z
-x,-y,z
x,-y,-z
-x,y,-z
-x,-y,-z
x,y,-z
-x,y,z
x,-y,z
loop_
_atom_site_type_symbol
_atom_site_label
_atom_site_fract_x
_atom_site_fract_y
_atom_site_fract_z
Si Si1 0.826753 0.393810 0.394024
Si Si2 0.822562 0.267687 0.165039
Si Si3 0.176944 0.396624 0.936119
Si Si4 0.329407 0.776952 0.435264
Si Si5 0.174887 0.601623 0.735446
Si Si6 0.171659 0.892251 0.338946
Si Si7 0.675018 0.106350 0.778756
O O1 0.781874 0.500000 0.405065
O O2 0.727532 0.328857 0.433979
O O3 0.791320 0.364288 0.328680
O O4 0.000000 0.378972 0.408119
O O5 0.763528 0.319506 0.108029
O O6 0.760852 0.326370 0.218927
O O7 0.747641 0.166827 0.170234
O O8 0.000000 0.256490 0.164824
O O9 0.234129 0.500000 0.919539
O O10 0.000000 0.397628 0.934027
O O11 0.232513 0.370671 0.000000
O O12 0.312470 0.813768 0.500000
O O13 0.500000 0.781178 0.415192
O O14 0.230937 0.840002 0.394335
O O15 0.246313 0.500000 0.745584
O O16 0.000000 0.592674 0.744914
O O17 0.258417 0.861579 0.282060
O O18 0.000000 0.865672 0.329480
O O19 0.194371 0.000000 0.350966
O O20 0.500000 0.122228 0.777150
O O21 0.716417 0.000000 0.791390
#
# Coordination Sequence:
#
# PCOD8193521 Si02
#       7
#     8   8   8   8   8   8   8
#     4   9  18  33  52  72  96 129 169 213 258 303
#     4  10  17  26  48  77 101 131 172 214 251 291
#     4   8  14  25  43  72 110 146 178 213 253 296
#     4  11  24  38  52  73 102 136 171 207 250 302
#     4   8  14  25  43  70  99 122 150 193 245 297
#     4  10  21  38  60  82 102 126 160 205 256 309
#     4  10  21  36  53  74 102 133 162 199 254 315
#
# _framework density 18.466864000000001
#
# number of rings (size 3 to 8) (size 9 to 14) (size 15 to 20)
#    0.000    2.571    0.000    3.857    0.000    6.571 
#    0.000    2.857    0.000    3.429    0.000    4.000 
#    0.000    0.000    0.000    0.000    0.000    0.000 
#
# Total GULP energy -694309.377676 kJ/mol
# GULP energy per Si atom -12398.381744 kJ/mol
# Density = 1.842483 g / cm^3
# Si number density = 18.466864 Si / 1000 Ang^3
#
#
#
# Elastic Constant Matrix: (Units=GPa)
#
#
# Indices 1 2 3 4 5 6 
#
# 1 53.8015 39.7915 32.3925 0.0000 0.0000 0.0000
# 2 39.7915 93.6585 60.0034 0.0000 0.0000 0.0000
# 3 32.3925 60.0034 94.9676 0.0000 0.0000 0.0000
# 4 0.0000 0.0000 0.0000 26.9813 0.0000 0.0000
# 5 0.0000 0.0000 0.0000 0.0000 14.8499 0.0000
# 6 0.0000 0.0000 0.0000 0.0000 0.0000 19.9745
#
#
#
# Elastic Compliance Matrix: (Units=1/GPa)
#
#
# Indices 1 2 3 4 5 6 
#
# 1 0.027736 -0.009615 -0.003386 0.000000 0.000000 0.000000
# 2 -0.009615 0.021271 -0.010160 0.000000 0.000000 0.000000
# 3 -0.003386 -0.010160 0.018104 0.000000 0.000000 0.000000
# 4 0.000000 0.000000 0.000000 0.037063 0.000000 0.000000
# 5 0.000000 0.000000 0.000000 0.000000 0.067341 0.000000
# 6 0.000000 0.000000 0.000000 0.000000 0.000000 0.050064
#
#
# Mechanical properties :
#
#
# Convention : Reuss Voigt Hill
#
# Bulk Modulus (GPa) = 48.09932 56.31136 52.20534
# Shear Modulus (GPa) = 18.19296 19.71047 18.95172
#
# Velocity S-wave (km/s) = 3.14214 3.27057 3.20700
# Velocity P-wave (km/s) = 6.26633 6.69489 6.48415
#
# Compressibility (1/GPa) = 0.02079031
#
# Stress axis : x y z
#
# Youngs Moduli (GPa) = 36.05366 47.01140 55.23544
#
# Poissons Ratio (x) = 0.45201 0.18700
# Poissons Ratio (y) = 0.34666 0.56121
# Poissons Ratio (z) = 0.12206 0.47765
#
# Static dielectric constant tensor:
#      x y z
#    x 3.074100 0.000000 0.000000 
#    y 0.000000 3.588520 0.000000 
#    z 0.000000 0.000000 3.451450 
# 
# 
# High freq. dielectric constant tensor:
#      x y z
#    x 1.684650 0.000000 0.000000 
#    y 0.000000 1.722250 0.000000 
#    z 0.000000 0.000000 1.704320 
# 
# From -- ./inp_files/29703.got.cif
#   From: 2010.03.12/outbox.cif.g09.slc.cpg/sg47_15_cif.got.tgz:29703.got - 2010.04.14 03:12:58.
