data_PCOD8193862
_publ_section_title
;
Structure prediction by ZEFSAII (Michael W. Deem and Ramdas Pophale) SiO2 
 PCOD8193862
Probable space group: P M M M
;
_chemical_formula_sum "Si O2"
_cell_formula_units_Z 64
_cell_length_a 14.253281
_cell_length_b 31.387993
_cell_length_c 8.881675
_cell_angle_alpha 90.000000
_cell_angle_beta 90.000000
_cell_angle_gamma 90.000000
_cell_volume 3973.500497
_symmetry_space_group_name_H-M "P M M M"
_symmetry_group_IT_number 47
_symmetry_cell_setting 'orthorhombic'
loop_
_space_group_symop_operation_xyz
x,y,z
-x,-y,z
x,-y,-z
-x,y,-z
-x,-y,-z
x,y,-z
-x,y,z
x,-y,z
loop_
_atom_site_type_symbol
_atom_site_label
_atom_site_fract_x
_atom_site_fract_y
_atom_site_fract_z
Si Si1 0.608217 0.200368 0.822685
Si Si2 0.391553 0.048984 0.827332
Si Si3 0.611491 0.454894 0.331238
Si Si4 0.705761 0.719841 0.324510
Si Si5 0.605686 0.363887 0.679809
Si Si6 0.106225 0.151872 0.175646
Si Si7 0.283496 0.122189 0.676492
Si Si8 0.104140 0.759696 0.672160
O O1 0.500000 0.197453 0.775398
O O2 0.649645 0.244328 0.763591
O O3 0.661317 0.160601 0.752478
O O4 0.621730 0.198349 0.000000
O O5 0.500000 0.057210 0.789626
O O6 0.329269 0.077191 0.717199
O O7 0.365190 0.000000 0.798356
O O8 0.371133 0.061551 0.000000
O O9 0.651929 0.456820 0.500000
O O10 0.500000 0.452651 0.337485
O O11 0.642271 0.500000 0.249625
O O12 0.643629 0.409886 0.255074
O O13 0.680959 0.724734 0.500000
O O14 0.673676 0.673708 0.262931
O O15 0.817674 0.723773 0.295617
O O16 0.605966 0.366868 0.500000
O O17 0.500000 0.354224 0.737120
O O18 0.176145 0.121261 0.266384
O O19 0.125037 0.200697 0.220184
O O20 0.000000 0.138556 0.216722
O O21 0.126386 0.147022 0.000000
O O22 0.285821 0.129166 0.500000
O O23 0.111986 0.775914 0.500000
O O24 0.000000 0.740718 0.703606
#
# Coordination Sequence:
#
# PCOD8193862 Si02
#       8
#     8   8   8   8   8   8   8   8
#     4  11  23  35  46  63  91 126 160 192 223 263
#     4   9  19  37  59  80 103 132 163 195 232 273
#     4   7   9  14  25  42  67 100 135 173 220 268
#     4  10  18  28  43  62  85 116 148 183 229 277
#     4   8  13  20  31  50  77 108 142 179 220 272
#     4  10  20  34  53  74  95 122 157 195 234 276
#     4  12  23  34  52  77 102 128 157 193 234 273
#     4   9  17  29  44  63  87 114 147 188 232 274
#
# _framework density 16.106705000000002
#
# number of rings (size 3 to 8) (size 9 to 14) (size 15 to 20)
#    0.000    2.500    1.250    4.125    0.000    4.250 
#    0.000    0.625    0.000    0.375    0.000    2.625 
#    0.000    1.000    0.000   11.625    0.000    4.000 
#
# Total GULP energy -793119.873460 kJ/mol
# GULP energy per Si atom -12392.498023 kJ/mol
# Density = 1.607005 g / cm^3
# Si number density = 16.106705 Si / 1000 Ang^3
#
#
#
# Elastic Constant Matrix: (Units=GPa)
#
#
# Indices 1 2 3 4 5 6 
#
# 1 95.3136 55.8263 33.1518 0.0000 0.0000 0.0000
# 2 55.8263 114.2962 26.0160 0.0000 0.0000 0.0000
# 3 33.1518 26.0160 39.4027 0.0000 0.0000 0.0000
# 4 0.0000 0.0000 0.0000 -2.8660 0.0000 0.0000
# 5 0.0000 0.0000 0.0000 0.0000 18.5071 0.0000
# 6 0.0000 0.0000 0.0000 0.0000 0.0000 9.5647
#
#
#
# Elastic Compliance Matrix: (Units=1/GPa)
#
#
# Indices 1 2 3 4 5 6 
#
# 1 0.017998 -0.006289 -0.010990 0.000000 0.000000 0.000000
# 2 -0.006289 0.012494 -0.002958 0.000000 0.000000 0.000000
# 3 -0.010990 -0.002958 0.036579 0.000000 0.000000 0.000000
# 4 0.000000 0.000000 0.000000 -0.348922 0.000000 0.000000
# 5 0.000000 0.000000 0.000000 0.000000 0.054033 0.000000
# 6 0.000000 0.000000 0.000000 0.000000 0.000000 0.104551
#
#
# Mechanical properties :
#
#
# Convention : Reuss Voigt Hill
#
# Bulk Modulus (GPa) = 37.59943 53.22232 45.41087
# Shear Modulus (GPa) = -67.63473 13.97572 -26.82950
#
# Velocity S-wave (km/s) = -6.48713 2.94886 -4.08577
# Velocity P-wave (km/s) = 5.71977 6.68653 2.44887
#
# Compressibility (1/GPa) = 0.02659615
#
# Stress axis : x y z
#
# Youngs Moduli (GPa) = 55.56180 80.03589 27.33825
#
# Poissons Ratio (x) = 0.50337 0.30045
# Poissons Ratio (y) = 0.34944 0.08087
# Poissons Ratio (z) = 0.61064 0.23675
#
# Static dielectric constant tensor:
#      x y z
#    x 3.141060 0.000000 0.000000 
#    y 0.000000 3.322690 0.000000 
#    z 0.000000 0.000000 2.865420 
# 
# 
# High freq. dielectric constant tensor:
#      x y z
#    x 1.603040 0.000000 0.000000 
#    y 0.000000 1.613540 0.000000 
#    z 0.000000 0.000000 1.598450 
# 
# From -- ./inp_files/8322.got.cif
#   From: 2010.03.12/outbox.cif.g09.slc.cpg/sg47_5_cif.got.tgz:8322.got - 2010.04.14 03:12:58.
