data_PCOD8193098
_publ_section_title
;
Structure prediction by ZEFSAII (Michael W. Deem and Ramdas Pophale) SiO2 
 PCOD8193098
Probable space group: I M A 2
;
_chemical_formula_sum "Si O2"
_cell_formula_units_Z 48
_cell_length_a 8.713189
_cell_length_b 9.152869
_cell_length_c 30.543456
_cell_angle_alpha 90.000000
_cell_angle_beta 90.000000
_cell_angle_gamma 90.000000
_cell_volume 2435.861309
_symmetry_space_group_name_H-M "I M A 2"
_symmetry_group_IT_number 46
_symmetry_cell_setting 'orthorhombic'
loop_
_space_group_symop_operation_xyz
x,y,z
-x,-y,z
1/2-x,y,z
1/2+x,-y,z
1/2+x,1/2+y,1/2+z
1/2-x,1/2-y,1/2+z
-x,1/2+y,1/2+z
x,1/2-y,1/2+z
loop_
_atom_site_type_symbol
_atom_site_label
_atom_site_fract_x
_atom_site_fract_y
_atom_site_fract_z
Si Si1 0.429633 0.343932 0.195940
Si Si2 0.568190 0.653936 0.616835
Si Si3 0.931383 0.840583 0.437788
Si Si4 0.068405 0.159701 0.280529
Si Si5 0.570379 0.847560 0.018899
Si Si6 0.067607 0.840021 0.859691
O O1 0.500000 0.500000 0.204934
O O2 0.250000 0.364708 0.192930
O O3 0.493381 0.276353 0.150445
O O4 0.475338 0.238637 0.235524
O O5 0.500000 0.500000 0.631789
O O6 0.750000 0.641714 0.619521
O O7 0.511809 0.694238 0.567694
O O8 0.750000 0.846372 0.430045
O O9 0.974849 0.783315 0.486283
O O10 0.006118 0.728224 0.404364
O O11 0.000000 0.000000 0.430847
O O12 0.250000 0.155066 0.288944
O O13 0.986241 0.241720 0.319782
O O14 0.000000 0.000000 0.277747
O O15 0.750000 0.872940 0.019227
O O16 0.500000 0.000000 0.002564
O O17 0.250000 0.848368 0.861061
O O18 0.000000 0.000000 0.853418
#
# Coordination Sequence:
#
# PCOD8193098 Si02
#       6
#     8   8   8   8   8   8
#     4  10  22  37  56  82 115 150 188 231 279 332
#     4   9  18  35  56  82 112 146 187 232 279 333
#     4  11  23  39  58  84 116 152 191 235 283 336
#     4  11  23  40  61  87 116 150 189 233 282 336
#     4   9  19  35  57  82 112 147 187 232 281 334
#     4  12  25  42  63  87 115 149 187 233 283 337
#
# _framework density 19.705555
#
# number of rings (size 3 to 8) (size 9 to 14) (size 15 to 20)
#    0.000    1.667    0.000    4.500    0.000    6.667 
#    0.000    0.000    0.000    0.000    0.000    0.000 
#    0.000    0.000    0.000    0.000    0.000    0.000 
#
# Total GULP energy -297664.831776 kJ/mol
# GULP energy per Si atom -12402.701324 kJ/mol
# Density = 1.966070 g / cm^3
# Si number density = 19.705555 Si / 1000 Ang^3
#
#
#
# Elastic Constant Matrix: (Units=GPa)
#
#
# Indices 1 2 3 4 5 6 
#
# 1 77.2621 49.6909 51.7785 0.0000 0.0000 0.0000
# 2 49.6909 150.1189 67.6648 0.0000 0.0000 0.0000
# 3 51.7785 67.6648 124.2419 0.0000 0.0000 0.0000
# 4 0.0000 0.0000 0.0000 43.3985 0.0000 0.0000
# 5 0.0000 0.0000 0.0000 0.0000 -21.7394 0.0000
# 6 0.0000 0.0000 0.0000 0.0000 0.0000 36.5549
#
#
#
# Elastic Compliance Matrix: (Units=1/GPa)
#
#
# Indices 1 2 3 4 5 6 
#
# 1 0.019378 -0.003677 -0.006073 0.000000 0.000000 0.000000
# 2 -0.003677 0.009526 -0.003656 0.000000 0.000000 0.000000
# 3 -0.006073 -0.003656 0.012571 0.000000 0.000000 0.000000
# 4 0.000000 0.000000 0.000000 0.023042 0.000000 0.000000
# 5 0.000000 0.000000 0.000000 0.000000 -0.045999 0.000000
# 6 0.000000 0.000000 0.000000 0.000000 0.000000 0.027356
#
#
# Mechanical properties :
#
#
# Convention : Reuss Voigt Hill
#
# Bulk Modulus (GPa) = 68.19863 76.65459 72.42661
# Shear Modulus (GPa) = 64.45474 23.80872 44.13173
#
# Velocity S-wave (km/s) = 5.72538 3.47972 4.73753
# Velocity P-wave (km/s) = 8.85384 7.42489 8.17067
#
# Compressibility (1/GPa) = 0.01466305
#
# Stress axis : x y z
#
# Youngs Moduli (GPa) = 51.60544 104.97254 79.54807
#
# Poissons Ratio (x) = 0.38596 0.48313
# Poissons Ratio (y) = 0.18974 0.29082
# Poissons Ratio (z) = 0.31342 0.38377
#
# Static dielectric constant tensor:
#      x y z
#    x 3.628310 0.000000 0.000000 
#    y 0.000000 3.614440 0.000000 
#    z 0.000000 0.000000 4.125490 
# 
# 
# High freq. dielectric constant tensor:
#      x y z
#    x 1.769620 0.000000 0.000000 
#    y 0.000000 1.774500 0.000000 
#    z 0.000000 0.000000 1.787410 
# 
# From -- ./inp_files/24978.got.cif
#   From: 2010.03.12/outbox.cif.g09.slc.cpg/sg46_13_cif.got.tgz:24978.got - 2010.04.14 02:56:35.
