data_PCOD8193708
_publ_section_title
;
Structure prediction by ZEFSAII (Michael W. Deem and Ramdas Pophale) SiO2 
 PCOD8193708
Probable space group: P M M M
;
_chemical_formula_sum "Si O2"
_cell_formula_units_Z 52
_cell_length_a 13.770932
_cell_length_b 26.506994
_cell_length_c 9.244878
_cell_angle_alpha 90.000000
_cell_angle_beta 90.000000
_cell_angle_gamma 90.000000
_cell_volume 3374.620947
_symmetry_space_group_name_H-M "P M M M"
_symmetry_group_IT_number 47
_symmetry_cell_setting 'orthorhombic'
loop_
_space_group_symop_operation_xyz
x,y,z
-x,-y,z
x,-y,-z
-x,y,-z
-x,-y,-z
x,y,-z
-x,y,z
x,-y,z
loop_
_atom_site_type_symbol
_atom_site_label
_atom_site_fract_x
_atom_site_fract_y
_atom_site_fract_z
Si Si1 0.609391 0.943018 0.329723
Si Si2 0.891378 0.607943 0.327414
Si Si3 0.289855 0.143092 0.165483
Si Si4 0.889793 0.792659 0.833624
Si Si5 0.884682 0.500000 0.658464
Si Si6 0.611088 0.753608 0.168971
Si Si7 0.782247 0.293369 0.671905
O O1 0.616000 0.936664 0.500000
O O2 0.500000 0.930413 0.276916
O O3 0.686437 0.905574 0.259473
O O4 0.636576 0.000000 0.284277
O O5 0.894259 0.604005 0.500000
O O6 0.855408 0.553133 0.263494
O O7 0.817668 0.651397 0.277724
O O8 0.000000 0.620796 0.270584
O O9 0.178416 0.158968 0.196043
O O10 0.360080 0.189282 0.209510
O O11 0.306516 0.128107 0.000000
O O12 0.859511 0.746845 0.731046
O O13 0.000000 0.808573 0.799539
O O14 0.876463 0.775138 0.000000
O O15 0.835863 0.500000 0.500000
O O16 0.000000 0.500000 0.642384
O O17 0.500000 0.744287 0.211891
O O18 0.675959 0.714862 0.260564
O O19 0.630462 0.744001 0.000000
O O20 0.776970 0.288124 0.500000
#
# Coordination Sequence:
#
# PCOD8193708 Si02
#       7
#     8   8   8   8   4   8   8
#     4   9  18  31  45  63  88 114 136 161 201 253
#     4   8  13  21  34  55  84 113 138 167 204 246
#     4   9  17  29  46  66  83 103 137 176 207 236
#     4   9  18  32  46  60  84 118 149 173 202 245
#     4   7  10  18  32  50  76 111 142 164 197 247
#     4   9  18  32  46  60  83 114 144 172 205 250
#     4  10  18  26  40  65  91 110 135 175 216 251
#
# _framework density 15.409139
#
# number of rings (size 3 to 8) (size 9 to 14) (size 15 to 20)
#    0.000    3.154    0.000    3.692    0.000    4.923 
#    0.000    0.769    0.000    0.462    0.000    5.923 
#    0.000   12.923    0.000    0.000    0.000    0.000 
#
# Total GULP energy -644446.590218 kJ/mol
# GULP energy per Si atom -12393.203658 kJ/mol
# Density = 1.537407 g / cm^3
# Si number density = 15.409139 Si / 1000 Ang^3
#
#
#
# Elastic Constant Matrix: (Units=GPa)
#
#
# Indices 1 2 3 4 5 6 
#
# 1 116.3375 67.5114 35.8601 0.0000 0.0000 0.0000
# 2 67.5114 127.8341 42.6595 0.0000 0.0000 0.0000
# 3 35.8601 42.6595 40.8438 0.0000 0.0000 0.0000
# 4 0.0000 0.0000 0.0000 1.6140 0.0000 0.0000
# 5 0.0000 0.0000 0.0000 0.0000 22.2688 0.0000
# 6 0.0000 0.0000 0.0000 0.0000 0.0000 24.0701
#
#
#
# Elastic Compliance Matrix: (Units=1/GPa)
#
#
# Indices 1 2 3 4 5 6 
#
# 1 0.013513 -0.004877 -0.006770 0.000000 0.000000 0.000000
# 2 -0.004877 0.013768 -0.010098 0.000000 0.000000 0.000000
# 3 -0.006770 -0.010098 0.040975 0.000000 0.000000 0.000000
# 4 0.000000 0.000000 0.000000 0.619597 0.000000 0.000000
# 5 0.000000 0.000000 0.000000 0.000000 0.044906 0.000000
# 6 0.000000 0.000000 0.000000 0.000000 0.000000 0.041545
#
#
# Mechanical properties :
#
#
# Convention : Reuss Voigt Hill
#
# Bulk Modulus (GPa) = 40.37986 64.11972 52.24979
# Shear Modulus (GPa) = 6.05291 18.85619 12.45455
#
# Velocity S-wave (km/s) = 1.98410 3.50194 2.84607
# Velocity P-wave (km/s) = 5.61346 7.61927 6.69194
#
# Compressibility (1/GPa) = 0.02476482
#
# Stress axis : x y z
#
# Youngs Moduli (GPa) = 74.00457 72.63122 24.40532
#
# Poissons Ratio (x) = 0.35423 0.16522
# Poissons Ratio (y) = 0.36092 0.24645
# Poissons Ratio (z) = 0.50101 0.73345
#
# Static dielectric constant tensor:
#      x y z
#    x 2.942610 0.000000 0.000000 
#    y 0.000000 3.081870 0.000000 
#    z 0.000000 0.000000 2.736480 
# 
# 
# High freq. dielectric constant tensor:
#      x y z
#    x 1.575100 0.000000 0.000000 
#    y 0.000000 1.586200 0.000000 
#    z 0.000000 0.000000 1.571260 
# 
# From -- ./inp_files/7633.got.cif
#   From: 2010.03.12/outbox.cif.g09.slc.cpg/sg47_4_cif.got.tgz:7633.got - 2010.04.14 03:12:58.
