data_PCOD8193970
_publ_section_title
;
Structure prediction by ZEFSAII (Michael W. Deem and Ramdas Pophale) SiO2 
 PCOD8193970
Probable space group: P M M M
;
_chemical_formula_sum "Si O2"
_cell_formula_units_Z 52
_cell_length_a 9.093855
_cell_length_b 23.757104
_cell_length_c 13.854483
_cell_angle_alpha 90.000000
_cell_angle_beta 90.000000
_cell_angle_gamma 90.000000
_cell_volume 2993.173201
_symmetry_space_group_name_H-M "P M M M"
_symmetry_group_IT_number 47
_symmetry_cell_setting 'orthorhombic'
loop_
_space_group_symop_operation_xyz
x,y,z
-x,-y,z
x,-y,-z
-x,y,-z
-x,-y,-z
x,y,-z
-x,y,z
x,-y,z
loop_
_atom_site_type_symbol
_atom_site_label
_atom_site_fract_x
_atom_site_fract_y
_atom_site_fract_z
Si Si1 0.326265 0.168329 0.724487
Si Si2 0.328074 0.435302 0.306273
Si Si3 0.163714 0.566320 0.500000
Si Si4 0.325394 0.937526 0.607880
Si Si5 0.173617 0.769124 0.110236
Si Si6 0.166236 0.340122 0.220223
Si Si7 0.165381 0.259213 0.608686
O O1 0.500000 0.169890 0.739226
O O2 0.269564 0.107474 0.686930
O O3 0.250721 0.182515 0.826653
O O4 0.281479 0.212985 0.643163
O O5 0.500000 0.425709 0.318698
O O6 0.291669 0.500000 0.280612
O O7 0.251269 0.415360 0.404868
O O8 0.267003 0.396122 0.219051
O O9 0.147564 0.500000 0.500000
O O10 0.000000 0.594004 0.500000
O O11 0.265747 0.923022 0.500000
O O12 0.500000 0.935796 0.604441
O O13 0.271010 0.000000 0.638515
O O14 0.223930 0.706666 0.144025
O O15 0.000000 0.774674 0.126286
O O16 0.220581 0.778089 0.000000
O O17 0.177714 0.314709 0.327227
O O18 0.000000 0.357988 0.194568
O O19 0.203981 0.277180 0.500000
O O20 0.000000 0.234117 0.617169
#
# Coordination Sequence:
#
# PCOD8193970 Si02
#       7
#     8   8   4   8   8   8   8
#     4  10  18  28  47  75 100 123 160 205 245 286
#     4  10  20  32  45  65  95 126 155 190 234 281
#     4   9  17  29  45  63  85 121 165 197 220 257
#     4   8  14  25  42  67 102 141 173 199 230 270
#     4   9  19  37  57  73  92 121 155 195 248 302
#     4   9  18  31  49  71  90 116 157 197 233 280
#     4   9  18  31  45  64  95 132 162 193 236 283
#
# _framework density 17.372865999999998
#
# number of rings (size 3 to 8) (size 9 to 14) (size 15 to 20)
#    0.000    2.846    0.000    3.000    1.077    5.538 
#    0.000    0.000    0.000    2.769    0.000   11.846 
#    0.000    0.000    0.000    0.000    0.000    0.000 
#
# Total GULP energy -644563.684029 kJ/mol
# GULP energy per Si atom -12395.455462 kJ/mol
# Density = 1.733332 g / cm^3
# Si number density = 17.372866 Si / 1000 Ang^3
#
#
#
# Elastic Constant Matrix: (Units=GPa)
#
#
# Indices 1 2 3 4 5 6 
#
# 1 60.7954 43.0692 31.2761 0.0000 0.0000 0.0000
# 2 43.0692 105.6183 49.1911 0.0000 0.0000 0.0000
# 3 31.2761 49.1911 105.7174 0.0000 0.0000 0.0000
# 4 0.0000 0.0000 0.0000 21.0160 0.0000 0.0000
# 5 0.0000 0.0000 0.0000 0.0000 21.5712 0.0000
# 6 0.0000 0.0000 0.0000 0.0000 0.0000 17.6293
#
#
#
# Elastic Compliance Matrix: (Units=1/GPa)
#
#
# Indices 1 2 3 4 5 6 
#
# 1 0.023973 -0.008263 -0.003247 0.000000 0.000000 0.000000
# 2 -0.008263 0.014936 -0.004505 0.000000 0.000000 0.000000
# 3 -0.003247 -0.004505 0.012516 0.000000 0.000000 0.000000
# 4 0.000000 0.000000 0.000000 0.047583 0.000000 0.000000
# 5 0.000000 0.000000 0.000000 0.000000 0.046358 0.000000
# 6 0.000000 0.000000 0.000000 0.000000 0.000000 0.056724
#
#
# Mechanical properties :
#
#
# Convention : Reuss Voigt Hill
#
# Bulk Modulus (GPa) = 51.56344 57.68931 54.62637
# Shear Modulus (GPa) = 20.78257 21.94962 21.36610
#
# Velocity S-wave (km/s) = 3.46246 3.55835 3.51073
# Velocity P-wave (km/s) = 6.76238 7.08245 6.92426
#
# Compressibility (1/GPa) = 0.01939359
#
# Stress axis : x y z
#
# Youngs Moduli (GPa) = 41.71316 66.95258 79.89670
#
# Poissons Ratio (x) = 0.55326 0.25945
# Poissons Ratio (y) = 0.34469 0.35994
# Poissons Ratio (z) = 0.13546 0.30163
#
# Static dielectric constant tensor:
#      x y z
#    x 3.103160 0.000000 0.000000 
#    y 0.000000 3.299000 0.000000 
#    z 0.000000 0.000000 3.114550 
# 
# 
# High freq. dielectric constant tensor:
#      x y z
#    x 1.658540 0.000000 0.000000 
#    y 0.000000 1.666080 0.000000 
#    z 0.000000 0.000000 1.645350 
# 
# From -- ./inp_files/21463.got.cif
#   From: 2010.03.12/outbox.cif.g09.slc.cpg/sg47_11_cif.got.tgz:21463.got - 2010.04.14 03:12:58.
