data_PCOD8193881
_publ_section_title
;
Structure prediction by ZEFSAII (Michael W. Deem and Ramdas Pophale) SiO2 
 PCOD8193881
Probable space group: P M M M
;
_chemical_formula_sum "Si O2"
_cell_formula_units_Z 64
_cell_length_a 23.734032
_cell_length_b 9.012551
_cell_length_c 19.176692
_cell_angle_alpha 90.000000
_cell_angle_beta 90.000000
_cell_angle_gamma 90.000000
_cell_volume 4101.974459
_symmetry_space_group_name_H-M "P M M M"
_symmetry_group_IT_number 47
_symmetry_cell_setting 'orthorhombic'
loop_
_space_group_symop_operation_xyz
x,y,z
-x,-y,z
x,-y,-z
-x,y,-z
-x,-y,-z
x,y,-z
-x,y,z
x,-y,z
loop_
_atom_site_type_symbol
_atom_site_label
_atom_site_fract_x
_atom_site_fract_y
_atom_site_fract_z
Si Si1 0.659628 0.324437 0.662358
Si Si2 0.565195 0.171535 0.420603
Si Si3 0.723419 0.172710 0.777485
Si Si4 0.938135 0.676159 0.213096
Si Si5 0.762230 0.169947 0.076808
Si Si6 0.233334 0.674289 0.576349
Si Si7 0.828742 0.675074 0.290633
Si Si8 0.879008 0.324604 0.923418
O O1 0.659038 0.500000 0.670065
O O2 0.600084 0.270334 0.633281
O O3 0.672109 0.255351 0.738510
O O4 0.708544 0.267321 0.610091
O O5 0.578834 0.219528 0.500000
O O6 0.500000 0.200070 0.404082
O O7 0.580625 0.000000 0.409770
O O8 0.717117 0.199275 0.861190
O O9 0.783838 0.237311 0.755398
O O10 0.721025 0.000000 0.758150
O O11 0.941052 0.500000 0.211944
O O12 0.891736 0.727127 0.270041
O O13 0.920783 0.736097 0.136370
O O14 0.000000 0.741229 0.232276
O O15 0.816488 0.268928 0.091041
O O16 0.782384 0.000000 0.079801
O O17 0.735918 0.206077 0.000000
O O18 0.224041 0.748281 0.500000
O O19 0.238558 0.500000 0.567193
O O20 0.181222 0.713295 0.627572
O O21 0.819664 0.500000 0.276684
O O22 0.876162 0.500000 0.919205
O O23 0.900565 0.272517 0.000000
#
# Coordination Sequence:
#
# PCOD8193881 Si02
#       8
#     8   8   8   8   8   8   8   8
#     4  10  19  29  44  66  92 120 152 188 220 256
#     4   9  18  32  48  67  96 133 166 193 220 250
#     4  10  18  28  44  63  85 112 141 177 221 265
#     4   9  16  25  38  56  78 103 133 171 212 256
#     4   9  17  28  42  60  83 111 139 169 212 266
#     4   8  14  24  39  59  80 103 132 169 211 251
#     4   9  16  27  42  58  78 103 134 171 214 264
#     4   9  16  25  39  57  76 101 134 170 205 249
#
# _framework density 15.602242
#
# number of rings (size 3 to 8) (size 9 to 14) (size 15 to 20)
#    0.000    2.875    1.250    2.250    0.000    1.750 
#    0.000    1.875    0.000    5.250    0.000    4.375 
#    0.000    0.500    0.000   10.250    0.000    6.625 
#
# Total GULP energy -793084.040872 kJ/mol
# GULP energy per Si atom -12391.938139 kJ/mol
# Density = 1.556673 g / cm^3
# Si number density = 15.602242 Si / 1000 Ang^3
#
#
#
# Elastic Constant Matrix: (Units=GPa)
#
#
# Indices 1 2 3 4 5 6 
#
# 1 82.2720 26.7666 55.0361 0.0000 0.0000 0.0000
# 2 26.7666 37.9304 27.6839 0.0000 0.0000 0.0000
# 3 55.0361 27.6839 116.3678 0.0000 0.0000 0.0000
# 4 0.0000 0.0000 0.0000 16.2592 0.0000 0.0000
# 5 0.0000 0.0000 0.0000 0.0000 26.4519 0.0000
# 6 0.0000 0.0000 0.0000 0.0000 0.0000 12.3402
#
#
#
# Elastic Compliance Matrix: (Units=1/GPa)
#
#
# Indices 1 2 3 4 5 6 
#
# 1 0.019890 -0.008676 -0.007343 0.000000 0.000000 0.000000
# 2 -0.008676 0.035689 -0.004387 0.000000 0.000000 0.000000
# 3 -0.007343 -0.004387 0.013110 0.000000 0.000000 0.000000
# 4 0.000000 0.000000 0.000000 0.061504 0.000000 0.000000
# 5 0.000000 0.000000 0.000000 0.000000 0.037805 0.000000
# 6 0.000000 0.000000 0.000000 0.000000 0.000000 0.081036
#
#
# Mechanical properties :
#
#
# Convention : Reuss Voigt Hill
#
# Bulk Modulus (GPa) = 35.87301 50.61594 43.24448
# Shear Modulus (GPa) = 16.71482 19.48249 18.09865
#
# Velocity S-wave (km/s) = 3.27664 3.53753 3.40958
# Velocity P-wave (km/s) = 6.11206 7.01408 6.57855
#
# Compressibility (1/GPa) = 0.02787611
#
# Stress axis : x y z
#
# Youngs Moduli (GPa) = 50.27777 28.02018 76.27925
#
# Poissons Ratio (x) = 0.24312 0.56009
# Poissons Ratio (y) = 0.43623 0.33462
# Poissons Ratio (z) = 0.36917 0.12292
#
# Static dielectric constant tensor:
#      x y z
#    x 2.851000 0.000000 0.000000 
#    y 0.000000 2.797620 0.000000 
#    z 0.000000 0.000000 3.362830 
# 
# 
# High freq. dielectric constant tensor:
#      x y z
#    x 1.563750 0.000000 0.000000 
#    y 0.000000 1.581610 0.000000 
#    z 0.000000 0.000000 1.603420 
# 
# From -- ./inp_files/31505.got.cif
#   From: 2010.03.12/outbox.cif.g09.slc.cpg/sg47_16_cif.got.tgz:31505.got - 2010.04.14 03:12:58.
