data_PCOD8193946
_publ_section_title
;
Structure prediction by ZEFSAII (Michael W. Deem and Ramdas Pophale) SiO2 
 PCOD8193946
Probable space group: P M M M
;
_chemical_formula_sum "Si O2"
_cell_formula_units_Z 52
_cell_length_a 14.179737
_cell_length_b 9.405217
_cell_length_c 23.131099
_cell_angle_alpha 90.000000
_cell_angle_beta 90.000000
_cell_angle_gamma 90.000000
_cell_volume 3084.844402
_symmetry_space_group_name_H-M "P M M M"
_symmetry_group_IT_number 47
_symmetry_cell_setting 'orthorhombic'
loop_
_space_group_symop_operation_xyz
x,y,z
-x,-y,z
x,-y,-z
-x,y,-z
-x,-y,-z
x,y,-z
-x,y,z
x,-y,z
loop_
_atom_site_type_symbol
_atom_site_label
_atom_site_fract_x
_atom_site_fract_y
_atom_site_fract_z
Si Si1 0.292843 0.667173 0.176043
Si Si2 0.104770 0.836799 0.347048
Si Si3 0.609435 0.162871 0.276465
Si Si4 0.703489 0.163748 0.397624
Si Si5 0.104502 0.664771 0.232715
Si Si6 0.606153 0.668874 0.936518
Si Si7 0.390039 0.667565 0.500000
O O1 0.312367 0.500000 0.180477
O O2 0.354973 0.738950 0.225146
O O3 0.181886 0.702925 0.184031
O O4 0.324095 0.727052 0.113267
O O5 0.183288 0.808291 0.396264
O O6 0.129813 0.747158 0.290742
O O7 0.000000 0.798696 0.371112
O O8 0.109859 0.000000 0.327290
O O9 0.500000 0.192210 0.287073
O O10 0.662779 0.203022 0.335153
O O11 0.629196 0.000000 0.259451
O O12 0.657513 0.267126 0.443646
O O13 0.681077 0.000000 0.414007
O O14 0.109348 0.500000 0.248985
O O15 0.000000 0.706191 0.209554
O O16 0.500000 0.722154 0.923233
O O17 0.607916 0.500000 0.937108
O O18 0.638454 0.725273 0.000000
O O19 0.372749 0.500000 0.500000
O O20 0.500000 0.706043 0.500000
#
# Coordination Sequence:
#
# PCOD8193946 Si02
#       7
#     8   8   8   8   8   8   4
#     4  10  18  28  46  70  94 123 162 202 240 286
#     4   9  17  31  53  78 100 124 158 197 233 278
#     4  10  20  32  47  71 101 127 153 193 244 292
#     4  10  20  36  56  75  98 130 163 195 238 292
#     4   9  17  28  43  67  99 129 154 189 243 296
#     4   8  14  25  41  62  89 122 162 205 243 281
#     4  11  25  41  56  75  98 128 169 209 238 275
#
# _framework density 16.856604000000001
#
# number of rings (size 3 to 8) (size 9 to 14) (size 15 to 20)
#    0.000    2.538    1.538    1.615    0.000    3.385 
#    0.000    0.385    0.000    3.231    0.000    5.385 
#    0.000    0.000    0.000    5.231    0.000    5.692 
#
# Total GULP energy -644598.762123 kJ/mol
# GULP energy per Si atom -12396.130041 kJ/mol
# Density = 1.681824 g / cm^3
# Si number density = 16.856604 Si / 1000 Ang^3
#
#
#
# Elastic Constant Matrix: (Units=GPa)
#
#
# Indices 1 2 3 4 5 6 
#
# 1 127.1278 42.2047 70.7758 0.0000 0.0000 0.0000
# 2 42.2047 42.2363 42.6269 0.0000 0.0000 0.0000
# 3 70.7758 42.6269 111.1385 0.0000 0.0000 0.0000
# 4 0.0000 0.0000 0.0000 -738.6409 0.0000 0.0000
# 5 0.0000 0.0000 0.0000 0.0000 24.3144 0.0000
# 6 0.0000 0.0000 0.0000 0.0000 0.0000 21.5424
#
#
#
# Elastic Compliance Matrix: (Units=1/GPa)
#
#
# Indices 1 2 3 4 5 6 
#
# 1 0.013643 -0.007937 -0.005644 0.000000 0.000000 0.000000
# 2 -0.007937 0.043246 -0.011533 0.000000 0.000000 0.000000
# 3 -0.005644 -0.011533 0.017016 0.000000 0.000000 0.000000
# 4 0.000000 0.000000 0.000000 -0.001354 0.000000 0.000000
# 5 0.000000 0.000000 0.000000 0.000000 0.041128 0.000000
# 6 0.000000 0.000000 0.000000 0.000000 0.000000 0.046420
#
#
# Mechanical properties :
#
#
# Convention : Reuss Voigt Hill
#
# Bulk Modulus (GPa) = 42.23351 65.74637 53.98994
# Shear Modulus (GPa) = 22.91267 -130.23048 -53.65890
#
# Velocity S-wave (km/s) = 3.69083 -8.79918 -5.64816
# Velocity P-wave (km/s) = 6.57814 8.00912 3.23065
#
# Compressibility (1/GPa) = 0.02367788
#
# Stress axis : x y z
#
# Youngs Moduli (GPa) = 73.29603 23.12328 58.76941
#
# Poissons Ratio (x) = 0.18352 0.33172
# Poissons Ratio (y) = 0.58172 0.67778
# Poissons Ratio (z) = 0.41371 0.26668
#
# Static dielectric constant tensor:
#      x y z
#    x 3.546700 0.000000 0.000000 
#    y 0.000000 3.026220 0.000000 
#    z 0.000000 0.000000 3.231490 
# 
# 
# High freq. dielectric constant tensor:
#      x y z
#    x 1.664020 0.000000 0.000000 
#    y 0.000000 1.632610 0.000000 
#    z 0.000000 0.000000 1.630570 
# 
# From -- ./inp_files/10946.got.cif
#   From: 2010.03.12/outbox.cif.g09.slc.cpg/sg47_6_cif.got.tgz:10946.got - 2010.04.14 03:12:58.
