data_PCOD8193856
_publ_section_title
;
Structure prediction by ZEFSAII (Michael W. Deem and Ramdas Pophale) SiO2 
 PCOD8193856
Probable space group: P M M M
;
_chemical_formula_sum "Si O2"
_cell_formula_units_Z 64
_cell_length_a 9.101817
_cell_length_b 18.164970
_cell_length_c 26.497483
_cell_angle_alpha 90.000000
_cell_angle_beta 90.000000
_cell_angle_gamma 90.000000
_cell_volume 4380.941022
_symmetry_space_group_name_H-M "P M M M"
_symmetry_group_IT_number 47
_symmetry_cell_setting 'orthorhombic'
loop_
_space_group_symop_operation_xyz
x,y,z
-x,-y,z
x,-y,-z
-x,y,-z
-x,-y,-z
x,y,-z
-x,y,z
x,-y,z
loop_
_atom_site_type_symbol
_atom_site_label
_atom_site_fract_x
_atom_site_fract_y
_atom_site_fract_z
Si Si1 0.826859 0.326778 0.641263
Si Si2 0.829967 0.914074 0.248337
Si Si3 0.665595 0.202556 0.692416
Si Si4 0.674792 0.157765 0.844599
Si Si5 0.337461 0.299428 0.207566
Si Si6 0.325605 0.082601 0.055285
Si Si7 0.668386 0.415662 0.558515
Si Si8 0.172506 0.417680 0.739244
O O1 0.748571 0.247863 0.648538
O O2 0.774571 0.362046 0.589110
O O3 0.780543 0.382133 0.686144
O O4 0.000000 0.313795 0.639825
O O5 0.753042 0.872226 0.295132
O O6 0.754463 0.894698 0.195321
O O7 0.000000 0.890328 0.245775
O O8 0.811558 0.000000 0.258902
O O9 0.500000 0.183739 0.674689
O O10 0.663111 0.251534 0.742132
O O11 0.500000 0.146780 0.837451
O O12 0.716929 0.243952 0.836564
O O13 0.731362 0.136056 0.900433
O O14 0.500000 0.329263 0.195691
O O15 0.233583 0.370131 0.213783
O O16 0.500000 0.081564 0.055787
O O17 0.266680 0.000000 0.065255
O O18 0.270226 0.110177 0.000000
O O19 0.689661 0.396860 0.500000
O O20 0.500000 0.402481 0.574857
O O21 0.713236 0.500000 0.569157
O O22 0.238318 0.500000 0.741527
O O23 0.000000 0.419421 0.745179
#
# Coordination Sequence:
#
# PCOD8193856 Si02
#       8
#     8   8   8   8   8   8   8   8
#     4  10  18  28  43  61  82 107 135 168 206 246
#     4  10  19  28  39  58  83 108 135 167 201 236
#     4   9  17  29  43  58  78 105 136 166 197 238
#     4   9  16  26  40  56  76 104 136 165 195 236
#     4   8  15  25  36  53  74  97 126 158 191 228
#     4   8  13  21  35  56  78  99 128 166 200 228
#     4   9  18  31  44  59  82 112 145 179 210 239
#     4   9  17  27  38  54  76 101 128 157 191 233
#
# _framework density 14.608734
#
# number of rings (size 3 to 8) (size 9 to 14) (size 15 to 20)
#    0.000    3.000    0.000    3.375    0.000    6.250 
#    0.000    0.625    0.000    0.375    0.000    1.750 
#    0.000    1.000    0.000   11.500    0.000    3.250 
#
# Total GULP energy -793300.701272 kJ/mol
# GULP energy per Si atom -12395.323457 kJ/mol
# Density = 1.457548 g / cm^3
# Si number density = 14.608734 Si / 1000 Ang^3
#
#
#
# Elastic Constant Matrix: (Units=GPa)
#
#
# Indices 1 2 3 4 5 6 
#
# 1 60.9793 40.8433 30.6386 0.0000 0.0000 0.0000
# 2 40.8433 85.7489 45.6264 0.0000 0.0000 0.0000
# 3 30.6386 45.6264 72.7581 0.0000 0.0000 0.0000
# 4 0.0000 0.0000 0.0000 26.8151 0.0000 0.0000
# 5 0.0000 0.0000 0.0000 0.0000 12.0798 0.0000
# 6 0.0000 0.0000 0.0000 0.0000 0.0000 24.3350
#
#
#
# Elastic Compliance Matrix: (Units=1/GPa)
#
#
# Indices 1 2 3 4 5 6 
#
# 1 0.025070 -0.009490 -0.004605 0.000000 0.000000 0.000000
# 2 -0.009490 0.021095 -0.009232 0.000000 0.000000 0.000000
# 3 -0.004605 -0.009232 0.021473 0.000000 0.000000 0.000000
# 4 0.000000 0.000000 0.000000 0.037292 0.000000 0.000000
# 5 0.000000 0.000000 0.000000 0.000000 0.082783 0.000000
# 6 0.000000 0.000000 0.000000 0.000000 0.000000 0.041093
#
#
# Mechanical properties :
#
#
# Convention : Reuss Voigt Hill
#
# Bulk Modulus (GPa) = 47.66115 50.41143 49.03629
# Shear Modulus (GPa) = 17.70195 19.47118 18.58657
#
# Velocity S-wave (km/s) = 3.48478 3.65478 3.57079
# Velocity P-wave (km/s) = 6.99196 7.23827 7.11618
#
# Compressibility (1/GPa) = 0.02098145
#
# Stress axis : x y z
#
# Youngs Moduli (GPa) = 39.88908 47.40546 46.57044
#
# Poissons Ratio (x) = 0.44990 0.21448
# Poissons Ratio (y) = 0.37856 0.42994
# Poissons Ratio (z) = 0.18371 0.43765
#
# Static dielectric constant tensor:
#      x y z
#    x 2.821120 0.000000 0.000000 
#    y 0.000000 2.926820 0.000000 
#    z 0.000000 0.000000 2.792950 
# 
# 
# High freq. dielectric constant tensor:
#      x y z
#    x 1.555780 0.000000 0.000000 
#    y 0.000000 1.546640 0.000000 
#    z 0.000000 0.000000 1.526760 
# 
# From -- ./inp_files/10239.got.cif
#   From: 2010.03.12/outbox.cif.g09.slc.cpg/sg47_6_cif.got.tgz:10239.got - 2010.04.14 03:12:58.
