data_PCOD8193175
_publ_section_title
;
Structure prediction by ZEFSAII (Michael W. Deem and Ramdas Pophale) SiO2 
 PCOD8193175
Probable space group: I M A 2
;
_chemical_formula_sum "Si O2"
_cell_formula_units_Z 64
_cell_length_a 8.551753
_cell_length_b 23.592986
_cell_length_c 15.302670
_cell_angle_alpha 90.000000
_cell_angle_beta 90.000000
_cell_angle_gamma 90.000000
_cell_volume 3087.487952
_symmetry_space_group_name_H-M "I M A 2"
_symmetry_group_IT_number 46
_symmetry_cell_setting 'orthorhombic'
loop_
_space_group_symop_operation_xyz
x,y,z
-x,-y,z
1/2-x,y,z
1/2+x,-y,z
1/2+x,1/2+y,1/2+z
1/2-x,1/2-y,1/2+z
-x,1/2+y,1/2+z
x,1/2-y,1/2+z
loop_
_atom_site_type_symbol
_atom_site_label
_atom_site_fract_x
_atom_site_fract_y
_atom_site_fract_z
Si Si1 0.566410 0.355689 0.256140
Si Si2 0.930870 0.248884 0.496297
Si Si3 0.567970 0.753842 0.183908
Si Si4 0.931337 0.638361 0.435444
Si Si5 0.431515 0.378231 0.746492
Si Si6 0.065152 0.938163 0.603320
Si Si7 0.066706 0.875188 0.431000
Si Si8 0.066797 0.561565 0.585677
O O1 0.750000 0.344605 0.247685
O O2 0.474869 0.296139 0.250754
O O3 0.524991 0.382920 0.350002
O O4 0.504602 0.397515 0.180694
O O5 0.750000 0.265033 0.481945
O O6 0.973212 0.189549 0.452311
O O7 0.962747 0.244840 0.598953
O O8 0.039530 0.295241 0.450956
O O9 0.750000 0.752203 0.158521
O O10 0.523077 0.813069 0.228970
O O11 0.750000 0.626982 0.420158
O O12 0.987533 0.605522 0.520459
O O13 0.250000 0.389750 0.729012
O O14 0.473599 0.394449 0.845426
O O15 0.529560 0.419409 0.684050
O O16 0.250000 0.940100 0.605076
O O17 0.005784 0.914104 0.510634
O O18 0.000000 0.000000 0.620392
O O19 0.250000 0.883640 0.415174
O O20 0.250000 0.561377 0.569546
O O21 0.000000 0.500000 0.566194
#
# Coordination Sequence:
#
# PCOD8193175 Si02
#       8
#     8   8   8   8   8   8   8   8
#     4  11  23  42  65  92 128 169 214 261 318 384
#     4  11  21  38  65  94 128 170 210 254 317 382
#     4  11  22  37  62  95 132 167 207 259 318 379
#     4  12  25  42  64  97 133 164 209 262 316 382
#     4  11  24  41  63  96 131 166 206 258 316 378
#     4  10  23  43  64  89 121 161 212 264 312 368
#     4  10  22  41  63  92 127 167 212 260 311 377
#     4  12  26  46  70  93 123 167 214 264 319 376
#
# _framework density 20.728825000000001
#
# number of rings (size 3 to 8) (size 9 to 14) (size 15 to 20)
#    0.000    1.000    2.500    4.500    0.000    7.000 
#    0.000    2.500    0.000    0.000    0.000    0.000 
#    0.000    0.000    0.000    0.000    0.000    0.000 
#
# Total GULP energy -397041.532285 kJ/mol
# GULP energy per Si atom -12407.547884 kJ/mol
# Density = 2.068165 g / cm^3
# Si number density = 20.728825 Si / 1000 Ang^3
#
#
#
# Elastic Constant Matrix: (Units=GPa)
#
#
# Indices 1 2 3 4 5 6 
#
# 1 66.0885 27.6226 11.5611 -0.0001 -0.0001 0.0000
# 2 27.6226 77.9904 12.2487 0.0000 0.0000 0.0000
# 3 11.5611 12.2487 112.0081 -0.0012 -0.0006 0.0002
# 4 -0.0001 0.0000 -0.0012 14.2172 -0.0006 0.0002
# 5 -0.0001 0.0000 -0.0006 -0.0006 25.4050 0.0000
# 6 0.0000 0.0000 0.0002 0.0002 0.0000 32.5796
#
#
#
# Elastic Compliance Matrix: (Units=1/GPa)
#
#
# Indices 1 2 3 4 5 6 
#
# 1 0.017911 -0.006159 -0.001175 0.000000 0.000000 0.000000
# 2 -0.006159 0.015164 -0.001023 0.000000 0.000000 0.000000
# 3 -0.001175 -0.001023 0.009161 0.000001 0.000000 0.000000
# 4 0.000000 0.000000 0.000001 0.070337 0.000002 -0.000001
# 5 0.000000 0.000000 0.000000 0.000002 0.039362 0.000000
# 6 0.000000 0.000000 0.000000 -0.000001 0.000000 0.030694
#
#
# Mechanical properties :
#
#
# Convention : Reuss Voigt Hill
#
# Bulk Modulus (GPa) = 39.18118 39.88355 39.53237
# Shear Modulus (GPa) = 24.05563 28.08398 26.06980
#
# Velocity S-wave (km/s) = 3.41029 3.68479 3.55020
# Velocity P-wave (km/s) = 5.86938 6.11441 5.99315
#
# Compressibility (1/GPa) = 0.02552246
#
# Stress axis : x y z
#
# Youngs Moduli (GPa) = 55.83120 65.94505 109.15782
#
# Poissons Ratio (x) = 0.40617 0.12828
# Poissons Ratio (y) = 0.34387 0.11162
# Poissons Ratio (z) = 0.06561 0.06743
#
# Static dielectric constant tensor:
#      x y z
#    x 3.692360 0.000000 0.000000 
#    y 0.000000 3.298610 0.000000 
#    z 0.000000 0.000000 3.892420 
# 
# 
# High freq. dielectric constant tensor:
#      x y z
#    x 1.812900 0.000000 0.000000 
#    y 0.000000 1.807450 0.000000 
#    z 0.000000 0.000000 1.826190 
# 
# From -- ./inp_files/14483.got.cif
#   From: 2010.03.12/outbox.cif.g09.slc.cpg/sg46_8_cif.got.tgz:14483.got - 2010.04.14 02:56:35.
