data_PCOD8193146
_publ_section_title
;
Structure prediction by ZEFSAII (Michael W. Deem and Ramdas Pophale) SiO2 
 PCOD8193146
Probable space group: I M A 2
;
_chemical_formula_sum "Si O2"
_cell_formula_units_Z 64
_cell_length_a 18.446330
_cell_length_b 5.339944
_cell_length_c 29.457024
_cell_angle_alpha 90.000000
_cell_angle_beta 90.000000
_cell_angle_gamma 90.000000
_cell_volume 2901.586654
_symmetry_space_group_name_H-M "I M A 2"
_symmetry_group_IT_number 46
_symmetry_cell_setting 'orthorhombic'
loop_
_space_group_symop_operation_xyz
x,y,z
-x,-y,z
1/2-x,y,z
1/2+x,-y,z
1/2+x,1/2+y,1/2+z
1/2-x,1/2-y,1/2+z
-x,1/2+y,1/2+z
x,1/2-y,1/2+z
loop_
_atom_site_type_symbol
_atom_site_label
_atom_site_fract_x
_atom_site_fract_y
_atom_site_fract_z
Si Si1 0.830819 0.291306 0.941100
Si Si2 0.915055 0.493964 0.676743
Si Si3 0.331597 0.895210 0.267899
Si Si4 0.927820 0.628905 0.890787
Si Si5 0.085310 0.000368 0.623372
Si Si6 0.168712 0.410065 0.034874
Si Si7 0.166559 0.401298 0.324095
Si Si8 0.072282 0.107144 0.978666
O O1 0.750000 0.202288 0.929379
O O2 0.858180 0.447181 0.897402
O O3 0.883253 0.059546 0.943832
O O4 0.832162 0.423895 0.989933
O O5 0.880252 0.469691 0.725620
O O6 0.890593 0.747200 0.650187
O O7 0.000000 0.500000 0.684336
O O8 0.891136 0.245191 0.650481
O O9 0.250000 0.851768 0.250617
O O10 0.357683 0.638846 0.293047
O O11 0.337349 0.134679 0.299699
O O12 0.895535 0.868661 0.863114
O O13 0.952909 0.681587 0.942968
O O14 0.000000 0.500000 0.867849
O O15 0.129285 0.962848 0.576945
O O16 0.000000 0.000000 0.612609
O O17 0.250000 0.331834 0.048461
O O18 0.122079 0.167110 0.021872
O O19 0.250000 0.445770 0.341488
O O20 0.000000 0.000000 0.001504
#
# Coordination Sequence:
#
# PCOD8193146 Si02
#       8
#     8   8   8   8   8   8   8   8
#     4  10  22  40  61  87 125 168 214 270 327 383
#     4  10  22  42  64  95 128 167 210 260 324 389
#     4  10  22  42  67  95 125 167 213 262 325 392
#     4  11  23  40  59  93 127 166 219 267 323 389
#     4  10  23  39  64  94 129 169 213 263 323 387
#     4  10  24  40  59  92 127 166 219 272 330 392
#     4  10  23  41  65  96 131 168 213 266 326 388
#     4  11  23  38  64  89 122 171 218 270 325 386
#
# _framework density 22.056899000000001
#
# number of rings (size 3 to 8) (size 9 to 14) (size 15 to 20)
#    0.000    1.750    1.250    1.500    5.250    3.500 
#    0.000    1.250    0.000    0.000    0.000    0.000 
#    0.000    0.000    0.000    0.000    0.000    0.000 
#
# Total GULP energy -396489.248486 kJ/mol
# GULP energy per Si atom -12390.289015 kJ/mol
# Density = 2.200670 g / cm^3
# Si number density = 22.056899 Si / 1000 Ang^3
#
#
#
# Elastic Constant Matrix: (Units=GPa)
#
#
# Indices 1 2 3 4 5 6 
#
# 1 104.2396 32.3621 40.2292 0.0000 0.0000 0.0000
# 2 32.3621 120.0686 33.2925 0.0000 0.0000 0.0000
# 3 40.2292 33.2925 99.1272 0.0000 0.0000 0.0000
# 4 0.0000 0.0000 0.0000 -35.6379 0.0000 0.0000
# 5 0.0000 0.0000 0.0000 0.0000 32.8892 0.0000
# 6 0.0000 0.0000 0.0000 0.0000 0.0000 26.5181
#
#
#
# Elastic Compliance Matrix: (Units=1/GPa)
#
#
# Indices 1 2 3 4 5 6 
#
# 1 0.011813 -0.002045 -0.004107 0.000000 0.000000 0.000000
# 2 -0.002045 0.009538 -0.002373 0.000000 0.000000 0.000000
# 3 -0.004107 -0.002373 0.012552 0.000000 0.000000 0.000000
# 4 0.000000 0.000000 0.000000 -0.028060 0.000000 0.000000
# 5 0.000000 0.000000 0.000000 0.000000 0.030405 0.000000
# 6 0.000000 0.000000 0.000000 0.000000 0.000000 0.037710
#
#
# Mechanical properties :
#
#
# Convention : Reuss Voigt Hill
#
# Bulk Modulus (GPa) = 59.34188 59.46701 59.40444
# Shear Modulus (GPa) = 51.74510 19.25733 35.50121
#
# Velocity S-wave (km/s) = 4.84879 2.95799 4.01625
# Velocity P-wave (km/s) = 7.63610 6.21977 6.96404
#
# Compressibility (1/GPa) = 0.01685151
#
# Stress axis : x y z
#
# Youngs Moduli (GPa) = 84.64963 104.84501 79.66806
#
# Poissons Ratio (x) = 0.21443 0.32723
# Poissons Ratio (y) = 0.17312 0.18908
# Poissons Ratio (z) = 0.34769 0.24883
#
# Static dielectric constant tensor:
#      x y z
#    x 4.091290 0.000000 0.000000 
#    y 0.000000 4.710810 0.000000 
#    z 0.000000 0.000000 3.780260 
# 
# 
# High freq. dielectric constant tensor:
#      x y z
#    x 1.872660 0.000000 0.000000 
#    y 0.000000 1.875850 0.000000 
#    z 0.000000 0.000000 1.858190 
# 
# From -- ./inp_files/25494.got.cif
#   From: 2010.03.12/outbox.cif.g09.slc.cpg/sg46_13_cif.got.tgz:25494.got - 2010.04.14 02:56:35.
