data_PCOD8193492
_publ_section_title
;
Structure prediction by ZEFSAII (Michael W. Deem and Ramdas Pophale) SiO2 
 PCOD8193492
Probable space group: P M M M
;
_chemical_formula_sum "Si O2"
_cell_formula_units_Z 64
_cell_length_a 14.218413
_cell_length_b 9.220715
_cell_length_c 31.304723
_cell_angle_alpha 90.000000
_cell_angle_beta 90.000000
_cell_angle_gamma 90.000000
_cell_volume 4104.172339
_symmetry_space_group_name_H-M "P M M M"
_symmetry_group_IT_number 47
_symmetry_cell_setting 'orthorhombic'
loop_
_space_group_symop_operation_xyz
x,y,z
-x,-y,z
x,-y,-z
-x,y,-z
-x,-y,-z
x,y,-z
-x,y,z
x,-y,z
loop_
_atom_site_type_symbol
_atom_site_label
_atom_site_fract_x
_atom_site_fract_y
_atom_site_fract_z
Si Si1 0.221389 0.327717 0.717406
Si Si2 0.778918 0.328086 0.119037
Si Si3 0.894349 0.672322 0.798978
Si Si4 0.606557 0.831957 0.749635
Si Si5 0.888267 0.662517 0.454784
Si Si6 0.393041 0.832028 0.847921
Si Si7 0.105924 0.673569 0.636686
Si Si8 0.107957 0.166188 0.049509
O O1 0.228821 0.500000 0.717855
O O2 0.159380 0.270326 0.757087
O O3 0.325546 0.262379 0.719886
O O4 0.173790 0.269548 0.673964
O O5 0.772848 0.500000 0.117586
O O6 0.840591 0.271773 0.159022
O O7 0.674063 0.264802 0.122660
O O8 0.825315 0.272310 0.075715
O O9 0.897829 0.500000 0.798479
O O10 0.000000 0.736173 0.799172
O O11 0.500000 0.800624 0.734973
O O12 0.619775 0.785197 0.798762
O O13 0.631257 0.000000 0.743947
O O14 0.857254 0.741146 0.500000
O O15 0.847750 0.500000 0.456663
O O16 0.855989 0.734781 0.409609
O O17 0.000000 0.656419 0.452627
O O18 0.500000 0.803302 0.862529
O O19 0.366969 0.000000 0.853844
O O20 0.105476 0.500000 0.635175
O O21 0.000000 0.729069 0.646115
O O22 0.000000 0.206552 0.059135
O O23 0.127589 0.000000 0.062437
O O24 0.130938 0.190657 0.000000
#
# Coordination Sequence:
#
# PCOD8193492 Si02
#       8
#     8   8   8   8   8   8   8   8
#     4  10  17  26  41  61  85 114 146 178 210 250
#     4  11  20  30  48  74  99 121 147 183 224 263
#     4   9  17  27  38  58  90 122 146 169 201 245
#     4   9  18  32  47  61  81 111 145 182 222 260
#     4   7   9  14  25  43  70 104 141 178 211 245
#     4   9  18  33  51  68  88 117 152 187 222 263
#     4   8  13  20  32  52  79 114 149 175 207 253
#     4   9  19  36  55  73  95 125 158 188 218 255
#
# _framework density 15.593888
#
# number of rings (size 3 to 8) (size 9 to 14) (size 15 to 20)
#    0.000    3.000    1.250    3.375    0.000    3.000 
#    0.000    1.875    0.000    2.625    0.000    2.625 
#    0.000    1.000    0.000    9.375    0.000    3.750 
#
# Total GULP energy -793114.134075 kJ/mol
# GULP energy per Si atom -12392.408345 kJ/mol
# Density = 1.555840 g / cm^3
# Si number density = 15.593888 Si / 1000 Ang^3
#
#
#
# Elastic Constant Matrix: (Units=GPa)
#
#
# Indices 1 2 3 4 5 6 
#
# 1 96.1895 34.9034 55.2630 0.0000 0.0000 0.0000
# 2 34.9034 36.0973 33.2258 0.0000 0.0000 0.0000
# 3 55.2630 33.2258 110.2340 0.0000 0.0000 0.0000
# 4 0.0000 0.0000 0.0000 10.6045 0.0000 0.0000
# 5 0.0000 0.0000 0.0000 0.0000 13.3421 0.0000
# 6 0.0000 0.0000 0.0000 0.0000 0.0000 20.6860
#
#
#
# Elastic Compliance Matrix: (Units=1/GPa)
#
#
# Indices 1 2 3 4 5 6 
#
# 1 0.017947 -0.012555 -0.005213 0.000000 0.000000 0.000000
# 2 -0.012555 0.047123 -0.007909 0.000000 0.000000 0.000000
# 3 -0.005213 -0.007909 0.014069 0.000000 0.000000 0.000000
# 4 0.000000 0.000000 0.000000 0.094299 0.000000 0.000000
# 5 0.000000 0.000000 0.000000 0.000000 0.074951 0.000000
# 6 0.000000 0.000000 0.000000 0.000000 0.000000 0.048342
#
#
# Mechanical properties :
#
#
# Convention : Reuss Voigt Hill
#
# Bulk Modulus (GPa) = 35.99180 54.36726 45.17953
# Shear Modulus (GPa) = 13.99205 16.86843 15.43024
#
# Velocity S-wave (km/s) = 2.99871 3.29254 3.14905
# Velocity P-wave (km/s) = 5.92625 7.02813 6.50058
#
# Compressibility (1/GPa) = 0.02778411
#
# Stress axis : x y z
#
# Youngs Moduli (GPa) = 55.72021 21.22123 71.07863
#
# Poissons Ratio (x) = 0.26643 0.37053
# Poissons Ratio (y) = 0.69956 0.56218
# Poissons Ratio (z) = 0.29047 0.16784
#
# Static dielectric constant tensor:
#      x y z
#    x 2.865520 0.000000 0.000000 
#    y 0.000000 2.590920 0.000000 
#    z 0.000000 0.000000 3.206110 
# 
# 
# High freq. dielectric constant tensor:
#      x y z
#    x 1.580170 0.000000 0.000000 
#    y 0.000000 1.562000 0.000000 
#    z 0.000000 0.000000 1.596190 
# 
# From -- ./inp_files/25877.got.cif
#   From: 2010.03.12/outbox.cif.g09.slc.cpg/sg47_13_cif.got.tgz:25877.got - 2010.04.14 03:12:58.
