data_PCOD8193238
_publ_section_title
;
Structure prediction by ZEFSAII (Michael W. Deem and Ramdas Pophale) SiO2 
 PCOD8193238
Probable space group: I M A 2
;
_chemical_formula_sum "Si O2"
_cell_formula_units_Z 48
_cell_length_a 26.501720
_cell_length_b 8.629121
_cell_length_c 10.209113
_cell_angle_alpha 90.000000
_cell_angle_beta 90.000000
_cell_angle_gamma 90.000000
_cell_volume 2334.686816
_symmetry_space_group_name_H-M "I M A 2"
_symmetry_group_IT_number 46
_symmetry_cell_setting 'orthorhombic'
loop_
_space_group_symop_operation_xyz
x,y,z
-x,-y,z
1/2-x,y,z
1/2+x,-y,z
1/2+x,1/2+y,1/2+z
1/2-x,1/2-y,1/2+z
-x,1/2+y,1/2+z
x,1/2-y,1/2+z
loop_
_atom_site_type_symbol
_atom_site_label
_atom_site_fract_x
_atom_site_fract_y
_atom_site_fract_z
Si Si1 0.046603 0.394921 0.637610
Si Si2 0.307475 0.098323 0.371175
Si Si3 0.347413 0.937636 0.127061
Si Si4 0.545345 0.886277 0.838387
Si Si5 0.192350 0.607471 0.111722
Si Si6 0.844120 0.564655 0.352991
O O1 0.096233 0.500985 0.650276
O O2 0.047558 0.255809 0.739405
O O3 0.039986 0.329665 0.489545
O O4 0.000000 0.500000 0.678348
O O5 0.250000 0.148041 0.398316
O O6 0.341845 0.249925 0.364654
O O7 0.310415 0.004683 0.236633
O O8 0.327744 0.989618 0.487855
O O9 0.345120 0.751495 0.132933
O O10 0.325234 0.989619 0.987640
O O11 0.597715 0.980809 0.824740
O O12 0.500000 0.000000 0.798762
O O13 0.250000 0.662982 0.089303
O O14 0.191228 0.496743 0.237876
#
# Coordination Sequence:
#
# PCOD8193238 Si02
#       6
#     8   8   8   8   8   8
#     4  10  23  43  64  95 127 163 211 260 321 380
#     4  11  23  40  64  93 127 169 215 265 322 384
#     4  11  23  41  63  90 130 166 210 267 319 390
#     4  10  23  42  65  95 127 163 210 265 317 382
#     4  11  25  41  62  95 129 168 216 266 330 388
#     4  11  23  41  64  92 127 164 218 265 320 387
#
# _framework density 20.559502999999999
#
# number of rings (size 3 to 8) (size 9 to 14) (size 15 to 20)
#    0.000    1.333    1.667    3.000    4.667    6.000 
#    3.000    0.000    0.000    0.000    0.000    0.000 
#    0.000    0.000    0.000    0.000    0.000    0.000 
#
# Total GULP energy -297708.717545 kJ/mol
# GULP energy per Si atom -12404.529898 kJ/mol
# Density = 2.051271 g / cm^3
# Si number density = 20.559503 Si / 1000 Ang^3
#
#
#
# Elastic Constant Matrix: (Units=GPa)
#
#
# Indices 1 2 3 4 5 6 
#
# 1 82.0664 44.7847 33.0325 0.0000 0.0000 0.0000
# 2 44.7847 124.4826 49.5277 0.0000 0.0000 0.0000
# 3 33.0325 49.5277 125.9423 0.0000 0.0000 0.0000
# 4 0.0000 0.0000 0.0000 39.5927 0.0000 0.0000
# 5 0.0000 0.0000 0.0000 0.0000 2.2928 0.0000
# 6 0.0000 0.0000 0.0000 0.0000 0.0000 34.4801
#
#
#
# Elastic Compliance Matrix: (Units=1/GPa)
#
#
# Indices 1 2 3 4 5 6 
#
# 1 0.015680 -0.004748 -0.002246 0.000000 0.000000 0.000000
# 2 -0.004748 0.010961 -0.003065 0.000000 0.000000 0.000000
# 3 -0.002246 -0.003065 0.009735 0.000000 0.000000 0.000000
# 4 0.000000 0.000000 0.000000 0.025257 0.000000 0.000000
# 5 0.000000 0.000000 0.000000 0.000000 0.436149 0.000000
# 6 0.000000 0.000000 0.000000 0.000000 0.000000 0.029002
#
#
# Mechanical properties :
#
#
# Convention : Reuss Voigt Hill
#
# Bulk Modulus (GPa) = 61.50626 65.24236 63.37431
# Shear Modulus (GPa) = 9.05273 28.94953 19.00113
#
# Velocity S-wave (km/s) = 2.10065 3.75652 3.04337
# Velocity P-wave (km/s) = 5.98872 7.11460 6.57580
#
# Compressibility (1/GPa) = 0.01625851
#
# Stress axis : x y z
#
# Youngs Moduli (GPa) = 63.77549 91.23358 102.72726
#
# Poissons Ratio (x) = 0.43315 0.23068
# Poissons Ratio (y) = 0.30279 0.31488
# Poissons Ratio (z) = 0.14321 0.27965
#
# Static dielectric constant tensor:
#      x y z
#    x 3.724890 0.000000 0.000000 
#    y 0.000000 3.564210 0.000000 
#    z 0.000000 0.000000 3.932860 
# 
# 
# High freq. dielectric constant tensor:
#      x y z
#    x 1.806900 0.000000 0.000000 
#    y 0.000000 1.797630 0.000000 
#    z 0.000000 0.000000 1.820670 
# 
# From -- ./inp_files/8406.got.cif
#   From: 2010.03.12/outbox.cif.g09.slc.cpg/sg46_5_cif.got.tgz:8406.got - 2010.04.14 02:56:35.
