data_PCOD8193985
_publ_section_title
;
Structure prediction by ZEFSAII (Michael W. Deem and Ramdas Pophale) SiO2 
 PCOD8193985
Probable space group: P M M M
;
_chemical_formula_sum "Si O2"
_cell_formula_units_Z 64
_cell_length_a 9.237045
_cell_length_b 14.367956
_cell_length_c 26.203864
_cell_angle_alpha 90.000000
_cell_angle_beta 90.000000
_cell_angle_gamma 90.000000
_cell_volume 3477.710171
_symmetry_space_group_name_H-M "P M M M"
_symmetry_group_IT_number 47
_symmetry_cell_setting 'orthorhombic'
loop_
_space_group_symop_operation_xyz
x,y,z
-x,-y,z
x,-y,-z
-x,y,-z
-x,-y,-z
x,y,-z
-x,y,z
x,-y,z
loop_
_atom_site_type_symbol
_atom_site_label
_atom_site_fract_x
_atom_site_fract_y
_atom_site_fract_z
Si Si1 0.832618 0.285175 0.056347
Si Si2 0.328267 0.396200 0.443424
Si Si3 0.834428 0.104917 0.112704
Si Si4 0.170134 0.892375 0.310266
Si Si5 0.663927 0.389678 0.143799
Si Si6 0.672362 0.271140 0.648930
Si Si7 0.338604 0.889974 0.790028
Si Si8 0.671714 0.603657 0.743096
O O1 0.811730 0.174436 0.065515
O O2 0.758255 0.345450 0.099556
O O3 0.000000 0.311971 0.058026
O O4 0.768756 0.307278 0.000000
O O5 0.278597 0.363332 0.500000
O O6 0.500000 0.399576 0.440418
O O7 0.267921 0.500000 0.432309
O O8 0.270260 0.325318 0.400951
O O9 0.734679 0.145105 0.158036
O O10 0.000000 0.105723 0.132153
O O11 0.789975 0.000000 0.096161
O O12 0.247167 0.828632 0.352914
O O13 0.240137 0.859519 0.257079
O O14 0.000000 0.873737 0.308222
O O15 0.204106 0.000000 0.322665
O O16 0.500000 0.356428 0.135331
O O17 0.676165 0.500000 0.139850
O O18 0.718260 0.358617 0.200593
O O19 0.500000 0.256258 0.648560
O O20 0.726190 0.327593 0.698857
O O21 0.500000 0.846236 0.784381
O O22 0.348827 0.000000 0.792106
O O23 0.500000 0.596035 0.741485
O O24 0.736179 0.500000 0.733571
#
# Coordination Sequence:
#
# PCOD8193985 Si02
#       8
#     8   8   8   8   8   8   8   8
#     4  10  22  37  52  73  98 126 165 210 252 297
#     4   8  14  26  47  78 114 146 175 211 257 308
#     4   9  18  33  52  73  99 131 163 197 244 301
#     4  10  21  35  48  66 100 142 177 211 255 304
#     4   9  19  36  55  73  96 127 162 202 251 307
#     4  10  18  28  50  81 106 134 174 217 255 294
#     4   9  17  30  49  72  96 124 162 205 246 293
#     4   8  15  29  49  75 104 129 156 195 246 303
#
# _framework density 18.402913000000002
#
# number of rings (size 3 to 8) (size 9 to 14) (size 15 to 20)
#    0.000    2.875    0.000    2.250    1.750    5.250 
#    0.000    2.500    0.000    3.000    0.000    6.125 
#    0.000    0.000    0.000    0.000    0.000    0.000 
#
# Total GULP energy -793285.692826 kJ/mol
# GULP energy per Si atom -12395.088950 kJ/mol
# Density = 1.836103 g / cm^3
# Si number density = 18.402913 Si / 1000 Ang^3
#
#
#
# Elastic Constant Matrix: (Units=GPa)
#
#
# Indices 1 2 3 4 5 6 
#
# 1 58.9152 33.9567 43.6437 0.0000 0.0000 0.0000
# 2 33.9567 68.8058 66.8632 0.0000 0.0000 0.0000
# 3 43.6437 66.8632 146.1906 0.0000 0.0000 0.0000
# 4 0.0000 0.0000 0.0000 27.4855 0.0000 0.0000
# 5 0.0000 0.0000 0.0000 0.0000 15.2056 0.0000
# 6 0.0000 0.0000 0.0000 0.0000 0.0000 22.7669
#
#
#
# Elastic Compliance Matrix: (Units=1/GPa)
#
#
# Indices 1 2 3 4 5 6 
#
# 1 0.024533 -0.008982 -0.003216 0.000000 0.000000 0.000000
# 2 -0.008982 0.029450 -0.010788 0.000000 0.000000 0.000000
# 3 -0.003216 -0.010788 0.012734 0.000000 0.000000 0.000000
# 4 0.000000 0.000000 0.000000 0.036383 0.000000 0.000000
# 5 0.000000 0.000000 0.000000 0.000000 0.065765 0.000000
# 6 0.000000 0.000000 0.000000 0.000000 0.000000 0.043923
#
#
# Mechanical properties :
#
#
# Convention : Reuss Voigt Hill
#
# Bulk Modulus (GPa) = 48.20400 62.53767 55.37083
# Shear Modulus (GPa) = 18.81991 21.72146 20.27069
#
# Velocity S-wave (km/s) = 3.20137 3.43932 3.32248
# Velocity P-wave (km/s) = 6.31788 7.05890 6.69865
#
# Compressibility (1/GPa) = 0.02074517
#
# Stress axis : x y z
#
# Youngs Moduli (GPa) = 40.76164 33.95591 78.52687
#
# Poissons Ratio (x) = 0.30501 0.25252
# Poissons Ratio (y) = 0.36614 0.84714
# Poissons Ratio (z) = 0.13108 0.36631
#
# Static dielectric constant tensor:
#      x y z
#    x 3.170460 0.000000 0.000000 
#    y 0.000000 3.485760 0.000000 
#    z 0.000000 0.000000 3.497670 
# 
# 
# High freq. dielectric constant tensor:
#      x y z
#    x 1.680940 0.000000 0.000000 
#    y 0.000000 1.717820 0.000000 
#    z 0.000000 0.000000 1.701550 
# 
# From -- ./inp_files/34435.got.cif
#   From: 2010.03.12/outbox.cif.g09.slc.cpg/sg47_18_cif.got.tgz:34435.got - 2010.04.14 03:12:58.
