data_PCOD8193339
_publ_section_title
;
Structure prediction by ZEFSAII (Michael W. Deem and Ramdas Pophale) SiO2 
 PCOD8193339
Probable space group: I M A 2
;
_chemical_formula_sum "Si O2"
_cell_formula_units_Z 64
_cell_length_a 8.802288
_cell_length_b 25.008799
_cell_length_c 15.311996
_cell_angle_alpha 90.000000
_cell_angle_beta 90.000000
_cell_angle_gamma 90.000000
_cell_volume 3370.700901
_symmetry_space_group_name_H-M "I M A 2"
_symmetry_group_IT_number 46
_symmetry_cell_setting 'orthorhombic'
loop_
_space_group_symop_operation_xyz
x,y,z
-x,-y,z
1/2-x,y,z
1/2+x,-y,z
1/2+x,1/2+y,1/2+z
1/2-x,1/2-y,1/2+z
-x,1/2+y,1/2+z
x,1/2-y,1/2+z
loop_
_atom_site_type_symbol
_atom_site_label
_atom_site_fract_x
_atom_site_fract_y
_atom_site_fract_z
Si Si1 0.572532 0.889772 0.547390
Si Si2 0.431524 0.642945 0.355690
Si Si3 0.422555 0.781979 0.526700
Si Si4 0.929770 0.164006 0.046566
Si Si5 0.078207 0.760118 0.326854
Si Si6 0.930869 0.138527 0.233129
Si Si7 0.570002 0.058106 0.378697
Si Si8 0.928372 0.557061 0.228766
O O1 0.750000 0.893919 0.526355
O O2 0.527016 0.828534 0.566578
O O3 0.478169 0.912526 0.466823
O O4 0.527352 0.923959 0.632062
O O5 0.250000 0.639426 0.348154
O O6 0.485527 0.636150 0.457105
O O7 0.495034 0.700842 0.322777
O O8 0.508095 0.597194 0.300460
O O9 0.250000 0.790398 0.560126
O O10 0.490798 0.724822 0.556820
O O11 0.428540 0.785390 0.422566
O O12 0.750000 0.169965 0.039643
O O13 0.979400 0.129560 0.131759
O O14 0.250000 0.752161 0.296169
O O15 0.999576 0.804050 0.263855
O O16 0.750000 0.140930 0.242930
O O17 0.991894 0.090807 0.294244
O O18 0.750000 0.053294 0.378291
O O19 0.500000 0.000000 0.373517
O O20 0.750000 0.553235 0.240807
O O21 0.000000 0.500000 0.247225
#
# Coordination Sequence:
#
# PCOD8193339 Si02
#       8
#     8   8   8   8   8   8   8   8
#     4  11  23  37  54  80 113 145 181 224 276 335
#     4   9  18  34  58  85 111 141 183 230 274 322
#     4   9  16  30  53  82 113 147 185 220 262 317
#     4   8  16  30  53  84 116 148 184 224 266 322
#     4   8  14  27  49  82 114 142 179 217 261 319
#     4   9  16  29  52  83 115 146 183 226 266 315
#     4  11  22  37  58  80 110 148 188 229 273 324
#     4  11  25  42  58  78 106 142 186 232 281 333
#
# _framework density 18.987148999999999
#
# number of rings (size 3 to 8) (size 9 to 14) (size 15 to 20)
#    0.000    2.500    1.250    3.000    1.750    3.000 
#    0.000    3.125    0.000    4.500    0.000    0.000 
#    0.000    0.000    0.000    0.000    0.000    0.000 
#
# Total GULP energy -396615.890833 kJ/mol
# GULP energy per Si atom -12394.246589 kJ/mol
# Density = 1.894393 g / cm^3
# Si number density = 18.987149 Si / 1000 Ang^3
#
#
#
# Elastic Constant Matrix: (Units=GPa)
#
#
# Indices 1 2 3 4 5 6 
#
# 1 40.7922 36.6486 35.8065 0.0001 -0.0001 0.0000
# 2 36.6486 124.0267 62.0056 -0.0002 0.0001 -0.0001
# 3 35.8065 62.0056 114.2210 -0.0005 0.0003 0.0000
# 4 0.0001 -0.0002 -0.0005 31.2514 0.0001 0.0000
# 5 -0.0001 0.0001 0.0003 0.0001 17.8908 0.0000
# 6 0.0000 -0.0001 0.0000 0.0000 0.0000 26.4172
#
#
#
# Elastic Compliance Matrix: (Units=1/GPa)
#
#
# Indices 1 2 3 4 5 6 
#
# 1 0.038038 -0.007245 -0.007992 0.000000 0.000000 0.000000
# 2 -0.007245 0.012446 -0.004485 0.000000 0.000000 0.000000
# 3 -0.007992 -0.004485 0.013695 0.000000 0.000000 0.000000
# 4 0.000000 0.000000 0.000000 0.031999 0.000000 0.000000
# 5 0.000000 0.000000 0.000000 0.000000 0.055895 0.000000
# 6 0.000000 0.000000 0.000000 0.000000 0.000000 0.037854
#
#
# Mechanical properties :
#
#
# Convention : Reuss Voigt Hill
#
# Bulk Modulus (GPa) = 40.42672 60.88462 50.65567
# Shear Modulus (GPa) = 21.04251 24.75049 22.89650
#
# Velocity S-wave (km/s) = 3.33265 3.61437 3.47637
# Velocity P-wave (km/s) = 6.01220 7.03947 6.54602
#
# Compressibility (1/GPa) = 0.02473611
#
# Stress axis : x y z
#
# Youngs Moduli (GPa) = 26.28950 80.34837 73.01919
#
# Poissons Ratio (x) = 0.58209 0.58354
# Poissons Ratio (y) = 0.19046 0.32751
# Poissons Ratio (z) = 0.21009 0.36038
#
# Static dielectric constant tensor:
#      x y z
#    x 3.073960 0.000000 0.000000 
#    y 0.000000 3.563580 0.000000 
#    z 0.000000 0.000000 3.650830 
# 
# 
# High freq. dielectric constant tensor:
#      x y z
#    x 1.693410 0.000000 0.000000 
#    y 0.000000 1.737800 0.000000 
#    z 0.000000 0.000000 1.744890 
# 
# From -- ./inp_files/14527.got.cif
#   From: 2010.03.12/outbox.cif.g09.slc.cpg/sg46_8_cif.got.tgz:14527.got - 2010.04.14 02:56:35.
