data_PCOD8193597
_publ_section_title
;
Structure prediction by ZEFSAII (Michael W. Deem and Ramdas Pophale) SiO2 
 PCOD8193597
Probable space group: P M M M
;
_chemical_formula_sum "Si O2"
_cell_formula_units_Z 64
_cell_length_a 19.881887
_cell_length_b 8.985951
_cell_length_c 21.100934
_cell_angle_alpha 90.000000
_cell_angle_beta 90.000000
_cell_angle_gamma 90.000000
_cell_volume 3769.843542
_symmetry_space_group_name_H-M "P M M M"
_symmetry_group_IT_number 47
_symmetry_cell_setting 'orthorhombic'
loop_
_space_group_symop_operation_xyz
x,y,z
-x,-y,z
x,-y,-z
-x,y,-z
-x,-y,-z
x,y,-z
-x,y,z
x,-y,z
loop_
_atom_site_type_symbol
_atom_site_label
_atom_site_fract_x
_atom_site_fract_y
_atom_site_fract_z
Si Si1 0.426903 0.823120 0.233424
Si Si2 0.286215 0.177466 0.810610
Si Si3 0.925123 0.170368 0.862927
Si Si4 0.203609 0.176665 0.687585
Si Si5 0.206877 0.175343 0.069309
Si Si6 0.075857 0.325929 0.731606
Si Si7 0.573003 0.823083 0.376557
Si Si8 0.710241 0.177163 0.569784
O O1 0.500000 0.769037 0.206262
O O2 0.363451 0.763580 0.192684
O O3 0.418123 0.764475 0.304903
O O4 0.425120 0.000000 0.233597
O O5 0.244276 0.233554 0.749509
O O6 0.253994 0.243365 0.875269
O O7 0.283723 0.000000 0.811277
O O8 0.871223 0.212470 0.916569
O O9 0.912561 0.275133 0.803373
O O10 0.000000 0.193178 0.891184
O O11 0.914364 0.000000 0.840114
O O12 0.128527 0.242705 0.686336
O O13 0.240045 0.237498 0.624153
O O14 0.199133 0.000000 0.687145
O O15 0.218068 0.000000 0.067093
O O16 0.224803 0.243638 0.000000
O O17 0.089219 0.500000 0.727639
O O18 0.000000 0.285617 0.709526
O O19 0.500000 0.769809 0.403353
O O20 0.634520 0.760751 0.418357
O O21 0.575304 0.000000 0.376042
O O22 0.733759 0.231915 0.500000
O O23 0.709047 0.000000 0.572757
#
# Coordination Sequence:
#
# PCOD8193597 Si02
#       8
#     8   8   8   8   8   8   8   8
#     4   8  12  18  30  49  76 111 147 179 212 253
#     4   9  14  22  37  57  80 109 146 184 216 249
#     4   9  16  27  44  65  88 114 143 172 209 261
#     4  10  17  28  47  67  87 115 148 179 214 259
#     4   9  16  24  36  58  86 114 145 182 218 249
#     4  10  20  32  47  68  91 112 139 179 222 259
#     4   8  12  18  29  49  82 121 151 172 205 257
#     4   9  16  24  36  59  90 119 146 180 220 258
#
# _framework density 16.976832000000002
#
# number of rings (size 3 to 8) (size 9 to 14) (size 15 to 20)
#    0.000    3.000    2.500    1.125    0.000    1.250 
#    0.000    2.500    0.000    1.500    0.000    7.000 
#    0.000    2.000    0.000    1.125    0.000    2.500 
#
# Total GULP energy -792937.688208 kJ/mol
# GULP energy per Si atom -12389.651378 kJ/mol
# Density = 1.693819 g / cm^3
# Si number density = 16.976832 Si / 1000 Ang^3
#
#
#
# Elastic Constant Matrix: (Units=GPa)
#
#
# Indices 1 2 3 4 5 6 
#
# 1 144.0899 17.7297 81.2906 0.0000 0.0000 0.0000
# 2 17.7297 11.7186 11.4732 0.0000 0.0000 0.0000
# 3 81.2906 11.4732 129.2794 0.0000 0.0000 0.0000
# 4 0.0000 0.0000 0.0000 2.7267 0.0000 0.0000
# 5 0.0000 0.0000 0.0000 0.0000 24.1466 0.0000
# 6 0.0000 0.0000 0.0000 0.0000 0.0000 5.2258
#
#
#
# Elastic Compliance Matrix: (Units=1/GPa)
#
#
# Indices 1 2 3 4 5 6 
#
# 1 0.012101 -0.011891 -0.006553 0.000000 0.000000 0.000000
# 2 -0.011891 0.105140 -0.001854 0.000000 0.000000 0.000000
# 3 -0.006553 -0.001854 0.012021 0.000000 0.000000 0.000000
# 4 0.000000 0.000000 0.000000 0.366742 0.000000 0.000000
# 5 0.000000 0.000000 0.000000 0.000000 0.041414 0.000000
# 6 0.000000 0.000000 0.000000 0.000000 0.000000 0.191359
#
#
# Mechanical properties :
#
#
# Convention : Reuss Voigt Hill
#
# Bulk Modulus (GPa) = 11.27849 56.23054 33.75451
# Shear Modulus (GPa) = 6.25839 18.05945 12.15892
#
# Velocity S-wave (km/s) = 1.92209 3.26509 2.67911
# Velocity P-wave (km/s) = 3.40350 6.88536 5.43102
#
# Compressibility (1/GPa) = 0.08866435
#
# Stress axis : x y z
#
# Youngs Moduli (GPa) = 82.64113 9.51111 83.19120
#
# Poissons Ratio (x) = 0.11310 0.54519
# Poissons Ratio (y) = 0.98271 0.15422
# Poissons Ratio (z) = 0.54159 0.01763
#
# Static dielectric constant tensor:
#      x y z
#    x 3.619220 0.000000 0.000000 
#    y 0.000000 2.545770 0.000000 
#    z 0.000000 0.000000 3.230100 
# 
# 
# High freq. dielectric constant tensor:
#      x y z
#    x 1.669460 0.000000 0.000000 
#    y 0.000000 1.583500 0.000000 
#    z 0.000000 0.000000 1.630820 
# 
# From -- ./inp_files/31516.got.cif
#   From: 2010.03.12/outbox.cif.g09.slc.cpg/sg47_16_cif.got.tgz:31516.got - 2010.04.14 03:12:58.
