data_PCOD8193751
_publ_section_title
;
Structure prediction by ZEFSAII (Michael W. Deem and Ramdas Pophale) SiO2 
 PCOD8193751
Probable space group: P M M M
;
_chemical_formula_sum "Si O2"
_cell_formula_units_Z 52
_cell_length_a 28.064971
_cell_length_b 13.887118
_cell_length_c 8.120005
_cell_angle_alpha 90.000000
_cell_angle_beta 90.000000
_cell_angle_gamma 90.000000
_cell_volume 3164.703448
_symmetry_space_group_name_H-M "P M M M"
_symmetry_group_IT_number 47
_symmetry_cell_setting 'orthorhombic'
loop_
_space_group_symop_operation_xyz
x,y,z
-x,-y,z
x,-y,-z
-x,y,-z
-x,-y,-z
x,y,-z
-x,y,z
x,-y,z
loop_
_atom_site_type_symbol
_atom_site_label
_atom_site_fract_x
_atom_site_fract_y
_atom_site_fract_z
Si Si1 0.801721 0.288135 0.192865
Si Si2 0.389370 0.614237 0.182655
Si Si3 0.710874 0.391623 0.310949
Si Si4 0.445757 0.385188 0.500000
Si Si5 0.143383 0.105510 0.191561
Si Si6 0.102556 0.608433 0.192537
Si Si7 0.053335 0.209930 0.310225
O O1 0.754266 0.318615 0.286540
O O2 0.819456 0.184230 0.263321
O O3 0.842675 0.365753 0.231314
O O4 0.790704 0.283116 0.000000
O O5 0.393219 0.500000 0.189399
O O6 0.334380 0.645019 0.207021
O O7 0.421394 0.656555 0.332362
O O8 0.405980 0.650967 0.000000
O O9 0.694972 0.391694 0.500000
O O10 0.725760 0.500000 0.255951
O O11 0.442265 0.500000 0.500000
O O12 0.500000 0.349386 0.500000
O O13 0.089231 0.140776 0.213480
O O14 0.150869 0.000000 0.274409
O O15 0.153109 0.097212 0.000000
O O16 0.092961 0.500000 0.252359
O O17 0.066866 0.678049 0.288980
O O18 0.092438 0.621335 0.000000
O O19 0.056292 0.181996 0.500000
O O20 0.000000 0.193104 0.242044
#
# Coordination Sequence:
#
# PCOD8193751 Si02
#       7
#     8   8   8   4   8   8   8
#     4   9  17  29  45  65  85 106 137 173 214 264
#     4   9  16  26  39  55  79 113 152 194 237 273
#     4  10  18  27  40  60  88 118 148 183 220 261
#     4   9  16  26  38  54  80 112 153 203 240 271
#     4   9  19  36  54  68  84 108 139 177 217 260
#     4   9  18  32  48  65  87 114 144 177 209 249
#     4  10  21  34  47  66  90 112 136 170 213 261
#
# _framework density 16.431239000000001
#
# number of rings (size 3 to 8) (size 9 to 14) (size 15 to 20)
#    0.000    2.692    0.769    2.308    0.000    6.769 
#    0.000    4.615    0.000    0.000    0.000    0.000 
#    0.000    0.000    0.000    0.000    0.000    1.538 
#
# Total GULP energy -644538.884722 kJ/mol
# GULP energy per Si atom -12394.978552 kJ/mol
# Density = 1.639384 g / cm^3
# Si number density = 16.431239 Si / 1000 Ang^3
#
#
#
# Elastic Constant Matrix: (Units=GPa)
#
#
# Indices 1 2 3 4 5 6 
#
# 1 99.1938 30.2998 36.8319 0.0000 0.0000 0.0000
# 2 30.2998 79.5056 11.6708 0.0000 0.0000 0.0000
# 3 36.8319 11.6708 62.2150 0.0000 0.0000 0.0000
# 4 0.0000 0.0000 0.0000 8.9691 0.0000 0.0000
# 5 0.0000 0.0000 0.0000 0.0000 24.3991 0.0000
# 6 0.0000 0.0000 0.0000 0.0000 0.0000 8.3730
#
#
#
# Elastic Compliance Matrix: (Units=1/GPa)
#
#
# Indices 1 2 3 4 5 6 
#
# 1 0.014222 -0.004303 -0.007613 0.000000 0.000000 0.000000
# 2 -0.004303 0.014236 -0.000123 0.000000 0.000000 0.000000
# 3 -0.007613 -0.000123 0.020603 0.000000 0.000000 0.000000
# 4 0.000000 0.000000 0.000000 0.111494 0.000000 0.000000
# 5 0.000000 0.000000 0.000000 0.000000 0.040985 0.000000
# 6 0.000000 0.000000 0.000000 0.000000 0.000000 0.119432
#
#
# Mechanical properties :
#
#
# Convention : Reuss Voigt Hill
#
# Bulk Modulus (GPa) = 40.02555 44.27992 42.15274
# Shear Modulus (GPa) = 14.14919 19.15569 16.65244
#
# Velocity S-wave (km/s) = 2.93766 3.41810 3.18695
# Velocity P-wave (km/s) = 5.99323 6.52572 6.26513
#
# Compressibility (1/GPa) = 0.02498404
#
# Stress axis : x y z
#
# Youngs Moduli (GPa) = 70.31266 70.24664 48.53641
#
# Poissons Ratio (x) = 0.30225 0.36949
# Poissons Ratio (y) = 0.30253 0.00598
# Poissons Ratio (z) = 0.53526 0.00866
#
# Static dielectric constant tensor:
#      x y z
#    x 3.000710 0.000000 0.000000 
#    y 0.000000 3.124840 0.000000 
#    z 0.000000 0.000000 3.134190 
# 
# 
# High freq. dielectric constant tensor:
#      x y z
#    x 1.618540 0.000000 0.000000 
#    y 0.000000 1.586610 0.000000 
#    z 0.000000 0.000000 1.636910 
# 
# From -- ./inp_files/13419.got.cif
#   From: 2010.03.12/outbox.cif.g09.slc.cpg/sg47_7_cif.got.tgz:13419.got - 2010.04.14 03:12:58.
