data_PCOD8193128
_publ_section_title
;
Structure prediction by ZEFSAII (Michael W. Deem and Ramdas Pophale) SiO2 
 PCOD8193128
Probable space group: I M A 2
;
_chemical_formula_sum "Si O2"
_cell_formula_units_Z 48
_cell_length_a 8.815996
_cell_length_b 20.298195
_cell_length_c 14.337596
_cell_angle_alpha 90.000000
_cell_angle_beta 90.000000
_cell_angle_gamma 90.000000
_cell_volume 2565.695684
_symmetry_space_group_name_H-M "I M A 2"
_symmetry_group_IT_number 46
_symmetry_cell_setting 'orthorhombic'
loop_
_space_group_symop_operation_xyz
x,y,z
-x,-y,z
1/2-x,y,z
1/2+x,-y,z
1/2+x,1/2+y,1/2+z
1/2-x,1/2-y,1/2+z
-x,1/2+y,1/2+z
x,1/2-y,1/2+z
loop_
_atom_site_type_symbol
_atom_site_label
_atom_site_fract_x
_atom_site_fract_y
_atom_site_fract_z
Si Si1 0.926461 0.263572 0.886230
Si Si2 0.425041 0.801236 0.594634
Si Si3 0.571587 0.687164 0.709651
Si Si4 0.071067 0.069041 0.078394
Si Si5 0.929649 0.878072 0.879941
Si Si6 0.572640 0.433610 0.197565
O O1 0.750000 0.247674 0.872707
O O2 0.982962 0.314302 0.807552
O O3 0.018903 0.196937 0.872939
O O4 0.960892 0.296469 0.985386
O O5 0.250000 0.783952 0.616533
O O6 0.531425 0.751835 0.650669
O O7 0.465255 0.874974 0.626179
O O8 0.750000 0.686794 0.728304
O O9 0.517742 0.623032 0.653244
O O10 0.250000 0.062133 0.077431
O O11 0.011731 0.091436 0.977073
O O12 0.000000 0.000000 0.108036
O O13 0.750000 0.880612 0.871505
O O14 0.002303 0.920733 0.798609
O O15 0.500000 0.500000 0.155503
O O16 0.750000 0.443674 0.210248
#
# Coordination Sequence:
#
# PCOD8193128 Si02
#       6
#     8   8   8   8   8   8
#     4  11  22  37  59  89 119 153 196 242 291 346
#     4  10  22  39  60  85 116 154 197 239 287 348
#     4  11  22  38  60  87 118 152 196 243 291 347
#     4  10  23  39  57  85 119 155 195 238 291 349
#     4  11  21  36  58  88 121 154 191 240 295 350
#     4  11  23  39  58  86 119 156 197 240 295 352
#
# _framework density 18.708375
#
# number of rings (size 3 to 8) (size 9 to 14) (size 15 to 20)
#    0.000    1.333    3.333    2.500    0.000    5.333 
#    0.000    0.833    0.000    4.000    0.000    0.000 
#    0.000    0.000    0.000    0.000    0.000    0.000 
#
# Total GULP energy -297739.584115 kJ/mol
# GULP energy per Si atom -12405.816005 kJ/mol
# Density = 1.866579 g / cm^3
# Si number density = 18.708375 Si / 1000 Ang^3
#
#
#
# Elastic Constant Matrix: (Units=GPa)
#
#
# Indices 1 2 3 4 5 6 
#
# 1 59.4598 38.4821 32.6201 0.0000 0.0000 0.0000
# 2 38.4821 121.3776 47.6843 0.0000 0.0000 0.0000
# 3 32.6201 47.6843 115.1360 -0.0001 0.0000 0.0000
# 4 0.0000 0.0000 -0.0001 29.8849 0.0000 0.0000
# 5 0.0000 0.0000 0.0000 0.0000 28.2010 0.0000
# 6 0.0000 0.0000 0.0000 0.0000 0.0000 33.4744
#
#
#
# Elastic Compliance Matrix: (Units=1/GPa)
#
#
# Indices 1 2 3 4 5 6 
#
# 1 0.022685 -0.005574 -0.004119 0.000000 0.000000 0.000000
# 2 -0.005574 0.011209 -0.003063 0.000000 0.000000 0.000000
# 3 -0.004119 -0.003063 0.011121 0.000000 0.000000 0.000000
# 4 0.000000 0.000000 0.000000 0.033462 0.000000 0.000000
# 5 0.000000 0.000000 0.000000 0.000000 0.035460 0.000000
# 6 0.000000 0.000000 0.000000 0.000000 0.000000 0.029874
#
#
# Mechanical properties :
#
#
# Convention : Reuss Voigt Hill
#
# Bulk Modulus (GPa) = 51.27250 59.28292 55.27771
# Shear Modulus (GPa) = 28.43760 30.12450 29.28105
#
# Velocity S-wave (km/s) = 3.90301 4.01710 3.96047
# Velocity P-wave (km/s) = 6.91209 7.29882 7.10809
#
# Compressibility (1/GPa) = 0.01950363
#
# Stress axis : x y z
#
# Youngs Moduli (GPa) = 44.08172 89.21068 89.92104
#
# Poissons Ratio (x) = 0.49728 0.37034
# Poissons Ratio (y) = 0.24572 0.27544
# Poissons Ratio (z) = 0.18155 0.27327
#
# Static dielectric constant tensor:
#      x y z
#    x 3.456320 0.000000 0.000000 
#    y 0.000000 3.443360 0.000000 
#    z 0.000000 0.000000 3.653750 
# 
# 
# High freq. dielectric constant tensor:
#      x y z
#    x 1.734030 0.000000 0.000000 
#    y 0.000000 1.725450 0.000000 
#    z 0.000000 0.000000 1.729830 
# 
# From -- ./inp_files/13873.got.cif
#   From: 2010.03.12/outbox.cif.g09.slc.cpg/sg46_7_cif.got.tgz:13873.got - 2010.04.14 02:56:35.
