data_PCOD8193990
_publ_section_title
;
Structure prediction by ZEFSAII (Michael W. Deem and Ramdas Pophale) SiO2 
 PCOD8193990
Probable space group: P M M M
;
_chemical_formula_sum "Si O2"
_cell_formula_units_Z 52
_cell_length_a 18.010351
_cell_length_b 11.464718
_cell_length_c 18.909438
_cell_angle_alpha 90.000000
_cell_angle_beta 90.000000
_cell_angle_gamma 90.000000
_cell_volume 3904.488743
_symmetry_space_group_name_H-M "P M M M"
_symmetry_group_IT_number 47
_symmetry_cell_setting 'orthorhombic'
loop_
_space_group_symop_operation_xyz
x,y,z
-x,-y,z
x,-y,-z
-x,y,-z
-x,-y,-z
x,y,-z
-x,y,z
x,-y,z
loop_
_atom_site_type_symbol
_atom_site_label
_atom_site_fract_x
_atom_site_fract_y
_atom_site_fract_z
Si Si1 0.500000 0.360478 0.579209
Si Si2 0.918371 0.630870 0.583793
Si Si3 0.642720 0.364030 0.342197
Si Si4 0.773970 0.756969 0.418100
Si Si5 0.413002 0.240260 0.785539
Si Si6 0.701572 0.000000 0.581805
Si Si7 0.587918 0.369227 0.077934
Si Si8 0.586473 0.000000 0.289061
O O1 0.500000 0.500000 0.582840
O O2 0.500000 0.313549 0.500000
O O3 0.427015 0.306808 0.616113
O O4 0.921760 0.630524 0.500000
O O5 0.897766 0.500000 0.610265
O O6 0.856870 0.724853 0.609110
O O7 0.000000 0.666850 0.613515
O O8 0.639183 0.500000 0.351124
O O9 0.719109 0.321834 0.373679
O O10 0.635176 0.328980 0.260986
O O11 0.764494 0.723420 0.500000
O O12 0.755841 0.891542 0.404385
O O13 0.500000 0.267423 0.776001
O O14 0.387045 0.269938 0.865703
O O15 0.393925 0.109239 0.761274
O O16 0.633818 0.000000 0.638036
O O17 0.671506 0.000000 0.500000
O O18 0.500000 0.371442 0.074566
O O19 0.615703 0.500000 0.099131
O O20 0.619398 0.335572 0.000000
O O21 0.500000 0.000000 0.311235
#
# Coordination Sequence:
#
# PCOD8193990 Si02
#       8
#     4   8   8   8   8   4   8   4
#     4   9  18  28  34  47  72  98 125 163 213 254
#     4   8  14  26  44  63  80  97 119 154 205 259
#     4  11  19  26  39  56  74 100 130 167 212 251
#     4  10  19  30  42  56  76 101 133 171 208 246
#     4  10  18  29  42  55  75 101 134 170 203 244
#     4  10  20  33  43  53  73 107 145 182 214 241
#     4   8  14  25  42  62  80  97 119 155 206 256
#     4  10  20  33  43  53  71 107 149 182 212 240
#
# _framework density 13.318004999999999
#
# number of rings (size 3 to 8) (size 9 to 14) (size 15 to 20)
#    0.000    2.538    2.308    2.308    0.000    2.308 
#    0.000    0.769    0.000    4.615    0.000    0.000 
#    0.000    0.000    0.000    0.000    0.000    0.769 
#
# Total GULP energy -644380.671961 kJ/mol
# GULP energy per Si atom -12391.935999 kJ/mol
# Density = 1.328769 g / cm^3
# Si number density = 13.318005 Si / 1000 Ang^3
#
#
#
# Elastic Constant Matrix: (Units=GPa)
#
#
# Indices 1 2 3 4 5 6 
#
# 1 76.2260 37.6435 33.8173 0.0000 0.0000 0.0000
# 2 37.6435 71.7983 41.0847 0.0000 0.0000 0.0000
# 3 33.8173 41.0847 81.7901 0.0000 0.0000 0.0000
# 4 0.0000 0.0000 0.0000 18.8440 0.0000 0.0000
# 5 0.0000 0.0000 0.0000 0.0000 3.4230 0.0000
# 6 0.0000 0.0000 0.0000 0.0000 0.0000 17.1047
#
#
#
# Elastic Compliance Matrix: (Units=1/GPa)
#
#
# Indices 1 2 3 4 5 6 
#
# 1 0.018552 -0.007490 -0.003908 0.000000 0.000000 0.000000
# 2 -0.007490 0.022571 -0.008241 0.000000 0.000000 0.000000
# 3 -0.003908 -0.008241 0.017982 0.000000 0.000000 0.000000
# 4 0.000000 0.000000 0.000000 0.053067 0.000000 0.000000
# 5 0.000000 0.000000 0.000000 0.000000 0.292141 0.000000
# 6 0.000000 0.000000 0.000000 0.000000 0.000000 0.058463
#
#
# Mechanical properties :
#
#
# Convention : Reuss Voigt Hill
#
# Bulk Modulus (GPa) = 50.43864 50.54504 50.49184
# Shear Modulus (GPa) = 9.82970 15.69226 12.76098
#
# Velocity S-wave (km/s) = 2.71970 3.43632 3.09880
# Velocity P-wave (km/s) = 6.91499 7.33343 7.12728
#
# Compressibility (1/GPa) = 0.01982607
#
# Stress axis : x y z
#
# Youngs Moduli (GPa) = 53.90355 44.30548 55.61237
#
# Poissons Ratio (x) = 0.33186 0.21733
# Poissons Ratio (y) = 0.40376 0.45828
# Poissons Ratio (z) = 0.21065 0.36511
#
# Static dielectric constant tensor:
#      x y z
#    x 2.653180 0.000000 0.000000 
#    y 0.000000 2.714070 0.000000 
#    z 0.000000 0.000000 2.685350 
# 
# 
# High freq. dielectric constant tensor:
#      x y z
#    x 1.473390 0.000000 0.000000 
#    y 0.000000 1.509830 0.000000 
#    z 0.000000 0.000000 1.482340 
# 
# From -- ./inp_files/28193.got.cif
#   From: 2010.03.12/outbox.cif.g09.slc.cpg/sg47_15_cif.got.tgz:28193.got - 2010.04.14 03:12:58.
