data_PCOD8193440
_publ_section_title
;
Structure prediction by ZEFSAII (Michael W. Deem and Ramdas Pophale) SiO2 
 PCOD8193440
Probable space group: I M A 2
;
_chemical_formula_sum "Si O2"
_cell_formula_units_Z 24
_cell_length_a 9.000000
_cell_length_b 18.000000
_cell_length_c 15.000000
_cell_angle_alpha 90.000000
_cell_angle_beta 90.000000
_cell_angle_gamma 90.000000
_cell_volume 2430.000000
_symmetry_space_group_name_H-M "I M A 2"
_symmetry_group_IT_number 46
_symmetry_cell_setting 'orthorhombic'
loop_
_space_group_symop_operation_xyz
x,y,z
-x,-y,z
1/2-x,y,z
1/2+x,-y,z
1/2+x,1/2+y,1/2+z
1/2-x,1/2-y,1/2+z
-x,1/2+y,1/2+z
x,1/2-y,1/2+z
loop_
_atom_site_type_symbol
_atom_site_label
_atom_site_fract_x
_atom_site_fract_y
_atom_site_fract_z
Si Si1 0.586253 0.775047 0.684470
Si Si2 0.425037 0.136746 0.420637
Si Si3 0.086759 0.290555 0.488937
Si Si4 0.074413 0.074962 0.607136
Si Si5 0.576315 0.139215 0.245903
Si Si6 0.924365 0.075770 0.057341
O O1 0.750000 0.769823 0.729716
O O2 0.599614 0.746618 0.584614
O O3 0.531246 0.860505 0.678043
O O4 0.470877 0.725667 0.739617
O O5 0.250000 0.126508 0.413262
O O6 0.467829 0.224684 0.423760
O O7 0.486322 0.094292 0.507907
O O8 0.500785 0.102149 0.332516
O O9 0.250000 0.319950 0.460269
O O10 0.973096 0.359364 0.489132
O O11 0.250000 0.065659 0.603758
O O12 0.000000 0.000000 0.642141
O O13 0.750000 0.134438 0.257634
O O14 0.522767 0.095368 0.157841
O O15 0.750000 0.066495 0.051790
O O16 0.000000 0.000000 0.026634
#
# Coordination Sequence:
#
# PCOD8193440 Si02
#       6
#     8   8   8   8   8   8
#     4   8  15  30  49  66  88 121 158 192 229 276
#     4   9  18  32  49  69  95 127 157 186 229 282
#     4   8  15  30  50  68  87 117 158 196 229 272
#     4   9  18  31  48  71  96 124 157 190 229 276
#     4  10  20  31  46  71  97 122 156 195 232 270
#     4  10  20  32  47  69  96 125 156 191 232 276
#
# _framework density 9.8765429999999999
#
# number of rings (size 3 to 8) (size 9 to 14) (size 15 to 20)
#    0.000    3.000    0.000    3.000    0.000    4.667 
#    0.000    6.667    0.000    1.000    0.000    4.667 
#    0.000    0.000    0.000    0.000    0.000    0.000 
#
# Total GULP energy -297456.117741 kJ/mol
# GULP energy per Si atom -12394.004906 kJ/mol
# Density = 0.985406 g / cm^3
# Si number density = 9.876543 Si / 1000 Ang^3
#
#
#
# Elastic Constant Matrix: (Units=GPa)
#
#
# Indices 1 2 3 4 5 6 
#
# 1 34.0209 22.7758 -0.1282 0.0000 0.0000 0.0000
# 2 22.7758 87.9060 -17.5393 0.0000 0.0000 0.0000
# 3 -0.1282 -17.5393 13.4750 0.0001 0.0000 0.0000
# 4 0.0000 0.0000 0.0001 13.5925 0.0000 0.0000
# 5 0.0000 0.0000 0.0000 0.0000 18.6657 0.0000
# 6 0.0000 0.0000 0.0000 0.0000 0.0000 30.1263
#
#
#
# Elastic Compliance Matrix: (Units=1/GPa)
#
#
# Indices 1 2 3 4 5 6 
#
# 1 0.038219 -0.013278 -0.016919 0.000000 0.000000 0.000000
# 2 -0.013278 0.019980 0.025879 0.000000 0.000000 0.000000
# 3 -0.016919 0.025879 0.107736 -0.000001 0.000000 0.000000
# 4 0.000000 0.000000 -0.000001 0.073570 0.000000 0.000000
# 5 0.000000 0.000000 0.000000 0.000000 0.053574 0.000000
# 6 0.000000 0.000000 0.000000 0.000000 0.000000 0.033194
#
#
# Mechanical properties :
#
#
# Convention : Reuss Voigt Hill
#
# Bulk Modulus (GPa) = 6.35735 16.17984 11.26860
# Shear Modulus (GPa) = 12.90851 21.16313 17.03582
#
# Velocity S-wave (km/s) = 2.55912 3.27675 2.93992
# Velocity P-wave (km/s) = 3.45797 4.74605 4.15226
#
# Compressibility (1/GPa) = 0.15729824
#
# Stress axis : x y z
#
# Youngs Moduli (GPa) = 26.16485 50.05099 9.28198
#
# Poissons Ratio (x) = 0.66459 0.15705
# Poissons Ratio (y) = 0.34742 -0.24021
# Poissons Ratio (z) = 0.44270 -1.29529
#
# Static dielectric constant tensor:
#      x y z
#    x 3.336210 0.000000 0.000000 
#    y 0.000000 3.710760 0.000000 
#    z 0.000000 0.000000 3.447600 
# 
# 
# High freq. dielectric constant tensor:
#      x y z
#    x 1.750790 0.000000 0.000000 
#    y 0.000000 1.761560 0.000000 
#    z 0.000000 0.000000 1.737850 
# 
# From -- ./inp_files/13890.got.cif
#   From: 2010.03.12/outbox.ucp.g09.slc.cvg/sg46_7_cif.got.tgz:13890.got - 2010.05.04 21:24:43.
