data_PCOD8193999
_publ_section_title
;
Structure prediction by ZEFSAII (Michael W. Deem and Ramdas Pophale) SiO2 
 PCOD8193999
Probable space group: P M M M
;
_chemical_formula_sum "Si O2"
_cell_formula_units_Z 40
_cell_length_a 18.178754
_cell_length_b 18.715808
_cell_length_c 7.952034
_cell_angle_alpha 90.000000
_cell_angle_beta 90.000000
_cell_angle_gamma 90.000000
_cell_volume 2705.521081
_symmetry_space_group_name_H-M "P M M M"
_symmetry_group_IT_number 47
_symmetry_cell_setting 'orthorhombic'
loop_
_space_group_symop_operation_xyz
x,y,z
-x,-y,z
x,-y,-z
-x,y,-z
-x,-y,-z
x,y,-z
-x,y,z
x,-y,z
loop_
_atom_site_type_symbol
_atom_site_label
_atom_site_fract_x
_atom_site_fract_y
_atom_site_fract_z
Si Si1 0.500000 0.420369 0.701565
Si Si2 0.920759 0.415405 0.690155
Si Si3 0.587108 0.079697 0.000000
Si Si4 0.233710 0.581037 0.191284
Si Si5 0.366327 0.330452 0.692570
Si Si6 0.586943 0.821836 0.306066
O O1 0.500000 0.500000 0.775426
O O2 0.500000 0.422722 0.500000
O O3 0.427843 0.381110 0.776691
O O4 0.910086 0.388612 0.500000
O O5 0.923929 0.500000 0.697041
O O6 0.850147 0.389522 0.795903
O O7 0.000000 0.386149 0.760224
O O8 0.612898 0.117858 0.826584
O O9 0.500000 0.076140 0.000000
O O10 0.620975 0.000000 0.000000
O O11 0.239968 0.500000 0.265778
O O12 0.285830 0.635522 0.289124
O O13 0.258754 0.581062 0.000000
O O14 0.388094 0.324598 0.500000
O O15 0.370945 0.249401 0.759739
O O16 0.607806 0.843109 0.500000
O O17 0.500000 0.807565 0.294156
#
# Coordination Sequence:
#
# PCOD8193999 Si02
#       6
#     4   8   4   8   8   8
#     4   9  16  26  41  57  71  96 140 187 222 250
#     4   8  14  26  43  58  71  93 128 169 213 257
#     4   9  18  30  46  68  86 104 131 166 211 255
#     4  10  20  29  37  55  81 106 136 177 219 255
#     4  10  18  29  43  57  75 105 142 177 216 254
#     4   9  17  30  46  63  83 109 140 172 210 257
#
# _framework density 14.784584000000001
#
# number of rings (size 3 to 8) (size 9 to 14) (size 15 to 20)
#    0.000    2.800    1.000    1.800    1.400    2.800 
#    0.000    4.500    0.000    1.800    0.000    0.000 
#    0.000    0.000    0.000    0.000    0.000    2.000 
#
# Total GULP energy -495589.049922 kJ/mol
# GULP energy per Si atom -12389.726248 kJ/mol
# Density = 1.475093 g / cm^3
# Si number density = 14.784584 Si / 1000 Ang^3
#
#
#
# Elastic Constant Matrix: (Units=GPa)
#
#
# Indices 1 2 3 4 5 6 
#
# 1 78.0623 35.4711 11.8028 0.0000 0.0000 0.0000
# 2 35.4711 100.4873 36.1156 0.0000 0.0000 0.0000
# 3 11.8028 36.1156 50.5884 0.0000 0.0000 0.0000
# 4 0.0000 0.0000 0.0000 16.7200 0.0000 0.0000
# 5 0.0000 0.0000 0.0000 0.0000 10.3737 0.0000
# 6 0.0000 0.0000 0.0000 0.0000 0.0000 6.4057
#
#
#
# Elastic Compliance Matrix: (Units=1/GPa)
#
#
# Indices 1 2 3 4 5 6 
#
# 1 0.015263 -0.005526 0.000384 0.000000 0.000000 0.000000
# 2 -0.005526 0.015387 -0.009695 0.000000 0.000000 0.000000
# 3 0.000384 -0.009695 0.026600 0.000000 0.000000 0.000000
# 4 0.000000 0.000000 0.000000 0.059809 0.000000 0.000000
# 5 0.000000 0.000000 0.000000 0.000000 0.096398 0.000000
# 6 0.000000 0.000000 0.000000 0.000000 0.000000 0.156110
#
#
# Mechanical properties :
#
#
# Convention : Reuss Voigt Hill
#
# Bulk Modulus (GPa) = 36.26532 43.99077 40.12805
# Shear Modulus (GPa) = 12.24194 16.41645 14.32920
#
# Velocity S-wave (km/s) = 2.88066 3.33585 3.11657
# Velocity P-wave (km/s) = 5.97048 6.68253 6.33652
#
# Compressibility (1/GPa) = 0.02757455
#
# Stress axis : x y z
#
# Youngs Moduli (GPa) = 65.51752 64.99156 37.59463
#
# Poissons Ratio (x) = 0.35912 -0.01443
# Poissons Ratio (y) = 0.36203 0.36450
# Poissons Ratio (z) = -0.02515 0.63012
#
# Static dielectric constant tensor:
#      x y z
#    x 3.160410 0.000000 0.000000 
#    y 0.000000 2.733410 0.000000 
#    z 0.000000 0.000000 2.825290 
# 
# 
# High freq. dielectric constant tensor:
#      x y z
#    x 1.543910 0.000000 0.000000 
#    y 0.000000 1.521620 0.000000 
#    z 0.000000 0.000000 1.564590 
# 
# From -- ./inp_files/9334.got.cif
#   From: 2010.03.12/outbox.cif.g09.slc.cpg/sg47_5_cif.got.tgz:9334.got - 2010.04.14 03:12:58.
