data_PCOD8193954
_publ_section_title
;
Structure prediction by ZEFSAII (Michael W. Deem and Ramdas Pophale) SiO2 
 PCOD8193954
Probable space group: P M M M
;
_chemical_formula_sum "Si O2"
_cell_formula_units_Z 60
_cell_length_a 12.680566
_cell_length_b 19.523414
_cell_length_c 13.907147
_cell_angle_alpha 90.000000
_cell_angle_beta 90.000000
_cell_angle_gamma 90.000000
_cell_volume 3442.963731
_symmetry_space_group_name_H-M "P M M M"
_symmetry_group_IT_number 47
_symmetry_cell_setting 'orthorhombic'
loop_
_space_group_symop_operation_xyz
x,y,z
-x,-y,z
x,-y,-z
-x,y,-z
-x,-y,-z
x,y,-z
-x,y,z
x,-y,z
loop_
_atom_site_type_symbol
_atom_site_label
_atom_site_fract_x
_atom_site_fract_y
_atom_site_fract_z
Si Si1 0.125315 0.500000 0.610654
Si Si2 0.724113 0.924834 0.233460
Si Si3 0.882213 0.101657 0.391359
Si Si4 0.878974 0.370338 0.267359
Si Si5 0.114997 0.847437 0.110855
Si Si6 0.235098 0.289856 0.887479
Si Si7 0.197432 0.749507 0.390520
Si Si8 0.378923 0.784065 0.249886
O O1 0.170383 0.500000 0.500000
O O2 0.165271 0.435084 0.672696
O O3 0.000000 0.500000 0.603675
O O4 0.790341 0.933917 0.331150
O O5 0.806555 0.903259 0.152359
O O6 0.634256 0.866496 0.237839
O O7 0.674674 0.000000 0.209694
O O8 0.863748 0.077876 0.500000
O O9 0.872321 0.183005 0.380670
O O10 0.000000 0.080207 0.357853
O O11 0.806941 0.356049 0.172097
O O12 0.872686 0.307677 0.340540
O O13 0.000000 0.382025 0.234820
O O14 0.149492 0.769556 0.130134
O O15 0.000000 0.856202 0.158817
O O16 0.109427 0.863340 0.000000
O O17 0.344353 0.259002 0.845107
O O18 0.249537 0.308782 0.000000
O O19 0.220085 0.729148 0.500000
O O20 0.310568 0.758263 0.339652
O O21 0.500000 0.767941 0.270859
#
# Coordination Sequence:
#
# PCOD8193954 Si02
#       8
#     4   8   8   8   8   8   8   8
#     4   9  18  30  43  67 108 151 179 193 209 245
#     4  10  20  31  43  61  87 118 151 186 227 282
#     4   9  17  28  42  62  88 117 151 192 235 278
#     4  10  18  28  46  73 105 139 169 189 213 261
#     4   9  17  29  45  65  89 116 146 184 232 282
#     4   9  18  32  50  71  93 119 156 203 248 283
#     4   9  17  29  47  70  93 119 155 200 244 281
#     4   9  19  34  50  68  88 112 149 199 252 300
#
# _framework density 17.426846000000001
#
# number of rings (size 3 to 8) (size 9 to 14) (size 15 to 20)
#    0.000    2.733    0.000    2.400    0.000    4.533 
#    0.000    1.667    0.000    1.200    0.000   14.933 
#    0.000   17.067    0.000    0.000    0.000    0.000 
#
# Total GULP energy -743610.065275 kJ/mol
# GULP energy per Si atom -12393.501088 kJ/mol
# Density = 1.738718 g / cm^3
# Si number density = 17.426846 Si / 1000 Ang^3
#
#
#
# Elastic Constant Matrix: (Units=GPa)
#
#
# Indices 1 2 3 4 5 6 
#
# 1 68.2223 3.5405 16.2811 0.0000 0.0000 0.0000
# 2 3.5405 71.3331 31.5972 0.0000 0.0000 0.0000
# 3 16.2811 31.5972 93.5137 0.0000 0.0000 0.0000
# 4 0.0000 0.0000 0.0000 17.2253 0.0000 0.0000
# 5 0.0000 0.0000 0.0000 0.0000 13.9640 0.0000
# 6 0.0000 0.0000 0.0000 0.0000 0.0000 9.9332
#
#
#
# Elastic Compliance Matrix: (Units=1/GPa)
#
#
# Indices 1 2 3 4 5 6 
#
# 1 0.015308 0.000495 -0.002832 0.000000 0.000000 0.000000
# 2 0.000495 0.016502 -0.005662 0.000000 0.000000 0.000000
# 3 -0.002832 -0.005662 0.013100 0.000000 0.000000 0.000000
# 4 0.000000 0.000000 0.000000 0.058054 0.000000 0.000000
# 5 0.000000 0.000000 0.000000 0.000000 0.071613 0.000000
# 6 0.000000 0.000000 0.000000 0.000000 0.000000 0.100673
#
#
# Mechanical properties :
#
#
# Convention : Reuss Voigt Hill
#
# Bulk Modulus (GPa) = 34.58889 37.32299 35.95594
# Shear Modulus (GPa) = 16.61757 20.33451 18.47604
#
# Velocity S-wave (km/s) = 3.09133 3.41962 3.25961
# Velocity P-wave (km/s) = 5.71252 6.08730 5.90289
#
# Compressibility (1/GPa) = 0.02891102
#
# Stress axis : x y z
#
# Youngs Moduli (GPa) = 65.32434 60.59800 76.33647
#
# Poissons Ratio (x) = -0.02999 0.21622
# Poissons Ratio (y) = -0.03232 0.43222
# Poissons Ratio (z) = 0.18503 0.34311
#
# Static dielectric constant tensor:
#      x y z
#    x 2.888210 0.000000 0.000000 
#    y 0.000000 3.169820 0.000000 
#    z 0.000000 0.000000 3.549220 
# 
# 
# High freq. dielectric constant tensor:
#      x y z
#    x 1.637170 0.000000 0.000000 
#    y 0.000000 1.657830 0.000000 
#    z 0.000000 0.000000 1.683500 
# 
# From -- ./inp_files/23081.got.cif
#   From: 2010.03.12/outbox.cif.g09.slc.cpg/sg47_12_cif.got.tgz:23081.got - 2010.04.14 03:12:58.
