data_PCOD8193958
_publ_section_title
;
Structure prediction by ZEFSAII (Michael W. Deem and Ramdas Pophale) SiO2 
 PCOD8193958
Probable space group: P M M M
;
_chemical_formula_sum "Si O2"
_cell_formula_units_Z 56
_cell_length_a 14.135051
_cell_length_b 9.299031
_cell_length_c 23.979785
_cell_angle_alpha 90.000000
_cell_angle_beta 90.000000
_cell_angle_gamma 90.000000
_cell_volume 3151.957553
_symmetry_space_group_name_H-M "P M M M"
_symmetry_group_IT_number 47
_symmetry_cell_setting 'orthorhombic'
loop_
_space_group_symop_operation_xyz
x,y,z
-x,-y,z
x,-y,-z
-x,y,-z
-x,-y,-z
x,y,-z
-x,y,z
x,-y,z
loop_
_atom_site_type_symbol
_atom_site_label
_atom_site_fract_x
_atom_site_fract_y
_atom_site_fract_z
Si Si1 0.106168 0.329494 0.561446
Si Si2 0.388180 0.163672 0.158286
Si Si3 0.893676 0.336060 0.870784
Si Si4 0.713994 0.665503 0.936819
Si Si5 0.787413 0.667616 0.668523
Si Si6 0.112025 0.162569 0.235570
Si Si7 0.393185 0.666230 0.266975
O O1 0.134193 0.269225 0.500000
O O2 0.106393 0.500000 0.559242
O O3 0.183204 0.276050 0.606904
O O4 0.000000 0.276153 0.577365
O O5 0.500000 0.173498 0.154420
O O6 0.348489 0.237532 0.103241
O O7 0.354011 0.243560 0.214500
O O8 0.352466 0.000000 0.161125
O O9 0.891939 0.500000 0.849190
O O10 0.825425 0.315294 0.923619
O O11 0.852930 0.237364 0.821255
O O12 0.000000 0.291047 0.888628
O O13 0.683411 0.500000 0.928861
O O14 0.696820 0.716555 0.000000
O O15 0.812275 0.500000 0.675035
O O16 0.849826 0.753565 0.711787
O O17 0.675763 0.695265 0.680244
O O18 0.000000 0.168798 0.238219
O O19 0.150221 0.000000 0.236112
O O20 0.500000 0.712050 0.283998
O O21 0.390115 0.500000 0.249006
#
# Coordination Sequence:
#
# PCOD8193958 Si02
#       7
#     8   8   8   8   8   8   8
#     4   8  14  25  42  66  95 125 159 198 233 265
#     4  10  21  36  53  72  94 121 153 190 234 283
#     4   9  18  33  51  69  92 123 156 189 226 272
#     4  10  21  35  51  72  95 120 153 191 231 276
#     4  10  18  28  47  71  93 122 160 197 230 271
#     4  10  20  31  44  67  98 125 149 185 235 284
#     4   9  18  32  49  70  96 123 151 188 236 284
#
# _framework density 17.766736999999999
#
# number of rings (size 3 to 8) (size 9 to 14) (size 15 to 20)
#    0.000    2.571    0.000    2.571    0.000    7.714 
#    0.000    2.857    0.000    0.857    0.000    8.000 
#    0.000    0.000    0.000    4.857    0.000    5.286 
#
# Total GULP energy -694268.099480 kJ/mol
# GULP energy per Si atom -12397.644634 kJ/mol
# Density = 1.772630 g / cm^3
# Si number density = 17.766737 Si / 1000 Ang^3
#
#
#
# Elastic Constant Matrix: (Units=GPa)
#
#
# Indices 1 2 3 4 5 6 
#
# 1 56.9889 30.3386 65.4075 0.0000 0.0000 0.0000
# 2 30.3386 64.0915 45.0872 0.0000 0.0000 0.0000
# 3 65.4075 45.0872 136.2071 0.0000 0.0000 0.0000
# 4 0.0000 0.0000 0.0000 -0.4276 0.0000 0.0000
# 5 0.0000 0.0000 0.0000 0.0000 29.2532 0.0000
# 6 0.0000 0.0000 0.0000 0.0000 0.0000 18.8048
#
#
#
# Elastic Compliance Matrix: (Units=1/GPa)
#
#
# Indices 1 2 3 4 5 6 
#
# 1 0.041589 -0.007349 -0.017539 0.000000 0.000000 0.000000
# 2 -0.007349 0.021637 -0.003634 0.000000 0.000000 0.000000
# 3 -0.017539 -0.003634 0.016967 0.000000 0.000000 0.000000
# 4 0.000000 0.000000 0.000000 -2.338856 0.000000 0.000000
# 5 0.000000 0.000000 0.000000 0.000000 0.034184 0.000000
# 6 0.000000 0.000000 0.000000 0.000000 0.000000 0.053178
#
#
# Mechanical properties :
#
#
# Convention : Reuss Voigt Hill
#
# Bulk Modulus (GPa) = 43.19402 59.88379 51.53891
# Shear Modulus (GPa) = -2.37356 17.28971 7.45807
#
# Velocity S-wave (km/s) = -1.15709 3.12292 2.05107
# Velocity P-wave (km/s) = 4.75178 6.83975 5.88904
#
# Compressibility (1/GPa) = 0.02315135
#
# Stress axis : x y z
#
# Youngs Moduli (GPa) = 24.04484 46.21626 58.93882
#
# Poissons Ratio (x) = 0.33962 1.03371
# Poissons Ratio (y) = 0.17670 0.21416
# Poissons Ratio (z) = 0.42172 0.16793
#
# Static dielectric constant tensor:
#      x y z
#    x 3.425950 0.000000 0.000000 
#    y 0.000000 3.273680 0.000000 
#    z 0.000000 0.000000 3.395160 
# 
# 
# High freq. dielectric constant tensor:
#      x y z
#    x 1.690960 0.000000 0.000000 
#    y 0.000000 1.671060 0.000000 
#    z 0.000000 0.000000 1.672510 
# 
# From -- ./inp_files/11260.got.cif
#   From: 2010.03.12/outbox.cif.g09.slc.cpg/sg47_6_cif.got.tgz:11260.got - 2010.04.14 03:12:58.
