data_PCOD8193297
_publ_section_title
;
Structure prediction by ZEFSAII (Michael W. Deem and Ramdas Pophale) SiO2 
 PCOD8193297
Probable space group: I M A 2
;
_chemical_formula_sum "Si O2"
_cell_formula_units_Z 48
_cell_length_a 21.410288
_cell_length_b 15.205618
_cell_length_c 7.647140
_cell_angle_alpha 90.000000
_cell_angle_beta 90.000000
_cell_angle_gamma 90.000000
_cell_volume 2489.577362
_symmetry_space_group_name_H-M "I M A 2"
_symmetry_group_IT_number 46
_symmetry_cell_setting 'orthorhombic'
loop_
_space_group_symop_operation_xyz
x,y,z
-x,-y,z
1/2-x,y,z
1/2+x,-y,z
1/2+x,1/2+y,1/2+z
1/2-x,1/2-y,1/2+z
-x,1/2+y,1/2+z
x,1/2-y,1/2+z
loop_
_atom_site_type_symbol
_atom_site_label
_atom_site_fract_x
_atom_site_fract_y
_atom_site_fract_z
Si Si1 0.382495 0.338512 0.117770
Si Si2 0.429146 0.983316 0.461226
Si Si3 0.621547 0.989337 0.109665
Si Si4 0.550516 0.078091 0.819963
Si Si5 0.942382 0.669491 0.473583
Si Si6 0.250000 0.210367 0.703468
Si Si7 0.750000 0.891805 0.071396
O O1 0.391382 0.349666 0.324211
O O2 0.310655 0.312930 0.086089
O O3 0.396200 0.427711 0.021249
O O4 0.431787 0.265152 0.053104
O O5 0.424676 0.910948 0.619500
O O6 0.500000 0.000000 0.405927
O O7 0.390790 0.954657 0.287903
O O8 0.572862 0.906470 0.115903
O O9 0.691657 0.955954 0.094588
O O10 0.607614 0.054001 0.946813
O O11 0.513081 0.162857 0.895320
O O12 0.500000 0.000000 0.810559
O O13 0.250000 0.158767 0.885849
O O14 0.250000 0.316967 0.723059
#
# Coordination Sequence:
#
# PCOD8193297 Si02
#       7
#     8   8   8   8   8   4   4
#     4  12  21  33  54  80 114 162 192 227 280 342
#     4  11  20  36  58  74 103 153 194 238 295 334
#     4  11  21  35  53  76 106 153 193 234 280 330
#     4   9  18  38  54  74 106 146 189 246 287 333
#     4  11  20  35  51  81 116 144 199 241 280 338
#     4  12  22  36  48  74 130 165 186 227 272 339
#     4  12  24  36  48  80 116 157 204 233 262 351
#
# _framework density 19.280381999999999
#
# number of rings (size 3 to 8) (size 9 to 14) (size 15 to 20)
#    0.000    1.000    8.333    2.500    2.333    0.000 
#    0.000    0.000    0.000    0.000    0.000    0.000 
#    0.000    6.667    0.000    0.000    0.000    0.000 
#
# Total GULP energy -297470.772528 kJ/mol
# GULP energy per Si atom -12394.615522 kJ/mol
# Density = 1.923650 g / cm^3
# Si number density = 19.280382 Si / 1000 Ang^3
#
#
#
# Elastic Constant Matrix: (Units=GPa)
#
#
# Indices 1 2 3 4 5 6 
#
# 1 129.2695 38.1049 50.1445 0.0000 0.0000 0.0000
# 2 38.1049 28.9552 15.4800 0.0000 0.0000 0.0000
# 3 50.1445 15.4800 116.6550 0.0000 0.0000 0.0000
# 4 0.0000 0.0000 0.0000 19.9481 0.0000 0.0000
# 5 0.0000 0.0000 0.0000 0.0000 20.6262 0.0000
# 6 0.0000 0.0000 0.0000 0.0000 0.0000 29.9818
#
#
#
# Elastic Compliance Matrix: (Units=1/GPa)
#
#
# Indices 1 2 3 4 5 6 
#
# 1 0.014095 -0.016479 -0.003872 0.000000 0.000000 0.000000
# 2 -0.016479 0.056440 -0.000406 0.000000 0.000000 0.000000
# 3 -0.003872 -0.000406 0.010291 0.000000 0.000000 0.000000
# 4 0.000000 0.000000 0.000000 0.050130 0.000000 0.000000
# 5 0.000000 0.000000 0.000000 0.000000 0.048482 0.000000
# 6 0.000000 0.000000 0.000000 0.000000 0.000000 0.033354
#
#
# Mechanical properties :
#
#
# Convention : Reuss Voigt Hill
#
# Bulk Modulus (GPa) = 25.43802 53.59314 39.51558
# Shear Modulus (GPa) = 18.69785 25.52122 22.10954
#
# Velocity S-wave (km/s) = 3.11752 3.64220 3.39002
# Velocity P-wave (km/s) = 5.11673 6.74867 5.98855
#
# Compressibility (1/GPa) = 0.03931124
#
# Stress axis : x y z
#
# Youngs Moduli (GPa) = 70.94466 17.71794 97.17604
#
# Poissons Ratio (x) = 0.29198 0.37628
# Poissons Ratio (y) = 1.16913 0.03943
# Poissons Ratio (z) = 0.27471 0.00719
#
# Static dielectric constant tensor:
#      x y z
#    x 3.537320 0.000000 0.000000 
#    y 0.000000 3.243660 0.000000 
#    z 0.000000 0.000000 3.976050 
# 
# 
# High freq. dielectric constant tensor:
#      x y z
#    x 1.732820 0.000000 0.000000 
#    y 0.000000 1.692310 0.000000 
#    z 0.000000 0.000000 1.773140 
# 
# From -- ./inp_files/6648.got.cif
#   From: 2010.03.12/outbox.cif.g09.slc.cpg/sg46_4_cif.got.tgz:6648.got - 2010.04.14 02:56:35.
