data_PCOD8193069
_publ_section_title
;
Structure prediction by ZEFSAII (Michael W. Deem and Ramdas Pophale) SiO2 
 PCOD8193069
Probable space group: I M A 2
;
_chemical_formula_sum "Si O2"
_cell_formula_units_Z 64
_cell_length_a 20.651288
_cell_length_b 9.075128
_cell_length_c 15.644572
_cell_angle_alpha 90.000000
_cell_angle_beta 90.000000
_cell_angle_gamma 90.000000
_cell_volume 2931.997455
_symmetry_space_group_name_H-M "I M A 2"
_symmetry_group_IT_number 46
_symmetry_cell_setting 'orthorhombic'
loop_
_space_group_symop_operation_xyz
x,y,z
-x,-y,z
1/2-x,y,z
1/2+x,-y,z
1/2+x,1/2+y,1/2+z
1/2-x,1/2-y,1/2+z
-x,1/2+y,1/2+z
x,1/2-y,1/2+z
loop_
_atom_site_type_symbol
_atom_site_label
_atom_site_fract_x
_atom_site_fract_y
_atom_site_fract_z
Si Si1 0.178734 0.305619 0.923720
Si Si2 0.417988 0.691053 0.295074
Si Si3 0.014485 0.664645 0.112623
Si Si4 0.895413 0.801622 0.181872
Si Si5 0.926913 0.513903 0.840685
Si Si6 0.443400 0.610608 0.480876
Si Si7 0.323142 0.066101 0.777561
Si Si8 0.176481 0.442500 0.545499
O O1 0.250000 0.378995 0.910530
O O2 0.122954 0.428293 0.913018
O O3 0.170795 0.167960 0.860275
O O4 0.173867 0.228850 0.015703
O O5 0.457821 0.660143 0.209016
O O6 0.457771 0.651482 0.381859
O O7 0.353643 0.593585 0.293069
O O8 0.399297 0.862391 0.302122
O O9 0.058762 0.743833 0.041201
O O10 0.000000 0.500000 0.081286
O O11 0.949724 0.762236 0.112896
O O12 0.929737 0.865503 0.265980
O O13 0.857890 0.650472 0.200431
O O14 0.848272 0.928703 0.143398
O O15 0.000000 0.500000 0.877917
O O16 0.500000 0.500000 0.511225
O O17 0.371464 0.543285 0.489906
O O18 0.250000 0.036544 0.750595
O O19 0.250000 0.505761 0.540485
#
# Coordination Sequence:
#
# PCOD8193069 Si02
#       8
#     8   8   8   8   8   8   8   8
#     4   9  21  42  66  95 132 177 229 281 337 414
#     4  12  25  41  68 102 141 185 227 283 360 408
#     4  12  25  45  67 102 146 178 228 295 350 415
#     4  11  22  42  67  94 133 179 233 285 341 419
#     4  11  24  38  65  99 139 176 228 285 341 404
#     4  12  27  43  71 105 135 187 239 284 349 420
#     4  10  21  41  67  95 128 178 233 281 344 416
#     4  11  23  43  72  99 134 182 234 292 346 410
#
# _framework density 21.828122
#
# number of rings (size 3 to 8) (size 9 to 14) (size 15 to 20)
#    0.000    1.000    5.000    1.500    1.750    2.500 
#    0.000    1.875    0.000    0.000    0.000    0.000 
#    0.000    0.000    0.000    0.000    0.000    0.000 
#
# Total GULP energy -396727.447203 kJ/mol
# GULP energy per Si atom -12397.732725 kJ/mol
# Density = 2.177844 g / cm^3
# Si number density = 21.828122 Si / 1000 Ang^3
#
#
#
# Elastic Constant Matrix: (Units=GPa)
#
#
# Indices 1 2 3 4 5 6 
#
# 1 154.3788 53.5401 29.3484 0.0000 0.0000 0.0000
# 2 53.5401 112.8138 17.0671 0.0000 0.0000 0.0000
# 3 29.3484 17.0671 87.1924 0.0000 0.0000 0.0000
# 4 0.0000 0.0000 0.0000 31.7975 0.0000 0.0000
# 5 0.0000 0.0000 0.0000 0.0000 24.3271 0.0000
# 6 0.0000 0.0000 0.0000 0.0000 0.0000 36.9269
#
#
#
# Elastic Compliance Matrix: (Units=1/GPa)
#
#
# Indices 1 2 3 4 5 6 
#
# 1 0.008088 -0.003531 -0.002031 0.000000 0.000000 0.000000
# 2 -0.003531 0.010676 -0.000901 0.000000 0.000000 0.000000
# 3 -0.002031 -0.000901 0.012329 0.000000 0.000000 0.000000
# 4 0.000000 0.000000 0.000000 0.031449 0.000000 0.000000
# 5 0.000000 0.000000 0.000000 0.000000 0.041106 0.000000
# 6 0.000000 0.000000 0.000000 0.000000 0.000000 0.027081
#
#
# Mechanical properties :
#
#
# Convention : Reuss Voigt Hill
#
# Bulk Modulus (GPa) = 55.04719 61.58845 58.31782
# Shear Modulus (GPa) = 33.39725 35.57226 34.48475
#
# Velocity S-wave (km/s) = 3.91578 4.04128 3.97902
# Velocity P-wave (km/s) = 6.76148 7.07477 6.91990
#
# Compressibility (1/GPa) = 0.01816623
#
# Stress axis : x y z
#
# Youngs Moduli (GPa) = 123.63303 93.66407 81.10952
#
# Poissons Ratio (x) = 0.33076 0.16476
# Poissons Ratio (y) = 0.43660 0.07309
# Poissons Ratio (z) = 0.25113 0.08441
#
# Static dielectric constant tensor:
#      x y z
#    x 3.942490 0.000000 0.000000 
#    y 0.000000 3.879780 0.000000 
#    z 0.000000 0.000000 3.873110 
# 
# 
# High freq. dielectric constant tensor:
#      x y z
#    x 1.855020 0.000000 0.000000 
#    y 0.000000 1.848290 0.000000 
#    z 0.000000 0.000000 1.859230 
# 
# From -- ./inp_files/20212.got.cif
#   From: 2010.03.12/outbox.cif.g09.slc.cpg/sg46_11_cif.got.tgz:20212.got - 2010.04.14 02:56:35.
