data_PCOD8193480
_publ_section_title
;
Structure prediction by ZEFSAII (Michael W. Deem and Ramdas Pophale) SiO2 
 PCOD8193480
Probable space group: P M M M
;
_chemical_formula_sum "Si O2"
_cell_formula_units_Z 56
_cell_length_a 23.337257
_cell_length_b 14.602435
_cell_length_c 9.461978
_cell_angle_alpha 90.000000
_cell_angle_beta 90.000000
_cell_angle_gamma 90.000000
_cell_volume 3224.460228
_symmetry_space_group_name_H-M "P M M M"
_symmetry_group_IT_number 47
_symmetry_cell_setting 'orthorhombic'
loop_
_space_group_symop_operation_xyz
x,y,z
-x,-y,z
x,-y,-z
-x,y,-z
-x,-y,-z
x,y,-z
-x,y,z
x,-y,z
loop_
_atom_site_type_symbol
_atom_site_label
_atom_site_fract_x
_atom_site_fract_y
_atom_site_fract_z
Si Si1 0.840636 0.601064 0.667726
Si Si2 0.237662 0.100670 0.167676
Si Si3 0.564099 0.102197 0.167775
Si Si4 0.288668 0.393599 0.335388
Si Si5 0.936109 0.738108 0.663202
Si Si6 0.890947 0.894490 0.163162
Si Si7 0.663783 0.765870 0.831629
O O1 0.844771 0.597113 0.500000
O O2 0.853259 0.500000 0.729517
O O3 0.776434 0.631202 0.711499
O O4 0.888952 0.669026 0.729270
O O5 0.173646 0.125894 0.216891
O O6 0.281982 0.175707 0.223401
O O7 0.254658 0.000000 0.226760
O O8 0.239532 0.096250 0.000000
O O9 0.500000 0.127399 0.219645
O O10 0.607547 0.179913 0.222987
O O11 0.580950 0.000000 0.222937
O O12 0.566695 0.100288 0.000000
O O13 0.297967 0.371969 0.500000
O O14 0.301549 0.500000 0.304078
O O15 0.332699 0.332811 0.243577
O O16 0.922470 0.757271 0.500000
O O17 0.933825 0.833929 0.745059
O O18 0.000000 0.696589 0.681583
O O19 0.907053 0.000000 0.186886
O O20 0.897878 0.867566 0.000000
O O21 0.663423 0.752004 0.000000
#
# Coordination Sequence:
#
# PCOD8193480 Si02
#       7
#     8   8   8   8   8   8   8
#     4   8  15  30  50  68  87 113 143 174 215 271
#     4   8  14  25  42  66  92 113 138 176 220 263
#     4   8  14  25  42  67  99 130 156 181 213 258
#     4   9  18  32  48  65  88 119 149 178 220 272
#     4  10  20  31  45  67  89 108 137 180 223 258
#     4   9  18  32  47  61  82 116 151 178 210 258
#     4  10  17  25  45  73  94 115 147 187 224 255
#
# _framework density 17.367246999999999
#
# number of rings (size 3 to 8) (size 9 to 14) (size 15 to 20)
#    0.000    3.143    0.000    3.429    0.000    3.143 
#    0.000    2.857    0.000    4.714    0.000    5.000 
#    0.000    0.000    0.000    0.000    0.000    0.000 
#
# Total GULP energy -694080.866125 kJ/mol
# GULP energy per Si atom -12394.301181 kJ/mol
# Density = 1.732772 g / cm^3
# Si number density = 17.367247 Si / 1000 Ang^3
#
#
#
# Elastic Constant Matrix: (Units=GPa)
#
#
# Indices 1 2 3 4 5 6 
#
# 1 93.0125 66.2329 27.3955 0.0000 0.0000 0.0000
# 2 66.2329 111.7436 37.5691 0.0000 0.0000 0.0000
# 3 27.3955 37.5691 30.4331 0.0000 0.0000 0.0000
# 4 0.0000 0.0000 0.0000 24.2601 0.0000 0.0000
# 5 0.0000 0.0000 0.0000 0.0000 15.2968 0.0000
# 6 0.0000 0.0000 0.0000 0.0000 0.0000 27.1910
#
#
#
# Elastic Compliance Matrix: (Units=1/GPa)
#
#
# Indices 1 2 3 4 5 6 
#
# 1 0.019129 -0.009486 -0.005510 0.000000 0.000000 0.000000
# 2 -0.009486 0.020002 -0.016154 0.000000 0.000000 0.000000
# 3 -0.005510 -0.016154 0.057760 0.000000 0.000000 0.000000
# 4 0.000000 0.000000 0.000000 0.041220 0.000000 0.000000
# 5 0.000000 0.000000 0.000000 0.000000 0.065373 0.000000
# 6 0.000000 0.000000 0.000000 0.000000 0.000000 0.036777
#
#
# Mechanical properties :
#
#
# Convention : Reuss Voigt Hill
#
# Bulk Modulus (GPa) = 28.90737 55.28712 42.09724
# Shear Modulus (GPa) = 15.91901 20.28234 18.10068
#
# Velocity S-wave (km/s) = 3.03084 3.42109 3.23186
# Velocity P-wave (km/s) = 5.37856 6.89263 6.18212
#
# Compressibility (1/GPa) = 0.03459325
#
# Stress axis : x y z
#
# Youngs Moduli (GPa) = 52.27799 49.99410 17.31301
#
# Poissons Ratio (x) = 0.47422 0.09539
# Poissons Ratio (y) = 0.49588 0.27967
# Poissons Ratio (z) = 0.28803 0.80759
#
# Static dielectric constant tensor:
#      x y z
#    x 3.360720 0.000000 0.000000 
#    y 0.000000 3.335430 0.000000 
#    z 0.000000 0.000000 2.719530 
# 
# 
# High freq. dielectric constant tensor:
#      x y z
#    x 1.664430 0.000000 0.000000 
#    y 0.000000 1.671850 0.000000 
#    z 0.000000 0.000000 1.620870 
# 
# From -- ./inp_files/16720.got.cif
#   From: 2010.03.12/outbox.cif.g09.slc.cpg/sg47_9_cif.got.tgz:16720.got - 2010.04.14 03:12:58.
