data_PCOD8193071
_publ_section_title
;
Structure prediction by ZEFSAII (Michael W. Deem and Ramdas Pophale) SiO2 
 PCOD8193071
Probable space group: I M A 2
;
_chemical_formula_sum "Si O2"
_cell_formula_units_Z 48
_cell_length_a 26.171041
_cell_length_b 5.044082
_cell_length_c 17.877253
_cell_angle_alpha 90.000000
_cell_angle_beta 90.000000
_cell_angle_gamma 90.000000
_cell_volume 2359.956089
_symmetry_space_group_name_H-M "I M A 2"
_symmetry_group_IT_number 46
_symmetry_cell_setting 'orthorhombic'
loop_
_space_group_symop_operation_xyz
x,y,z
-x,-y,z
1/2-x,y,z
1/2+x,-y,z
1/2+x,1/2+y,1/2+z
1/2-x,1/2-y,1/2+z
-x,1/2+y,1/2+z
x,1/2-y,1/2+z
loop_
_atom_site_type_symbol
_atom_site_label
_atom_site_fract_x
_atom_site_fract_y
_atom_site_fract_z
Si Si1 0.689351 0.515362 0.313770
Si Si2 0.348657 0.760564 0.959419
Si Si3 0.556326 0.031307 0.516807
Si Si4 0.750000 0.487050 0.013023
Si Si5 0.903745 0.993943 0.089070
Si Si6 0.336517 0.505684 0.721711
Si Si7 0.250000 0.016259 0.108296
O O1 0.750000 0.537553 0.328466
O O2 0.658553 0.449700 0.388859
O O3 0.677540 0.296428 0.251007
O O4 0.665734 0.796835 0.289299
O O5 0.401514 0.589266 0.951608
O O6 0.300258 0.564255 0.963311
O O7 0.353853 0.935435 0.036097
O O8 0.573608 0.786602 0.566897
O O9 0.500000 0.000000 0.480680
O O10 0.553663 0.281354 0.573534
O O11 0.750000 0.291486 0.084408
O O12 0.750000 0.794017 0.035774
O O13 0.890432 0.002802 0.177486
O O14 0.297667 0.408044 0.659021
#
# Coordination Sequence:
#
# PCOD8193071 Si02
#       7
#     8   8   8   4   8   8   4
#     4  12  24  38  54  88 132 181 203 249 303 387
#     4  10  25  37  62  91 129 163 210 258 316 363
#     4  10  21  41  69  96 116 154 213 274 322 361
#     4  12  22  34  60  88 128 153 209 256 304 364
#     4  10  22  39  64  94 113 160 209 270 311 365
#     4  12  23  38  57  85 129 165 215 241 316 370
#     4  12  20  34  54  82 114 169 203 250 292 358
#
# _framework density 20.339359999999999
#
# number of rings (size 3 to 8) (size 9 to 14) (size 15 to 20)
#    1.000    0.000    4.167    3.500    2.333    0.000 
#    0.000    0.000    0.000    4.000    0.000    0.000 
#    0.000    0.000    0.000    0.000    0.000    0.000 
#
# Total GULP energy -297493.349314 kJ/mol
# GULP energy per Si atom -12395.556221 kJ/mol
# Density = 2.029307 g / cm^3
# Si number density = 20.339360 Si / 1000 Ang^3
#
#
#
# Elastic Constant Matrix: (Units=GPa)
#
#
# Indices 1 2 3 4 5 6 
#
# 1 114.8622 7.9551 30.6405 0.0000 0.0000 0.0000
# 2 7.9551 81.3673 4.3697 0.0000 0.0000 0.0000
# 3 30.6405 4.3697 61.7920 0.0000 0.0000 0.0000
# 4 0.0000 0.0000 0.0000 29.2315 0.0000 0.0000
# 5 0.0000 0.0000 0.0000 0.0000 16.3945 0.0000
# 6 0.0000 0.0000 0.0000 0.0000 0.0000 18.3272
#
#
#
# Elastic Compliance Matrix: (Units=1/GPa)
#
#
# Indices 1 2 3 4 5 6 
#
# 1 0.010075 -0.000719 -0.004945 0.000000 0.000000 0.000000
# 2 -0.000719 0.012388 -0.000519 0.000000 0.000000 0.000000
# 3 -0.004945 -0.000519 0.018672 0.000000 0.000000 0.000000
# 4 0.000000 0.000000 0.000000 0.034210 0.000000 0.000000
# 5 0.000000 0.000000 0.000000 0.000000 0.060996 0.000000
# 6 0.000000 0.000000 0.000000 0.000000 0.000000 0.054564
#
#
# Mechanical properties :
#
#
# Convention : Reuss Voigt Hill
#
# Bulk Modulus (GPa) = 34.76104 38.21690 36.48897
# Shear Modulus (GPa) = 23.48945 27.12772 25.30859
#
# Velocity S-wave (km/s) = 3.40203 3.65602 3.53131
# Velocity P-wave (km/s) = 5.70609 6.05412 5.88268
#
# Compressibility (1/GPa) = 0.02876784
#
# Stress axis : x y z
#
# Youngs Moduli (GPa) = 99.25534 80.72217 53.55586
#
# Poissons Ratio (x) = 0.05807 0.26483
# Poissons Ratio (y) = 0.07141 0.02781
# Poissons Ratio (z) = 0.49082 0.04192
#
# Static dielectric constant tensor:
#      x y z
#    x 3.626870 0.000000 0.000000 
#    y 0.000000 3.680160 0.000000 
#    z 0.000000 0.000000 3.467660 
# 
# 
# High freq. dielectric constant tensor:
#      x y z
#    x 1.773140 0.000000 0.000000 
#    y 0.000000 1.809780 0.000000 
#    z 0.000000 0.000000 1.772570 
# 
# From -- ./inp_files/20434.got.cif
#   From: 2010.03.12/outbox.cif.g09.slc.cpg/sg46_11_cif.got.tgz:20434.got - 2010.04.14 02:56:35.
