data_PCOD8193310
_publ_section_title
;
Structure prediction by ZEFSAII (Michael W. Deem and Ramdas Pophale) SiO2 
 PCOD8193310
Probable space group: I M A 2
;
_chemical_formula_sum "Si O2"
_cell_formula_units_Z 48
_cell_length_a 8.689908
_cell_length_b 23.413918
_cell_length_c 13.741458
_cell_angle_alpha 90.000000
_cell_angle_beta 90.000000
_cell_angle_gamma 90.000000
_cell_volume 2795.902912
_symmetry_space_group_name_H-M "I M A 2"
_symmetry_group_IT_number 46
_symmetry_cell_setting 'orthorhombic'
loop_
_space_group_symop_operation_xyz
x,y,z
-x,-y,z
1/2-x,y,z
1/2+x,-y,z
1/2+x,1/2+y,1/2+z
1/2-x,1/2-y,1/2+z
-x,1/2+y,1/2+z
x,1/2-y,1/2+z
loop_
_atom_site_type_symbol
_atom_site_label
_atom_site_fract_x
_atom_site_fract_y
_atom_site_fract_z
Si Si1 0.069784 0.440079 0.497620
Si Si2 0.568425 0.060665 0.204239
Si Si3 0.073956 0.660126 0.391036
Si Si4 0.570913 0.663601 0.811252
Si Si5 0.571489 0.221886 0.488021
Si Si6 0.571736 0.231315 0.707558
O O1 0.250000 0.447449 0.512270
O O2 0.000000 0.500000 0.462072
O O3 0.996005 0.420345 0.599365
O O4 0.035485 0.392672 0.416202
O O5 0.750000 0.055537 0.197043
O O6 0.522165 0.106966 0.284221
O O7 0.500000 0.000000 0.236489
O O8 0.250000 0.640852 0.404721
O O9 0.034263 0.712633 0.462149
O O10 0.040783 0.678472 0.279805
O O11 0.750000 0.650432 0.803070
O O12 0.528829 0.679748 0.921913
O O13 0.528916 0.714507 0.737722
O O14 0.750000 0.208999 0.466923
O O15 0.526129 0.210990 0.599808
O O16 0.750000 0.250409 0.712702
#
# Coordination Sequence:
#
# PCOD8193310 Si02
#       6
#     8   8   8   8   8   8
#     4  11  21  33  50  73 100 130 164 202 247 294
#     4  11  21  35  53  73  99 129 163 202 245 292
#     4   9  17  30  49  74 102 131 164 201 243 291
#     4  11  21  32  49  75 104 132 163 200 244 292
#     4   9  18  33  52  73  98 131 166 200 242 290
#     4   9  18  33  53  74  99 133 168 203 245 291
#
# _framework density 17.167978000000002
#
# number of rings (size 3 to 8) (size 9 to 14) (size 15 to 20)
#    0.000    2.000    0.000    7.500    0.000    4.667 
#    0.000    0.000    0.000    1.000    0.000    4.667 
#    0.000    0.000    0.000    0.000    0.000    0.000 
#
# Total GULP energy -297684.780751 kJ/mol
# GULP energy per Si atom -12403.532531 kJ/mol
# Density = 1.712890 g / cm^3
# Si number density = 17.167978 Si / 1000 Ang^3
#
#
#
# Elastic Constant Matrix: (Units=GPa)
#
#
# Indices 1 2 3 4 5 6 
#
# 1 117.2927 46.8829 38.9175 0.0000 0.0000 0.0000
# 2 46.8829 98.9939 54.4092 0.0000 0.0000 0.0000
# 3 38.9175 54.4092 116.0597 0.0000 0.0000 0.0000
# 4 0.0000 0.0000 0.0000 24.9620 0.0000 0.0000
# 5 0.0000 0.0000 0.0000 0.0000 24.3232 0.0000
# 6 0.0000 0.0000 0.0000 0.0000 0.0000 30.4436
#
#
#
# Elastic Compliance Matrix: (Units=1/GPa)
#
#
# Indices 1 2 3 4 5 6 
#
# 1 0.010743 -0.004187 -0.001640 0.000000 0.000000 0.000000
# 2 -0.004187 0.015239 -0.005740 0.000000 0.000000 0.000000
# 3 -0.001640 -0.005740 0.011857 0.000000 0.000000 0.000000
# 4 0.000000 0.000000 0.000000 0.040061 0.000000 0.000000
# 5 0.000000 0.000000 0.000000 0.000000 0.041113 0.000000
# 6 0.000000 0.000000 0.000000 0.000000 0.000000 0.032848
#
#
# Mechanical properties :
#
#
# Convention : Reuss Voigt Hill
#
# Bulk Modulus (GPa) = 67.99831 68.08504 68.04168
# Shear Modulus (GPa) = 27.79365 28.75487 28.27426
#
# Velocity S-wave (km/s) = 4.02795 4.09701 4.06263
# Velocity P-wave (km/s) = 7.83110 7.88194 7.85656
#
# Compressibility (1/GPa) = 0.01470625
#
# Stress axis : x y z
#
# Youngs Moduli (GPa) = 93.08223 65.61899 84.33682
#
# Poissons Ratio (x) = 0.27473 0.13829
# Poissons Ratio (y) = 0.38971 0.48413
# Poissons Ratio (z) = 0.15263 0.37668
#
# Static dielectric constant tensor:
#      x y z
#    x 3.189080 0.000000 0.000000 
#    y 0.000000 3.075120 0.000000 
#    z 0.000000 0.000000 3.222240 
# 
# 
# High freq. dielectric constant tensor:
#      x y z
#    x 1.668390 0.000000 0.000000 
#    y 0.000000 1.650380 0.000000 
#    z 0.000000 0.000000 1.654160 
# 
# From -- ./inp_files/14016.got.cif
#   From: 2010.03.12/outbox.cif.g09.slc.cpg/sg46_8_cif.got.tgz:14016.got - 2010.04.14 02:56:35.
