data_PCOD8193607
_publ_section_title
;
Structure prediction by ZEFSAII (Michael W. Deem and Ramdas Pophale) SiO2 
 PCOD8193607
Probable space group: P M M M
;
_chemical_formula_sum "Si O2"
_cell_formula_units_Z 56
_cell_length_a 14.362671
_cell_length_b 25.699901
_cell_length_c 8.854740
_cell_angle_alpha 90.000000
_cell_angle_beta 90.000000
_cell_angle_gamma 90.000000
_cell_volume 3268.454747
_symmetry_space_group_name_H-M "P M M M"
_symmetry_group_IT_number 47
_symmetry_cell_setting 'orthorhombic'
loop_
_space_group_symop_operation_xyz
x,y,z
-x,-y,z
x,-y,-z
-x,y,-z
-x,-y,-z
x,y,-z
-x,y,z
x,-y,z
loop_
_atom_site_type_symbol
_atom_site_label
_atom_site_fract_x
_atom_site_fract_y
_atom_site_fract_z
Si Si1 0.893543 0.193147 0.677904
Si Si2 0.790998 0.396789 0.679010
Si Si3 0.894931 0.000000 0.820377
Si Si4 0.605318 0.059930 0.676041
Si Si5 0.783216 0.100189 0.821481
Si Si6 0.893292 0.698563 0.823849
Si Si7 0.601565 0.441947 0.678899
Si Si8 0.895982 0.500000 0.320883
O O1 0.880782 0.191412 0.500000
O O2 0.825664 0.151897 0.752582
O O3 0.863434 0.249594 0.736413
O O4 0.000000 0.180975 0.725647
O O5 0.802914 0.388516 0.500000
O O6 0.829022 0.347578 0.766726
O O7 0.683203 0.403023 0.730026
O O8 0.844375 0.448270 0.735875
O O9 0.841737 0.050906 0.759515
O O10 0.000000 0.000000 0.755791
O O11 0.896099 0.000000 0.000000
O O12 0.626762 0.067063 0.500000
O O13 0.500000 0.078030 0.712863
O O14 0.675984 0.095159 0.771357
O O15 0.618073 0.000000 0.723867
O O16 0.788538 0.103875 0.000000
O O17 0.000000 0.684116 0.787436
O O18 0.877287 0.708000 0.000000
O O19 0.604644 0.446368 0.500000
O O20 0.500000 0.420900 0.732448
O O21 0.618326 0.500000 0.744965
O O22 0.897129 0.500000 0.500000
O O23 0.000000 0.500000 0.253828
#
# Coordination Sequence:
#
# PCOD8193607 Si02
#       8
#     8   8   4   8   8   8   8   4
#     4  10  21  37  56  77 100 131 173 216 255 301
#     4  10  17  28  48  73  99 130 166 205 248 296
#     4   9  18  30  44  69 106 142 169 195 240 303
#     4   9  18  33  52  74 104 141 178 217 258 301
#     4  11  20  32  52  78 108 140 171 210 257 308
#     4  10  21  36  52  71  97 131 169 209 254 302
#     4   8  13  23  42  70 101 129 162 204 245 288
#     4   9  16  24  38  66 100 129 159 197 242 291
#
# _framework density 17.133478
#
# number of rings (size 3 to 8) (size 9 to 14) (size 15 to 20)
#    0.000    2.429    1.429    3.000    0.000    3.143 
#    0.000    1.071    0.000    4.286    0.000    3.000 
#    0.000    0.000    0.000    0.000    0.000    0.000 
#
# Total GULP energy -694340.349027 kJ/mol
# GULP energy per Si atom -12398.934804 kJ/mol
# Density = 1.709448 g / cm^3
# Si number density = 17.133478 Si / 1000 Ang^3
#
#
#
# Elastic Constant Matrix: (Units=GPa)
#
#
# Indices 1 2 3 4 5 6 
#
# 1 135.9476 73.4750 36.7080 0.0000 0.0000 0.0000
# 2 73.4750 110.6346 35.0733 0.0000 0.0000 0.0000
# 3 36.7080 35.0733 48.1924 0.0000 0.0000 0.0000
# 4 0.0000 0.0000 0.0000 21.2471 0.0000 0.0000
# 5 0.0000 0.0000 0.0000 0.0000 21.3261 0.0000
# 6 0.0000 0.0000 0.0000 0.0000 0.0000 23.2507
#
#
#
# Elastic Compliance Matrix: (Units=1/GPa)
#
#
# Indices 1 2 3 4 5 6 
#
# 1 0.012151 -0.006676 -0.004397 0.000000 0.000000 0.000000
# 2 -0.006676 0.015417 -0.006135 0.000000 0.000000 0.000000
# 3 -0.004397 -0.006135 0.028564 0.000000 0.000000 0.000000
# 4 0.000000 0.000000 0.000000 0.047065 0.000000 0.000000
# 5 0.000000 0.000000 0.000000 0.000000 0.046891 0.000000
# 6 0.000000 0.000000 0.000000 0.000000 0.000000 0.043009
#
#
# Mechanical properties :
#
#
# Convention : Reuss Voigt Hill
#
# Bulk Modulus (GPa) = 46.04783 65.03191 55.53987
# Shear Modulus (GPa) = 21.29891 23.13268 22.21580
#
# Velocity S-wave (km/s) = 3.52961 3.67842 3.60478
# Velocity P-wave (km/s) = 6.59888 7.48862 7.05778
#
# Compressibility (1/GPa) = 0.02171655
#
# Stress axis : x y z
#
# Youngs Moduli (GPa) = 82.29692 64.86150 35.00859
#
# Poissons Ratio (x) = 0.43301 0.15393
# Poissons Ratio (y) = 0.54941 0.21479
# Poissons Ratio (z) = 0.36185 0.39795
#
# Static dielectric constant tensor:
#      x y z
#    x 3.459280 0.000000 0.000000 
#    y 0.000000 3.098270 0.000000 
#    z 0.000000 0.000000 2.935960 
# 
# 
# High freq. dielectric constant tensor:
#      x y z
#    x 1.666930 0.000000 0.000000 
#    y 0.000000 1.646740 0.000000 
#    z 0.000000 0.000000 1.639050 
# 
# From -- ./inp_files/7427.got.cif
#   From: 2010.03.12/outbox.cif.g09.slc.cpg/sg47_4_cif.got.tgz:7427.got - 2010.04.14 03:12:58.
