data_PCOD8193122
_publ_section_title
;
Structure prediction by ZEFSAII (Michael W. Deem and Ramdas Pophale) SiO2 
 PCOD8193122
Probable space group: I M A 2
;
_chemical_formula_sum "Si O2"
_cell_formula_units_Z 40
_cell_length_a 10.720955
_cell_length_b 16.637161
_cell_length_c 10.043603
_cell_angle_alpha 90.000000
_cell_angle_beta 90.000000
_cell_angle_gamma 90.000000
_cell_volume 1791.439848
_symmetry_space_group_name_H-M "I M A 2"
_symmetry_group_IT_number 46
_symmetry_cell_setting 'orthorhombic'
loop_
_space_group_symop_operation_xyz
x,y,z
-x,-y,z
1/2-x,y,z
1/2+x,-y,z
1/2+x,1/2+y,1/2+z
1/2-x,1/2-y,1/2+z
-x,1/2+y,1/2+z
x,1/2-y,1/2+z
loop_
_atom_site_type_symbol
_atom_site_label
_atom_site_fract_x
_atom_site_fract_y
_atom_site_fract_z
Si Si1 0.890319 0.806723 0.096620
Si Si2 0.107281 0.064972 0.316773
Si Si3 0.750000 0.329012 0.056150
Si Si4 0.250000 0.683166 0.356761
Si Si5 0.015812 0.367440 0.080092
Si Si6 0.996615 0.908872 0.872902
O O1 0.750000 0.774651 0.107936
O O2 0.926456 0.858539 0.225844
O O3 0.977969 0.729192 0.089219
O O4 0.900880 0.860178 0.964312
O O5 0.250000 0.034527 0.287071
O O6 0.104221 0.093652 0.469790
O O7 0.000000 0.000000 0.286224
O O8 0.750000 0.289103 0.203085
O O9 0.628429 0.386104 0.040955
O O10 0.750000 0.262431 0.943478
O O11 0.367923 0.628784 0.390421
O O12 0.052352 0.406188 0.221118
O O13 0.000000 0.000000 0.923548
#
# Coordination Sequence:
#
# PCOD8193122 Si02
#       6
#     8   8   4   4   8   8
#     4  11  24  43  66  95 127 172 221 269 325 389
#     4  11  26  47  68  99 136 176 219 273 337 398
#     4  10  22  38  66 102 128 166 220 278 332 380
#     4  10  22  42  64  98 128 166 216 268 330 388
#     4  11  23  43  68  97 130 172 223 273 323 391
#     4  11  24  42  64  96 131 169 213 266 327 386
#
# _framework density 22.328409000000001
#
# number of rings (size 3 to 8) (size 9 to 14) (size 15 to 20)
#    0.000    1.200    2.000    3.000    5.600    3.200 
#    7.200    0.000    0.000    0.000    0.000    0.000 
#    0.000    0.000    0.000    0.000    0.000    0.000 
#
# Total GULP energy -248083.146227 kJ/mol
# GULP energy per Si atom -12404.157311 kJ/mol
# Density = 2.227759 g / cm^3
# Si number density = 22.328409 Si / 1000 Ang^3
#
#
#
# Elastic Constant Matrix: (Units=GPa)
#
#
# Indices 1 2 3 4 5 6 
#
# 1 94.5427 16.9363 18.0453 0.0000 0.0000 0.0000
# 2 16.9363 63.3590 -8.6929 0.0000 0.0000 0.0000
# 3 18.0453 -8.6929 71.6882 -0.0001 0.0000 0.0000
# 4 0.0000 0.0000 -0.0001 29.5972 0.0000 0.0000
# 5 0.0000 0.0000 0.0000 0.0000 26.5272 0.0000
# 6 0.0000 0.0000 0.0000 0.0000 0.0000 25.7569
#
#
#
# Elastic Compliance Matrix: (Units=1/GPa)
#
#
# Indices 1 2 3 4 5 6 
#
# 1 0.011886 -0.003649 -0.003434 0.000000 0.000000 0.000000
# 2 -0.003649 0.017170 0.003000 0.000000 0.000000 0.000000
# 3 -0.003434 0.003000 0.015178 0.000000 0.000000 0.000000
# 4 0.000000 0.000000 0.000000 0.033787 0.000000 0.000000
# 5 0.000000 0.000000 0.000000 0.000000 0.037697 0.000000
# 6 0.000000 0.000000 0.000000 0.000000 0.000000 0.038825
#
#
# Mechanical properties :
#
#
# Convention : Reuss Voigt Hill
#
# Bulk Modulus (GPa) = 27.72467 31.35194 29.53830
# Shear Modulus (GPa) = 28.61544 29.92965 29.27255
#
# Velocity S-wave (km/s) = 3.58379 3.66516 3.62470
# Velocity P-wave (km/s) = 5.43769 5.65535 5.54758
#
# Compressibility (1/GPa) = 0.03606896
#
# Stress axis : x y z
#
# Youngs Moduli (GPa) = 84.13012 58.24105 65.88637
#
# Poissons Ratio (x) = 0.21249 0.22628
# Poissons Ratio (y) = 0.30695 -0.19769
# Poissons Ratio (z) = 0.28894 -0.17475
#
# Static dielectric constant tensor:
#      x y z
#    x 4.107100 0.000000 0.000000 
#    y 0.000000 3.790240 0.000000 
#    z 0.000000 0.000000 4.144260 
# 
# 
# High freq. dielectric constant tensor:
#      x y z
#    x 1.888590 0.000000 0.000000 
#    y 0.000000 1.868950 0.000000 
#    z 0.000000 0.000000 1.891180 
# 
# From -- ./inp_files/4470.got.cif
#   From: 2010.03.12/outbox.cif.g09.slc.cpg/sg46_3_cif.got.tgz:4470.got - 2010.04.14 02:56:35.
