data_PCOD8193547
_publ_section_title
;
Structure prediction by ZEFSAII (Michael W. Deem and Ramdas Pophale) SiO2 
 PCOD8193547
Probable space group: P M M M
;
_chemical_formula_sum "Si O2"
_cell_formula_units_Z 40
_cell_length_a 20.484040
_cell_length_b 12.032458
_cell_length_c 9.330647
_cell_angle_alpha 90.000000
_cell_angle_beta 90.000000
_cell_angle_gamma 90.000000
_cell_volume 2299.755833
_symmetry_space_group_name_H-M "P M M M"
_symmetry_group_IT_number 47
_symmetry_cell_setting 'orthorhombic'
loop_
_space_group_symop_operation_xyz
x,y,z
-x,-y,z
x,-y,-z
-x,y,-z
-x,-y,-z
x,y,-z
-x,y,z
x,-y,z
loop_
_atom_site_type_symbol
_atom_site_label
_atom_site_fract_x
_atom_site_fract_y
_atom_site_fract_z
Si Si1 0.575182 0.873188 0.666495
Si Si2 0.247078 0.000000 0.830522
Si Si3 0.313883 0.223283 0.169365
Si Si4 0.070922 0.759409 0.830122
Si Si5 0.102927 0.000000 0.829252
Si Si6 0.195618 0.625436 0.829254
O O1 0.592357 0.863672 0.500000
O O2 0.500000 0.844084 0.694826
O O3 0.616161 0.778319 0.751727
O O4 0.589322 0.000000 0.719783
O O5 0.282876 0.108877 0.776314
O O6 0.175307 0.000000 0.765261
O O7 0.242353 0.000000 0.000000
O O8 0.264236 0.319961 0.220733
O O9 0.325529 0.229541 0.000000
O O10 0.069625 0.886718 0.772941
O O11 0.132005 0.689886 0.765592
O O12 0.000000 0.706600 0.788201
O O13 0.079567 0.760102 0.000000
O O14 0.101882 0.000000 0.000000
O O15 0.193835 0.500000 0.770561
O O16 0.192530 0.628751 0.000000
#
# Coordination Sequence:
#
# PCOD8193547 Si02
#       6
#     8   4   8   8   4   8
#     4   9  18  31  46  68  98 123 139 166 217 273
#     4   9  14  21  36  59  83 110 143 182 222 258
#     4  10  17  27  45  66  89 118 152 186 218 258
#     4   9  15  21  31  49  77 115 152 183 220 269
#     4   9  13  20  31  48  78 111 145 182 223 270
#     4   9  17  27  38  55  81 115 154 192 228 261
#
# _framework density 17.393151
#
# number of rings (size 3 to 8) (size 9 to 14) (size 15 to 20)
#    0.000    2.800    3.000    0.900    0.000    2.000 
#    0.000    3.000    0.000    1.200    0.000    4.200 
#    0.000    0.800    0.000    6.000    0.000    6.400 
#
# Total GULP energy -495529.942291 kJ/mol
# GULP energy per Si atom -12388.248557 kJ/mol
# Density = 1.735356 g / cm^3
# Si number density = 17.393151 Si / 1000 Ang^3
#
#
#
# Elastic Constant Matrix: (Units=GPa)
#
#
# Indices 1 2 3 4 5 6 
#
# 1 140.8047 62.4534 31.3343 0.0000 0.0000 0.0000
# 2 62.4534 115.5021 16.8010 0.0000 0.0000 0.0000
# 3 31.3343 16.8010 18.3046 0.0000 0.0000 0.0000
# 4 0.0000 0.0000 0.0000 8.2516 0.0000 0.0000
# 5 0.0000 0.0000 0.0000 0.0000 1.5776 0.0000
# 6 0.0000 0.0000 0.0000 0.0000 0.0000 10.9192
#
#
#
# Elastic Compliance Matrix: (Units=1/GPa)
#
#
# Indices 1 2 3 4 5 6 
#
# 1 0.013189 -0.004440 -0.018501 0.000000 0.000000 0.000000
# 2 -0.004440 0.011487 -0.002942 0.000000 0.000000 0.000000
# 3 -0.018501 -0.002942 0.089003 0.000000 0.000000 0.000000
# 4 0.000000 0.000000 0.000000 0.121189 0.000000 0.000000
# 5 0.000000 0.000000 0.000000 0.000000 0.633868 0.000000
# 6 0.000000 0.000000 0.000000 0.000000 0.000000 0.091582
#
#
# Mechanical properties :
#
#
# Convention : Reuss Voigt Hill
#
# Bulk Modulus (GPa) = 16.15239 55.08765 35.62002
# Shear Modulus (GPa) = 4.84158 15.08453 9.96305
#
# Velocity S-wave (km/s) = 1.67023 2.94814 2.39595
# Velocity P-wave (km/s) = 3.60920 6.58251 5.30829
#
# Compressibility (1/GPa) = 0.06191035
#
# Stress axis : x y z
#
# Youngs Moduli (GPa) = 75.82280 87.05757 11.23561
#
# Poissons Ratio (x) = 0.38654 0.20787
# Poissons Ratio (y) = 0.33666 0.03306
# Poissons Ratio (z) = 1.40282 0.25616
#
# Static dielectric constant tensor:
#      x y z
#    x 3.474560 0.000000 0.000000 
#    y 0.000000 3.291750 0.000000 
#    z 0.000000 0.000000 2.540980 
# 
# 
# High freq. dielectric constant tensor:
#      x y z
#    x 1.690410 0.000000 0.000000 
#    y 0.000000 1.652290 0.000000 
#    z 0.000000 0.000000 1.593270 
# 
# From -- ./inp_files/10732.got.cif
#   From: 2010.03.12/outbox.cif.g09.slc.cpg/sg47_6_cif.got.tgz:10732.got - 2010.04.14 03:12:58.
