data_PCOD8193883
_publ_section_title
;
Structure prediction by ZEFSAII (Michael W. Deem and Ramdas Pophale) SiO2 
 PCOD8193883
Probable space group: P M M M
;
_chemical_formula_sum "Si O2"
_cell_formula_units_Z 52
_cell_length_a 28.506705
_cell_length_b 14.126654
_cell_length_c 9.335566
_cell_angle_alpha 90.000000
_cell_angle_beta 90.000000
_cell_angle_gamma 90.000000
_cell_volume 3759.473115
_symmetry_space_group_name_H-M "P M M M"
_symmetry_group_IT_number 47
_symmetry_cell_setting 'orthorhombic'
loop_
_space_group_symop_operation_xyz
x,y,z
-x,-y,z
x,-y,-z
-x,y,-z
-x,-y,-z
x,y,-z
-x,y,z
x,-y,z
loop_
_atom_site_type_symbol
_atom_site_label
_atom_site_fract_x
_atom_site_fract_y
_atom_site_fract_z
Si Si1 0.772182 0.887419 0.338181
Si Si2 0.948099 0.112546 0.339173
Si Si3 0.860899 0.113037 0.161573
Si Si4 0.553799 0.607607 0.333594
Si Si5 0.681681 0.109617 0.833877
Si Si6 0.589258 0.777556 0.831203
Si Si7 0.500000 0.894152 0.829651
O O1 0.772977 0.847563 0.500000
O O2 0.817045 0.847535 0.252482
O O3 0.725185 0.852841 0.259200
O O4 0.773937 0.000000 0.338890
O O5 0.937644 0.149101 0.500000
O O6 0.908797 0.153118 0.231929
O O7 0.000000 0.146538 0.289530
O O8 0.946204 0.000000 0.338600
O O9 0.860767 0.000000 0.161946
O O10 0.857409 0.151940 0.000000
O O11 0.559506 0.631438 0.500000
O O12 0.500000 0.622906 0.285483
O O13 0.569134 0.500000 0.302179
O O14 0.587745 0.675335 0.243231
O O15 0.636909 0.170278 0.787193
O O16 0.670355 0.000000 0.802378
O O17 0.694371 0.124075 0.000000
O O18 0.546107 0.840500 0.773604
O O19 0.585863 0.762536 0.000000
O O20 0.500000 0.000000 0.765553
O O21 0.500000 0.898799 0.000000
#
# Coordination Sequence:
#
# PCOD8193883 Si02
#       7
#     8   8   8   8   8   8   4
#     4   9  16  25  36  48  62  84 115 147 177 211
#     4   8  13  20  28  38  54  76 101 131 170 216
#     4   9  15  21  30  43  58  77 103 138 178 217
#     4   9  18  32  47  61  79 102 123 146 181 220
#     4   9  17  28  40  55  76  99 121 147 181 219
#     4  10  18  28  44  64  80  98 124 152 180 213
#     4   9  16  26  40  59  82 104 125 147 174 213
#
# _framework density 13.831726
#
# number of rings (size 3 to 8) (size 9 to 14) (size 15 to 20)
#    0.000    3.000    0.769    2.308    0.000    6.769 
#    0.000    2.308    0.000    1.846    0.000    0.000 
#    0.000    0.000    0.000    0.000    0.000    0.000 
#
# Total GULP energy -644649.326135 kJ/mol
# GULP energy per Si atom -12397.102426 kJ/mol
# Density = 1.380024 g / cm^3
# Si number density = 13.831726 Si / 1000 Ang^3
#
#
#
# Elastic Constant Matrix: (Units=GPa)
#
#
# Indices 1 2 3 4 5 6 
#
# 1 129.8266 31.4175 67.4327 0.0000 0.0000 0.0000
# 2 31.4175 43.3185 24.7221 0.0000 0.0000 0.0000
# 3 67.4327 24.7221 81.9036 0.0000 0.0000 0.0000
# 4 0.0000 0.0000 0.0000 12.7299 0.0000 0.0000
# 5 0.0000 0.0000 0.0000 0.0000 26.5264 0.0000
# 6 0.0000 0.0000 0.0000 0.0000 0.0000 2.4450
#
#
#
# Elastic Compliance Matrix: (Units=1/GPa)
#
#
# Indices 1 2 3 4 5 6 
#
# 1 0.014105 -0.004352 -0.010300 0.000000 0.000000 0.000000
# 2 -0.004352 0.029232 -0.005240 0.000000 0.000000 0.000000
# 3 -0.010300 -0.005240 0.022271 0.000000 0.000000 0.000000
# 4 0.000000 0.000000 0.000000 0.078555 0.000000 0.000000
# 5 0.000000 0.000000 0.000000 0.000000 0.037698 0.000000
# 6 0.000000 0.000000 0.000000 0.000000 0.000000 0.409000
#
#
# Mechanical properties :
#
#
# Convention : Reuss Voigt Hill
#
# Bulk Modulus (GPa) = 38.72307 55.79926 47.26117
# Shear Modulus (GPa) = 7.82161 17.10535 12.46348
#
# Velocity S-wave (km/s) = 2.38057 3.52045 3.00505
# Velocity P-wave (km/s) = 5.96764 7.54678 6.80318
#
# Compressibility (1/GPa) = 0.02582440
#
# Stress axis : x y z
#
# Youngs Moduli (GPa) = 70.89444 34.20916 44.90131
#
# Poissons Ratio (x) = 0.14889 0.46247
# Poissons Ratio (y) = 0.30855 0.23529
# Poissons Ratio (z) = 0.73019 0.17926
#
# Static dielectric constant tensor:
#      x y z
#    x 2.873400 0.000000 0.000000 
#    y 0.000000 2.254720 0.000000 
#    z 0.000000 0.000000 2.771900 
# 
# 
# High freq. dielectric constant tensor:
#      x y z
#    x 1.531810 0.000000 0.000000 
#    y 0.000000 1.456590 0.000000 
#    z 0.000000 0.000000 1.530240 
# 
# From -- ./inp_files/13418.got.cif
#   From: 2010.03.12/outbox.cif.g09.slc.cpg/sg47_7_cif.got.tgz:13418.got - 2010.04.14 03:12:58.
