data_PCOD8193639
_publ_section_title
;
Structure prediction by ZEFSAII (Michael W. Deem and Ramdas Pophale) SiO2 
 PCOD8193639
Probable space group: P M M M
;
_chemical_formula_sum "Si O2"
_cell_formula_units_Z 52
_cell_length_a 7.933533
_cell_length_b 14.413885
_cell_length_c 24.986836
_cell_angle_alpha 90.000000
_cell_angle_beta 90.000000
_cell_angle_gamma 90.000000
_cell_volume 2857.320464
_symmetry_space_group_name_H-M "P M M M"
_symmetry_group_IT_number 47
_symmetry_cell_setting 'orthorhombic'
loop_
_space_group_symop_operation_xyz
x,y,z
-x,-y,z
x,-y,-z
-x,y,-z
-x,-y,-z
x,y,-z
-x,y,z
x,-y,z
loop_
_atom_site_type_symbol
_atom_site_label
_atom_site_fract_x
_atom_site_fract_y
_atom_site_fract_z
Si Si1 0.700779 0.395183 0.340762
Si Si2 0.808189 0.896988 0.397020
Si Si3 0.500000 0.609981 0.059684
Si Si4 0.697019 0.707339 0.766035
Si Si5 0.692981 0.287339 0.558250
Si Si6 0.810679 0.607250 0.868863
Si Si7 0.305777 0.897379 0.280499
O O1 0.500000 0.391406 0.343239
O O2 0.768309 0.500000 0.337906
O O3 0.762723 0.340444 0.288416
O O4 0.779189 0.346819 0.394043
O O5 0.700802 0.821959 0.429098
O O6 0.801904 0.879598 0.333451
O O7 0.000000 0.887635 0.415831
O O8 0.737748 0.000000 0.410180
O O9 0.500000 0.500000 0.056182
O O10 0.329755 0.644235 0.089433
O O11 0.500000 0.652882 0.000000
O O12 0.500000 0.686546 0.775396
O O13 0.801446 0.666249 0.814871
O O14 0.735483 0.817800 0.762965
O O15 0.777830 0.307621 0.500000
O O16 0.500000 0.316937 0.554640
O O17 0.774221 0.500000 0.854785
O O18 0.000000 0.618963 0.892918
O O19 0.500000 0.888641 0.298098
O O20 0.267602 0.000000 0.256072
#
# Coordination Sequence:
#
# PCOD8193639 Si02
#       7
#     8   8   4   8   8   8   8
#     4   9  17  29  47  71  94 120 155 195 247 305
#     4  10  20  33  49  68  91 118 148 189 245 306
#     4   9  18  34  54  76 109 151 188 222 258 295
#     4  10  17  29  50  72 102 137 165 204 256 305
#     4  10  20  34  50  67  87 114 154 201 246 296
#     4  10  20  32  49  77 110 144 183 222 258 298
#     4   9  17  30  50  74  99 127 160 199 247 306
#
# _framework density 18.198868999999998
#
# number of rings (size 3 to 8) (size 9 to 14) (size 15 to 20)
#    0.000    2.385    2.308    0.923    0.000    3.385 
#    0.000    4.615    0.000    0.462    0.000    1.077 
#    0.000    1.231    0.000    1.385    0.000    0.154 
#
# Total GULP energy -644585.752571 kJ/mol
# GULP energy per Si atom -12395.879857 kJ/mol
# Density = 1.815745 g / cm^3
# Si number density = 18.198869 Si / 1000 Ang^3
#
#
#
# Elastic Constant Matrix: (Units=GPa)
#
#
# Indices 1 2 3 4 5 6 
#
# 1 55.8530 19.1481 34.4924 0.0000 0.0000 0.0000
# 2 19.1481 102.6003 49.2948 0.0000 0.0000 0.0000
# 3 34.4924 49.2948 119.5467 0.0000 0.0000 0.0000
# 4 0.0000 0.0000 0.0000 16.0460 0.0000 0.0000
# 5 0.0000 0.0000 0.0000 0.0000 9.7737 0.0000
# 6 0.0000 0.0000 0.0000 0.0000 0.0000 10.9042
#
#
#
# Elastic Compliance Matrix: (Units=1/GPa)
#
#
# Indices 1 2 3 4 5 6 
#
# 1 0.021927 -0.001313 -0.005785 0.000000 0.000000 0.000000
# 2 -0.001313 0.012233 -0.004666 0.000000 0.000000 0.000000
# 3 -0.005785 -0.004666 0.011958 0.000000 0.000000 0.000000
# 4 0.000000 0.000000 0.000000 0.062321 0.000000 0.000000
# 5 0.000000 0.000000 0.000000 0.000000 0.102315 0.000000
# 6 0.000000 0.000000 0.000000 0.000000 0.000000 0.091708
#
#
# Mechanical properties :
#
#
# Convention : Reuss Voigt Hill
#
# Bulk Modulus (GPa) = 44.26521 53.76337 49.01429
# Shear Modulus (GPa) = 14.99165 19.01576 17.00370
#
# Velocity S-wave (km/s) = 2.87325 3.23598 3.05999
# Velocity P-wave (km/s) = 5.94838 6.60063 6.28298
#
# Compressibility (1/GPa) = 0.02259110
#
# Stress axis : x y z
#
# Youngs Moduli (GPa) = 45.60618 81.74520 83.62629
#
# Poissons Ratio (x) = 0.10730 0.48380
# Poissons Ratio (y) = 0.05986 0.39016
# Poissons Ratio (z) = 0.26384 0.38139
#
# Static dielectric constant tensor:
#      x y z
#    x 3.176110 0.000000 0.000000 
#    y 0.000000 3.452190 0.000000 
#    z 0.000000 0.000000 3.252630 
# 
# 
# High freq. dielectric constant tensor:
#      x y z
#    x 1.690710 0.000000 0.000000 
#    y 0.000000 1.695220 0.000000 
#    z 0.000000 0.000000 1.672420 
# 
# From -- ./inp_files/21747.got.cif
#   From: 2010.03.12/outbox.cif.g09.slc.cpg/sg47_11_cif.got.tgz:21747.got - 2010.04.14 03:12:58.
