data_PCOD8193637
_publ_section_title
;
Structure prediction by ZEFSAII (Michael W. Deem and Ramdas Pophale) SiO2 
 PCOD8193637
Probable space group: P M M M
;
_chemical_formula_sum "Si O2"
_cell_formula_units_Z 52
_cell_length_a 13.570646
_cell_length_b 9.019360
_cell_length_c 24.278196
_cell_angle_alpha 90.000000
_cell_angle_beta 90.000000
_cell_angle_gamma 90.000000
_cell_volume 2971.615786
_symmetry_space_group_name_H-M "P M M M"
_symmetry_group_IT_number 47
_symmetry_cell_setting 'orthorhombic'
loop_
_space_group_symop_operation_xyz
x,y,z
-x,-y,z
x,-y,-z
-x,y,-z
-x,-y,-z
x,y,-z
-x,y,z
x,-y,z
loop_
_atom_site_type_symbol
_atom_site_label
_atom_site_fract_x
_atom_site_fract_y
_atom_site_fract_z
Si Si1 0.500000 0.176780 0.438020
Si Si2 0.612556 0.332666 0.739253
Si Si3 0.107367 0.824701 0.224151
Si Si4 0.613223 0.671483 0.937110
Si Si5 0.701578 0.824212 0.837237
Si Si6 0.682811 0.175279 0.366563
Si Si7 0.893376 0.824406 0.348034
O O1 0.500000 0.239444 0.500000
O O2 0.599713 0.237316 0.408483
O O3 0.500000 0.000000 0.438223
O O4 0.500000 0.333853 0.720847
O O5 0.653599 0.500000 0.743552
O O6 0.620856 0.250682 0.797738
O O7 0.671813 0.242153 0.693779
O O8 0.191549 0.765306 0.183141
O O9 0.121260 0.761682 0.286080
O O10 0.000000 0.775173 0.201385
O O11 0.114878 0.000000 0.226702
O O12 0.500000 0.718793 0.928160
O O13 0.626914 0.500000 0.921515
O O14 0.683889 0.770876 0.899384
O O15 0.644670 0.700263 0.000000
O O16 0.691381 0.000000 0.834259
O O17 0.796023 0.218500 0.384628
O O18 0.670079 0.000000 0.361503
O O19 0.000000 0.765670 0.371898
O O20 0.899317 0.000000 0.345090
#
# Coordination Sequence:
#
# PCOD8193637 Si02
#       7
#     4   8   8   8   8   8   8
#     4   9  18  30  47  73 101 129 162 205 252 287
#     4  11  22  32  43  65 100 132 154 186 240 294
#     4   8  14  25  42  66  96 123 149 187 236 287
#     4   9  19  36  53  67  90 127 163 193 236 289
#     4  11  20  30  49  74  96 121 159 198 236 283
#     4  10  17  29  50  70  92 124 163 202 235 282
#     4   8  13  23  42  68  94 122 157 195 238 285
#
# _framework density 17.498898000000001
#
# number of rings (size 3 to 8) (size 9 to 14) (size 15 to 20)
#    0.000    2.538    2.308    2.769    0.000    3.385 
#    0.000    0.769    0.000    5.077    0.000    6.462 
#    0.000    0.000    0.000    1.385    0.000    1.538 
#
# Total GULP energy -644280.178128 kJ/mol
# GULP energy per Si atom -12390.003426 kJ/mol
# Density = 1.745907 g / cm^3
# Si number density = 17.498898 Si / 1000 Ang^3
#
#
#
# Elastic Constant Matrix: (Units=GPa)
#
#
# Indices 1 2 3 4 5 6 
#
# 1 148.6717 22.1482 49.2779 0.0000 0.0000 0.0000
# 2 22.1482 37.1513 18.7173 0.0000 0.0000 0.0000
# 3 49.2779 18.7173 75.5811 0.0000 0.0000 0.0000
# 4 0.0000 0.0000 0.0000 9.6445 0.0000 0.0000
# 5 0.0000 0.0000 0.0000 0.0000 17.2663 0.0000
# 6 0.0000 0.0000 0.0000 0.0000 0.0000 9.3785
#
#
#
# Elastic Compliance Matrix: (Units=1/GPa)
#
#
# Indices 1 2 3 4 5 6 
#
# 1 0.008810 -0.002695 -0.005077 0.000000 0.000000 0.000000
# 2 -0.002695 0.031578 -0.006063 0.000000 0.000000 0.000000
# 3 -0.005077 -0.006063 0.018043 0.000000 0.000000 0.000000
# 4 0.000000 0.000000 0.000000 0.103686 0.000000 0.000000
# 5 0.000000 0.000000 0.000000 0.000000 0.057916 0.000000
# 6 0.000000 0.000000 0.000000 0.000000 0.000000 0.106626
#
#
# Mechanical properties :
#
#
# Convention : Reuss Voigt Hill
#
# Bulk Modulus (GPa) = 32.50843 49.07677 40.79260
# Shear Modulus (GPa) = 13.71428 18.67524 16.19476
#
# Velocity S-wave (km/s) = 2.80254 3.27038 3.04546
# Velocity P-wave (km/s) = 5.39352 6.50900 5.97734
#
# Compressibility (1/GPa) = 0.03076126
#
# Stress axis : x y z
#
# Youngs Moduli (GPa) = 113.50158 31.66743 55.42460
#
# Poissons Ratio (x) = 0.08533 0.28139
# Poissons Ratio (y) = 0.30584 0.33606
# Poissons Ratio (z) = 0.57625 0.19201
#
# Static dielectric constant tensor:
#      x y z
#    x 3.788450 0.000000 0.000000 
#    y 0.000000 2.903350 0.000000 
#    z 0.000000 0.000000 3.046610 
# 
# 
# High freq. dielectric constant tensor:
#      x y z
#    x 1.689530 0.000000 0.000000 
#    y 0.000000 1.639270 0.000000 
#    z 0.000000 0.000000 1.643180 
# 
# From -- ./inp_files/32641.got.cif
#   From: 2010.03.12/outbox.cif.g09.slc.cpg/sg47_17_cif.got.tgz:32641.got - 2010.04.14 03:12:58.
