data_PCOD8193973
_publ_section_title
;
Structure prediction by ZEFSAII (Michael W. Deem and Ramdas Pophale) SiO2 
 PCOD8193973
Probable space group: P M M M
;
_chemical_formula_sum "Si O2"
_cell_formula_units_Z 48
_cell_length_a 8.845623
_cell_length_b 15.655279
_cell_length_c 18.267153
_cell_angle_alpha 90.000000
_cell_angle_beta 90.000000
_cell_angle_gamma 90.000000
_cell_volume 2529.648061
_symmetry_space_group_name_H-M "P M M M"
_symmetry_group_IT_number 47
_symmetry_cell_setting 'orthorhombic'
loop_
_space_group_symop_operation_xyz
x,y,z
-x,-y,z
x,-y,-z
-x,y,-z
-x,-y,-z
x,y,-z
-x,y,z
x,-y,z
loop_
_atom_site_type_symbol
_atom_site_label
_atom_site_fract_x
_atom_site_fract_y
_atom_site_fract_z
Si Si1 0.826682 0.500000 0.306034
Si Si2 0.175626 0.150522 0.084771
Si Si3 0.174819 0.683783 0.680724
Si Si4 0.821077 0.000000 0.667912
Si Si5 0.323594 0.500000 0.153225
Si Si6 0.180282 0.833128 0.417930
Si Si7 0.821775 0.327672 0.846281
Si Si8 0.677882 0.000000 0.173371
O O1 0.800130 0.587377 0.351847
O O2 0.711713 0.500000 0.239126
O O3 0.000000 0.500000 0.275361
O O4 0.224715 0.246763 0.104779
O O5 0.272046 0.084509 0.131093
O O6 0.000000 0.136028 0.103557
O O7 0.209146 0.134330 0.000000
O O8 0.250811 0.752361 0.626431
O O9 0.239220 0.688757 0.763434
O O10 0.000000 0.708103 0.684621
O O11 0.765014 0.918045 0.622896
O O12 0.747671 0.000000 0.746762
O O13 0.000000 0.000000 0.678271
O O14 0.500000 0.500000 0.137662
O O15 0.253533 0.412934 0.119180
O O16 0.247051 0.831840 0.500000
O O17 0.000000 0.829521 0.421545
O O18 0.000000 0.342811 0.845991
O O19 0.500000 0.000000 0.180228
#
# Coordination Sequence:
#
# PCOD8193973 Si02
#       8
#     4   8   8   4   4   8   8   4
#     4   8  14  26  43  63  91 130 171 209 253 300
#     4  10  21  38  60  83 106 136 175 216 259 312
#     4   8  13  23  41  64  92 126 161 199 246 299
#     4  10  19  33  53  74  97 129 171 214 252 300
#     4  10  18  28  47  76 105 134 173 220 263 302
#     4   9  16  26  44  73 103 127 158 208 267 314
#     4   9  17  32  53  75 102 137 175 215 259 307
#     4  12  25  38  55  80 109 140 173 214 264 314
#
# _framework density 18.974971
#
# number of rings (size 3 to 8) (size 9 to 14) (size 15 to 20)
#    0.000    2.667    0.000    4.000    0.000    5.667 
#    0.000    0.833    0.000    6.000    0.000    0.000 
#    0.000   10.667    0.000    0.000    0.000    0.000 
#
# Total GULP energy -594924.622036 kJ/mol
# GULP energy per Si atom -12394.262959 kJ/mol
# Density = 1.893178 g / cm^3
# Si number density = 18.974971 Si / 1000 Ang^3
#
#
#
# Elastic Constant Matrix: (Units=GPa)
#
#
# Indices 1 2 3 4 5 6 
#
# 1 36.7235 26.9997 15.3607 0.0000 0.0000 0.0000
# 2 26.9997 135.7073 33.5710 0.0000 0.0000 0.0000
# 3 15.3607 33.5710 73.8621 0.0000 0.0000 0.0000
# 4 0.0000 0.0000 0.0000 12.7820 0.0000 0.0000
# 5 0.0000 0.0000 0.0000 0.0000 4.1747 0.0000
# 6 0.0000 0.0000 0.0000 0.0000 0.0000 10.3829
#
#
#
# Elastic Compliance Matrix: (Units=1/GPa)
#
#
# Indices 1 2 3 4 5 6 
#
# 1 0.033110 -0.005503 -0.004385 0.000000 0.000000 0.000000
# 2 -0.005503 0.009217 -0.003045 0.000000 0.000000 0.000000
# 3 -0.004385 -0.003045 0.015834 0.000000 0.000000 0.000000
# 4 0.000000 0.000000 0.000000 0.078235 0.000000 0.000000
# 5 0.000000 0.000000 0.000000 0.000000 0.239540 0.000000
# 6 0.000000 0.000000 0.000000 0.000000 0.000000 0.096312
#
#
# Mechanical properties :
#
#
# Convention : Reuss Voigt Hill
#
# Bulk Modulus (GPa) = 30.96251 44.23950 37.60100
# Shear Modulus (GPa) = 9.82553 16.82536 13.32544
#
# Velocity S-wave (km/s) = 2.27802 2.98100 2.65290
# Velocity P-wave (km/s) = 4.82412 5.93412 5.40768
#
# Compressibility (1/GPa) = 0.03229713
#
# Stress axis : x y z
#
# Youngs Moduli (GPa) = 30.20211 108.49740 63.15343
#
# Poissons Ratio (x) = 0.59704 0.27691
# Poissons Ratio (y) = 0.16620 0.19229
# Poissons Ratio (z) = 0.13243 0.33035
#
# Static dielectric constant tensor:
#      x y z
#    x 2.971080 0.000000 0.000000 
#    y 0.000000 3.940420 0.000000 
#    z 0.000000 0.000000 3.431020 
# 
# 
# High freq. dielectric constant tensor:
#      x y z
#    x 1.684020 0.000000 0.000000 
#    y 0.000000 1.765230 0.000000 
#    z 0.000000 0.000000 1.716290 
# 
# From -- ./inp_files/26609.got.cif
#   From: 2010.03.12/outbox.cif.g09.slc.cpg/sg47_14_cif.got.tgz:26609.got - 2010.04.14 03:12:58.
