data_PCOD8193180
_publ_section_title
;
Structure prediction by ZEFSAII (Michael W. Deem and Ramdas Pophale) SiO2 
 PCOD8193180
Probable space group: I M A 2
;
_chemical_formula_sum "Si O2"
_cell_formula_units_Z 48
_cell_length_a 8.474145
_cell_length_b 27.363890
_cell_length_c 9.700596
_cell_angle_alpha 90.000000
_cell_angle_beta 90.000000
_cell_angle_gamma 90.000000
_cell_volume 2249.428249
_symmetry_space_group_name_H-M "I M A 2"
_symmetry_group_IT_number 46
_symmetry_cell_setting 'orthorhombic'
loop_
_space_group_symop_operation_xyz
x,y,z
-x,-y,z
1/2-x,y,z
1/2+x,-y,z
1/2+x,1/2+y,1/2+z
1/2-x,1/2-y,1/2+z
-x,1/2+y,1/2+z
x,1/2-y,1/2+z
loop_
_atom_site_type_symbol
_atom_site_label
_atom_site_fract_x
_atom_site_fract_y
_atom_site_fract_z
Si Si1 0.068087 0.398886 0.932770
Si Si2 0.067668 0.107921 0.948239
Si Si3 0.434564 0.800372 0.314618
Si Si4 0.567001 0.450231 0.685077
Si Si5 0.065825 0.553279 0.190514
Si Si6 0.565573 0.208086 0.996647
O O1 0.250000 0.401308 0.975935
O O2 0.030151 0.347132 0.864630
O O3 0.030036 0.441415 0.824358
O O4 0.962878 0.408586 0.067237
O O5 0.250000 0.100923 0.985391
O O6 0.026417 0.073459 0.821547
O O7 0.028575 0.164540 0.920886
O O8 0.961249 0.093525 0.078930
O O9 0.250000 0.812377 0.325440
O O10 0.484310 0.756744 0.415991
O O11 0.481189 0.786751 0.157635
O O12 0.500000 0.500000 0.618064
O O13 0.750000 0.453843 0.720656
O O14 0.250000 0.550213 0.224669
O O15 0.000000 0.500000 0.151084
O O16 0.750000 0.197837 0.978368
#
# Coordination Sequence:
#
# PCOD8193180 Si02
#       6
#     8   8   8   8   8   8
#     4  12  25  43  66  98 135 172 217 272 329 389
#     4  12  25  43  66  98 135 172 217 272 329 389
#     4  10  22  41  66  97 132 173 220 269 327 392
#     4  12  24  42  67  96 129 172 218 267 325 389
#     4  12  26  46  69  96 133 176 222 271 327 393
#     4  10  22  41  66  97 132 173 220 269 327 392
#
# _framework density 21.338757000000001
#
# number of rings (size 3 to 8) (size 9 to 14) (size 15 to 20)
#    0.000    0.667    1.667    7.000    2.333    0.667 
#    0.000    0.000    0.000    0.000    0.000    0.000 
#    0.000    0.000    0.000    0.000    0.000    0.000 
#
# Total GULP energy -297786.562017 kJ/mol
# GULP energy per Si atom -12407.773417 kJ/mol
# Density = 2.129019 g / cm^3
# Si number density = 21.338757 Si / 1000 Ang^3
#
#
#
# Elastic Constant Matrix: (Units=GPa)
#
#
# Indices 1 2 3 4 5 6 
#
# 1 78.4800 48.1413 23.1250 0.0007 -0.0017 0.0018
# 2 48.1413 108.4385 31.0745 -0.0017 -0.0046 0.0090
# 3 23.1250 31.0745 97.0320 0.0004 -0.0124 0.0162
# 4 0.0007 -0.0017 0.0004 40.0017 -0.0070 0.0087
# 5 -0.0017 -0.0046 -0.0124 -0.0070 40.8576 0.0073
# 6 0.0018 0.0090 0.0162 0.0087 0.0073 59.8341
#
#
#
# Elastic Compliance Matrix: (Units=1/GPa)
#
#
# Indices 1 2 3 4 5 6 
#
# 1 0.017819 -0.007370 -0.001886 -0.000001 -0.000001 0.000001
# 2 -0.007370 0.013202 -0.002471 0.000001 0.000000 -0.000001
# 3 -0.001886 -0.002471 0.011547 0.000000 0.000003 -0.000003
# 4 -0.000001 0.000001 0.000000 0.024999 0.000004 -0.000004
# 5 -0.000001 0.000000 0.000003 0.000004 0.024475 -0.000003
# 6 0.000001 -0.000001 -0.000003 -0.000004 -0.000003 0.016713
#
#
# Mechanical properties :
#
#
# Convention : Reuss Voigt Hill
#
# Bulk Modulus (GPa) = 52.32343 54.29246 53.30794
# Shear Modulus (GPa) = 36.07981 40.24600 38.16290
#
# Velocity S-wave (km/s) = 4.11641 4.34758 4.23357
# Velocity P-wave (km/s) = 6.86780 7.12041 6.99525
#
# Compressibility (1/GPa) = 0.01911190
#
# Stress axis : x y z
#
# Youngs Moduli (GPa) = 56.12000 75.74585 86.60308
#
# Poissons Ratio (x) = 0.55826 0.16337
# Poissons Ratio (y) = 0.41361 0.21404
# Poissons Ratio (z) = 0.10586 0.18720
#
# Static dielectric constant tensor:
#      x y z
#    x 3.695820 0.000010 0.000000 
#    y 0.000010 3.904570 0.000000 
#    z 0.000000 0.000000 4.020700 
# 
# 
# High freq. dielectric constant tensor:
#      x y z
#    x 1.838290 0.000000 0.000000 
#    y 0.000000 1.848560 0.000000 
#    z 0.000000 0.000000 1.843620 
# 
# From -- ./inp_files/3940.got.cif
#   From: 2010.03.12/outbox.cif.g09.slc.cpg/sg46_2_cif.got.tgz:3940.got - 2010.04.14 02:56:35.
