data_PCOD8193026
_publ_section_title
;
Structure prediction by ZEFSAII (Michael W. Deem and Ramdas Pophale) SiO2 
 PCOD8193026
Probable space group: I M A 2
;
_chemical_formula_sum "Si O2"
_cell_formula_units_Z 48
_cell_length_a 8.415363
_cell_length_b 20.326463
_cell_length_c 14.365749
_cell_angle_alpha 90.000000
_cell_angle_beta 90.000000
_cell_angle_gamma 90.000000
_cell_volume 2457.326941
_symmetry_space_group_name_H-M "I M A 2"
_symmetry_group_IT_number 46
_symmetry_cell_setting 'orthorhombic'
loop_
_space_group_symop_operation_xyz
x,y,z
-x,-y,z
1/2-x,y,z
1/2+x,-y,z
1/2+x,1/2+y,1/2+z
1/2-x,1/2-y,1/2+z
-x,1/2+y,1/2+z
x,1/2-y,1/2+z
loop_
_atom_site_type_symbol
_atom_site_label
_atom_site_fract_x
_atom_site_fract_y
_atom_site_fract_z
Si Si1 0.437410 0.187760 0.980590
Si Si2 0.935165 0.879279 0.653034
Si Si3 0.067536 0.762961 0.163967
Si Si4 0.565548 0.690748 0.851790
Si Si5 0.562197 0.929313 0.851449
Si Si6 0.435350 0.571571 0.963742
O O1 0.250000 0.184303 0.997599
O O2 0.485519 0.252541 0.923346
O O3 0.501261 0.124353 0.924674
O O4 0.526777 0.188629 0.078885
O O5 0.750000 0.894126 0.635472
O O6 0.999553 0.911220 0.748468
O O7 0.956930 0.801063 0.657489
O O8 0.036528 0.911937 0.571613
O O9 0.250000 0.740961 0.159315
O O10 0.035598 0.802639 0.258201
O O11 0.750000 0.696848 0.826140
O O12 0.530809 0.621111 0.898218
O O13 0.750000 0.928048 0.850694
O O14 0.500000 0.000000 0.883099
O O15 0.500000 0.500000 0.939492
O O16 0.250000 0.576341 0.941473
#
# Coordination Sequence:
#
# PCOD8193026 Si02
#       6
#     8   8   8   8   8   8
#     4  10  21  40  63  86 119 162 206 247 303 368
#     4  11  21  38  61  89 126 165 203 248 307 368
#     4  12  24  37  60  95 126 155 203 260 306 359
#     4  11  22  41  66  88 120 164 206 253 305 366
#     4  10  22  39  60  88 121 160 201 246 298 359
#     4  12  25  41  61  92 127 163 205 252 310 371
#
# _framework density 19.533421000000001
#
# number of rings (size 3 to 8) (size 9 to 14) (size 15 to 20)
#    0.000    1.000    3.333    4.500    0.000    4.000 
#    0.000    0.833    0.000    2.000    0.000    0.000 
#    0.000    0.000    0.000    0.000    0.000    0.000 
#
# Total GULP energy -297781.700348 kJ/mol
# GULP energy per Si atom -12407.570848 kJ/mol
# Density = 1.948896 g / cm^3
# Si number density = 19.533421 Si / 1000 Ang^3
#
#
#
# Elastic Constant Matrix: (Units=GPa)
#
#
# Indices 1 2 3 4 5 6 
#
# 1 56.0885 9.6163 22.7631 0.0000 0.0000 0.0000
# 2 9.6163 135.0412 43.6295 0.0001 0.0000 0.0000
# 3 22.7631 43.6295 108.7552 0.0000 -0.0001 0.0000
# 4 0.0000 0.0001 0.0000 48.2715 0.0000 0.0000
# 5 0.0000 0.0000 -0.0001 0.0000 26.3493 0.0000
# 6 0.0000 0.0000 0.0000 0.0000 0.0000 30.8514
#
#
#
# Elastic Compliance Matrix: (Units=1/GPa)
#
#
# Indices 1 2 3 4 5 6 
#
# 1 0.019485 -0.000080 -0.004046 0.000000 0.000000 0.000000
# 2 -0.000080 0.008508 -0.003396 0.000000 0.000000 0.000000
# 3 -0.004046 -0.003396 0.011404 0.000000 0.000000 0.000000
# 4 0.000000 0.000000 0.000000 0.020716 0.000000 0.000000
# 5 0.000000 0.000000 0.000000 0.000000 0.037952 0.000000
# 6 0.000000 0.000000 0.000000 0.000000 0.000000 0.032413
#
#
# Mechanical properties :
#
#
# Convention : Reuss Voigt Hill
#
# Bulk Modulus (GPa) = 41.06477 50.21141 45.63809
# Shear Modulus (GPa) = 32.54328 36.01950 34.28139
#
# Velocity S-wave (km/s) = 4.08613 4.29883 4.19383
# Velocity P-wave (km/s) = 6.58259 7.09938 6.84586
#
# Compressibility (1/GPa) = 0.02435177
#
# Stress axis : x y z
#
# Youngs Moduli (GPa) = 51.32203 117.53370 87.68558
#
# Poissons Ratio (x) = 0.00944 0.35478
# Poissons Ratio (y) = 0.00412 0.29782
# Poissons Ratio (z) = 0.20765 0.39920
#
# Static dielectric constant tensor:
#      x y z
#    x 3.459170 0.000000 0.000000 
#    y 0.000000 0.269490 0.000000 
#    z 0.000000 0.000000 3.685630 
# 
# 
# High freq. dielectric constant tensor:
#      x y z
#    x 1.761640 0.000000 0.000000 
#    y 0.000000 1.758850 0.000000 
#    z 0.000000 0.000000 1.763430 
# 
# From -- ./inp_files/13895.got.cif
#   From: 2010.03.12/outbox.cif.g09.slc.cpg/sg46_7_cif.got.tgz:13895.got - 2010.04.14 02:56:35.
