data_PCOD8193612
_publ_section_title
;
Structure prediction by ZEFSAII (Michael W. Deem and Ramdas Pophale) SiO2 
 PCOD8193612
Probable space group: P M M M
;
_chemical_formula_sum "Si O2"
_cell_formula_units_Z 52
_cell_length_a 8.368382
_cell_length_b 14.478832
_cell_length_c 23.400321
_cell_angle_alpha 90.000000
_cell_angle_beta 90.000000
_cell_angle_gamma 90.000000
_cell_volume 2835.285786
_symmetry_space_group_name_H-M "P M M M"
_symmetry_group_IT_number 47
_symmetry_cell_setting 'orthorhombic'
loop_
_space_group_symop_operation_xyz
x,y,z
-x,-y,z
x,-y,-z
-x,y,-z
-x,-y,-z
x,y,-z
-x,y,z
x,-y,z
loop_
_atom_site_type_symbol
_atom_site_label
_atom_site_fract_x
_atom_site_fract_y
_atom_site_fract_z
Si Si1 0.189906 0.205172 0.386480
Si Si2 0.189986 0.895486 0.500000
Si Si3 0.187214 0.214139 0.830738
Si Si4 0.190243 0.103779 0.063135
Si Si5 0.685710 0.893840 0.275107
Si Si6 0.810683 0.399874 0.651524
Si Si7 0.190158 0.600978 0.780172
O O1 0.253630 0.158167 0.444337
O O2 0.272729 0.155618 0.333903
O O3 0.243234 0.313442 0.387595
O O4 0.000000 0.195135 0.380078
O O5 0.000000 0.896592 0.500000
O O6 0.257307 0.000000 0.500000
O O7 0.264538 0.170805 0.888287
O O8 0.215737 0.149068 0.776707
O O9 0.260584 0.316644 0.819563
O O10 0.000000 0.223004 0.840235
O O11 0.000000 0.103278 0.066663
O O12 0.253846 0.000000 0.074194
O O13 0.245120 0.137593 0.000000
O O14 0.500000 0.882166 0.261593
O O15 0.736265 0.000000 0.281043
O O16 0.748226 0.500000 0.627892
O O17 0.744930 0.384773 0.715778
O O18 0.000000 0.402978 0.654012
O O19 0.244997 0.500000 0.803403
O O20 0.000000 0.607009 0.779293
#
# Coordination Sequence:
#
# PCOD8193612 Si02
#       7
#     8   4   8   8   8   8   8
#     4  10  18  32  52  70  89 120 157 187 221 272
#     4   9  18  30  46  70  94 115 149 199 234 253
#     4  10  17  28  49  71  88 118 160 189 220 272
#     4   8  14  24  39  63  93 119 148 191 231 260
#     4  11  23  34  44  65  97 123 145 187 240 274
#     4   8  13  23  42  68  94 116 142 182 228 269
#     4   8  13  22  39  66  94 115 142 184 230 269
#
# _framework density 18.340302000000001
#
# number of rings (size 3 to 8) (size 9 to 14) (size 15 to 20)
#    0.000    2.846    1.538    2.769    0.000    2.462 
#    0.000    0.769    0.000    6.462    0.000    5.385 
#    0.000    1.231    0.000    1.385    0.000    1.692 
#
# Total GULP energy -644348.989074 kJ/mol
# GULP energy per Si atom -12391.326713 kJ/mol
# Density = 1.829856 g / cm^3
# Si number density = 18.340302 Si / 1000 Ang^3
#
#
#
# Elastic Constant Matrix: (Units=GPa)
#
#
# Indices 1 2 3 4 5 6 
#
# 1 4.6022 4.2550 -2.5513 0.0000 0.0000 0.0000
# 2 4.2550 187.8446 87.0572 0.0000 0.0000 0.0000
# 3 -2.5513 87.0572 133.0864 0.0000 0.0000 0.0000
# 4 0.0000 0.0000 0.0000 33.0218 0.0000 0.0000
# 5 0.0000 0.0000 0.0000 0.0000 1.9453 0.0000
# 6 0.0000 0.0000 0.0000 0.0000 0.0000 7.4414
#
#
#
# Elastic Compliance Matrix: (Units=1/GPa)
#
#
# Indices 1 2 3 4 5 6 
#
# 1 0.233362 -0.010561 0.011382 0.000000 0.000000 0.000000
# 2 -0.010561 0.008118 -0.005512 0.000000 0.000000 0.000000
# 3 0.011382 -0.005512 0.011338 0.000000 0.000000 0.000000
# 4 0.000000 0.000000 0.000000 0.030283 0.000000 0.000000
# 5 0.000000 0.000000 0.000000 0.000000 0.514071 0.000000
# 6 0.000000 0.000000 0.000000 0.000000 0.000000 0.134383
#
#
# Mechanical properties :
#
#
# Convention : Reuss Voigt Hill
#
# Bulk Modulus (GPa) = 4.10788 55.89498 30.00143
# Shear Modulus (GPa) = 4.89198 24.26653 14.57925
#
# Velocity S-wave (km/s) = 1.63497 3.64143 2.82251
# Velocity P-wave (km/s) = 2.41015 6.94426 5.19767
#
# Compressibility (1/GPa) = 0.24343453
#
# Stress axis : x y z
#
# Youngs Moduli (GPa) = 4.28519 123.18997 88.19867
#
# Poissons Ratio (x) = 1.30101 -1.00388
# Poissons Ratio (y) = 0.04526 0.48619
# Poissons Ratio (z) = -0.04877 0.67908
#
# Static dielectric constant tensor:
#      x y z
#    x 2.787470 0.000000 0.000000 
#    y 0.000000 4.037880 0.000000 
#    z 0.000000 0.000000 3.506360 
# 
# 
# High freq. dielectric constant tensor:
#      x y z
#    x 1.654490 0.000000 0.000000 
#    y 0.000000 1.728000 0.000000 
#    z 0.000000 0.000000 1.693040 
# 
# From -- ./inp_files/31986.got.cif
#   From: 2010.03.12/outbox.cif.g09.slc.cpg/sg47_16_cif.got.tgz:31986.got - 2010.04.14 03:12:58.
