data_PCOD8193298
_publ_section_title
;
Structure prediction by ZEFSAII (Michael W. Deem and Ramdas Pophale) SiO2 
 PCOD8193298
Probable space group: I M A 2
;
_chemical_formula_sum "Si O2"
_cell_formula_units_Z 64
_cell_length_a 8.869957
_cell_length_b 20.644917
_cell_length_c 19.429816
_cell_angle_alpha 90.000000
_cell_angle_beta 90.000000
_cell_angle_gamma 90.000000
_cell_volume 3557.978697
_symmetry_space_group_name_H-M "I M A 2"
_symmetry_group_IT_number 46
_symmetry_cell_setting 'orthorhombic'
loop_
_space_group_symop_operation_xyz
x,y,z
-x,-y,z
1/2-x,y,z
1/2+x,-y,z
1/2+x,1/2+y,1/2+z
1/2-x,1/2-y,1/2+z
-x,1/2+y,1/2+z
x,1/2-y,1/2+z
loop_
_atom_site_type_symbol
_atom_site_label
_atom_site_fract_x
_atom_site_fract_y
_atom_site_fract_z
Si Si1 0.423827 0.771822 0.507730
Si Si2 0.073614 0.763473 0.357554
Si Si3 0.579155 0.380916 0.507208
Si Si4 0.573025 0.933274 0.136284
Si Si5 0.426644 0.064795 0.722270
Si Si6 0.073040 0.193321 0.642009
Si Si7 0.573782 0.380080 0.350834
Si Si8 0.426805 0.815596 0.213748
O O1 0.250000 0.792218 0.518405
O O2 0.484678 0.790806 0.431048
O O3 0.444363 0.695266 0.518222
O O4 0.527644 0.809836 0.561833
O O5 0.250000 0.751121 0.368257
O O6 0.006802 0.692528 0.340517
O O7 0.037808 0.812466 0.295557
O O8 0.750000 0.399717 0.526931
O O9 0.467650 0.419617 0.556938
O O10 0.543615 0.401945 0.429237
O O11 0.750000 0.938356 0.144283
O O12 0.513851 0.876838 0.185291
O O13 0.500000 0.000000 0.161603
O O14 0.250000 0.055455 0.722736
O O15 0.475671 0.125669 0.675934
O O16 0.483242 0.073082 0.800439
O O17 0.500000 0.000000 0.690513
O O18 0.250000 0.206914 0.650011
O O19 0.980446 0.250080 0.678104
O O20 0.750000 0.383858 0.332364
O O21 0.250000 0.823325 0.199128
#
# Coordination Sequence:
#
# PCOD8193298 Si02
#       8
#     8   8   8   8   8   8   8   8
#     4   9  17  32  56  83 110 142 179 219 267 323
#     4   8  16  31  55  85 110 138 178 220 264 322
#     4   9  18  33  54  80 110 145 185 222 263 321
#     4  12  25  39  55  78 111 147 187 228 272 323
#     4  11  24  38  53  76 110 147 188 230 273 325
#     4  11  22  35  53  83 113 141 181 229 274 321
#     4   9  17  33  55  79 109 145 184 222 264 320
#     4  11  20  35  60  84 109 143 181 223 272 324
#
# _framework density 17.987739999999999
#
# number of rings (size 3 to 8) (size 9 to 14) (size 15 to 20)
#    0.000    2.000    2.500    3.750    0.000    2.500 
#    0.000    3.125    0.000    0.750    0.000    1.750 
#    0.000    0.000    0.000    0.000    0.000    0.000 
#
# Total GULP energy -396807.999002 kJ/mol
# GULP energy per Si atom -12400.249969 kJ/mol
# Density = 1.794680 g / cm^3
# Si number density = 17.987740 Si / 1000 Ang^3
#
#
#
# Elastic Constant Matrix: (Units=GPa)
#
#
# Indices 1 2 3 4 5 6 
#
# 1 89.9348 52.5529 43.4661 0.0000 0.0000 0.0000
# 2 52.5529 108.2485 55.2190 0.0000 0.0000 0.0000
# 3 43.4661 55.2190 107.4274 0.0000 0.0000 0.0000
# 4 0.0000 0.0000 0.0000 17.5137 0.0000 0.0000
# 5 0.0000 0.0000 0.0000 0.0000 15.1100 0.0000
# 6 0.0000 0.0000 0.0000 0.0000 0.0000 26.7192
#
#
#
# Elastic Compliance Matrix: (Units=1/GPa)
#
#
# Indices 1 2 3 4 5 6 
#
# 1 0.016415 -0.006209 -0.003450 0.000000 0.000000 0.000000
# 2 -0.006209 0.014870 -0.005131 0.000000 0.000000 0.000000
# 3 -0.003450 -0.005131 0.013342 0.000000 0.000000 0.000000
# 4 0.000000 0.000000 0.000000 0.057098 0.000000 0.000000
# 5 0.000000 0.000000 0.000000 0.000000 0.066181 0.000000
# 6 0.000000 0.000000 0.000000 0.000000 0.000000 0.037426
#
#
# Mechanical properties :
#
#
# Convention : Reuss Voigt Hill
#
# Bulk Modulus (GPa) = 66.46188 67.56520 67.01354
# Shear Modulus (GPa) = 20.83954 22.16008 21.49981
#
# Velocity S-wave (km/s) = 3.40743 3.51373 3.46099
# Velocity P-wave (km/s) = 7.24634 7.35561 7.30118
#
# Compressibility (1/GPa) = 0.01504622
#
# Stress axis : x y z
#
# Youngs Moduli (GPa) = 60.92012 67.24992 74.95193
#
# Poissons Ratio (x) = 0.41758 0.25858
# Poissons Ratio (y) = 0.37827 0.38458
# Poissons Ratio (z) = 0.21017 0.34506
#
# Static dielectric constant tensor:
#      x y z
#    x 3.183660 0.000000 0.000000 
#    y 0.000000 3.211450 0.000000 
#    z 0.000000 0.000000 3.572990 
# 
# 
# High freq. dielectric constant tensor:
#      x y z
#    x 1.688230 0.000000 0.000000 
#    y 0.000000 1.674080 0.000000 
#    z 0.000000 0.000000 1.702190 
# 
# From -- ./inp_files/21277.got.cif
#   From: 2010.03.12/outbox.cif.g09.slc.cpg/sg46_11_cif.got.tgz:21277.got - 2010.04.14 02:56:35.
