data_PCOD8193482
_publ_section_title
;
Structure prediction by ZEFSAII (Michael W. Deem and Ramdas Pophale) SiO2 
 PCOD8193482
Probable space group: P M M M
;
_chemical_formula_sum "Si O2"
_cell_formula_units_Z 48
_cell_length_a 19.830789
_cell_length_b 8.084632
_cell_length_c 22.472984
_cell_angle_alpha 90.000000
_cell_angle_beta 90.000000
_cell_angle_gamma 90.000000
_cell_volume 3602.972875
_symmetry_space_group_name_H-M "P M M M"
_symmetry_group_IT_number 47
_symmetry_cell_setting 'orthorhombic'
loop_
_space_group_symop_operation_xyz
x,y,z
-x,-y,z
x,-y,-z
-x,y,-z
-x,-y,-z
x,y,-z
-x,y,z
x,-y,z
loop_
_atom_site_type_symbol
_atom_site_label
_atom_site_fract_x
_atom_site_fract_y
_atom_site_fract_z
Si Si1 0.923474 0.697542 0.500000
Si Si2 0.080349 0.000000 0.067487
Si Si3 0.074874 0.304520 0.726325
Si Si4 0.919689 0.686122 0.858588
Si Si5 0.712854 0.189748 0.432746
Si Si6 0.572668 0.311101 0.570385
Si Si7 0.153414 0.692194 0.614635
O O1 0.921108 0.500000 0.500000
O O2 0.885342 0.770124 0.442075
O O3 0.000000 0.762386 0.500000
O O4 0.108103 0.830645 0.097977
O O5 0.000000 0.000000 0.070698
O O6 0.106559 0.000000 0.000000
O O7 0.069611 0.500000 0.720033
O O8 0.103606 0.262981 0.791955
O O9 0.124620 0.229011 0.675920
O O10 0.000000 0.227880 0.717491
O O11 0.892921 0.500000 0.875952
O O12 0.000000 0.680263 0.860363
O O13 0.716243 0.264279 0.500000
O O14 0.637631 0.212250 0.405195
O O15 0.766518 0.280008 0.390572
O O16 0.732097 0.000000 0.433951
O O17 0.570800 0.292769 0.500000
O O18 0.500000 0.244002 0.595232
O O19 0.581525 0.500000 0.589794
O O20 0.137860 0.500000 0.616105
#
# Coordination Sequence:
#
# PCOD8193482 Si02
#       7
#     4   4   8   8   8   8   8
#     4   9  16  24  37  55  66  77 108 153 193 228
#     4   9  16  24  36  56  76  91 111 137 170 218
#     4   8  14  25  40  54  66  84 115 153 187 219
#     4   8  14  25  38  51  70  93 115 143 178 214
#     4  10  19  28  36  48  71  94 109 133 173 222
#     4   8  14  25  41  57  68  80 103 132 162 205
#     4  10  17  26  40  53  65  85 114 149 187 222
#
# _framework density 13.322333
#
# number of rings (size 3 to 8) (size 9 to 14) (size 15 to 20)
#    0.000    3.167    0.833    2.500    0.000    3.333 
#    1.500    3.333    0.000    2.000    0.000    0.000 
#    0.000    0.000    0.000    0.000    0.000    0.000 
#
# Total GULP energy -594661.377023 kJ/mol
# GULP energy per Si atom -12388.778688 kJ/mol
# Density = 1.329201 g / cm^3
# Si number density = 13.322333 Si / 1000 Ang^3
#
#
#
# Elastic Constant Matrix: (Units=GPa)
#
#
# Indices 1 2 3 4 5 6 
#
# 1 72.4406 12.1036 32.1098 0.0000 0.0000 0.0000
# 2 12.1036 41.2619 33.3582 0.0000 0.0000 0.0000
# 3 32.1098 33.3582 87.4924 0.0000 0.0000 0.0000
# 4 0.0000 0.0000 0.0000 11.7585 0.0000 0.0000
# 5 0.0000 0.0000 0.0000 0.0000 4.1489 0.0000
# 6 0.0000 0.0000 0.0000 0.0000 0.0000 5.1006
#
#
#
# Elastic Compliance Matrix: (Units=1/GPa)
#
#
# Indices 1 2 3 4 5 6 
#
# 1 0.016487 0.000080 -0.006081 0.000000 0.000000 0.000000
# 2 0.000080 0.035035 -0.013387 0.000000 0.000000 0.000000
# 3 -0.006081 -0.013387 0.018765 0.000000 0.000000 0.000000
# 4 0.000000 0.000000 0.000000 0.085045 0.000000 0.000000
# 5 0.000000 0.000000 0.000000 0.000000 0.241031 0.000000
# 6 0.000000 0.000000 0.000000 0.000000 0.000000 0.196057
#
#
# Mechanical properties :
#
#
# Convention : Reuss Voigt Hill
#
# Bulk Modulus (GPa) = 31.73539 39.59314 35.66426
# Shear Modulus (GPa) = 7.79182 12.44314 10.11748
#
# Velocity S-wave (km/s) = 2.42103 3.05947 2.75878
# Velocity P-wave (km/s) = 5.62922 6.50110 6.08081
#
# Compressibility (1/GPa) = 0.03151057
#
# Stress axis : x y z
#
# Youngs Moduli (GPa) = 60.65559 28.54314 53.28944
#
# Poissons Ratio (x) = -0.00229 0.32406
# Poissons Ratio (y) = -0.00487 0.71339
# Poissons Ratio (z) = 0.36886 0.38211
#
# Static dielectric constant tensor:
#      x y z
#    x 2.361390 0.000000 0.000000 
#    y 0.000000 2.597770 0.000000 
#    z 0.000000 0.000000 2.616580 
# 
# 
# High freq. dielectric constant tensor:
#      x y z
#    x 1.474500 0.000000 0.000000 
#    y 0.000000 1.501420 0.000000 
#    z 0.000000 0.000000 1.467050 
# 
# From -- ./inp_files/11723.got.cif
#   From: 2010.03.12/outbox.cif.g09.slc.cpg/sg47_6_cif.got.tgz:11723.got - 2010.04.14 03:12:58.
