data_PCOD8193106
_publ_section_title
;
Structure prediction by ZEFSAII (Michael W. Deem and Ramdas Pophale) SiO2 
 PCOD8193106
Probable space group: I M A 2
;
_chemical_formula_sum "Si O2"
_cell_formula_units_Z 64
_cell_length_a 26.987113
_cell_length_b 13.642352
_cell_length_c 9.849161
_cell_angle_alpha 90.000000
_cell_angle_beta 90.000000
_cell_angle_gamma 90.000000
_cell_volume 3626.142903
_symmetry_space_group_name_H-M "I M A 2"
_symmetry_group_IT_number 46
_symmetry_cell_setting 'orthorhombic'
loop_
_space_group_symop_operation_xyz
x,y,z
-x,-y,z
1/2-x,y,z
1/2+x,-y,z
1/2+x,1/2+y,1/2+z
1/2-x,1/2-y,1/2+z
-x,1/2+y,1/2+z
x,1/2-y,1/2+z
loop_
_atom_site_type_symbol
_atom_site_label
_atom_site_fract_x
_atom_site_fract_y
_atom_site_fract_z
Si Si1 0.442630 0.524102 0.342120
Si Si2 0.521459 0.272322 0.305736
Si Si3 0.543840 0.756173 0.052472
Si Si4 0.099650 0.448107 0.610310
Si Si5 0.306339 0.351381 0.699290
Si Si6 0.449162 0.945660 0.351654
Si Si7 0.693937 0.664110 0.013494
Si Si8 0.100047 0.439039 0.071902
O O1 0.500000 0.500000 0.373172
O O2 0.438078 0.640625 0.313965
O O3 0.405741 0.494902 0.462597
O O4 0.423079 0.462157 0.216302
O O5 0.501097 0.269789 0.153068
O O6 0.477112 0.297096 0.410509
O O7 0.546224 0.170861 0.349750
O O8 0.576958 0.839488 0.121720
O O9 0.576077 0.661361 0.016687
O O10 0.157022 0.440073 0.656357
O O11 0.069300 0.520252 0.706077
O O12 0.250000 0.389868 0.685547
O O13 0.316278 0.263117 0.595718
O O14 0.317126 0.316935 0.853789
O O15 0.500000 0.000000 0.390042
O O16 0.410044 0.972816 0.467998
O O17 0.750000 0.627971 0.035599
O O18 0.659152 0.578454 0.074619
#
# Coordination Sequence:
#
# PCOD8193106 Si02
#       8
#     8   8   8   8   8   8   8   8
#     4  12  24  38  53  83 115 155 193 237 280 337
#     4  12  24  36  52  76 114 152 192 242 264 324
#     4  12  20  32  55  78 114 148 187 228 276 336
#     4  12  22  36  57  83 115 156 188 226 292 347
#     4  10  22  38  59  88 118 149 190 239 288 345
#     4  12  22  36  55  79 107 155 199 229 278 345
#     4  10  22  38  59  88 118 149 190 239 288 345
#     4  12  22  36  57  83 115 156 188 226 292 347
#
# _framework density 17.649607
#
# number of rings (size 3 to 8) (size 9 to 14) (size 15 to 20)
#    0.000    0.500    7.500    2.250    1.750    0.000 
#    0.000    0.000    0.000    0.000    0.000    5.250 
#    0.000    0.000    0.000    0.000    0.000    0.000 
#
# Total GULP energy -396928.048058 kJ/mol
# GULP energy per Si atom -12404.001502 kJ/mol
# Density = 1.760944 g / cm^3
# Si number density = 17.649607 Si / 1000 Ang^3
#
#
#
# Elastic Constant Matrix: (Units=GPa)
#
#
# Indices 1 2 3 4 5 6 
#
# 1 81.7659 31.8617 13.5304 0.0000 0.0000 0.0000
# 2 31.8617 81.7466 5.3285 0.0000 0.0000 0.0000
# 3 13.5304 5.3285 68.8477 0.0000 0.0000 0.0000
# 4 0.0000 0.0000 0.0000 29.9358 0.0000 0.0000
# 5 0.0000 0.0000 0.0000 0.0000 26.6833 0.0000
# 6 0.0000 0.0000 0.0000 0.0000 0.0000 22.0738
#
#
#
# Elastic Compliance Matrix: (Units=1/GPa)
#
#
# Indices 1 2 3 4 5 6 
#
# 1 0.014830 -0.005618 -0.002480 0.000000 0.000000 0.000000
# 2 -0.005618 0.014424 -0.000012 0.000000 0.000000 0.000000
# 3 -0.002480 -0.000012 0.015013 0.000000 0.000000 0.000000
# 4 0.000000 0.000000 0.000000 0.033405 0.000000 0.000000
# 5 0.000000 0.000000 0.000000 0.000000 0.037477 0.000000
# 6 0.000000 0.000000 0.000000 0.000000 0.000000 0.045302
#
#
# Mechanical properties :
#
#
# Convention : Reuss Voigt Hill
#
# Bulk Modulus (GPa) = 35.65572 37.08905 36.37238
# Shear Modulus (GPa) = 26.87896 27.84790 27.36343
#
# Velocity S-wave (km/s) = 3.90670 3.97649 3.94175
# Velocity P-wave (km/s) = 6.37146 6.49176 6.43189
#
# Compressibility (1/GPa) = 0.02804599
#
# Stress axis : x y z
#
# Youngs Moduli (GPa) = 67.43240 69.33109 66.60865
#
# Poissons Ratio (x) = 0.38953 0.16516
# Poissons Ratio (y) = 0.37886 0.00081
# Poissons Ratio (z) = 0.16720 0.00084
#
# Static dielectric constant tensor:
#      x y z
#    x 3.267730 0.000000 0.000000 
#    y 0.000000 3.265890 0.000000 
#    z 0.000000 0.000000 3.408640 
# 
# 
# High freq. dielectric constant tensor:
#      x y z
#    x 1.659240 0.000000 0.000000 
#    y 0.000000 1.668130 0.000000 
#    z 0.000000 0.000000 1.703810 
# 
# From -- ./inp_files/8536.got.cif
#   From: 2010.03.12/outbox.cif.g09.slc.cpg/sg46_5_cif.got.tgz:8536.got - 2010.04.14 02:56:35.
