data_PCOD8193696
_publ_section_title
;
Structure prediction by ZEFSAII (Michael W. Deem and Ramdas Pophale) SiO2 
 PCOD8193696
Probable space group: P M M M
;
_chemical_formula_sum "Si O2"
_cell_formula_units_Z 48
_cell_length_a 18.644329
_cell_length_b 8.153955
_cell_length_c 23.588998
_cell_angle_alpha 90.000000
_cell_angle_beta 90.000000
_cell_angle_gamma 90.000000
_cell_volume 3586.117885
_symmetry_space_group_name_H-M "P M M M"
_symmetry_group_IT_number 47
_symmetry_cell_setting 'orthorhombic'
loop_
_space_group_symop_operation_xyz
x,y,z
-x,-y,z
x,-y,-z
-x,y,-z
-x,-y,-z
x,y,-z
-x,y,z
x,-y,z
loop_
_atom_site_type_symbol
_atom_site_label
_atom_site_fract_x
_atom_site_fract_y
_atom_site_fract_z
Si Si1 0.585381 0.316275 0.132515
Si Si2 0.774289 0.191033 0.436630
Si Si3 0.077073 0.688472 0.433103
Si Si4 0.419921 0.691015 0.259717
Si Si5 0.414562 0.000000 0.064393
Si Si6 0.500000 0.195757 0.435742
Si Si7 0.638806 0.191798 0.628649
O O1 0.500000 0.320499 0.130586
O O2 0.613083 0.500000 0.113924
O O3 0.610261 0.276259 0.196605
O O4 0.615193 0.168191 0.093227
O O5 0.769850 0.269452 0.500000
O O6 0.852597 0.221809 0.408184
O O7 0.711923 0.269377 0.397264
O O8 0.761383 0.000000 0.441570
O O9 0.076705 0.714115 0.500000
O O10 0.083523 0.500000 0.416353
O O11 0.000000 0.757033 0.409484
O O12 0.500000 0.767495 0.266266
O O13 0.423802 0.500000 0.272021
O O14 0.365883 0.772492 0.304413
O O15 0.500000 0.000000 0.067935
O O16 0.387200 0.000000 0.000000
O O17 0.500000 0.260751 0.500000
O O18 0.429949 0.267054 0.403924
O O19 0.500000 0.000000 0.434197
O O20 0.640286 0.000000 0.618452
#
# Coordination Sequence:
#
# PCOD8193696 Si02
#       7
#     8   8   8   8   4   4   8
#     4   8  15  26  37  51  70  93 115 145 183 216
#     4   9  17  27  37  52  73  90 108 139 180 225
#     4   8  14  25  40  55  68  84 107 131 161 211
#     4   9  17  28  39  50  66  86 115 153 186 213
#     4   9  16  24  36  56  74  92 114 140 175 222
#     4   9  16  26  37  49  65  85 113 146 181 222
#     4  10  18  26  38  54  65  87 119 148 182 219
#
# _framework density 13.384948
#
# number of rings (size 3 to 8) (size 9 to 14) (size 15 to 20)
#    0.000    3.167    0.833    2.000    1.167    3.333 
#    0.000    3.333    0.000    2.000    0.000    0.000 
#    0.000    0.000    0.000    0.000    0.000    0.000 
#
# Total GULP energy -594650.656541 kJ/mol
# GULP energy per Si atom -12388.555345 kJ/mol
# Density = 1.335448 g / cm^3
# Si number density = 13.384948 Si / 1000 Ang^3
#
#
#
# Elastic Constant Matrix: (Units=GPa)
#
#
# Indices 1 2 3 4 5 6 
#
# 1 86.3296 21.7790 35.3291 0.0000 0.0000 0.0000
# 2 21.7790 42.7354 31.6046 0.0000 0.0000 0.0000
# 3 35.3291 31.6046 76.4845 0.0000 0.0000 0.0000
# 4 0.0000 0.0000 0.0000 13.6545 0.0000 0.0000
# 5 0.0000 0.0000 0.0000 0.0000 4.7398 0.0000
# 6 0.0000 0.0000 0.0000 0.0000 0.0000 10.5548
#
#
#
# Elastic Compliance Matrix: (Units=1/GPa)
#
#
# Indices 1 2 3 4 5 6 
#
# 1 0.014647 -0.003544 -0.005301 0.000000 0.000000 0.000000
# 2 -0.003544 0.034555 -0.012642 0.000000 0.000000 0.000000
# 3 -0.005301 -0.012642 0.020747 0.000000 0.000000 0.000000
# 4 0.000000 0.000000 0.000000 0.073236 0.000000 0.000000
# 5 0.000000 0.000000 0.000000 0.000000 0.210977 0.000000
# 6 0.000000 0.000000 0.000000 0.000000 0.000000 0.094744
#
#
# Mechanical properties :
#
#
# Convention : Reuss Voigt Hill
#
# Bulk Modulus (GPa) = 37.07104 42.55277 39.81191
# Shear Modulus (GPa) = 9.98260 13.57894 11.78077
#
# Velocity S-wave (km/s) = 2.73391 3.18857 2.96995
# Velocity P-wave (km/s) = 6.14181 6.73917 6.44742
#
# Compressibility (1/GPa) = 0.02697523
#
# Stress axis : x y z
#
# Youngs Moduli (GPa) = 68.27327 28.93938 48.19984
#
# Poissons Ratio (x) = 0.10256 0.25552
# Poissons Ratio (y) = 0.24196 0.60933
# Poissons Ratio (z) = 0.36193 0.36584
#
# Static dielectric constant tensor:
#      x y z
#    x 2.634810 0.000000 0.000000 
#    y 0.000000 2.660680 0.000000 
#    z 0.000000 0.000000 2.578820 
# 
# 
# High freq. dielectric constant tensor:
#      x y z
#    x 1.470190 0.000000 0.000000 
#    y 0.000000 1.507830 0.000000 
#    z 0.000000 0.000000 1.476930 
# 
# From -- ./inp_files/31238.got.cif
#   From: 2010.03.12/outbox.cif.g09.slc.cpg/sg47_16_cif.got.tgz:31238.got - 2010.04.14 03:12:58.
