data_PCOD8193299
_publ_section_title
;
Structure prediction by ZEFSAII (Michael W. Deem and Ramdas Pophale) SiO2 
 PCOD8193299
Probable space group: I M A 2
;
_chemical_formula_sum "Si O2"
_cell_formula_units_Z 40
_cell_length_a 16.730993
_cell_length_b 15.003027
_cell_length_c 7.703996
_cell_angle_alpha 90.000000
_cell_angle_beta 90.000000
_cell_angle_gamma 90.000000
_cell_volume 1933.822714
_symmetry_space_group_name_H-M "I M A 2"
_symmetry_group_IT_number 46
_symmetry_cell_setting 'orthorhombic'
loop_
_space_group_symop_operation_xyz
x,y,z
-x,-y,z
1/2-x,y,z
1/2+x,-y,z
1/2+x,1/2+y,1/2+z
1/2-x,1/2-y,1/2+z
-x,1/2+y,1/2+z
x,1/2-y,1/2+z
loop_
_atom_site_type_symbol
_atom_site_label
_atom_site_fract_x
_atom_site_fract_y
_atom_site_fract_z
Si Si1 0.057979 0.584802 0.211910
Si Si2 0.659713 0.840140 0.926742
Si Si3 0.410292 0.978946 0.067228
Si Si4 0.910128 0.665503 0.068717
Si Si5 0.156531 0.506620 0.921202
O O1 0.092524 0.594034 0.409152
O O2 0.000000 0.500000 0.219135
O O3 0.000870 0.664845 0.146559
O O4 0.130608 0.571277 0.078611
O O5 0.750000 0.816634 0.981156
O O6 0.654110 0.850800 0.720376
O O7 0.634863 0.931632 0.013136
O O8 0.600485 0.761325 0.982907
O O9 0.365331 0.943904 0.239830
O O10 0.500000 0.000000 0.122614
O O11 0.892365 0.587202 0.928986
O O12 0.250000 0.488167 0.933585
#
# Coordination Sequence:
#
# PCOD8193299 Si02
#       5
#     8   8   8   8   8
#     4   9  19  39  57  78 118 167 211 247 290 372
#     4  12  22  34  57  90 129 160 195 249 313 370
#     4  11  20  37  59  82 120 165 210 246 294 373
#     4  11  22  38  53  87 133 169 199 247 319 383
#     4  11  21  34  57  87 118 155 206 259 308 362
#
# _framework density 20.684421
#
# number of rings (size 3 to 8) (size 9 to 14) (size 15 to 20)
#    0.000    1.200    6.000    5.400    0.000    0.800 
#    0.000    0.000    0.000    0.000    0.000    7.000 
#    0.000    0.000    0.000    0.000    0.000    0.000 
#
# Total GULP energy -247949.254924 kJ/mol
# GULP energy per Si atom -12397.462746 kJ/mol
# Density = 2.063734 g / cm^3
# Si number density = 20.684421 Si / 1000 Ang^3
#
#
#
# Elastic Constant Matrix: (Units=GPa)
#
#
# Indices 1 2 3 4 5 6 
#
# 1 87.5171 29.9832 52.1422 0.0000 0.0000 0.0000
# 2 29.9832 36.1529 14.4509 0.0000 0.0000 0.0000
# 3 52.1422 14.4509 140.1159 0.0000 0.0000 0.0000
# 4 0.0000 0.0000 0.0000 17.9120 0.0000 0.0000
# 5 0.0000 0.0000 0.0000 0.0000 20.1291 0.0000
# 6 0.0000 0.0000 0.0000 0.0000 0.0000 24.1992
#
#
#
# Elastic Compliance Matrix: (Units=1/GPa)
#
#
# Indices 1 2 3 4 5 6 
#
# 1 0.019745 -0.014016 -0.005902 0.000000 0.000000 0.000000
# 2 -0.014016 0.038799 0.001214 0.000000 0.000000 0.000000
# 3 -0.005902 0.001214 0.009208 0.000000 0.000000 0.000000
# 4 0.000000 0.000000 0.000000 0.055829 0.000000 0.000000
# 5 0.000000 0.000000 0.000000 0.000000 0.049679 0.000000
# 6 0.000000 0.000000 0.000000 0.000000 0.000000 0.041324
#
#
# Mechanical properties :
#
#
# Convention : Reuss Voigt Hill
#
# Bulk Modulus (GPa) = 32.95529 50.77095 41.86312
# Shear Modulus (GPa) = 19.07629 23.59537 21.33583
#
# Velocity S-wave (km/s) = 3.04016 3.38114 3.21517
# Velocity P-wave (km/s) = 5.31887 6.31202 5.83661
#
# Compressibility (1/GPa) = 0.03034414
#
# Stress axis : x y z
#
# Youngs Moduli (GPa) = 50.64671 25.77388 108.59982
#
# Poissons Ratio (x) = 0.36124 0.64097
# Poissons Ratio (y) = 0.70986 -0.13187
# Poissons Ratio (z) = 0.29892 -0.03130
#
# Static dielectric constant tensor:
#      x y z
#    x 3.961600 0.000000 0.000000 
#    y 0.000000 3.337420 0.000000 
#    z 0.000000 0.000000 4.239420 
# 
# 
# High freq. dielectric constant tensor:
#      x y z
#    x 1.802030 0.000000 0.000000 
#    y 0.000000 1.748160 0.000000 
#    z 0.000000 0.000000 1.833720 
# 
# From -- ./inp_files/5423.got.cif
#   From: 2010.03.12/outbox.cif.g09.slc.cpg/sg46_3_cif.got.tgz:5423.got - 2010.04.14 02:56:35.
