data_PCOD8193279
_publ_section_title
;
Structure prediction by ZEFSAII (Michael W. Deem and Ramdas Pophale) SiO2 
 PCOD8193279
Probable space group: I M A 2
;
_chemical_formula_sum "Si O2"
_cell_formula_units_Z 48
_cell_length_a 16.870161
_cell_length_b 13.613075
_cell_length_c 10.130450
_cell_angle_alpha 90.000000
_cell_angle_beta 90.000000
_cell_angle_gamma 90.000000
_cell_volume 2326.506134
_symmetry_space_group_name_H-M "I M A 2"
_symmetry_group_IT_number 46
_symmetry_cell_setting 'orthorhombic'
loop_
_space_group_symop_operation_xyz
x,y,z
-x,-y,z
1/2-x,y,z
1/2+x,-y,z
1/2+x,1/2+y,1/2+z
1/2-x,1/2-y,1/2+z
-x,1/2+y,1/2+z
x,1/2-y,1/2+z
loop_
_atom_site_type_symbol
_atom_site_label
_atom_site_fract_x
_atom_site_fract_y
_atom_site_fract_z
Si Si1 0.457336 0.767216 0.277490
Si Si2 0.657538 0.543669 0.511882
Si Si3 0.915211 0.048766 0.766095
Si Si4 0.562378 0.764049 0.032322
Si Si5 0.157788 0.947512 0.290804
Si Si6 0.658686 0.568932 0.042324
O O1 0.418087 0.664131 0.237767
O O2 0.516261 0.801032 0.161731
O O3 0.502429 0.757413 0.414828
O O4 0.388081 0.845620 0.292776
O O5 0.750000 0.546307 0.478718
O O6 0.613387 0.468214 0.415297
O O7 0.623300 0.652005 0.488119
O O8 0.640449 0.507988 0.659018
O O9 0.851816 0.003029 0.665991
O O10 0.000000 0.000000 0.740284
O O11 0.610022 0.666924 0.069161
O O12 0.250000 0.921667 0.306723
O O13 0.127524 0.015685 0.410284
O O14 0.750000 0.598035 0.027252
#
# Coordination Sequence:
#
# PCOD8193279 Si02
#       6
#     8   8   8   8   8   8
#     4  12  25  39  67  93 127 168 211 260 317 375
#     4  11  24  43  66  93 129 168 209 262 319 377
#     4  12  23  43  62  94 129 163 213 256 314 377
#     4  12  23  40  65  98 124 166 210 262 317 380
#     4  10  25  44  64  93 130 170 213 262 315 376
#     4  11  24  43  66  93 129 168 209 262 319 377
#
# _framework density 20.631795
#
# number of rings (size 3 to 8) (size 9 to 14) (size 15 to 20)
#    0.000    0.667    3.333    4.000    0.000    2.667 
#    0.000    9.167    0.000    0.000    0.000    0.000 
#    0.000    0.000    0.000    0.000    0.000    0.000 
#
# Total GULP energy -297813.972921 kJ/mol
# GULP energy per Si atom -12408.915538 kJ/mol
# Density = 2.058484 g / cm^3
# Si number density = 20.631795 Si / 1000 Ang^3
#
#
#
# Elastic Constant Matrix: (Units=GPa)
#
#
# Indices 1 2 3 4 5 6 
#
# 1 66.9282 38.2388 25.2273 0.0000 0.0000 0.0000
# 2 38.2388 76.5557 7.3158 0.0000 0.0000 0.0000
# 3 25.2273 7.3158 97.3963 0.0000 0.0000 0.0000
# 4 0.0000 0.0000 0.0000 -38.4264 0.0000 0.0000
# 5 0.0000 0.0000 0.0000 0.0000 36.2581 0.0000
# 6 0.0000 0.0000 0.0000 0.0000 0.0000 34.1917
#
#
#
# Elastic Compliance Matrix: (Units=1/GPa)
#
#
# Indices 1 2 3 4 5 6 
#
# 1 0.023248 -0.011116 -0.005187 0.000000 0.000000 0.000000
# 2 -0.011116 0.018472 0.001492 0.000000 0.000000 0.000000
# 3 -0.005187 0.001492 0.011499 0.000000 0.000000 0.000000
# 4 0.000000 0.000000 0.000000 -0.026024 0.000000 0.000000
# 5 0.000000 0.000000 0.000000 0.000000 0.027580 0.000000
# 6 0.000000 0.000000 0.000000 0.000000 0.000000 0.029247
#
#
# Mechanical properties :
#
#
# Convention : Reuss Voigt Hill
#
# Bulk Modulus (GPa) = 42.37923 42.49379 42.43651
# Shear Modulus (GPa) = 41.14914 17.74456 29.44685
#
# Velocity S-wave (km/s) = 4.47077 2.93586 3.78200
# Velocity P-wave (km/s) = 6.87283 5.66863 6.29957
#
# Compressibility (1/GPa) = 0.02359647
#
# Stress axis : x y z
#
# Youngs Moduli (GPa) = 43.01531 54.13507 86.96649
#
# Poissons Ratio (x) = 0.60178 0.45105
# Poissons Ratio (y) = 0.47817 -0.12974
# Poissons Ratio (z) = 0.22310 -0.08076
#
# Static dielectric constant tensor:
#      x y z
#    x 3.743430 0.000000 0.000000 
#    y 0.000000 9.870570 0.000000 
#    z 0.000000 0.000000 3.960200 
# 
# 
# High freq. dielectric constant tensor:
#      x y z
#    x 1.813210 0.000000 0.000000 
#    y 0.000000 1.814240 0.000000 
#    z 0.000000 0.000000 1.825320 
# 
# From -- ./inp_files/6605.got.cif
#   From: 2010.03.12/outbox.cif.g09.slc.cpg/sg46_4_cif.got.tgz:6605.got - 2010.04.14 02:56:35.
