data_PCOD8193828
_publ_section_title
;
Structure prediction by ZEFSAII (Michael W. Deem and Ramdas Pophale) SiO2 
 PCOD8193828
Probable space group: P M M M
;
_chemical_formula_sum "Si O2"
_cell_formula_units_Z 56
_cell_length_a 17.781336
_cell_length_b 13.615651
_cell_length_c 15.769405
_cell_angle_alpha 90.000000
_cell_angle_beta 90.000000
_cell_angle_gamma 90.000000
_cell_volume 3817.843365
_symmetry_space_group_name_H-M "P M M M"
_symmetry_group_IT_number 47
_symmetry_cell_setting 'orthorhombic'
loop_
_space_group_symop_operation_xyz
x,y,z
-x,-y,z
x,-y,-z
-x,y,-z
-x,-y,-z
x,y,-z
-x,y,z
x,-y,z
loop_
_atom_site_type_symbol
_atom_site_label
_atom_site_fract_x
_atom_site_fract_y
_atom_site_fract_z
Si Si1 0.585066 0.387807 0.900404
Si Si2 0.581701 0.114849 0.000000
Si Si3 0.825769 0.113344 0.904348
Si Si4 0.192074 0.884107 0.593654
Si Si5 0.500000 0.883140 0.594602
Si Si6 0.675527 0.207832 0.143775
Si Si7 0.083644 0.115983 0.259972
Si Si8 0.654165 0.115397 0.676496
O O1 0.500000 0.364557 0.868383
O O2 0.605509 0.500000 0.879274
O O3 0.648527 0.321063 0.855688
O O4 0.589635 0.367190 0.000000
O O5 0.619864 0.146089 0.086349
O O6 0.500000 0.164405 0.000000
O O7 0.576492 0.000000 0.000000
O O8 0.758402 0.190962 0.893725
O O9 0.888059 0.142067 0.834726
O O10 0.798231 0.000000 0.889897
O O11 0.858653 0.124242 0.000000
O O12 0.171151 0.842183 0.500000
O O13 0.137841 0.838684 0.666723
O O14 0.279298 0.858802 0.611031
O O15 0.181121 0.000000 0.593902
O O16 0.500000 0.839727 0.500000
O O17 0.425209 0.844848 0.641399
O O18 0.500000 0.000000 0.591266
O O19 0.673687 0.170132 0.238256
O O20 0.000000 0.160553 0.270920
O O21 0.081131 0.000000 0.270815
O O22 0.650432 0.000000 0.694628
#
# Coordination Sequence:
#
# PCOD8193828 Si02
#       8
#     8   4   8   8   4   8   8   8
#     4   9  18  32  46  59  79 109 146 185 223 257
#     4  11  22  28  35  57  88 118 145 174 205 247
#     4  10  18  28  41  58  84 118 148 174 209 256
#     4   9  16  27  42  57  78 113 151 184 218 253
#     4   9  18  30  40  53  78 113 148 177 206 249
#     4  12  19  28  43  60  82 112 146 178 215 255
#     4   9  17  28  40  57  82 113 151 188 215 246
#     4  10  19  28  40  59  85 115 145 178 214 255
#
# _framework density 14.667968
#
# number of rings (size 3 to 8) (size 9 to 14) (size 15 to 20)
#    0.000    2.143    2.857    2.571    2.000    2.286 
#    0.000    2.857    0.000    0.000    0.000    0.000 
#    0.000    3.429    0.000    3.000    0.000    1.857 
#
# Total GULP energy -694094.886737 kJ/mol
# GULP energy per Si atom -12394.551549 kJ/mol
# Density = 1.463458 g / cm^3
# Si number density = 14.667968 Si / 1000 Ang^3
#
#
#
# Elastic Constant Matrix: (Units=GPa)
#
#
# Indices 1 2 3 4 5 6 
#
# 1 101.0415 17.3554 41.2894 0.0000 0.0000 0.0000
# 2 17.3554 33.9718 13.0812 0.0000 0.0000 0.0000
# 3 41.2894 13.0812 110.6316 0.0000 0.0000 0.0000
# 4 0.0000 0.0000 0.0000 2.8132 0.0000 0.0000
# 5 0.0000 0.0000 0.0000 0.0000 20.7191 0.0000
# 6 0.0000 0.0000 0.0000 0.0000 0.0000 -9.9980
#
#
#
# Elastic Compliance Matrix: (Units=1/GPa)
#
#
# Indices 1 2 3 4 5 6 
#
# 1 0.012371 -0.004759 -0.004054 0.000000 0.000000 0.000000
# 2 -0.004759 0.032671 -0.002087 0.000000 0.000000 0.000000
# 3 -0.004054 -0.002087 0.010799 0.000000 0.000000 0.000000
# 4 0.000000 0.000000 0.000000 0.355462 0.000000 0.000000
# 5 0.000000 0.000000 0.000000 0.000000 0.048265 0.000000
# 6 0.000000 0.000000 0.000000 0.000000 0.000000 -0.100020
#
#
# Mechanical properties :
#
#
# Convention : Reuss Voigt Hill
#
# Bulk Modulus (GPa) = 29.37676 43.23299 36.30488
# Shear Modulus (GPa) = 12.73253 14.30145 13.51699
#
# Velocity S-wave (km/s) = 2.94946 3.12591 3.03897
# Velocity P-wave (km/s) = 5.62765 6.52432 6.09250
#
# Compressibility (1/GPa) = 0.03404052
#
# Stress axis : x y z
#
# Youngs Moduli (GPa) = 80.83341 30.60817 92.60168
#
# Poissons Ratio (x) = 0.14566 0.37544
# Poissons Ratio (y) = 0.38468 0.19326
# Poissons Ratio (z) = 0.32773 0.06388
#
# Static dielectric constant tensor:
#      x y z
#    x 3.045140 0.000000 0.000000 
#    y 0.000000 2.453760 0.000000 
#    z 0.000000 0.000000 2.962750 
# 
# 
# High freq. dielectric constant tensor:
#      x y z
#    x 1.562930 0.000000 0.000000 
#    y 0.000000 1.490400 0.000000 
#    z 0.000000 0.000000 1.568950 
# 
# From -- ./inp_files/24731.got.cif
#   From: 2010.03.12/outbox.cif.g09.slc.cpg/sg47_13_cif.got.tgz:24731.got - 2010.04.14 03:12:58.
