data_PCOD8193598
_publ_section_title
;
Structure prediction by ZEFSAII (Michael W. Deem and Ramdas Pophale) SiO2 
 PCOD8193598
Probable space group: P M M M
;
_chemical_formula_sum "Si O2"
_cell_formula_units_Z 44
_cell_length_a 14.515544
_cell_length_b 9.617500
_cell_length_c 16.990204
_cell_angle_alpha 90.000000
_cell_angle_beta 90.000000
_cell_angle_gamma 90.000000
_cell_volume 2371.887602
_symmetry_space_group_name_H-M "P M M M"
_symmetry_group_IT_number 47
_symmetry_cell_setting 'orthorhombic'
loop_
_space_group_symop_operation_xyz
x,y,z
-x,-y,z
x,-y,-z
-x,y,-z
-x,-y,-z
x,y,-z
-x,y,z
x,-y,z
loop_
_atom_site_type_symbol
_atom_site_label
_atom_site_fract_x
_atom_site_fract_y
_atom_site_fract_z
Si Si1 0.500000 0.657526 0.093379
Si Si2 0.599067 0.842174 0.670523
Si Si3 0.329013 0.840678 0.910825
Si Si4 0.200698 0.653769 0.500000
Si Si5 0.225399 0.161323 0.239862
Si Si6 0.107409 0.661400 0.344317
Si Si7 0.398303 0.255005 0.500000
O O1 0.500000 0.500000 0.127526
O O2 0.590209 0.741044 0.121393
O O3 0.500000 0.654085 0.000000
O O4 0.500000 0.770346 0.692489
O O5 0.684650 0.773470 0.715834
O O6 0.612465 0.840342 0.576619
O O7 0.595220 0.000000 0.699087
O O8 0.240700 0.820472 0.853968
O O9 0.364420 0.000000 0.906309
O O10 0.299252 0.802630 0.000000
O O11 0.157867 0.500000 0.500000
O O12 0.161327 0.724651 0.420497
O O13 0.311880 0.640210 0.500000
O O14 0.138264 0.251451 0.267550
O O15 0.208732 0.000000 0.261983
O O16 0.131645 0.500000 0.329802
O O17 0.000000 0.684400 0.357938
O O18 0.500000 0.329832 0.500000
#
# Coordination Sequence:
#
# PCOD8193598 Si02
#       7
#     4   8   8   4   8   8   4
#     4   9  17  29  47  73 105 140 179 220 257 297
#     4   9  17  28  44  68  99 136 172 205 245 299
#     4   9  18  32  50  73 104 142 179 213 260 321
#     4  10  19  34  53  73 101 138 177 208 245 310
#     4  10  20  33  54  79 103 132 171 222 268 307
#     4  10  21  38  58  77 101 135 173 214 265 319
#     4  10  17  28  47  68 100 139 171 202 243 296
#
# _framework density 18.550626000000001
#
# number of rings (size 3 to 8) (size 9 to 14) (size 15 to 20)
#    0.000    2.455    1.818    0.818    1.273    4.545 
#    0.000    0.455    0.000    1.636    0.000    3.818 
#    0.000    0.000    0.000    0.000    0.000    0.000 
#
# Total GULP energy -545250.209247 kJ/mol
# GULP energy per Si atom -12392.050210 kJ/mol
# Density = 1.850840 g / cm^3
# Si number density = 18.550626 Si / 1000 Ang^3
#
#
#
# Elastic Constant Matrix: (Units=GPa)
#
#
# Indices 1 2 3 4 5 6 
#
# 1 102.7799 36.5429 42.9909 0.0000 0.0000 0.0000
# 2 36.5429 66.0982 27.1327 0.0000 0.0000 0.0000
# 3 42.9909 27.1327 91.6618 0.0000 0.0000 0.0000
# 4 0.0000 0.0000 0.0000 18.8040 0.0000 0.0000
# 5 0.0000 0.0000 0.0000 0.0000 22.3351 0.0000
# 6 0.0000 0.0000 0.0000 0.0000 0.0000 27.3231
#
#
#
# Elastic Compliance Matrix: (Units=1/GPa)
#
#
# Indices 1 2 3 4 5 6 
#
# 1 0.013727 -0.005631 -0.004772 0.000000 0.000000 0.000000
# 2 -0.005631 0.019531 -0.003141 0.000000 0.000000 0.000000
# 3 -0.004772 -0.003141 0.014077 0.000000 0.000000 0.000000
# 4 0.000000 0.000000 0.000000 0.053180 0.000000 0.000000
# 5 0.000000 0.000000 0.000000 0.000000 0.044773 0.000000
# 6 0.000000 0.000000 0.000000 0.000000 0.000000 0.036599
#
#
# Mechanical properties :
#
#
# Convention : Reuss Voigt Hill
#
# Bulk Modulus (GPa) = 49.38227 52.65255 51.01741
# Shear Modulus (GPa) = 23.17785 23.95065 23.56425
#
# Velocity S-wave (km/s) = 3.53857 3.59708 3.56795
# Velocity P-wave (km/s) = 6.58585 6.75994 6.67346
#
# Compressibility (1/GPa) = 0.02025018
#
# Stress axis : x y z
#
# Youngs Moduli (GPa) = 72.84731 51.20052 71.03641
#
# Poissons Ratio (x) = 0.28829 0.33896
# Poissons Ratio (y) = 0.41017 0.22309
# Poissons Ratio (z) = 0.34760 0.16080
#
# Static dielectric constant tensor:
#      x y z
#    x 3.319900 0.000000 0.000000 
#    y 0.000000 3.152190 0.000000 
#    z 0.000000 0.000000 3.447420 
# 
# 
# High freq. dielectric constant tensor:
#      x y z
#    x 1.701020 0.000000 0.000000 
#    y 0.000000 1.687770 0.000000 
#    z 0.000000 0.000000 1.720630 
# 
# From -- ./inp_files/27943.got.cif
#   From: 2010.03.12/outbox.cif.g09.slc.cpg/sg47_14_cif.got.tgz:27943.got - 2010.04.14 03:12:58.
