data_PCOD8193191
_publ_section_title
;
Structure prediction by ZEFSAII (Michael W. Deem and Ramdas Pophale) SiO2 
 PCOD8193191
Probable space group: I M A 2
;
_chemical_formula_sum "Si O2"
_cell_formula_units_Z 40
_cell_length_a 8.340476
_cell_length_b 29.398826
_cell_length_c 7.588948
_cell_angle_alpha 90.000000
_cell_angle_beta 90.000000
_cell_angle_gamma 90.000000
_cell_volume 1860.811588
_symmetry_space_group_name_H-M "I M A 2"
_symmetry_group_IT_number 46
_symmetry_cell_setting 'orthorhombic'
loop_
_space_group_symop_operation_xyz
x,y,z
-x,-y,z
1/2-x,y,z
1/2+x,-y,z
1/2+x,1/2+y,1/2+z
1/2-x,1/2-y,1/2+z
-x,1/2+y,1/2+z
x,1/2-y,1/2+z
loop_
_atom_site_type_symbol
_atom_site_label
_atom_site_fract_x
_atom_site_fract_y
_atom_site_fract_z
Si Si1 0.938526 0.381368 0.626300
Si Si2 0.931355 0.200503 0.563126
Si Si3 0.567396 0.791191 0.200113
Si Si4 0.939344 0.049748 0.823875
Si Si5 0.062032 0.106872 0.516150
O O1 0.750000 0.374097 0.613552
O O2 0.997078 0.418324 0.484400
O O3 0.026416 0.333584 0.571225
O O4 0.984076 0.398248 0.822930
O O5 0.750000 0.207235 0.631131
O O6 0.937885 0.201204 0.352769
O O7 0.045298 0.241595 0.620332
O O8 0.997476 0.151448 0.622522
O O9 0.750000 0.795251 0.267499
O O10 0.750000 0.050678 0.801126
O O11 0.017844 0.064225 0.637903
O O12 0.000000 0.000000 0.872581
O O13 0.250000 0.110943 0.488456
#
# Coordination Sequence:
#
# PCOD8193191 Si02
#       5
#     8   8   8   8   8
#     4  10  22  42  65  91 127 167 211 262 319 380
#     4  11  22  38  59  86 123 165 209 254 310 374
#     4  11  22  37  58  88 123 161 208 257 310 372
#     4  11  25  44  68  96 126 164 214 265 322 382
#     4  11  23  41  65  93 129 167 210 262 318 378
#
# _framework density 21.495996000000002
#
# number of rings (size 3 to 8) (size 9 to 14) (size 15 to 20)
#    0.000    1.200    0.000    9.000    2.800    4.000 
#    0.000    2.000    0.000    0.000    0.000    0.000 
#    0.000    0.000    0.000    0.000    0.000    0.000 
#
# Total GULP energy -247979.897505 kJ/mol
# GULP energy per Si atom -12398.994875 kJ/mol
# Density = 2.144707 g / cm^3
# Si number density = 21.495996 Si / 1000 Ang^3
#
#
#
# Elastic Constant Matrix: (Units=GPa)
#
#
# Indices 1 2 3 4 5 6 
#
# 1 93.2395 13.4520 7.0346 0.0361 0.0008 -0.0019
# 2 13.4520 106.9448 20.1918 0.0919 0.0019 -0.0043
# 3 7.0346 20.1918 53.9044 0.1022 0.0026 -0.0036
# 4 0.0361 0.0919 0.1022 -19.4800 -0.0054 -0.0035
# 5 0.0008 0.0019 0.0026 -0.0054 24.4348 0.0030
# 6 -0.0019 -0.0043 -0.0036 -0.0035 0.0030 36.0477
#
#
#
# Elastic Compliance Matrix: (Units=1/GPa)
#
#
# Indices 1 2 3 4 5 6 
#
# 1 0.010972 -0.001194 -0.000985 0.000010 0.000000 0.000000
# 2 -0.001194 0.010192 -0.003662 0.000027 0.000000 0.000001
# 3 -0.000985 -0.003662 0.020051 0.000086 -0.000002 0.000002
# 4 0.000010 0.000027 0.000086 -0.051334 -0.000011 -0.000005
# 5 0.000000 0.000000 -0.000002 -0.000011 0.040925 -0.000003
# 6 0.000000 0.000001 0.000002 -0.000005 -0.000003 0.027741
#
#
# Mechanical properties :
#
#
# Convention : Reuss Voigt Hill
#
# Bulk Modulus (GPa) = 33.85955 37.27172 35.56564
# Shear Modulus (GPa) = 62.44257 22.42785 42.43521
#
# Velocity S-wave (km/s) = 5.39551 3.23360 4.44790
# Velocity P-wave (km/s) = 7.38926 5.59626 6.55436
#
# Compressibility (1/GPa) = 0.02953376
#
# Stress axis : x y z
#
# Youngs Moduli (GPa) = 91.14411 98.11403 49.87179
#
# Poissons Ratio (x) = 0.11717 0.04910
# Poissons Ratio (y) = 0.10884 0.18263
# Poissons Ratio (z) = 0.08973 0.35930
#
# Static dielectric constant tensor:
#      x y z
#    x 3.791790 0.000080 -0.000010 
#    y 0.000080 5.037770 0.000130 
#    z -0.000010 0.000130 3.775290 
# 
# 
# High freq. dielectric constant tensor:
#      x y z
#    x 1.855200 0.000000 0.000000 
#    y 0.000000 1.851220 0.000000 
#    z 0.000000 0.000000 1.832580 
# 
# From -- ./inp_files/3531.got.cif
#   From: 2010.03.12/outbox.cif.g09.slc.cpg/sg46_2_cif.got.tgz:3531.got - 2010.04.14 02:56:35.
