data_PCOD8193878
_publ_section_title
;
Structure prediction by ZEFSAII (Michael W. Deem and Ramdas Pophale) SiO2 
 PCOD8193878
Probable space group: P M M M
;
_chemical_formula_sum "Si O2"
_cell_formula_units_Z 52
_cell_length_a 13.835370
_cell_length_b 26.922784
_cell_length_c 9.178415
_cell_angle_alpha 90.000000
_cell_angle_beta 90.000000
_cell_angle_gamma 90.000000
_cell_volume 3418.837313
_symmetry_space_group_name_H-M "P M M M"
_symmetry_group_IT_number 47
_symmetry_cell_setting 'orthorhombic'
loop_
_space_group_symop_operation_xyz
x,y,z
-x,-y,z
x,-y,-z
-x,y,-z
-x,-y,-z
x,y,-z
-x,y,z
x,-y,z
loop_
_atom_site_type_symbol
_atom_site_label
_atom_site_fract_x
_atom_site_fract_y
_atom_site_fract_z
Si Si1 0.609557 0.881960 0.831970
Si Si2 0.720041 0.201859 0.326914
Si Si3 0.607528 0.297748 0.326883
Si Si4 0.615458 0.500000 0.162820
Si Si5 0.213074 0.945847 0.830138
Si Si6 0.614950 0.593649 0.661933
Si Si7 0.110447 0.848245 0.827612
O O1 0.500000 0.897303 0.796997
O O2 0.640431 0.836945 0.728701
O O3 0.676514 0.929579 0.798825
O O4 0.622581 0.865184 0.000000
O O5 0.729701 0.197320 0.500000
O O6 0.683838 0.256199 0.276636
O O7 0.824058 0.192499 0.253233
O O8 0.600284 0.299379 0.500000
O O9 0.500000 0.285768 0.264260
O O10 0.643743 0.352148 0.272717
O O11 0.500000 0.500000 0.167092
O O12 0.657128 0.450521 0.239255
O O13 0.655523 0.500000 0.000000
O O14 0.140368 0.903386 0.770743
O O15 0.194522 0.000000 0.755811
O O16 0.194323 0.951623 0.000000
O O17 0.657959 0.586618 0.500000
O O18 0.500000 0.590547 0.655184
O O19 0.000000 0.838094 0.785583
O O20 0.128674 0.844012 0.000000
#
# Coordination Sequence:
#
# PCOD8193878 Si02
#       7
#     8   8   8   4   8   8   8
#     4   9  17  28  41  59  84 111 136 161 193 236
#     4  10  18  28  44  63  82 104 133 169 204 239
#     4   8  14  24  38  57  79 103 134 169 199 228
#     4   9  15  21  29  45  71  99 130 169 204 227
#     4   8  14  25  42  64  84 100 126 165 202 234
#     4   8  13  22  35  48  65  96 136 168 193 225
#     4   9  18  32  47  62  81 103 127 159 202 250
#
# _framework density 15.209849
#
# number of rings (size 3 to 8) (size 9 to 14) (size 15 to 20)
#    0.000    3.308    0.000    3.000    0.000    2.769 
#    0.000    4.615    0.000   11.077    0.000    8.615 
#    0.000    0.000    0.000    0.692    0.000   14.538 
#
# Total GULP energy -644370.672577 kJ/mol
# GULP energy per Si atom -12391.743703 kJ/mol
# Density = 1.517523 g / cm^3
# Si number density = 15.209849 Si / 1000 Ang^3
#
#
#
# Elastic Constant Matrix: (Units=GPa)
#
#
# Indices 1 2 3 4 5 6 
#
# 1 84.8716 47.0981 25.3938 0.0000 0.0000 0.0000
# 2 47.0981 139.5917 41.3098 0.0000 0.0000 0.0000
# 3 25.3938 41.3098 48.9514 0.0000 0.0000 0.0000
# 4 0.0000 0.0000 0.0000 15.3956 0.0000 0.0000
# 5 0.0000 0.0000 0.0000 0.0000 15.7088 0.0000
# 6 0.0000 0.0000 0.0000 0.0000 0.0000 12.2254
#
#
#
# Elastic Compliance Matrix: (Units=1/GPa)
#
#
# Indices 1 2 3 4 5 6 
#
# 1 0.015289 -0.003747 -0.004769 0.000000 0.000000 0.000000
# 2 -0.003747 0.010467 -0.006889 0.000000 0.000000 0.000000
# 3 -0.004769 -0.006889 0.028716 0.000000 0.000000 0.000000
# 4 0.000000 0.000000 0.000000 0.064954 0.000000 0.000000
# 5 0.000000 0.000000 0.000000 0.000000 0.063658 0.000000
# 6 0.000000 0.000000 0.000000 0.000000 0.000000 0.081797
#
#
# Mechanical properties :
#
#
# Convention : Reuss Voigt Hill
#
# Bulk Modulus (GPa) = 42.26309 55.66867 48.96588
# Shear Modulus (GPa) = 16.47025 19.30683 17.88854
#
# Velocity S-wave (km/s) = 3.29426 3.56668 3.43317
# Velocity P-wave (km/s) = 6.50512 7.32403 6.92669
#
# Compressibility (1/GPa) = 0.02366131
#
# Stress axis : x y z
#
# Youngs Moduli (GPa) = 65.40730 95.54128 34.82393
#
# Poissons Ratio (x) = 0.35801 0.16607
# Poissons Ratio (y) = 0.24509 0.23990
# Poissons Ratio (z) = 0.31193 0.65818
#
# Static dielectric constant tensor:
#      x y z
#    x 2.692890 0.000000 0.000000 
#    y 0.000000 3.248590 0.000000 
#    z 0.000000 0.000000 2.743730 
# 
# 
# High freq. dielectric constant tensor:
#      x y z
#    x 1.542360 0.000000 0.000000 
#    y 0.000000 1.585580 0.000000 
#    z 0.000000 0.000000 1.558850 
# 
# From -- ./inp_files/8025.got.cif
#   From: 2010.03.12/outbox.cif.g09.slc.cpg/sg47_5_cif.got.tgz:8025.got - 2010.04.14 03:12:58.
