data_PCOD8193511
_publ_section_title
;
Structure prediction by ZEFSAII (Michael W. Deem and Ramdas Pophale) SiO2 
 PCOD8193511
Probable space group: P M M M
;
_chemical_formula_sum "Si O2"
_cell_formula_units_Z 52
_cell_length_a 9.348509
_cell_length_b 14.492441
_cell_length_c 23.118311
_cell_angle_alpha 90.000000
_cell_angle_beta 90.000000
_cell_angle_gamma 90.000000
_cell_volume 3132.131543
_symmetry_space_group_name_H-M "P M M M"
_symmetry_group_IT_number 47
_symmetry_cell_setting 'orthorhombic'
loop_
_space_group_symop_operation_xyz
x,y,z
-x,-y,z
x,-y,-z
-x,y,-z
-x,-y,-z
x,y,-z
-x,y,z
x,-y,z
loop_
_atom_site_type_symbol
_atom_site_label
_atom_site_fract_x
_atom_site_fract_y
_atom_site_fract_z
Si Si1 0.665341 0.895017 0.066880
Si Si2 0.170741 0.894834 0.500000
Si Si3 0.169636 0.399151 0.786446
Si Si4 0.829496 0.791856 0.613218
Si Si5 0.829861 0.103576 0.273848
Si Si6 0.829902 0.399197 0.656302
Si Si7 0.169654 0.787441 0.161263
O O1 0.500000 0.880493 0.082347
O O2 0.759606 0.824426 0.103226
O O3 0.711264 0.000000 0.080983
O O4 0.693817 0.873049 0.000000
O O5 0.231622 0.841529 0.443872
O O6 0.000000 0.894474 0.500000
O O7 0.227395 0.000000 0.500000
O O8 0.220131 0.500000 0.809612
O O9 0.228470 0.383348 0.721429
O O10 0.222759 0.318072 0.828924
O O11 0.000000 0.394963 0.783207
O O12 0.769866 0.844388 0.669674
O O13 0.776001 0.684897 0.615657
O O14 0.000000 0.796123 0.612428
O O15 0.775960 0.153483 0.215946
O O16 0.000000 0.103954 0.275560
O O17 0.768975 0.000000 0.273946
O O18 0.777220 0.500000 0.633082
O O19 0.000000 0.397950 0.657988
O O20 0.000000 0.794214 0.154132
#
# Coordination Sequence:
#
# PCOD8193511 Si02
#       7
#     8   4   8   8   8   8   8
#     4   9  19  35  50  63  86 122 152 169 200 257
#     4   9  16  22  27  35  53  93 143 175 199 248
#     4   8  13  22  37  59  86 110 132 165 215 269
#     4   9  14  21  29  40  62  95 132 168 205 251
#     4   9  15  21  31  51  78 100 121 164 221 258
#     4   8  12  19  31  45  64  93 127 163 206 256
#     4  10  17  26  44  70  90 106 140 186 224 252
#
# _framework density 16.602112999999999
#
# number of rings (size 3 to 8) (size 9 to 14) (size 15 to 20)
#    0.000    3.154    1.538    2.308    0.000    3.077 
#    0.000    1.154    0.000    3.231    0.000    3.231 
#    0.000    0.000    0.000    0.692    0.000    8.385 
#
# Total GULP energy -644360.044488 kJ/mol
# GULP energy per Si atom -12391.539317 kJ/mol
# Density = 1.656433 g / cm^3
# Si number density = 16.602113 Si / 1000 Ang^3
#
#
#
# Elastic Constant Matrix: (Units=GPa)
#
#
# Indices 1 2 3 4 5 6 
#
# 1 11.4810 20.7307 19.9520 0.0000 0.0000 0.0000
# 2 20.7307 179.3984 77.6756 0.0000 0.0000 0.0000
# 3 19.9520 77.6756 101.4144 0.0000 0.0000 0.0000
# 4 0.0000 0.0000 0.0000 32.4137 0.0000 0.0000
# 5 0.0000 0.0000 0.0000 0.0000 -0.7419 0.0000
# 6 0.0000 0.0000 0.0000 0.0000 0.0000 7.1568
#
#
#
# Elastic Compliance Matrix: (Units=1/GPa)
#
#
# Indices 1 2 3 4 5 6 
#
# 1 0.136836 -0.006218 -0.022158 0.000000 0.000000 0.000000
# 2 -0.006218 0.008623 -0.005381 0.000000 0.000000 0.000000
# 3 -0.022158 -0.005381 0.018341 0.000000 0.000000 0.000000
# 4 0.000000 0.000000 0.000000 0.030851 0.000000 0.000000
# 5 0.000000 0.000000 0.000000 0.000000 -1.347865 0.000000
# 6 0.000000 0.000000 0.000000 0.000000 0.000000 0.139728
#
#
# Mechanical properties :
#
#
# Convention : Reuss Voigt Hill
#
# Bulk Modulus (GPa) = 10.38583 58.77893 34.58238
# Shear Modulus (GPa) = -5.47119 19.36140 6.94511
#
# Velocity S-wave (km/s) = -1.81731 3.41867 2.04752
# Velocity P-wave (km/s) = 1.36594 7.14594 5.14443
#
# Compressibility (1/GPa) = 0.09628506
#
# Stress axis : x y z
#
# Youngs Moduli (GPa) = 7.30804 115.97520 54.52235
#
# Poissons Ratio (x) = 0.72118 1.20810
# Poissons Ratio (y) = 0.04544 0.29337
# Poissons Ratio (z) = 0.16193 0.62404
#
# Static dielectric constant tensor:
#      x y z
#    x 2.370450 0.000000 0.000000 
#    y 0.000000 3.606710 0.000000 
#    z 0.000000 0.000000 3.066830 
# 
# 
# High freq. dielectric constant tensor:
#      x y z
#    x 1.556470 0.000000 0.000000 
#    y 0.000000 1.659070 0.000000 
#    z 0.000000 0.000000 1.626470 
# 
# From -- ./inp_files/19286.got.cif
#   From: 2010.03.12/outbox.cif.g09.slc.cpg/sg47_10_cif.got.tgz:19286.got - 2010.04.14 03:12:58.
