data_PCOD8193429
_publ_section_title
;
Structure prediction by ZEFSAII (Michael W. Deem and Ramdas Pophale) SiO2 
 PCOD8193429
Probable space group: I M A 2
;
_chemical_formula_sum "Si O2"
_cell_formula_units_Z 64
_cell_length_a 26.739302
_cell_length_b 8.056726
_cell_length_c 16.589840
_cell_angle_alpha 90.000000
_cell_angle_beta 90.000000
_cell_angle_gamma 90.000000
_cell_volume 3573.969631
_symmetry_space_group_name_H-M "I M A 2"
_symmetry_group_IT_number 46
_symmetry_cell_setting 'orthorhombic'
loop_
_space_group_symop_operation_xyz
x,y,z
-x,-y,z
1/2-x,y,z
1/2+x,-y,z
1/2+x,1/2+y,1/2+z
1/2-x,1/2-y,1/2+z
-x,1/2+y,1/2+z
x,1/2-y,1/2+z
loop_
_atom_site_type_symbol
_atom_site_label
_atom_site_fract_x
_atom_site_fract_y
_atom_site_fract_z
Si Si1 0.305516 0.369794 0.430390
Si Si2 0.121248 0.563767 0.518177
Si Si3 0.385437 0.342237 0.664226
Si Si4 0.378752 0.563767 0.994366
Si Si5 0.114563 0.342237 0.848317
Si Si6 0.536291 0.856748 0.935961
Si Si7 0.694484 0.630205 0.082153
Si Si8 0.036291 0.356748 0.076583
O O1 0.250000 0.400815 0.394682
O O2 0.327604 0.542299 0.466366
O O3 0.341022 0.291523 0.361780
O O4 0.303777 0.250000 0.506272
O O5 0.125262 0.509040 0.611905
O O6 0.102412 0.750000 0.506271
O O7 0.082944 0.435200 0.480914
O O8 0.385348 0.400092 0.756272
O O9 0.341022 0.208477 0.650763
O O10 0.440262 0.259981 0.646201
O O11 0.374738 0.509041 0.900638
O O12 0.327604 0.542299 0.046178
O O13 0.417056 0.435201 0.031629
O O14 0.059738 0.259981 0.866342
O O15 0.500000 0.000000 0.899937
O O16 0.507681 0.750000 0.006272
O O17 0.750000 0.599185 0.117862
O O18 0.000000 0.500000 0.112607
#
# Coordination Sequence:
#
# PCOD8193429 Si02
#       8
#     8   8   8   8   8   8   8   8
#     4   8  15  29  48  68  90 122 161 192 224 274
#     4   9  17  30  48  69  94 126 161 193 228 277
#     4   9  18  31  47  70  97 123 154 195 240 279
#     4   9  17  30  48  69  94 126 161 193 228 277
#     4   9  18  31  47  70  97 123 154 195 240 279
#     4   9  17  30  50  70  91 123 160 192 226 277
#     4   8  15  29  48  68  90 122 161 192 224 274
#     4   9  17  30  50  70  91 123 160 192 226 277
#
# _framework density 17.907260000000001
#
# number of rings (size 3 to 8) (size 9 to 14) (size 15 to 20)
#    0.000    3.250    0.000    3.750    0.000    1.500 
#    0.000    5.000    0.000   25.500    0.000    0.000 
#    0.000    0.000    0.000    0.000    0.000    0.000 
#
# Total GULP energy -396458.820477 kJ/mol
# GULP energy per Si atom -12389.338140 kJ/mol
# Density = 1.786650 g / cm^3
# Si number density = 17.907260 Si / 1000 Ang^3
#
#
#
# Elastic Constant Matrix: (Units=GPa)
#
#
# Indices 1 2 3 4 5 6 
#
# 1 68.3622 11.3243 21.4174 0.0000 0.0000 0.0000
# 2 11.3243 82.9995 34.1469 0.0000 0.0000 0.0000
# 3 21.4174 34.1469 105.9904 0.0000 0.0000 0.0000
# 4 0.0000 0.0000 0.0000 16.1287 0.0000 0.0000
# 5 0.0000 0.0000 0.0000 0.0000 13.0920 0.0000
# 6 0.0000 0.0000 0.0000 0.0000 0.0000 15.4326
#
#
#
# Elastic Compliance Matrix: (Units=1/GPa)
#
#
# Indices 1 2 3 4 5 6 
#
# 1 0.015683 -0.000964 -0.002859 0.000000 0.000000 0.000000
# 2 -0.000964 0.013948 -0.004299 0.000000 0.000000 0.000000
# 3 -0.002859 -0.004299 0.011397 0.000000 0.000000 0.000000
# 4 0.000000 0.000000 0.000000 0.062001 0.000000 0.000000
# 5 0.000000 0.000000 0.000000 0.000000 0.076382 0.000000
# 6 0.000000 0.000000 0.000000 0.000000 0.000000 0.064798
#
#
# Mechanical properties :
#
#
# Convention : Reuss Voigt Hill
#
# Bulk Modulus (GPa) = 40.34474 43.45880 41.90177
# Shear Modulus (GPa) = 18.60704 21.62823 20.11763
#
# Velocity S-wave (km/s) = 3.22697 3.47910 3.35540
# Velocity P-wave (km/s) = 6.03848 6.36084 6.20175
#
# Compressibility (1/GPa) = 0.02478638
#
# Stress axis : x y z
#
# Youngs Moduli (GPa) = 63.76251 71.69273 87.73882
#
# Poissons Ratio (x) = 0.06909 0.25081
# Poissons Ratio (y) = 0.06145 0.37719
# Poissons Ratio (z) = 0.18227 0.30821
#
# Static dielectric constant tensor:
#      x y z
#    x 3.651260 0.000000 0.000000 
#    y 0.000000 3.406410 0.000000 
#    z 0.000000 0.000000 3.001230 
# 
# 
# High freq. dielectric constant tensor:
#      x y z
#    x 1.693160 0.000000 0.000000 
#    y 0.000000 1.675150 0.000000 
#    z 0.000000 0.000000 1.659230 
# 
# From -- ./inp_files/20504.got.cif
#   From: 2010.03.12/outbox.cif.g09.slc.cpg/sg46_11_cif.got.tgz:20504.got - 2010.04.14 02:56:35.
