data_PCOD8193262
_publ_section_title
;
Structure prediction by ZEFSAII (Michael W. Deem and Ramdas Pophale) SiO2 
 PCOD8193262
Probable space group: I M A 2
;
_chemical_formula_sum "Si O2"
_cell_formula_units_Z 40
_cell_length_a 7.954038
_cell_length_b 25.474867
_cell_length_c 9.745210
_cell_angle_alpha 90.000000
_cell_angle_beta 90.000000
_cell_angle_gamma 90.000000
_cell_volume 1974.652998
_symmetry_space_group_name_H-M "I M A 2"
_symmetry_group_IT_number 46
_symmetry_cell_setting 'orthorhombic'
loop_
_space_group_symop_operation_xyz
x,y,z
-x,-y,z
1/2-x,y,z
1/2+x,-y,z
1/2+x,1/2+y,1/2+z
1/2-x,1/2-y,1/2+z
-x,1/2+y,1/2+z
x,1/2-y,1/2+z
loop_
_atom_site_type_symbol
_atom_site_label
_atom_site_fract_x
_atom_site_fract_y
_atom_site_fract_z
Si Si1 0.934090 0.408532 0.620840
Si Si2 0.948200 0.439588 0.322553
Si Si3 0.563828 0.555212 0.888029
Si Si4 0.750000 0.188154 0.204732
Si Si5 0.250000 0.791651 0.531880
Si Si6 0.445631 0.137053 0.591726
O O1 0.750000 0.435864 0.629598
O O2 0.007297 0.417155 0.469964
O O3 0.915474 0.347428 0.668376
O O4 0.053345 0.439780 0.724598
O O5 0.750000 0.432998 0.300173
O O6 0.000000 0.500000 0.303331
O O7 0.047636 0.401782 0.220605
O O8 0.500000 0.500000 0.942835
O O9 0.750000 0.558649 0.943062
O O10 0.476117 0.604150 0.962897
O O11 0.750000 0.207706 0.364090
O O12 0.750000 0.233340 0.091276
O O13 0.421483 0.815489 0.597904
O O14 0.250000 0.156798 0.575018
#
# Coordination Sequence:
#
# PCOD8193262 Si02
#       6
#     8   8   8   4   4   8
#     4   9  20  40  59  90 127 164 216 264 320 394
#     4  11  22  36  60  92 137 179 221 262 322 388
#     4  11  22  35  60  91 127 171 216 260 324 396
#     4  10  24  42  76  96 122 176 224 270 355 384
#     4  12  24  46  76  94 132 172 218 290 337 388
#     4  11  24  42  64  96 133 171 219 273 325 394
#
# _framework density 20.256723999999998
#
# number of rings (size 3 to 8) (size 9 to 14) (size 15 to 20)
#    0.600    0.800    3.000    2.400    4.200    4.800 
#    0.000    2.000    0.000    0.000    0.000    0.000 
#    0.000    0.000    0.000    0.000    0.000    0.000 
#
# Total GULP energy -247775.028398 kJ/mol
# GULP energy per Si atom -12388.751420 kJ/mol
# Density = 2.021062 g / cm^3
# Si number density = 20.256724 Si / 1000 Ang^3
#
#
#
# Elastic Constant Matrix: (Units=GPa)
#
#
# Indices 1 2 3 4 5 6 
#
# 1 70.9972 16.8713 6.6565 0.0003 -0.0001 0.0006
# 2 16.8713 78.9168 8.5115 0.0009 0.0008 0.0003
# 3 6.6565 8.5115 97.2223 0.0004 -0.0009 0.0027
# 4 0.0003 0.0009 0.0004 36.7181 -0.0001 0.0016
# 5 -0.0001 0.0008 -0.0009 -0.0001 3.9125 0.0020
# 6 0.0006 0.0003 0.0027 0.0016 0.0020 -5.0516
#
#
#
# Elastic Compliance Matrix: (Units=1/GPa)
#
#
# Indices 1 2 3 4 5 6 
#
# 1 0.014893 -0.003103 -0.000748 0.000000 0.000001 0.000001
# 2 -0.003103 0.013439 -0.000964 0.000000 -0.000003 0.000000
# 3 -0.000748 -0.000964 0.010421 0.000000 0.000003 0.000006
# 4 0.000000 0.000000 0.000000 0.027235 0.000001 0.000009
# 5 0.000001 -0.000003 0.000003 0.000001 0.255588 0.000103
# 6 0.000001 0.000000 0.000006 0.000009 0.000103 -0.197958
#
#
# Mechanical properties :
#
#
# Convention : Reuss Voigt Hill
#
# Bulk Modulus (GPa) = 34.33775 34.57943 34.45859
# Shear Modulus (GPa) = 34.97611 21.45562 28.21586
#
# Velocity S-wave (km/s) = 4.15980 3.25804 3.73622
# Velocity P-wave (km/s) = 6.32929 5.59113 5.97163
#
# Compressibility (1/GPa) = 0.02912247
#
# Stress axis : x y z
#
# Youngs Moduli (GPa) = 67.14738 74.41051 95.95717
#
# Poissons Ratio (x) = 0.23091 0.07177
# Poissons Ratio (y) = 0.20837 0.09251
# Poissons Ratio (z) = 0.05022 0.07174
#
# Static dielectric constant tensor:
#      x y z
#    x 3.567060 0.000000 0.000000 
#    y 0.000000 3.350880 0.000000 
#    z 0.000000 0.000000 3.704130 
# 
# 
# High freq. dielectric constant tensor:
#      x y z
#    x 1.779460 0.000000 0.000000 
#    y 0.000000 1.776380 0.000000 
#    z 0.000000 0.000000 1.806700 
# 
# From -- ./inp_files/3687.got.cif
#   From: 2010.03.12/outbox.cif.g09.slc.cpg/sg46_2_cif.got.tgz:3687.got - 2010.04.14 02:56:35.
