data_PCOD8193848
_publ_section_title
;
Structure prediction by ZEFSAII (Michael W. Deem and Ramdas Pophale) SiO2 
 PCOD8193848
Probable space group: P M M M
;
_chemical_formula_sum "Si O2"
_cell_formula_units_Z 52
_cell_length_a 27.651447
_cell_length_b 13.764281
_cell_length_c 9.335458
_cell_angle_alpha 90.000000
_cell_angle_beta 90.000000
_cell_angle_gamma 90.000000
_cell_volume 3553.096661
_symmetry_space_group_name_H-M "P M M M"
_symmetry_group_IT_number 47
_symmetry_cell_setting 'orthorhombic'
loop_
_space_group_symop_operation_xyz
x,y,z
-x,-y,z
x,-y,-z
-x,y,-z
-x,-y,-z
x,y,-z
-x,y,z
x,-y,z
loop_
_atom_site_type_symbol
_atom_site_label
_atom_site_fract_x
_atom_site_fract_y
_atom_site_fract_z
Si Si1 0.279523 0.218656 0.829791
Si Si2 0.945173 0.390336 0.831759
Si Si3 0.555870 0.000000 0.331960
Si Si4 0.372723 0.106722 0.158911
Si Si5 0.136318 0.710151 0.663564
Si Si6 0.235660 0.611432 0.333159
Si Si7 0.198122 0.889740 0.664836
O O1 0.333526 0.184628 0.787125
O O2 0.272232 0.324864 0.761590
O O3 0.241996 0.141566 0.765679
O O4 0.272543 0.222939 0.000000
O O5 0.933531 0.500000 0.779942
O O6 0.909864 0.313743 0.758551
O O7 0.000000 0.363082 0.789873
O O8 0.937649 0.382683 0.000000
O O9 0.580989 0.097518 0.265465
O O10 0.500000 0.000000 0.289398
O O11 0.564097 0.000000 0.500000
O O12 0.347234 0.000000 0.153222
O O13 0.391289 0.135600 0.000000
O O14 0.121243 0.693926 0.500000
O O15 0.180712 0.639665 0.705103
O O16 0.151656 0.821601 0.693495
O O17 0.245718 0.632443 0.500000
O O18 0.244532 0.500000 0.292852
O O19 0.215016 0.877171 0.500000
O O20 0.183017 0.000000 0.699336
#
# Coordination Sequence:
#
# PCOD8193848 Si02
#       7
#     8   8   4   8   8   8   8
#     4  10  18  28  42  63  88 112 146 183 212 247
#     4   9  18  31  45  62  84 107 131 163 206 256
#     4   9  17  27  41  63  87 113 149 187 216 249
#     4   8  16  28  40  57  85 118 144 173 213 253
#     4   9  17  29  45  64  83 105 136 172 207 246
#     4   9  18  31  44  60  86 117 145 174 210 254
#     4   9  18  31  45  61  84 114 144 173 208 250
#
# _framework density 14.635121
#
# number of rings (size 3 to 8) (size 9 to 14) (size 15 to 20)
#    0.462    2.538    0.000    2.769    0.000    6.769 
#    0.000    0.769    0.000    0.462    0.000    3.231 
#    0.000    0.615    0.000    6.769    0.000    4.923 
#
# Total GULP energy -644491.576497 kJ/mol
# GULP energy per Si atom -12394.068779 kJ/mol
# Density = 1.460181 g / cm^3
# Si number density = 14.635121 Si / 1000 Ang^3
#
#
#
# Elastic Constant Matrix: (Units=GPa)
#
#
# Indices 1 2 3 4 5 6 
#
# 1 104.6180 54.2568 58.5618 0.0000 0.0000 0.0000
# 2 54.2568 101.7993 42.7288 0.0000 0.0000 0.0000
# 3 58.5618 42.7288 66.7558 0.0000 0.0000 0.0000
# 4 0.0000 0.0000 0.0000 22.1035 0.0000 0.0000
# 5 0.0000 0.0000 0.0000 0.0000 26.5290 0.0000
# 6 0.0000 0.0000 0.0000 0.0000 0.0000 20.8432
#
#
#
# Elastic Compliance Matrix: (Units=1/GPa)
#
#
# Indices 1 2 3 4 5 6 
#
# 1 0.020216 -0.004554 -0.014819 0.000000 0.000000 0.000000
# 2 -0.004554 0.014458 -0.005259 0.000000 0.000000 0.000000
# 3 -0.014819 -0.005259 0.031346 0.000000 0.000000 0.000000
# 4 0.000000 0.000000 0.000000 0.045242 0.000000 0.000000
# 5 0.000000 0.000000 0.000000 0.000000 0.037695 0.000000
# 6 0.000000 0.000000 0.000000 0.000000 0.000000 0.047977
#
#
# Mechanical properties :
#
#
# Convention : Reuss Voigt Hill
#
# Bulk Modulus (GPa) = 59.68334 64.91865 62.30100
# Shear Modulus (GPa) = 19.85827 21.73685 20.79756
#
# Velocity S-wave (km/s) = 3.68760 3.85808 3.77380
# Velocity P-wave (km/s) = 7.68118 8.01878 7.85180
#
# Compressibility (1/GPa) = 0.01675510
#
# Stress axis : x y z
#
# Youngs Moduli (GPa) = 49.46568 69.16589 31.90165
#
# Poissons Ratio (x) = 0.31502 0.47276
# Poissons Ratio (y) = 0.22529 0.16776
# Poissons Ratio (z) = 0.73305 0.36373
#
# Static dielectric constant tensor:
#      x y z
#    x 2.625130 0.000000 0.000000 
#    y 0.000000 2.842920 0.000000 
#    z 0.000000 0.000000 2.823180 
# 
# 
# High freq. dielectric constant tensor:
#      x y z
#    x 1.535300 0.000000 0.000000 
#    y 0.000000 1.545290 0.000000 
#    z 0.000000 0.000000 1.565400 
# 
# From -- ./inp_files/13429.got.cif
#   From: 2010.03.12/outbox.cif.g09.slc.cpg/sg47_7_cif.got.tgz:13429.got - 2010.04.14 03:12:58.
