data_PCOD8193818
_publ_section_title
;
Structure prediction by ZEFSAII (Michael W. Deem and Ramdas Pophale) SiO2 
 PCOD8193818
Probable space group: P M M M
;
_chemical_formula_sum "Si O2"
_cell_formula_units_Z 64
_cell_length_a 9.009558
_cell_length_b 14.552086
_cell_length_c 26.132605
_cell_angle_alpha 90.000000
_cell_angle_beta 90.000000
_cell_angle_gamma 90.000000
_cell_volume 3426.189992
_symmetry_space_group_name_H-M "P M M M"
_symmetry_group_IT_number 47
_symmetry_cell_setting 'orthorhombic'
loop_
_space_group_symop_operation_xyz
x,y,z
-x,-y,z
x,-y,-z
-x,y,-z
-x,-y,-z
x,y,-z
-x,y,z
x,-y,z
loop_
_atom_site_type_symbol
_atom_site_label
_atom_site_fract_x
_atom_site_fract_y
_atom_site_fract_z
Si Si1 0.672143 0.262157 0.057167
Si Si2 0.323804 0.397390 0.443196
Si Si3 0.825893 0.105615 0.106413
Si Si4 0.175191 0.894739 0.311161
Si Si5 0.675925 0.397343 0.143951
Si Si6 0.676826 0.273235 0.648940
Si Si7 0.334574 0.891409 0.791987
Si Si8 0.675728 0.603067 0.742268
O O1 0.500000 0.241269 0.068216
O O2 0.762996 0.166794 0.060260
O O3 0.739641 0.332988 0.098836
O O4 0.693694 0.302539 0.000000
O O5 0.271540 0.366404 0.500000
O O6 0.500000 0.399661 0.440555
O O7 0.263508 0.500000 0.431229
O O8 0.263520 0.326371 0.401151
O O9 0.747256 0.144356 0.157516
O O10 0.000000 0.118183 0.113023
O O11 0.784847 0.000000 0.095204
O O12 0.248084 0.827535 0.353102
O O13 0.240668 0.861704 0.257009
O O14 0.000000 0.883110 0.309822
O O15 0.219725 0.000000 0.323839
O O16 0.500000 0.400679 0.139426
O O17 0.739976 0.500000 0.135974
O O18 0.722047 0.361338 0.200815
O O19 0.500000 0.262023 0.649022
O O20 0.736191 0.328318 0.698820
O O21 0.500000 0.847546 0.788657
O O22 0.345812 0.000000 0.794539
O O23 0.500000 0.598248 0.737890
O O24 0.739200 0.500000 0.733214
#
# Coordination Sequence:
#
# PCOD8193818 Si02
#       8
#     8   8   8   8   8   8   8   8
#     4  10  21  34  50  74  99 126 167 215 256 298
#     4   8  14  26  46  75 111 144 173 213 265 315
#     4  10  21  36  53  73  99 132 166 201 250 311
#     4  10  21  35  48  67 102 143 177 210 254 305
#     4   8  15  29  48  70  98 128 157 198 252 303
#     4  10  18  27  48  79 103 132 176 218 254 299
#     4   9  17  31  52  75  97 124 162 206 248 294
#     4   8  14  25  43  71 103 128 155 197 248 302
#
# _framework density 18.679641
#
# number of rings (size 3 to 8) (size 9 to 14) (size 15 to 20)
#    0.000    2.875    0.000    2.625    1.750    5.250 
#    0.000    2.500    0.000    2.625    0.000    6.125 
#    0.000    0.000    0.000    0.000    0.000    0.000 
#
# Total GULP energy -793319.258745 kJ/mol
# GULP energy per Si atom -12395.613418 kJ/mol
# Density = 1.863713 g / cm^3
# Si number density = 18.679641 Si / 1000 Ang^3
#
#
#
# Elastic Constant Matrix: (Units=GPa)
#
#
# Indices 1 2 3 4 5 6 
#
# 1 44.8271 30.4351 29.1650 0.0000 0.0000 0.0000
# 2 30.4351 98.4178 74.8907 0.0000 0.0000 0.0000
# 3 29.1650 74.8907 134.6207 0.0000 0.0000 0.0000
# 4 0.0000 0.0000 0.0000 32.3259 0.0000 0.0000
# 5 0.0000 0.0000 0.0000 0.0000 12.2886 0.0000
# 6 0.0000 0.0000 0.0000 0.0000 0.0000 13.2702
#
#
#
# Elastic Compliance Matrix: (Units=1/GPa)
#
#
# Indices 1 2 3 4 5 6 
#
# 1 0.028612 -0.007164 -0.002213 0.000000 0.000000 0.000000
# 2 -0.007164 0.019413 -0.009248 0.000000 0.000000 0.000000
# 3 -0.002213 -0.009248 0.013052 0.000000 0.000000 0.000000
# 4 0.000000 0.000000 0.000000 0.030935 0.000000 0.000000
# 5 0.000000 0.000000 0.000000 0.000000 0.081376 0.000000
# 6 0.000000 0.000000 0.000000 0.000000 0.000000 0.075357
#
#
# Mechanical properties :
#
#
# Convention : Reuss Voigt Hill
#
# Bulk Modulus (GPa) = 41.96813 60.76081 51.36447
# Shear Modulus (GPa) = 17.01045 21.13527 19.07286
#
# Velocity S-wave (km/s) = 3.02096 3.36737 3.19885
# Velocity P-wave (km/s) = 5.88934 6.90777 6.41879
#
# Compressibility (1/GPa) = 0.02382760
#
# Stress axis : x y z
#
# Youngs Moduli (GPa) = 34.95069 51.51160 76.61452
#
# Poissons Ratio (x) = 0.36902 0.16957
# Poissons Ratio (y) = 0.25038 0.70851
# Poissons Ratio (z) = 0.07736 0.47636
#
# Static dielectric constant tensor:
#      x y z
#    x 2.991970 0.000000 0.000000 
#    y 0.000000 3.560750 0.000000 
#    z 0.000000 0.000000 3.569390 
# 
# 
# High freq. dielectric constant tensor:
#      x y z
#    x 1.679760 0.000000 0.000000 
#    y 0.000000 1.725950 0.000000 
#    z 0.000000 0.000000 1.715310 
# 
# From -- ./inp_files/34434.got.cif
#   From: 2010.03.12/outbox.cif.g09.slc.cpg/sg47_18_cif.got.tgz:34434.got - 2010.04.14 03:12:58.
