data_PCOD8193867
_publ_section_title
;
Structure prediction by ZEFSAII (Michael W. Deem and Ramdas Pophale) SiO2 
 PCOD8193867
Probable space group: P M M M
;
_chemical_formula_sum "Si O2"
_cell_formula_units_Z 64
_cell_length_a 18.673866
_cell_length_b 9.430941
_cell_length_c 23.721908
_cell_angle_alpha 90.000000
_cell_angle_beta 90.000000
_cell_angle_gamma 90.000000
_cell_volume 4177.715710
_symmetry_space_group_name_H-M "P M M M"
_symmetry_group_IT_number 47
_symmetry_cell_setting 'orthorhombic'
loop_
_space_group_symop_operation_xyz
x,y,z
-x,-y,z
x,-y,-z
-x,y,-z
-x,-y,-z
x,y,-z
-x,y,z
x,-y,z
loop_
_atom_site_type_symbol
_atom_site_label
_atom_site_fract_x
_atom_site_fract_y
_atom_site_fract_z
Si Si1 0.579860 0.831841 0.562612
Si Si2 0.697631 0.663657 0.165240
Si Si3 0.329472 0.834340 0.333221
Si Si4 0.210928 0.665297 0.724314
Si Si5 0.080937 0.836610 0.890536
Si Si6 0.081468 0.836419 0.760268
Si Si7 0.581509 0.164099 0.222599
Si Si8 0.792904 0.336367 0.063439
O O1 0.605514 0.785475 0.500000
O O2 0.500000 0.771166 0.574288
O O3 0.635738 0.775649 0.608952
O O4 0.576222 0.000000 0.567211
O O5 0.675787 0.500000 0.161936
O O6 0.754480 0.691897 0.214663
O O7 0.625390 0.751183 0.175332
O O8 0.732567 0.718369 0.106909
O O9 0.258455 0.742441 0.323070
O O10 0.387216 0.806508 0.284397
O O11 0.308600 0.000000 0.336520
O O12 0.204565 0.500000 0.709539
O O13 0.132478 0.735628 0.723467
O O14 0.089223 0.793517 0.825438
O O15 0.132873 0.745190 0.929169
O O16 0.000000 0.807511 0.910712
O O17 0.101093 0.000000 0.898841
O O18 0.000000 0.812164 0.740040
O O19 0.103780 0.000000 0.751523
O O20 0.500000 0.217789 0.221990
O O21 0.586851 0.000000 0.206799
O O22 0.809215 0.500000 0.076203
O O23 0.764320 0.312867 0.000000
#
# Coordination Sequence:
#
# PCOD8193867 Si02
#       8
#     8   8   8   8   8   8   8   8
#     4   8  13  22  39  64  92 122 157 192 219 246
#     4   9  18  31  44  61  83 107 136 171 213 257
#     4   9  16  26  42  64  91 120 147 180 218 252
#     4  10  18  28  43  63  87 114 145 180 216 255
#     4   9  18  31  46  64  86 111 139 172 209 252
#     4   9  17  29  45  64  86 113 143 174 212 259
#     4   9  17  28  44  66  87 108 136 172 214 258
#     4  10  20  33  47  62  82 109 142 178 212 252
#
# _framework density 15.319376
#
# number of rings (size 3 to 8) (size 9 to 14) (size 15 to 20)
#    0.000    2.875    1.250    1.875    0.000    3.750 
#    0.000    2.500    0.000    1.875    0.000    3.500 
#    0.000    0.500    0.000    5.750    0.000    1.625 
#
# Total GULP energy -793527.012657 kJ/mol
# GULP energy per Si atom -12398.859573 kJ/mol
# Density = 1.528451 g / cm^3
# Si number density = 15.319376 Si / 1000 Ang^3
#
#
#
# Elastic Constant Matrix: (Units=GPa)
#
#
# Indices 1 2 3 4 5 6 
#
# 1 98.4542 46.8612 49.6246 0.0000 0.0000 0.0000
# 2 46.8612 53.6731 33.4645 0.0000 0.0000 0.0000
# 3 49.6246 33.4645 89.0009 0.0000 0.0000 0.0000
# 4 0.0000 0.0000 0.0000 13.8719 0.0000 0.0000
# 5 0.0000 0.0000 0.0000 0.0000 26.5610 0.0000
# 6 0.0000 0.0000 0.0000 0.0000 0.0000 19.9856
#
#
#
# Elastic Compliance Matrix: (Units=1/GPa)
#
#
# Indices 1 2 3 4 5 6 
#
# 1 0.019445 -0.013346 -0.005824 0.000000 0.000000 0.000000
# 2 -0.013346 0.033496 -0.005153 0.000000 0.000000 0.000000
# 3 -0.005824 -0.005153 0.016421 0.000000 0.000000 0.000000
# 4 0.000000 0.000000 0.000000 0.072088 0.000000 0.000000
# 5 0.000000 0.000000 0.000000 0.000000 0.037649 0.000000
# 6 0.000000 0.000000 0.000000 0.000000 0.000000 0.050036
#
#
# Mechanical properties :
#
#
# Convention : Reuss Voigt Hill
#
# Bulk Modulus (GPa) = 48.27242 55.66986 51.97114
# Shear Modulus (GPa) = 17.56322 19.49558 18.52940
#
# Velocity S-wave (km/s) = 3.38963 3.57123 3.48162
# Velocity P-wave (km/s) = 6.84825 7.30913 7.08244
#
# Compressibility (1/GPa) = 0.02071576
#
# Stress axis : x y z
#
# Youngs Moduli (GPa) = 51.42825 29.85400 60.89862
#
# Poissons Ratio (x) = 0.39842 0.35466
# Poissons Ratio (y) = 0.68635 0.31384
# Poissons Ratio (z) = 0.29951 0.15385
#
# Static dielectric constant tensor:
#      x y z
#    x 2.924090 0.000000 0.000000 
#    y 0.000000 2.812720 0.000000 
#    z 0.000000 0.000000 2.854090 
# 
# 
# High freq. dielectric constant tensor:
#      x y z
#    x 1.580490 0.000000 0.000000 
#    y 0.000000 1.576610 0.000000 
#    z 0.000000 0.000000 1.560190 
# 
# From -- ./inp_files/10203.got.cif
#   From: 2010.03.12/outbox.cif.g09.slc.cpg/sg47_6_cif.got.tgz:10203.got - 2010.04.14 03:12:58.
