data_PCOD8193935
_publ_section_title
;
Structure prediction by ZEFSAII (Michael W. Deem and Ramdas Pophale) SiO2 
 PCOD8193935
Probable space group: P M M M
;
_chemical_formula_sum "Si O2"
_cell_formula_units_Z 56
_cell_length_a 19.020499
_cell_length_b 9.318932
_cell_length_c 18.977106
_cell_angle_alpha 90.000000
_cell_angle_beta 90.000000
_cell_angle_gamma 90.000000
_cell_volume 3363.706021
_symmetry_space_group_name_H-M "P M M M"
_symmetry_group_IT_number 47
_symmetry_cell_setting 'orthorhombic'
loop_
_space_group_symop_operation_xyz
x,y,z
-x,-y,z
x,-y,-z
-x,y,-z
-x,-y,-z
x,y,-z
-x,y,z
x,-y,z
loop_
_atom_site_type_symbol
_atom_site_label
_atom_site_fract_x
_atom_site_fract_y
_atom_site_fract_z
Si Si1 0.923674 0.329717 0.850626
Si Si2 0.215374 0.330139 0.922536
Si Si3 0.209081 0.167384 0.667242
Si Si4 0.656172 0.833312 0.579840
Si Si5 0.289589 0.667616 0.784937
Si Si6 0.921073 0.666744 0.310960
Si Si7 0.421121 0.333482 0.302413
O O1 0.922145 0.500000 0.853784
O O2 0.859918 0.265964 0.897139
O O3 0.914734 0.282633 0.769864
O O4 0.000000 0.274853 0.878945
O O5 0.208889 0.500000 0.927474
O O6 0.276701 0.289216 0.866681
O O7 0.233812 0.266654 0.000000
O O8 0.264244 0.196283 0.604706
O O9 0.235947 0.242054 0.738323
O O10 0.134816 0.238674 0.644871
O O11 0.198776 0.000000 0.681819
O O12 0.648887 0.778344 0.500000
O O13 0.600336 0.750232 0.627433
O O14 0.637715 0.000000 0.586168
O O15 0.272387 0.500000 0.772830
O O16 0.369819 0.704344 0.763158
O O17 0.902168 0.500000 0.319626
O O18 0.000000 0.696677 0.339087
O O19 0.500000 0.289632 0.279981
O O20 0.415989 0.500000 0.321395
#
# Coordination Sequence:
#
# PCOD8193935 Si02
#       7
#     8   8   8   8   8   8   8
#     4   8  13  21  34  55  83 111 140 177 219 260
#     4   9  15  22  37  61  85 113 151 190 223 258
#     4  10  18  28  46  68  88 113 149 188 221 261
#     4   9  19  34  49  68  95 123 147 174 215 266
#     4   9  16  29  46  62  87 118 148 184 224 265
#     4   9  16  27  44  64  87 117 152 189 229 268
#     4   9  18  31  48  70  93 119 149 180 217 262
#
# _framework density 16.648304
#
# number of rings (size 3 to 8) (size 9 to 14) (size 15 to 20)
#    0.000    3.000    1.429    1.286    0.000    2.000 
#    0.000    2.857    0.000    1.286    0.000    6.000 
#    0.000    2.286    0.000    7.143    0.000    7.429 
#
# Total GULP energy -694025.541846 kJ/mol
# GULP energy per Si atom -12393.313247 kJ/mol
# Density = 1.661041 g / cm^3
# Si number density = 16.648304 Si / 1000 Ang^3
#
#
#
# Elastic Constant Matrix: (Units=GPa)
#
#
# Indices 1 2 3 4 5 6 
#
# 1 136.6214 37.6678 55.4427 0.0000 0.0000 0.0000
# 2 37.6678 37.4801 17.1565 0.0000 0.0000 0.0000
# 3 55.4427 17.1565 85.7335 0.0000 0.0000 0.0000
# 4 0.0000 0.0000 0.0000 10.7218 0.0000 0.0000
# 5 0.0000 0.0000 0.0000 0.0000 18.4600 0.0000
# 6 0.0000 0.0000 0.0000 0.0000 0.0000 20.0500
#
#
#
# Elastic Compliance Matrix: (Units=1/GPa)
#
#
# Indices 1 2 3 4 5 6 
#
# 1 0.012496 -0.009753 -0.006129 0.000000 0.000000 0.000000
# 2 -0.009753 0.036983 -0.001094 0.000000 0.000000 0.000000
# 3 -0.006129 -0.001094 0.015847 0.000000 0.000000 0.000000
# 4 0.000000 0.000000 0.000000 0.093268 0.000000 0.000000
# 5 0.000000 0.000000 0.000000 0.000000 0.054171 0.000000
# 6 0.000000 0.000000 0.000000 0.000000 0.000000 0.049875
#
#
# Mechanical properties :
#
#
# Convention : Reuss Voigt Hill
#
# Bulk Modulus (GPa) = 31.87359 53.37434 42.62396
# Shear Modulus (GPa) = 16.28406 19.81757 18.05081
#
# Velocity S-wave (km/s) = 3.13089 3.45391 3.29636
# Velocity P-wave (km/s) = 5.67950 6.93077 6.33610
#
# Compressibility (1/GPa) = 0.03137394
#
# Stress axis : x y z
#
# Youngs Moduli (GPa) = 80.02751 27.03935 63.10501
#
# Poissons Ratio (x) = 0.26371 0.38678
# Poissons Ratio (y) = 0.78048 0.06903
# Poissons Ratio (z) = 0.49050 0.02958
#
# Static dielectric constant tensor:
#      x y z
#    x 3.373250 0.000000 0.000000 
#    y 0.000000 2.869540 0.000000 
#    z 0.000000 0.000000 3.124400 
# 
# 
# High freq. dielectric constant tensor:
#      x y z
#    x 1.646250 0.000000 0.000000 
#    y 0.000000 1.608840 0.000000 
#    z 0.000000 0.000000 1.615080 
# 
# From -- ./inp_files/9830.got.cif
#   From: 2010.03.12/outbox.cif.g09.slc.cpg/sg47_5_cif.got.tgz:9830.got - 2010.04.14 03:12:58.
