data_PCOD8193184
_publ_section_title
;
Structure prediction by ZEFSAII (Michael W. Deem and Ramdas Pophale) SiO2 
 PCOD8193184
Probable space group: I M A 2
;
_chemical_formula_sum "Si O2"
_cell_formula_units_Z 36
_cell_length_a 18.221262
_cell_length_b 9.112823
_cell_length_c 11.243739
_cell_angle_alpha 90.000000
_cell_angle_beta 90.000000
_cell_angle_gamma 90.000000
_cell_volume 1866.990653
_symmetry_space_group_name_H-M "I M A 2"
_symmetry_group_IT_number 46
_symmetry_cell_setting 'orthorhombic'
loop_
_space_group_symop_operation_xyz
x,y,z
-x,-y,z
1/2-x,y,z
1/2+x,-y,z
1/2+x,1/2+y,1/2+z
1/2-x,1/2-y,1/2+z
-x,1/2+y,1/2+z
x,1/2-y,1/2+z
loop_
_atom_site_type_symbol
_atom_site_label
_atom_site_fract_x
_atom_site_fract_y
_atom_site_fract_z
Si Si1 0.433301 0.831802 0.250000
Si Si2 0.163966 0.021196 0.079834
Si Si3 0.000000 0.500000 0.958636
Si Si4 0.583120 0.017639 0.841371
Si Si5 0.425742 0.286260 0.143979
O O1 0.443528 0.907537 0.378245
O O2 0.407480 0.664509 0.264723
O O3 0.510949 0.830290 0.180397
O O4 0.371590 0.915061 0.176852
O O5 0.250000 0.003013 0.091432
O O6 0.142752 0.190848 0.100267
O O7 0.139585 0.974796 0.948596
O O8 0.952780 0.609414 0.038675
O O9 0.600789 0.880574 0.756420
O O10 0.500000 0.000000 0.890446
#
# Coordination Sequence:
#
# PCOD8193184 Si02
#       5
#     8   8   4   8   8
#     4  11  21  40  67  95 124 156 216 262 306 362
#     4  12  26  41  60  92 135 172 199 247 318 382
#     4  12  20  36  72  96 116 156 208 270 314 348
#     4  10  22  41  69  93 120 160 214 268 306 353
#     4  11  21  42  67  99 118 159 217 265 310 356
#
# _framework density 19.282367000000001
#
# number of rings (size 3 to 8) (size 9 to 14) (size 15 to 20)
#    0.000    0.889    5.556    5.333    0.000    1.778 
#    0.000    0.000    0.000    0.000    0.000    0.000 
#    0.000    0.000    0.000    0.000    0.000    0.000 
#
# Total GULP energy -223299.176021 kJ/mol
# GULP energy per Si atom -12405.509779 kJ/mol
# Density = 1.923848 g / cm^3
# Si number density = 19.282367 Si / 1000 Ang^3
#
#
#
# Elastic Constant Matrix: (Units=GPa)
#
#
# Indices 1 2 3 4 5 6 
#
# 1 107.3969 50.6048 46.6565 0.0000 0.0000 0.0000
# 2 50.6048 92.6608 29.9118 0.0000 0.0000 0.0000
# 3 46.6565 29.9118 99.3115 0.0000 0.0000 0.0000
# 4 0.0000 0.0000 0.0000 39.9855 0.0000 0.0000
# 5 0.0000 0.0000 0.0000 0.0000 21.5310 0.0000
# 6 0.0000 0.0000 0.0000 0.0000 0.0000 22.9103
#
#
#
# Elastic Compliance Matrix: (Units=1/GPa)
#
#
# Indices 1 2 3 4 5 6 
#
# 1 0.014387 -0.006287 -0.004866 0.000000 0.000000 0.000000
# 2 -0.006287 0.014701 -0.001474 0.000000 0.000000 0.000000
# 3 -0.004866 -0.001474 0.012799 0.000000 0.000000 0.000000
# 4 0.000000 0.000000 0.000000 0.025009 0.000000 0.000000
# 5 0.000000 0.000000 0.000000 0.000000 0.046445 0.000000
# 6 0.000000 0.000000 0.000000 0.000000 0.000000 0.043649
#
#
# Mechanical properties :
#
#
# Convention : Reuss Voigt Hill
#
# Bulk Modulus (GPa) = 60.11633 61.52392 60.82013
# Shear Modulus (GPa) = 26.62570 28.36509 27.49539
#
# Velocity S-wave (km/s) = 3.71999 3.83957 3.78025
# Velocity P-wave (km/s) = 7.04951 7.18558 7.11787
#
# Compressibility (1/GPa) = 0.01663442
#
# Stress axis : x y z
#
# Youngs Moduli (GPa) = 69.50595 68.02106 78.12929
#
# Poissons Ratio (x) = 0.42762 0.38015
# Poissons Ratio (y) = 0.43696 0.11520
# Poissons Ratio (z) = 0.33819 0.10030
#
# Static dielectric constant tensor:
#      x y z
#    x 3.197010 0.000000 0.000000 
#    y 0.000000 3.759660 0.000000 
#    z 0.000000 0.000000 3.660640 
# 
# 
# High freq. dielectric constant tensor:
#      x y z
#    x 1.707300 0.000000 0.000000 
#    y 0.000000 1.775720 0.000000 
#    z 0.000000 0.000000 1.766420 
# 
# From -- ./inp_files/12255.got.cif
#   From: 2010.03.12/outbox.cif.g09.slc.cpg/sg46_7_cif.got.tgz:12255.got - 2010.04.14 02:56:35.
