data_PCOD8193825
_publ_section_title
;
Structure prediction by ZEFSAII (Michael W. Deem and Ramdas Pophale) SiO2 
 PCOD8193825
Probable space group: P M M M
;
_chemical_formula_sum "Si O2"
_cell_formula_units_Z 48
_cell_length_a 22.033639
_cell_length_b 9.103551
_cell_length_c 18.294801
_cell_angle_alpha 90.000000
_cell_angle_beta 90.000000
_cell_angle_gamma 90.000000
_cell_volume 3669.650883
_symmetry_space_group_name_H-M "P M M M"
_symmetry_group_IT_number 47
_symmetry_cell_setting 'orthorhombic'
loop_
_space_group_symop_operation_xyz
x,y,z
-x,-y,z
x,-y,-z
-x,y,-z
-x,-y,-z
x,y,-z
-x,y,z
x,-y,z
loop_
_atom_site_type_symbol
_atom_site_label
_atom_site_fract_x
_atom_site_fract_y
_atom_site_fract_z
Si Si1 0.356004 0.174282 0.861754
Si Si2 0.427917 0.665769 0.579762
Si Si3 0.432467 0.174188 0.000000
Si Si4 0.239621 0.672880 0.085037
Si Si5 0.568898 0.172927 0.721184
Si Si6 0.881834 0.165874 0.913186
Si Si7 0.000000 0.333507 0.912762
O O1 0.397667 0.229424 0.928362
O O2 0.292247 0.257065 0.865953
O O3 0.389175 0.224596 0.787838
O O4 0.345019 0.000000 0.865073
O O5 0.404576 0.722497 0.500000
O O6 0.500000 0.673081 0.580103
O O7 0.405378 0.500000 0.592148
O O8 0.402636 0.763872 0.646102
O O9 0.500000 0.242268 0.000000
O O10 0.436709 0.000000 0.000000
O O11 0.235831 0.500000 0.098573
O O12 0.177295 0.745466 0.112550
O O13 0.251658 0.709794 0.000000
O O14 0.500000 0.229655 0.734648
O O15 0.569003 0.000000 0.714358
O O16 0.940902 0.249296 0.882223
O O17 0.879877 0.000000 0.881962
O O18 0.884950 0.162175 0.000000
O O19 0.000000 0.500000 0.882886
O O20 0.000000 0.334362 0.000000
#
# Coordination Sequence:
#
# PCOD8193825 Si02
#       7
#     8   8   4   8   8   8   4
#     4  10  18  28  41  54  69  91 121 153 187 227
#     4   8  14  25  40  56  73  93 114 134 165 216
#     4   9  16  26  41  55  65  84 117 154 189 225
#     4  10  19  29  39  51  68  90 119 154 190 223
#     4   9  17  27  39  57  76  91 113 148 187 224
#     4   9  16  25  38  53  69  89 115 144 177 217
#     4   9  15  23  35  53  75  93 109 135 176 217
#
# _framework density 13.080263
#
# number of rings (size 3 to 8) (size 9 to 14) (size 15 to 20)
#    0.000    2.833    0.833    2.250    0.000    6.667 
#    0.000    1.667    0.000    2.000    0.000    0.000 
#    0.000    0.000    0.000    0.000    0.000    0.000 
#
# Total GULP energy -595037.571942 kJ/mol
# GULP energy per Si atom -12396.616082 kJ/mol
# Density = 1.305049 g / cm^3
# Si number density = 13.080263 Si / 1000 Ang^3
#
#
#
# Elastic Constant Matrix: (Units=GPa)
#
#
# Indices 1 2 3 4 5 6 
#
# 1 99.6190 43.0206 39.1396 0.0000 0.0000 0.0000
# 2 43.0206 60.6719 29.9684 0.0000 0.0000 0.0000
# 3 39.1396 29.9684 82.5617 0.0000 0.0000 0.0000
# 4 0.0000 0.0000 0.0000 15.5737 0.0000 0.0000
# 5 0.0000 0.0000 0.0000 0.0000 3.8181 0.0000
# 6 0.0000 0.0000 0.0000 0.0000 0.0000 17.9638
#
#
#
# Elastic Compliance Matrix: (Units=1/GPa)
#
#
# Indices 1 2 3 4 5 6 
#
# 1 0.015530 -0.008987 -0.004100 0.000000 0.000000 0.000000
# 2 -0.008987 0.025283 -0.004917 0.000000 0.000000 0.000000
# 3 -0.004100 -0.004917 0.015841 0.000000 0.000000 0.000000
# 4 0.000000 0.000000 0.000000 0.064211 0.000000 0.000000
# 5 0.000000 0.000000 0.000000 0.000000 0.261910 0.000000
# 6 0.000000 0.000000 0.000000 0.000000 0.000000 0.055668
#
#
# Mechanical properties :
#
#
# Convention : Reuss Voigt Hill
#
# Bulk Modulus (GPa) = 48.43564 51.90108 50.16836
# Shear Modulus (GPa) = 10.38783 16.18604 13.28694
#
# Velocity S-wave (km/s) = 2.82114 3.52154 3.19062
# Velocity P-wave (km/s) = 6.90809 7.50334 7.21186
#
# Compressibility (1/GPa) = 0.02064595
#
# Stress axis : x y z
#
# Youngs Moduli (GPa) = 64.39097 39.55232 63.12835
#
# Poissons Ratio (x) = 0.35544 0.25885
# Poissons Ratio (y) = 0.57866 0.31040
# Poissons Ratio (z) = 0.26402 0.19448
#
# Static dielectric constant tensor:
#      x y z
#    x 2.582730 0.000000 0.000000 
#    y 0.000000 2.648030 0.000000 
#    z 0.000000 0.000000 2.544590 
# 
# 
# High freq. dielectric constant tensor:
#      x y z
#    x 1.479610 0.000000 0.000000 
#    y 0.000000 1.500840 0.000000 
#    z 0.000000 0.000000 1.455060 
# 
# From -- ./inp_files/9749.got.cif
#   From: 2010.03.12/outbox.cif.g09.slc.cpg/sg47_5_cif.got.tgz:9749.got - 2010.04.14 03:12:58.
