data_PCOD8193246
_publ_section_title
;
Structure prediction by ZEFSAII (Michael W. Deem and Ramdas Pophale) SiO2 
 PCOD8193246
Probable space group: I M A 2
;
_chemical_formula_sum "Si O2"
_cell_formula_units_Z 48
_cell_length_a 34.424834
_cell_length_b 7.253982
_cell_length_c 9.395480
_cell_angle_alpha 90.000000
_cell_angle_beta 90.000000
_cell_angle_gamma 90.000000
_cell_volume 2346.212265
_symmetry_space_group_name_H-M "I M A 2"
_symmetry_group_IT_number 46
_symmetry_cell_setting 'orthorhombic'
loop_
_space_group_symop_operation_xyz
x,y,z
-x,-y,z
1/2-x,y,z
1/2+x,-y,z
1/2+x,1/2+y,1/2+z
1/2-x,1/2-y,1/2+z
-x,1/2+y,1/2+z
x,1/2-y,1/2+z
loop_
_atom_site_type_symbol
_atom_site_label
_atom_site_fract_x
_atom_site_fract_y
_atom_site_fract_z
Si Si1 0.205275 0.024933 0.353890
Si Si2 0.541875 0.935342 0.243035
Si Si3 0.041079 0.076003 0.571046
Si Si4 0.401774 0.757985 0.655209
Si Si5 0.294447 0.120882 0.033534
Si Si6 0.347269 0.675171 0.404331
O O1 0.250000 0.958213 0.349335
O O2 0.192815 0.103929 0.198869
O O3 0.199222 0.172453 0.478925
O O4 0.177383 0.861109 0.398798
O O5 0.538165 0.872080 0.405736
O O6 0.554938 0.758072 0.153351
O O7 0.500000 0.000000 0.184401
O O8 0.572927 0.099112 0.230021
O O9 0.072100 0.917807 0.592450
O O10 0.000000 0.000000 0.629432
O O11 0.378345 0.666442 0.528920
O O12 0.371083 0.851694 0.760427
O O13 0.250000 0.060622 0.016646
O O14 0.318300 0.992978 0.926799
#
# Coordination Sequence:
#
# PCOD8193246 Si02
#       6
#     8   8   8   8   8   8
#     4  10  23  43  68  98 131 175 223 264 322 390
#     4  11  25  44  69  96 127 168 219 270 328 393
#     4  11  25  44  69  95 127 169 217 272 329 392
#     4  12  26  44  63 101 131 173 220 270 332 389
#     4  10  23  43  68  97 131 176 221 266 323 388
#     4  12  25  44  64  95 141 171 218 268 329 388
#
# _framework density 20.458508999999999
#
# number of rings (size 3 to 8) (size 9 to 14) (size 15 to 20)
#    0.000    1.000    5.000    0.500    4.667    3.333 
#    0.000    0.000    0.000    0.000    0.000    0.000 
#    0.000    0.000    0.000    0.000    0.000    0.000 
#
# Total GULP energy -297703.387566 kJ/mol
# GULP energy per Si atom -12404.307815 kJ/mol
# Density = 2.041194 g / cm^3
# Si number density = 20.458509 Si / 1000 Ang^3
#
#
#
# Elastic Constant Matrix: (Units=GPa)
#
#
# Indices 1 2 3 4 5 6 
#
# 1 83.8310 26.4480 16.4422 0.0000 0.0000 0.0000
# 2 26.4480 91.7881 -4.0310 0.0000 0.0000 0.0000
# 3 16.4422 -4.0310 81.1585 0.0000 0.0000 0.0000
# 4 0.0000 0.0000 0.0000 36.7246 0.0000 0.0000
# 5 0.0000 0.0000 0.0000 0.0000 175.9923 0.0000
# 6 0.0000 0.0000 0.0000 0.0000 0.0000 43.5615
#
#
#
# Elastic Compliance Matrix: (Units=1/GPa)
#
#
# Indices 1 2 3 4 5 6 
#
# 1 0.013815 -0.004113 -0.003003 0.000000 0.000000 0.000000
# 2 -0.004113 0.012143 0.001436 0.000000 0.000000 0.000000
# 3 -0.003003 0.001436 0.013001 0.000000 0.000000 0.000000
# 4 0.000000 0.000000 0.000000 0.027230 0.000000 0.000000
# 5 0.000000 0.000000 0.000000 0.000000 0.005682 0.000000
# 6 0.000000 0.000000 0.000000 0.000000 0.000000 0.022956
#
#
# Mechanical properties :
#
#
# Convention : Reuss Voigt Hill
#
# Bulk Modulus (GPa) = 36.23140 37.16623 36.69882
# Shear Modulus (GPa) = 43.33269 65.78358 54.55814
#
# Velocity S-wave (km/s) = 4.60725 5.67666 5.16968
# Velocity P-wave (km/s) = 6.78605 7.82125 7.32197
#
# Compressibility (1/GPa) = 0.02760037
#
# Stress axis : x y z
#
# Youngs Moduli (GPa) = 72.38353 82.35351 76.91521
#
# Poissons Ratio (x) = 0.33869 0.23099
# Poissons Ratio (y) = 0.29769 -0.11047
# Poissons Ratio (z) = 0.21738 -0.11829
#
# Static dielectric constant tensor:
#      x y z
#    x 3.562130 0.000000 0.000000 
#    y 0.000000 3.586060 0.000000 
#    z 0.000000 0.000000 3.778900 
# 
# 
# High freq. dielectric constant tensor:
#      x y z
#    x 1.812910 0.000000 0.000000 
#    y 0.000000 1.797110 0.000000 
#    z 0.000000 0.000000 1.810280 
# 
# From -- ./inp_files/8395.got.cif
#   From: 2010.03.12/outbox.cif.g09.slc.cpg/sg46_5_cif.got.tgz:8395.got - 2010.04.14 02:56:35.
