data_PCOD8193982
_publ_section_title
;
Structure prediction by ZEFSAII (Michael W. Deem and Ramdas Pophale) SiO2 
 PCOD8193982
Probable space group: P M M M
;
_chemical_formula_sum "Si O2"
_cell_formula_units_Z 48
_cell_length_a 18.213360
_cell_length_b 15.520350
_cell_length_c 9.090872
_cell_angle_alpha 90.000000
_cell_angle_beta 90.000000
_cell_angle_gamma 90.000000
_cell_volume 2569.786987
_symmetry_space_group_name_H-M "P M M M"
_symmetry_group_IT_number 47
_symmetry_cell_setting 'orthorhombic'
loop_
_space_group_symop_operation_xyz
x,y,z
-x,-y,z
x,-y,-z
-x,y,-z
-x,-y,-z
x,y,-z
-x,y,z
x,-y,z
loop_
_atom_site_type_symbol
_atom_site_label
_atom_site_fract_x
_atom_site_fract_y
_atom_site_fract_z
Si Si1 0.085929 0.657026 0.170693
Si Si2 0.163003 0.500000 0.325425
Si Si3 0.663889 0.813383 0.166321
Si Si4 0.670059 0.500000 0.674998
Si Si5 0.417116 0.334997 0.674363
Si Si6 0.834734 0.169901 0.828909
Si Si7 0.319490 0.000000 0.833480
Si Si8 0.829378 0.000000 0.672894
O O1 0.123334 0.584333 0.267268
O O2 0.117650 0.748635 0.221789
O O3 0.000000 0.655838 0.202050
O O4 0.103595 0.639337 0.000000
O O5 0.159641 0.500000 0.500000
O O6 0.246675 0.500000 0.267708
O O7 0.618503 0.753918 0.274753
O O8 0.749760 0.810798 0.207870
O O9 0.633800 0.912039 0.185331
O O10 0.651799 0.780812 0.000000
O O11 0.667176 0.500000 0.500000
O O12 0.629102 0.584525 0.737411
O O13 0.416482 0.335912 0.500000
O O14 0.500000 0.341978 0.734558
O O15 0.864826 0.086849 0.740524
O O16 0.845584 0.150351 0.000000
O O17 0.256282 0.000000 0.712413
O O18 0.284519 0.000000 0.000000
O O19 0.841722 0.000000 0.500000
#
# Coordination Sequence:
#
# PCOD8193982 Si02
#       8
#     8   4   8   4   8   8   4   4
#     4  10  21  37  56  77 103 138 177 213 251 302
#     4  11  22  35  55  81 106 133 166 212 266 311
#     4   9  17  31  52  75  99 129 166 209 252 294
#     4   9  19  36  55  74  98 131 170 204 242 303
#     4  10  20  34  52  73  99 132 167 205 250 299
#     4   9  18  34  54  75 102 137 176 215 254 300
#     4   8  16  32  51  72 101 137 173 207 249 300
#     4  10  18  28  49  80 107 133 169 215 263 304
#
# _framework density 18.678591000000001
#
# number of rings (size 3 to 8) (size 9 to 14) (size 15 to 20)
#    0.000    2.500    0.000    3.500    0.000    6.000 
#    0.000    2.083    0.000    6.000    0.000    0.000 
#    0.000    0.000    0.000    0.000    0.000    0.000 
#
# Total GULP energy -595123.556823 kJ/mol
# GULP energy per Si atom -12398.407434 kJ/mol
# Density = 1.863608 g / cm^3
# Si number density = 18.678591 Si / 1000 Ang^3
#
#
#
# Elastic Constant Matrix: (Units=GPa)
#
#
# Indices 1 2 3 4 5 6 
#
# 1 100.8023 77.9399 36.2146 0.0000 0.0000 0.0000
# 2 77.9399 179.5425 55.7812 0.0000 0.0000 0.0000
# 3 36.2146 55.7812 57.0939 0.0000 0.0000 0.0000
# 4 0.0000 0.0000 0.0000 12.2307 0.0000 0.0000
# 5 0.0000 0.0000 0.0000 0.0000 22.2875 0.0000
# 6 0.0000 0.0000 0.0000 0.0000 0.0000 41.3963
#
#
#
# Elastic Compliance Matrix: (Units=1/GPa)
#
#
# Indices 1 2 3 4 5 6 
#
# 1 0.015786 -0.005373 -0.004764 0.000000 0.000000 0.000000
# 2 -0.005373 0.009826 -0.006192 0.000000 0.000000 0.000000
# 3 -0.004764 -0.006192 0.026586 0.000000 0.000000 0.000000
# 4 0.000000 0.000000 0.000000 0.081761 0.000000 0.000000
# 5 0.000000 0.000000 0.000000 0.000000 0.044868 0.000000
# 6 0.000000 0.000000 0.000000 0.000000 0.000000 0.024157
#
#
# Mechanical properties :
#
#
# Convention : Reuss Voigt Hill
#
# Bulk Modulus (GPa) = 51.17439 75.25669 63.21554
# Shear Modulus (GPa) = 20.64789 26.34975 23.49882
#
# Velocity S-wave (km/s) = 3.32841 3.75999 3.55076
# Velocity P-wave (km/s) = 6.49830 7.69596 7.12235
#
# Compressibility (1/GPa) = 0.01954103
#
# Stress axis : x y z
#
# Youngs Moduli (GPa) = 63.34706 101.77329 37.61328
#
# Poissons Ratio (x) = 0.54680 0.17919
# Poissons Ratio (y) = 0.34034 0.23290
# Poissons Ratio (z) = 0.30178 0.63018
#
# Static dielectric constant tensor:
#      x y z
#    x 3.326060 0.000000 0.000000 
#    y 0.000000 3.631690 0.000000 
#    z 0.000000 0.000000 3.190830 
# 
# 
# High freq. dielectric constant tensor:
#      x y z
#    x 1.703530 0.000000 0.000000 
#    y 0.000000 1.747320 0.000000 
#    z 0.000000 0.000000 1.705940 
# 
# From -- ./inp_files/9288.got.cif
#   From: 2010.03.12/outbox.cif.g09.slc.cpg/sg47_5_cif.got.tgz:9288.got - 2010.04.14 03:12:58.
