data_PCOD8193391
_publ_section_title
;
Structure prediction by ZEFSAII (Michael W. Deem and Ramdas Pophale) SiO2 
 PCOD8193391
Probable space group: I M A 2
;
_chemical_formula_sum "Si O2"
_cell_formula_units_Z 64
_cell_length_a 17.205210
_cell_length_b 17.249263
_cell_length_c 10.410628
_cell_angle_alpha 90.000000
_cell_angle_beta 90.000000
_cell_angle_gamma 90.000000
_cell_volume 3089.636948
_symmetry_space_group_name_H-M "I M A 2"
_symmetry_group_IT_number 46
_symmetry_cell_setting 'orthorhombic'
loop_
_space_group_symop_operation_xyz
x,y,z
-x,-y,z
1/2-x,y,z
1/2+x,-y,z
1/2+x,1/2+y,1/2+z
1/2-x,1/2-y,1/2+z
-x,1/2+y,1/2+z
x,1/2-y,1/2+z
loop_
_atom_site_type_symbol
_atom_site_label
_atom_site_fract_x
_atom_site_fract_y
_atom_site_fract_z
Si Si1 0.657990 0.025588 0.343400
Si Si2 0.161348 0.095598 0.140524
Si Si3 0.928078 0.230549 0.589870
Si Si4 0.842078 0.298369 0.833370
Si Si5 0.663567 0.916439 0.559778
Si Si6 0.165638 0.282117 0.852853
Si Si7 0.014504 0.409906 0.202660
Si Si8 0.453035 0.163041 0.953261
O O1 0.750000 0.016710 0.342310
O O2 0.630324 0.112830 0.322905
O O3 0.625946 0.974230 0.225648
O O4 0.630669 0.991383 0.480934
O O5 0.250000 0.078279 0.097513
O O6 0.156900 0.176968 0.215401
O O7 0.106207 0.103002 0.018007
O O8 0.884440 0.251520 0.721314
O O9 0.867175 0.232255 0.472822
O O10 0.964439 0.144582 0.606667
O O11 0.993480 0.294728 0.558749
O O12 0.750000 0.288572 0.818739
O O13 0.750000 0.932034 0.615769
O O14 0.665358 0.845305 0.463482
O O15 0.606319 0.896939 0.676340
O O16 0.250000 0.239001 0.857127
O O17 0.093875 0.225475 0.869608
O O18 0.000000 0.500000 0.178797
O O19 0.996518 0.385448 0.349801
#
# Coordination Sequence:
#
# PCOD8193391 Si02
#       8
#     8   8   8   8   8   8   8   8
#     4   8  17  37  65  93 117 157 221 272 306 371
#     4   9  19  35  58  90 127 167 214 258 308 382
#     4  12  25  45  67  97 128 165 219 271 328 393
#     4  11  24  45  73  95 121 163 218 280 332 380
#     4   9  18  37  64  93 126 168 215 262 317 389
#     4   9  18  33  59  91 123 166 214 257 308 381
#     4  12  26  42  61  93 138 175 213 268 333 388
#     4  12  23  38  59  88 137 173 208 263 322 385
#
# _framework density 20.714407999999999
#
# number of rings (size 3 to 8) (size 9 to 14) (size 15 to 20)
#    0.000    1.750    2.500    3.750    0.000    2.000 
#    0.000    1.875    0.000    0.000    0.000    0.000 
#    0.000    0.000    0.000    0.000    0.000    0.000 
#
# Total GULP energy -396738.831147 kJ/mol
# GULP energy per Si atom -12398.088473 kJ/mol
# Density = 2.066726 g / cm^3
# Si number density = 20.714408 Si / 1000 Ang^3
#
#
#
# Elastic Constant Matrix: (Units=GPa)
#
#
# Indices 1 2 3 4 5 6 
#
# 1 83.1429 30.2669 36.3465 0.0000 0.0000 0.0000
# 2 30.2669 85.5025 30.2529 0.0000 0.0000 0.0000
# 3 36.3465 30.2529 98.9996 0.0000 0.0000 0.0000
# 4 0.0000 0.0000 0.0000 20.4924 0.0000 0.0000
# 5 0.0000 0.0000 0.0000 0.0000 51.3232 0.0000
# 6 0.0000 0.0000 0.0000 0.0000 0.0000 17.8678
#
#
#
# Elastic Compliance Matrix: (Units=1/GPa)
#
#
# Indices 1 2 3 4 5 6 
#
# 1 0.015388 -0.003866 -0.004468 0.000000 0.000000 0.000000
# 2 -0.003866 0.014085 -0.002885 0.000000 0.000000 0.000000
# 3 -0.004468 -0.002885 0.012623 0.000000 0.000000 0.000000
# 4 0.000000 0.000000 0.000000 0.048799 0.000000 0.000000
# 5 0.000000 0.000000 0.000000 0.000000 0.019484 0.000000
# 6 0.000000 0.000000 0.000000 0.000000 0.000000 0.055967
#
#
# Mechanical properties :
#
#
# Convention : Reuss Voigt Hill
#
# Bulk Modulus (GPa) = 50.87020 51.26417 51.06719
# Shear Modulus (GPa) = 25.59685 29.32193 27.45939
#
# Velocity S-wave (km/s) = 3.51907 3.76644 3.64485
# Velocity P-wave (km/s) = 6.41272 6.61185 6.51305
#
# Compressibility (1/GPa) = 0.01965787
#
# Stress axis : x y z
#
# Youngs Moduli (GPa) = 64.98475 70.99815 79.22071
#
# Poissons Ratio (x) = 0.27450 0.35397
# Poissons Ratio (y) = 0.25125 0.22852
# Poissons Ratio (z) = 0.29036 0.20481
#
# Static dielectric constant tensor:
#      x y z
#    x 2.938210 0.000000 0.000000 
#    y 0.000000 3.821220 0.000000 
#    z 0.000000 0.000000 3.636170 
# 
# 
# High freq. dielectric constant tensor:
#      x y z
#    x 1.802980 0.000000 0.000000 
#    y 0.000000 1.802070 0.000000 
#    z 0.000000 0.000000 1.807910 
# 
# From -- ./inp_files/11317.got.cif
#   From: 2010.03.12/outbox.cif.g09.slc.cpg/sg46_6_cif.got.tgz:11317.got - 2010.04.14 02:56:35.
