data_PCOD8193968
_publ_section_title
;
Structure prediction by ZEFSAII (Michael W. Deem and Ramdas Pophale) SiO2 
 PCOD8193968
Probable space group: P M M M
;
_chemical_formula_sum "Si O2"
_cell_formula_units_Z 44
_cell_length_a 14.138758
_cell_length_b 9.258186
_cell_length_c 18.448779
_cell_angle_alpha 90.000000
_cell_angle_beta 90.000000
_cell_angle_gamma 90.000000
_cell_volume 2414.931360
_symmetry_space_group_name_H-M "P M M M"
_symmetry_group_IT_number 47
_symmetry_cell_setting 'orthorhombic'
loop_
_space_group_symop_operation_xyz
x,y,z
-x,-y,z
x,-y,-z
-x,y,-z
-x,-y,-z
x,y,-z
-x,y,z
x,-y,z
loop_
_atom_site_type_symbol
_atom_site_label
_atom_site_fract_x
_atom_site_fract_y
_atom_site_fract_z
Si Si1 0.767320 0.671641 0.711310
Si Si2 0.612104 0.338228 0.079668
Si Si3 0.105778 0.327470 0.155428
Si Si4 0.886994 0.340826 0.000000
Si Si5 0.389709 0.168115 0.218742
Si Si6 0.105642 0.671489 0.580670
O O1 0.753461 0.500000 0.709653
O O2 0.827725 0.725863 0.780111
O O3 0.665686 0.749406 0.716973
O O4 0.819261 0.729959 0.639049
O O5 0.500000 0.333844 0.074236
O O6 0.645714 0.500000 0.101186
O O7 0.646894 0.228370 0.141191
O O8 0.654114 0.296128 0.000000
O O9 0.103544 0.500000 0.152113
O O10 0.143857 0.266565 0.076766
O O11 0.000000 0.269347 0.170926
O O12 0.842038 0.500000 0.000000
O O13 0.000000 0.350877 0.000000
O O14 0.500000 0.200552 0.230428
O O15 0.366847 0.000000 0.221620
O O16 0.136601 0.721762 0.500000
O O17 0.102904 0.500000 0.585045
O O18 0.000000 0.730091 0.598254
#
# Coordination Sequence:
#
# PCOD8193968 Si02
#       6
#     8   8   8   4   8   8
#     4  10  18  28  47  74  97 121 158 202 242 284
#     4   8  14  27  48  70  89 112 150 204 257 295
#     4   8  13  22  38  62  91 120 149 184 227 275
#     4   7  10  18  32  52  84 121 148 174 213 259
#     4  10  21  35  48  63  90 130 170 205 245 294
#     4   8  14  26  47  77 109 133 152 184 237 297
#
# _framework density 18.21998
#
# number of rings (size 3 to 8) (size 9 to 14) (size 15 to 20)
#    0.000    3.364    0.000    3.273    0.000    3.636 
#    1.636    1.818    0.000    3.273    0.000    5.091 
#    0.000    2.182    0.000    0.000    0.000    0.000 
#
# Total GULP energy -545148.330975 kJ/mol
# GULP energy per Si atom -12389.734795 kJ/mol
# Density = 1.817851 g / cm^3
# Si number density = 18.219980 Si / 1000 Ang^3
#
#
#
# Elastic Constant Matrix: (Units=GPa)
#
#
# Indices 1 2 3 4 5 6 
#
# 1 70.1368 34.9407 67.4030 0.0000 0.0000 0.0000
# 2 34.9407 43.9238 38.6526 0.0000 0.0000 0.0000
# 3 67.4030 38.6526 147.1326 0.0000 0.0000 0.0000
# 4 0.0000 0.0000 0.0000 8.4255 0.0000 0.0000
# 5 0.0000 0.0000 0.0000 0.0000 30.7866 0.0000
# 6 0.0000 0.0000 0.0000 0.0000 0.0000 10.7847
#
#
#
# Elastic Compliance Matrix: (Units=1/GPa)
#
#
# Indices 1 2 3 4 5 6 
#
# 1 0.032826 -0.016752 -0.010637 0.000000 0.000000 0.000000
# 2 -0.016752 0.038161 -0.002351 0.000000 0.000000 0.000000
# 3 -0.010637 -0.002351 0.012287 0.000000 0.000000 0.000000
# 4 0.000000 0.000000 0.000000 0.118688 0.000000 0.000000
# 5 0.000000 0.000000 0.000000 0.000000 0.032482 0.000000
# 6 0.000000 0.000000 0.000000 0.000000 0.000000 0.092724
#
#
# Mechanical properties :
#
#
# Convention : Reuss Voigt Hill
#
# Bulk Modulus (GPa) = 42.02652 60.35398 51.19025
# Shear Modulus (GPa) = 12.67175 18.01249 15.34212
#
# Velocity S-wave (km/s) = 2.64007 3.14763 2.90496
# Velocity P-wave (km/s) = 5.69294 6.81228 6.27761
#
# Compressibility (1/GPa) = 0.02379450
#
# Stress axis : x y z
#
# Youngs Moduli (GPa) = 30.46403 26.20445 81.38607
#
# Poissons Ratio (x) = 0.43897 0.86570
# Poissons Ratio (y) = 0.51033 0.19134
# Poissons Ratio (z) = 0.32404 0.06161
#
# Static dielectric constant tensor:
#      x y z
#    x 3.387530 0.000000 0.000000 
#    y 0.000000 2.788290 0.000000 
#    z 0.000000 0.000000 3.711260 
# 
# 
# High freq. dielectric constant tensor:
#      x y z
#    x 1.704870 0.000000 0.000000 
#    y 0.000000 1.638010 0.000000 
#    z 0.000000 0.000000 1.701650 
# 
# From -- ./inp_files/8987.got.cif
#   From: 2010.03.12/outbox.cif.g09.slc.cpg/sg47_5_cif.got.tgz:8987.got - 2010.04.14 03:12:58.
