data_PCOD8193623
_publ_section_title
;
Structure prediction by ZEFSAII (Michael W. Deem and Ramdas Pophale) SiO2 
 PCOD8193623
Probable space group: P M M M
;
_chemical_formula_sum "Si O2"
_cell_formula_units_Z 52
_cell_length_a 12.811322
_cell_length_b 12.705301
_cell_length_c 22.464126
_cell_angle_alpha 90.000000
_cell_angle_beta 90.000000
_cell_angle_gamma 90.000000
_cell_volume 3656.524028
_symmetry_space_group_name_H-M "P M M M"
_symmetry_group_IT_number 47
_symmetry_cell_setting 'orthorhombic'
loop_
_space_group_symop_operation_xyz
x,y,z
-x,-y,z
x,-y,-z
-x,y,-z
-x,-y,-z
x,y,-z
-x,y,z
x,-y,z
loop_
_atom_site_type_symbol
_atom_site_label
_atom_site_fract_x
_atom_site_fract_y
_atom_site_fract_z
Si Si1 0.616070 0.620089 0.175060
Si Si2 0.123259 0.500000 0.316688
Si Si3 0.245015 0.303000 0.727086
Si Si4 0.621674 0.691232 0.612291
Si Si5 0.260444 0.118853 0.432763
Si Si6 0.251210 0.500000 0.566569
Si Si7 0.500000 0.624502 0.934691
Si Si8 0.879693 0.879102 0.323290
O O1 0.500000 0.629903 0.204430
O O2 0.655099 0.500000 0.180670
O O3 0.700838 0.692735 0.208039
O O4 0.603367 0.654045 0.104860
O O5 0.164108 0.602624 0.282517
O O6 0.157987 0.500000 0.385690
O O7 0.000000 0.500000 0.314616
O O8 0.337854 0.312128 0.679639
O O9 0.184083 0.192506 0.723079
O O10 0.500000 0.668517 0.612125
O O11 0.644036 0.804640 0.582973
O O12 0.677761 0.602743 0.573450
O O13 0.221145 0.137216 0.500000
O O14 0.162015 0.142164 0.390026
O O15 0.301672 0.000000 0.423692
O O16 0.203215 0.500000 0.500000
O O17 0.500000 0.500000 0.942659
O O18 0.500000 0.679667 0.000000
O O19 0.000000 0.846079 0.322565
O O20 0.863929 0.000000 0.304111
#
# Coordination Sequence:
#
# PCOD8193623 Si02
#       8
#     8   4   8   8   8   4   4   8
#     4   8  14  23  41  65  91 123 143 166 191 233
#     4  10  20  30  43  60  78 102 129 175 226 256
#     4  10  17  29  43  61  86 106 140 172 204 250
#     4  10  20  30  42  58  77 104 129 165 205 248
#     4   9  18  31  45  60  75  94 128 173 219 270
#     4  10  21  33  42  55  73  98 134 170 206 258
#     4   7  12  22  38  66 101 127 147 168 188 223
#     4   9  18  31  45  59  78 106 137 178 227 264
#
# _framework density 14.221157
#
# number of rings (size 3 to 8) (size 9 to 14) (size 15 to 20)
#    0.462    2.385    0.769    1.615    0.000    2.308 
#    0.000    2.308    0.000    6.923    0.000    0.000 
#    0.000    4.308    0.000    1.692    0.000    0.000 
#
# Total GULP energy -644407.656060 kJ/mol
# GULP energy per Si atom -12392.454924 kJ/mol
# Density = 1.418879 g / cm^3
# Si number density = 14.221157 Si / 1000 Ang^3
#
#
#
# Elastic Constant Matrix: (Units=GPa)
#
#
# Indices 1 2 3 4 5 6 
#
# 1 74.9574 28.9161 43.8052 0.0000 0.0000 0.0000
# 2 28.9161 65.0431 32.7489 0.0000 0.0000 0.0000
# 3 43.8052 32.7489 96.2051 0.0000 0.0000 0.0000
# 4 0.0000 0.0000 0.0000 10.6281 0.0000 0.0000
# 5 0.0000 0.0000 0.0000 0.0000 12.7725 0.0000
# 6 0.0000 0.0000 0.0000 0.0000 0.0000 18.1108
#
#
#
# Elastic Compliance Matrix: (Units=1/GPa)
#
#
# Indices 1 2 3 4 5 6 
#
# 1 0.019466 -0.005058 -0.007142 0.000000 0.000000 0.000000
# 2 -0.005058 0.019869 -0.004460 0.000000 0.000000 0.000000
# 3 -0.007142 -0.004460 0.015165 0.000000 0.000000 0.000000
# 4 0.000000 0.000000 0.000000 0.094090 0.000000 0.000000
# 5 0.000000 0.000000 0.000000 0.000000 0.078293 0.000000
# 6 0.000000 0.000000 0.000000 0.000000 0.000000 0.055216
#
#
# Mechanical properties :
#
#
# Convention : Reuss Voigt Hill
#
# Bulk Modulus (GPa) = 47.21637 49.68288 48.44963
# Shear Modulus (GPa) = 15.50495 17.01799 16.26147
#
# Velocity S-wave (km/s) = 3.30551 3.46304 3.38519
# Velocity P-wave (km/s) = 6.91680 7.14156 7.03008
#
# Compressibility (1/GPa) = 0.02117909
#
# Stress axis : x y z
#
# Youngs Moduli (GPa) = 51.37255 50.32992 65.94318
#
# Poissons Ratio (x) = 0.25457 0.47093
# Poissons Ratio (y) = 0.25985 0.29413
# Poissons Ratio (z) = 0.36688 0.22449
#
# Static dielectric constant tensor:
#      x y z
#    x 2.605230 0.000000 0.000000 
#    y 0.000000 2.846010 0.000000 
#    z 0.000000 0.000000 2.730000 
# 
# 
# High freq. dielectric constant tensor:
#      x y z
#    x 1.530090 0.000000 0.000000 
#    y 0.000000 1.539790 0.000000 
#    z 0.000000 0.000000 1.512390 
# 
# From -- ./inp_files/32563.got.cif
#   From: 2010.03.12/outbox.cif.g09.slc.cpg/sg47_17_cif.got.tgz:32563.got - 2010.04.14 03:12:58.
