data_PCOD8193656
_publ_section_title
;
Structure prediction by ZEFSAII (Michael W. Deem and Ramdas Pophale) SiO2 
 PCOD8193656
Probable space group: P M M M
;
_chemical_formula_sum "Si O2"
_cell_formula_units_Z 52
_cell_length_a 29.937930
_cell_length_b 7.978844
_cell_length_c 12.088112
_cell_angle_alpha 90.000000
_cell_angle_beta 90.000000
_cell_angle_gamma 90.000000
_cell_volume 2887.488198
_symmetry_space_group_name_H-M "P M M M"
_symmetry_group_IT_number 47
_symmetry_cell_setting 'orthorhombic'
loop_
_space_group_symop_operation_xyz
x,y,z
-x,-y,z
x,-y,-z
-x,y,-z
-x,-y,-z
x,y,-z
-x,y,z
x,-y,z
loop_
_atom_site_type_symbol
_atom_site_label
_atom_site_fract_x
_atom_site_fract_y
_atom_site_fract_z
Si Si1 0.433522 0.186491 0.000000
Si Si2 0.632738 0.801437 0.376643
Si Si3 0.451017 0.801457 0.761438
Si Si4 0.050647 0.500000 0.867893
Si Si5 0.341500 0.316528 0.000000
Si Si6 0.106594 0.813995 0.868791
Si Si7 0.796978 0.697507 0.127051
Si Si8 0.706858 0.194724 0.792811
O O1 0.449334 0.275934 0.886240
O O2 0.379815 0.177307 0.000000
O O3 0.453292 0.000000 0.000000
O O4 0.633832 0.724529 0.500000
O O5 0.589162 0.726243 0.312832
O O6 0.679061 0.750743 0.316271
O O7 0.628089 0.000000 0.382972
O O8 0.500000 0.758374 0.710154
O O9 0.443839 0.000000 0.769983
O O10 0.074506 0.668160 0.820529
O O11 0.000000 0.500000 0.824681
O O12 0.052691 0.500000 0.000000
O O13 0.310737 0.302797 0.893794
O O14 0.364002 0.500000 0.000000
O O15 0.157387 0.781830 0.831452
O O16 0.091708 0.000000 0.827187
O O17 0.104083 0.805726 0.000000
O O18 0.802751 0.500000 0.134912
O O19 0.759360 0.762279 0.213479
O O20 0.785844 0.751240 0.000000
O O21 0.699145 0.000000 0.816455
#
# Coordination Sequence:
#
# PCOD8193656 Si02
#       8
#     4   8   8   4   4   8   8   8
#     4  10  17  30  48  70  96 120 142 178 229 281
#     4   9  18  31  46  67  94 120 151 192 230 271
#     4   9  16  26  45  72  96 117 144 182 230 280
#     4   9  16  26  38  54  82 122 167 215 252 281
#     4  12  22  31  45  69  94 118 144 185 231 280
#     4   9  16  26  39  57  83 118 159 203 250 296
#     4  10  18  28  43  65  92 119 147 192 245 292
#     4  11  20  31  48  69  91 119 152 186 235 292
#
# _framework density 18.008731999999998
#
# number of rings (size 3 to 8) (size 9 to 14) (size 15 to 20)
#    0.000    2.231    3.077    1.846    0.000    2.154 
#    0.000    3.077    0.000    2.769    0.000    0.000 
#    0.000    1.231    0.000    0.000    0.000    1.538 
#
# Total GULP energy -644416.192808 kJ/mol
# GULP energy per Si atom -12392.619092 kJ/mol
# Density = 1.796774 g / cm^3
# Si number density = 18.008732 Si / 1000 Ang^3
#
#
#
# Elastic Constant Matrix: (Units=GPa)
#
#
# Indices 1 2 3 4 5 6 
#
# 1 148.1657 43.5099 41.7911 0.0000 0.0000 0.0000
# 2 43.5099 72.5010 18.9993 0.0000 0.0000 0.0000
# 3 41.7911 18.9993 88.8657 0.0000 0.0000 0.0000
# 4 0.0000 0.0000 0.0000 -1.0189 0.0000 0.0000
# 5 0.0000 0.0000 0.0000 0.0000 19.0982 0.0000
# 6 0.0000 0.0000 0.0000 0.0000 0.0000 15.9194
#
#
#
# Elastic Compliance Matrix: (Units=1/GPa)
#
#
# Indices 1 2 3 4 5 6 
#
# 1 0.009005 -0.004549 -0.003262 0.000000 0.000000 0.000000
# 2 -0.004549 0.016910 -0.001476 0.000000 0.000000 0.000000
# 3 -0.003262 -0.001476 0.013103 0.000000 0.000000 0.000000
# 4 0.000000 0.000000 0.000000 -0.981415 0.000000 0.000000
# 5 0.000000 0.000000 0.000000 0.000000 0.052361 0.000000
# 6 0.000000 0.000000 0.000000 0.000000 0.000000 0.062816
#
#
# Mechanical properties :
#
#
# Convention : Reuss Voigt Hill
#
# Bulk Modulus (GPa) = 48.91712 57.57033 53.24373
# Shear Modulus (GPa) = -6.23573 20.48188 7.12307
#
# Velocity S-wave (km/s) = -1.86283 3.37609 1.99096
# Velocity P-wave (km/s) = 4.75343 6.87275 5.90889
#
# Compressibility (1/GPa) = 0.02044274
#
# Stress axis : x y z
#
# Youngs Moduli (GPa) = 111.04537 59.13687 76.32052
#
# Poissons Ratio (x) = 0.26904 0.24898
# Poissons Ratio (y) = 0.50519 0.11264
# Poissons Ratio (z) = 0.36226 0.08728
#
# Static dielectric constant tensor:
#      x y z
#    x 3.450690 0.000000 0.000000 
#    y 0.000000 3.189940 0.000000 
#    z 0.000000 0.000000 3.109550 
# 
# 
# High freq. dielectric constant tensor:
#      x y z
#    x 1.699520 0.000000 0.000000 
#    y 0.000000 1.684230 0.000000 
#    z 0.000000 0.000000 1.632040 
# 
# From -- ./inp_files/20065.got.cif
#   From: 2010.03.12/outbox.cif.g09.slc.cpg/sg47_11_cif.got.tgz:20065.got - 2010.04.14 03:12:58.
