data_PCOD8193305
_publ_section_title
;
Structure prediction by ZEFSAII (Michael W. Deem and Ramdas Pophale) SiO2 
 PCOD8193305
Probable space group: I M A 2
;
_chemical_formula_sum "Si O2"
_cell_formula_units_Z 48
_cell_length_a 30.768787
_cell_length_b 8.799082
_cell_length_c 8.623086
_cell_angle_alpha 90.000000
_cell_angle_beta 90.000000
_cell_angle_gamma 90.000000
_cell_volume 2334.589123
_symmetry_space_group_name_H-M "I M A 2"
_symmetry_group_IT_number 46
_symmetry_cell_setting 'orthorhombic'
loop_
_space_group_symop_operation_xyz
x,y,z
-x,-y,z
1/2-x,y,z
1/2+x,-y,z
1/2+x,1/2+y,1/2+z
1/2-x,1/2-y,1/2+z
-x,1/2+y,1/2+z
x,1/2-y,1/2+z
loop_
_atom_site_type_symbol
_atom_site_label
_atom_site_fract_x
_atom_site_fract_y
_atom_site_fract_z
Si Si1 0.918142 0.713341 0.286740
Si Si2 0.701947 0.961435 0.455944
Si Si3 0.952081 0.552373 0.017783
Si Si4 0.172421 0.313989 0.643967
Si Si5 0.130042 0.540749 0.433739
Si Si6 0.872422 0.153655 0.595153
O O1 0.955068 0.666325 0.163683
O O2 0.933149 0.865524 0.367751
O O3 0.873908 0.744693 0.193450
O O4 0.910966 0.572449 0.406112
O O5 0.750000 0.035468 0.466971
O O6 0.699810 0.827699 0.582363
O O7 0.696424 0.893417 0.285116
O O8 0.665402 0.088759 0.484454
O O9 0.919353 0.417168 0.059317
O O10 0.000000 0.500000 0.975413
O O11 0.168274 0.434442 0.502255
O O12 0.120526 0.667639 0.564005
O O13 0.142313 0.623741 0.272346
#
# Coordination Sequence:
#
# PCOD8193305 Si02
#       6
#     8   8   8   8   8   8
#     4  11  20  43  68  93 128 174 218 271 322 391
#     4  12  23  39  66 100 134 173 227 275 327 395
#     4  11  24  41  66  95 129 171 218 269 332 396
#     4  12  19  42  68  93 128 179 222 270 327 388
#     4  11  22  39  72  89 128 180 215 269 336 390
#     4  11  23  42  62  98 132 172 219 274 337 386
#
# _framework density 20.560362000000001
#
# number of rings (size 3 to 8) (size 9 to 14) (size 15 to 20)
#    0.000    0.667    8.333    1.500    0.000    2.667 
#    0.000    5.833    0.000    0.000    0.000    0.000 
#    0.000    0.000    0.000    0.000    0.000    0.000 
#
# Total GULP energy -297564.696537 kJ/mol
# GULP energy per Si atom -12398.529022 kJ/mol
# Density = 2.051357 g / cm^3
# Si number density = 20.560362 Si / 1000 Ang^3
#
#
#
# Elastic Constant Matrix: (Units=GPa)
#
#
# Indices 1 2 3 4 5 6 
#
# 1 105.3481 23.4947 22.0475 0.0000 0.0000 0.0000
# 2 23.4947 81.5430 19.9207 0.0000 0.0000 0.0000
# 3 22.0475 19.9207 79.0486 0.0000 0.0000 0.0000
# 4 0.0000 0.0000 0.0000 45.2025 0.0000 0.0000
# 5 0.0000 0.0000 0.0000 0.0000 22.2695 0.0000
# 6 0.0000 0.0000 0.0000 0.0000 0.0000 15.2090
#
#
#
# Elastic Compliance Matrix: (Units=1/GPa)
#
#
# Indices 1 2 3 4 5 6 
#
# 1 0.010527 -0.002468 -0.002314 0.000000 0.000000 0.000000
# 2 -0.002468 0.013646 -0.002751 0.000000 0.000000 0.000000
# 3 -0.002314 -0.002751 0.013989 0.000000 0.000000 0.000000
# 4 0.000000 0.000000 0.000000 0.022123 0.000000 0.000000
# 5 0.000000 0.000000 0.000000 0.000000 0.044905 0.000000
# 6 0.000000 0.000000 0.000000 0.000000 0.000000 0.065750
#
#
# Mechanical properties :
#
#
# Convention : Reuss Voigt Hill
#
# Bulk Modulus (GPa) = 43.29519 44.09616 43.69568
# Shear Modulus (GPa) = 25.81250 29.90132 27.85691
#
# Velocity S-wave (km/s) = 3.54708 3.81769 3.68487
# Velocity P-wave (km/s) = 6.15459 6.39740 6.27717
#
# Compressibility (1/GPa) = 0.02309725
#
# Stress axis : x y z
#
# Youngs Moduli (GPa) = 94.99360 73.27892 71.48430
#
# Poissons Ratio (x) = 0.18084 0.16543
# Poissons Ratio (y) = 0.23442 0.19663
# Poissons Ratio (z) = 0.21983 0.20157
#
# Static dielectric constant tensor:
#      x y z
#    x 3.467010 0.000000 0.000000 
#    y 0.000000 3.866110 0.000000 
#    z 0.000000 0.000000 3.972960 
# 
# 
# High freq. dielectric constant tensor:
#      x y z
#    x 1.770730 0.000000 0.000000 
#    y 0.000000 1.806770 0.000000 
#    z 0.000000 0.000000 1.822290 
# 
# From -- ./inp_files/8379.got.cif
#   From: 2010.03.12/outbox.cif.g09.slc.cpg/sg46_5_cif.got.tgz:8379.got - 2010.04.14 02:56:35.
