data_PCOD8193888
_publ_section_title
;
Structure prediction by ZEFSAII (Michael W. Deem and Ramdas Pophale) SiO2 
 PCOD8193888
Probable space group: P M M M
;
_chemical_formula_sum "Si O2"
_cell_formula_units_Z 56
_cell_length_a 21.583343
_cell_length_b 8.797006
_cell_length_c 18.429452
_cell_angle_alpha 90.000000
_cell_angle_beta 90.000000
_cell_angle_gamma 90.000000
_cell_volume 3499.177897
_symmetry_space_group_name_H-M "P M M M"
_symmetry_group_IT_number 47
_symmetry_cell_setting 'orthorhombic'
loop_
_space_group_symop_operation_xyz
x,y,z
-x,-y,z
x,-y,-z
-x,y,-z
-x,-y,-z
x,y,-z
-x,y,z
x,-y,z
loop_
_atom_site_type_symbol
_atom_site_label
_atom_site_fract_x
_atom_site_fract_y
_atom_site_fract_z
Si Si1 0.069436 0.320443 0.080941
Si Si2 0.569698 0.823198 0.673411
Si Si3 0.301531 0.179020 0.083266
Si Si4 0.252399 0.822678 0.701631
Si Si5 0.178160 0.822626 0.835220
Si Si6 0.678162 0.322084 0.583354
Si Si7 0.637970 0.320555 0.208318
O O1 0.071915 0.500000 0.082599
O O2 0.115520 0.258865 0.141632
O O3 0.000000 0.263957 0.099661
O O4 0.087869 0.262619 0.000000
O O5 0.500000 0.797343 0.644538
O O6 0.617002 0.760953 0.613044
O O7 0.575617 0.732274 0.750386
O O8 0.583358 0.000000 0.686850
O O9 0.235315 0.233505 0.114941
O O10 0.357469 0.267730 0.124440
O O11 0.310543 0.000000 0.094148
O O12 0.304967 0.227865 0.000000
O O13 0.191221 0.785016 0.749771
O O14 0.259213 0.730984 0.626016
O O15 0.309870 0.775343 0.750678
O O16 0.255572 0.000000 0.683773
O O17 0.168752 0.000000 0.847084
O O18 0.687650 0.278078 0.500000
O O19 0.668679 0.500000 0.594897
O O20 0.647754 0.500000 0.215373
#
# Coordination Sequence:
#
# PCOD8193888 Si02
#       7
#     8   8   8   8   8   8   8
#     4   9  18  30  41  57  86 123 158 189 222 259
#     4  10  20  33  49  66  84 112 149 179 205 249
#     4   9  17  29  44  62  86 113 141 178 222 265
#     4   9  17  30  46  63  86 115 146 178 213 257
#     4   9  17  28  43  64  86 111 148 187 218 251
#     4  10  20  32  47  69  95 118 140 171 212 255
#     4  10  18  28  44  64  86 110 138 176 220 261
#
# _framework density 16.003758999999999
#
# number of rings (size 3 to 8) (size 9 to 14) (size 15 to 20)
#    0.000    2.571    0.000    6.000    0.000    6.857 
#    0.000    2.143    0.000    0.429    0.000    3.000 
#    0.000    0.571    0.000    6.286    0.000    4.571 
#
# Total GULP energy -693969.789451 kJ/mol
# GULP energy per Si atom -12392.317669 kJ/mol
# Density = 1.596733 g / cm^3
# Si number density = 16.003759 Si / 1000 Ang^3
#
#
#
# Elastic Constant Matrix: (Units=GPa)
#
#
# Indices 1 2 3 4 5 6 
#
# 1 66.7296 30.0712 51.5954 0.0000 0.0000 0.0000
# 2 30.0712 43.8491 43.8467 0.0000 0.0000 0.0000
# 3 51.5954 43.8467 125.6899 0.0000 0.0000 0.0000
# 4 0.0000 0.0000 0.0000 26.8370 0.0000 0.0000
# 5 0.0000 0.0000 0.0000 0.0000 21.1134 0.0000
# 6 0.0000 0.0000 0.0000 0.0000 0.0000 19.4424
#
#
#
# Elastic Compliance Matrix: (Units=1/GPa)
#
#
# Indices 1 2 3 4 5 6 
#
# 1 0.024724 -0.010453 -0.006503 0.000000 0.000000 0.000000
# 2 -0.010453 0.039442 -0.009468 0.000000 0.000000 0.000000
# 3 -0.006503 -0.009468 0.013928 0.000000 0.000000 0.000000
# 4 0.000000 0.000000 0.000000 0.037262 0.000000 0.000000
# 5 0.000000 0.000000 0.000000 0.000000 0.047363 0.000000
# 6 0.000000 0.000000 0.000000 0.000000 0.000000 0.051434
#
#
# Mechanical properties :
#
#
# Convention : Reuss Voigt Hill
#
# Bulk Modulus (GPa) = 39.60976 54.14391 46.87684
# Shear Modulus (GPa) = 18.15422 20.86225 19.50823
#
# Velocity S-wave (km/s) = 3.37170 3.61443 3.49517
# Velocity P-wave (km/s) = 6.32154 7.16410 6.75596
#
# Compressibility (1/GPa) = 0.02524630
#
# Stress axis : x y z
#
# Youngs Moduli (GPa) = 40.44576 25.35372 71.79582
#
# Poissons Ratio (x) = 0.26503 0.46687
# Poissons Ratio (y) = 0.42280 0.67977
# Poissons Ratio (z) = 0.26301 0.24005
#
# Static dielectric constant tensor:
#      x y z
#    x 3.024210 0.000000 0.000000 
#    y 0.000000 3.009910 0.000000 
#    z 0.000000 0.000000 3.382520 
# 
# 
# High freq. dielectric constant tensor:
#      x y z
#    x 1.579130 0.000000 0.000000 
#    y 0.000000 1.623140 0.000000 
#    z 0.000000 0.000000 1.608020 
# 
# From -- ./inp_files/31441.got.cif
#   From: 2010.03.12/outbox.cif.g09.slc.cpg/sg47_16_cif.got.tgz:31441.got - 2010.04.14 03:12:58.
