data_PCOD8193008
_publ_section_title
;
Structure prediction by ZEFSAII (Michael W. Deem and Ramdas Pophale) SiO2 
 PCOD8193008
Probable space group: I M A 2
;
_chemical_formula_sum "Si O2"
_cell_formula_units_Z 64
_cell_length_a 13.810369
_cell_length_b 24.249793
_cell_length_c 8.477672
_cell_angle_alpha 90.000000
_cell_angle_beta 90.000000
_cell_angle_gamma 90.000000
_cell_volume 2839.160395
_symmetry_space_group_name_H-M "I M A 2"
_symmetry_group_IT_number 46
_symmetry_cell_setting 'orthorhombic'
loop_
_space_group_symop_operation_xyz
x,y,z
-x,-y,z
1/2-x,y,z
1/2+x,-y,z
1/2+x,1/2+y,1/2+z
1/2-x,1/2-y,1/2+z
-x,1/2+y,1/2+z
x,1/2-y,1/2+z
loop_
_atom_site_type_symbol
_atom_site_label
_atom_site_fract_x
_atom_site_fract_y
_atom_site_fract_z
Si Si1 0.855271 0.403330 0.718870
Si Si2 0.635933 0.719046 0.498672
Si Si3 0.449576 0.319121 0.175686
Si Si4 0.111664 0.511748 0.205917
Si Si5 0.356155 0.411213 0.009156
Si Si6 0.888115 0.989583 0.044911
Si Si7 0.434450 0.119864 0.184304
Si Si8 0.142563 0.629270 0.078237
O O1 0.750000 0.376883 0.668943
O O2 0.846876 0.468521 0.677134
O O3 0.950995 0.378357 0.632423
O O4 0.873230 0.392430 0.902045
O O5 0.750000 0.719629 0.455396
O O6 0.569200 0.701272 0.352304
O O7 0.601144 0.779238 0.549070
O O8 0.614559 0.678188 0.645215
O O9 0.564140 0.325094 0.135271
O O10 0.397733 0.378415 0.160371
O O11 0.161324 0.496961 0.373820
O O12 0.134230 0.575662 0.186395
O O13 0.000000 0.500000 0.212150
O O14 0.152212 0.475142 0.060921
O O15 0.250000 0.390245 0.959906
O O16 0.429862 0.396735 0.868358
O O17 0.871278 0.926562 0.095763
O O18 0.000000 0.000000 0.029264
O O19 0.250000 0.655522 0.098533
#
# Coordination Sequence:
#
# PCOD8193008 Si02
#       8
#     8   8   8   8   8   8   8   8
#     4  10  21  39  64  95 134 182 222 264 324 396
#     4  12  27  47  74 100 130 170 222 286 352 411
#     4  12  26  48  70  99 133 169 223 284 346 405
#     4  11  20  38  62  98 140 185 226 275 330 393
#     4  12  23  38  65  96 133 177 225 277 337 401
#     4   9  21  35  60  94 140 179 221 270 323 390
#     4  11  22  42  64 100 134 178 223 279 337 399
#     4  11  24  44  69 100 139 185 227 272 335 407
#
# _framework density 22.541875999999998
#
# number of rings (size 3 to 8) (size 9 to 14) (size 15 to 20)
#    0.000    1.000    2.500    4.125    3.500    4.000 
#    0.000    1.250    0.000    0.000    0.000    0.000 
#    0.000    0.000    0.000    0.000    0.000    0.000 
#
# Total GULP energy -396594.400407 kJ/mol
# GULP energy per Si atom -12393.575013 kJ/mol
# Density = 2.249057 g / cm^3
# Si number density = 22.541876 Si / 1000 Ang^3
#
#
#
# Elastic Constant Matrix: (Units=GPa)
#
#
# Indices 1 2 3 4 5 6 
#
# 1 174.6079 32.8770 25.8275 0.0018 0.0008 -0.0002
# 2 32.8770 74.7280 25.4770 -0.0037 -0.0014 -0.0007
# 3 25.8275 25.4770 107.1058 0.0937 -0.0039 -0.0042
# 4 0.0018 -0.0037 0.0937 78.3038 0.0140 0.0086
# 5 0.0008 -0.0014 -0.0039 0.0140 -3.5834 0.0008
# 6 -0.0002 -0.0007 -0.0042 0.0086 0.0008 22.6588
#
#
#
# Elastic Compliance Matrix: (Units=1/GPa)
#
#
# Indices 1 2 3 4 5 6 
#
# 1 0.006330 -0.002464 -0.000940 0.000001 0.000003 0.000000
# 2 -0.002464 0.015522 -0.003098 0.000004 -0.000003 0.000000
# 3 -0.000940 -0.003098 0.010300 -0.000012 -0.000010 0.000002
# 4 0.000001 0.000004 -0.000012 0.012771 0.000050 -0.000005
# 5 0.000003 -0.000003 -0.000010 0.000050 -0.279062 0.000010
# 6 0.000000 0.000000 0.000002 -0.000005 0.000010 0.044133
#
#
# Mechanical properties :
#
#
# Convention : Reuss Voigt Hill
#
# Bulk Modulus (GPa) = 52.22649 58.31163 55.26906
# Shear Modulus (GPa) = -29.30529 37.62652 4.16061
#
# Velocity S-wave (km/s) = -3.60952 4.09000 1.36005
# Velocity P-wave (km/s) = 2.41816 6.94467 5.19980
#
# Compressibility (1/GPa) = 0.01914737
#
# Stress axis : x y z
#
# Youngs Moduli (GPa) = 157.97212 64.42341 97.08541
#
# Poissons Ratio (x) = 0.15877 0.09129
# Poissons Ratio (y) = 0.38932 0.30077
# Poissons Ratio (z) = 0.14853 0.19958
#
# Static dielectric constant tensor:
#      x y z
#    x 4.433100 -0.000040 0.000000 
#    y -0.000040 3.736080 -0.000100 
#    z 0.000000 -0.000100 4.171370 
# 
# 
# High freq. dielectric constant tensor:
#      x y z
#    x 1.907790 0.000000 0.000000 
#    y 0.000000 1.861470 0.000000 
#    z 0.000000 0.000000 1.886400 
# 
# From -- ./inp_files/6085.got.cif
#   From: 2010.03.12/outbox.cif.g09.slc.cpg/sg46_4_cif.got.tgz:6085.got - 2010.04.14 02:56:35.
