data_PCOD8193668
_publ_section_title
;
Structure prediction by ZEFSAII (Michael W. Deem and Ramdas Pophale) SiO2 
 PCOD8193668
Probable space group: P M M M
;
_chemical_formula_sum "Si O2"
_cell_formula_units_Z 40
_cell_length_a 20.495989
_cell_length_b 9.169674
_cell_length_c 11.894928
_cell_angle_alpha 90.000000
_cell_angle_beta 90.000000
_cell_angle_gamma 90.000000
_cell_volume 2235.551056
_symmetry_space_group_name_H-M "P M M M"
_symmetry_group_IT_number 47
_symmetry_cell_setting 'orthorhombic'
loop_
_space_group_symop_operation_xyz
x,y,z
-x,-y,z
x,-y,-z
-x,y,-z
-x,-y,-z
x,y,-z
-x,y,z
x,-y,z
loop_
_atom_site_type_symbol
_atom_site_label
_atom_site_fract_x
_atom_site_fract_y
_atom_site_fract_z
Si Si1 0.243610 0.838155 0.000000
Si Si2 0.806266 0.671448 0.371148
Si Si3 0.428369 0.172659 0.126383
Si Si4 0.908972 0.837095 0.000000
Si Si5 0.297666 0.826622 0.229262
Si Si6 0.928383 0.332477 0.224562
O O1 0.167443 0.842721 0.000000
O O2 0.266781 0.761746 0.885773
O O3 0.275073 0.000000 0.000000
O O4 0.817372 0.714468 0.500000
O O5 0.796935 0.500000 0.355855
O O6 0.739521 0.748727 0.331027
O O7 0.870512 0.728131 0.304441
O O8 0.500000 0.234691 0.160889
O O9 0.374332 0.218544 0.219889
O O10 0.431467 0.000000 0.122673
O O11 0.409646 0.227949 0.000000
O O12 0.933441 0.755809 0.109926
O O13 0.938115 0.000000 0.000000
O O14 0.287817 0.000000 0.242636
O O15 0.913407 0.500000 0.195029
O O16 0.000000 0.318210 0.284049
#
# Coordination Sequence:
#
# PCOD8193668 Si02
#       6
#     4   8   8   4   8   8
#     4   9  16  26  45  75 103 127 154 191 237 289
#     4  10  22  38  53  70  93 125 169 215 253 289
#     4   8  13  22  42  75 109 135 158 189 234 288
#     4  11  20  32  51  77 108 133 155 190 241 301
#     4  10  17  30  52  76 103 131 162 199 242 292
#     4  10  21  36  53  73  98 128 162 202 248 297
#
# _framework density 17.892679999999999
#
# number of rings (size 3 to 8) (size 9 to 14) (size 15 to 20)
#    0.000    2.400    3.000    1.200    0.000    2.400 
#    0.000    2.500    0.000    1.200    0.000    8.400 
#    0.000    0.000    0.000    0.000    0.000    0.000 
#
# Total GULP energy -495604.772238 kJ/mol
# GULP energy per Si atom -12390.119306 kJ/mol
# Density = 1.785196 g / cm^3
# Si number density = 17.892680 Si / 1000 Ang^3
#
#
#
# Elastic Constant Matrix: (Units=GPa)
#
#
# Indices 1 2 3 4 5 6 
#
# 1 147.6607 31.3376 63.4578 0.0000 0.0000 0.0000
# 2 31.3376 35.5719 32.2394 0.0000 0.0000 0.0000
# 3 63.4578 32.2394 101.6992 0.0000 0.0000 0.0000
# 4 0.0000 0.0000 0.0000 21.2076 0.0000 0.0000
# 5 0.0000 0.0000 0.0000 0.0000 24.6417 0.0000
# 6 0.0000 0.0000 0.0000 0.0000 0.0000 18.9455
#
#
#
# Elastic Compliance Matrix: (Units=1/GPa)
#
#
# Indices 1 2 3 4 5 6 
#
# 1 0.009699 -0.004293 -0.004691 0.000000 0.000000 0.000000
# 2 -0.004293 0.041345 -0.010428 0.000000 0.000000 0.000000
# 3 -0.004691 -0.010428 0.016066 0.000000 0.000000 0.000000
# 4 0.000000 0.000000 0.000000 0.047153 0.000000 0.000000
# 5 0.000000 0.000000 0.000000 0.000000 0.040582 0.000000
# 6 0.000000 0.000000 0.000000 0.000000 0.000000 0.052783
#
#
# Mechanical properties :
#
#
# Convention : Reuss Voigt Hill
#
# Bulk Modulus (GPa) = 35.35330 59.88903 47.62117
# Shear Modulus (GPa) = 19.54030 23.48544 21.51287
#
# Velocity S-wave (km/s) = 3.30825 3.62687 3.47122
# Velocity P-wave (km/s) = 5.86465 7.14723 6.53747
#
# Compressibility (1/GPa) = 0.02828590
#
# Stress axis : x y z
#
# Youngs Moduli (GPa) = 103.09811 24.18660 62.24364
#
# Poissons Ratio (x) = 0.10384 0.29200
# Poissons Ratio (y) = 0.44261 0.64907
# Poissons Ratio (z) = 0.48366 0.25222
#
# Static dielectric constant tensor:
#      x y z
#    x 3.788580 0.000000 0.000000 
#    y 0.000000 3.054350 0.000000 
#    z 0.000000 0.000000 3.147910 
# 
# 
# High freq. dielectric constant tensor:
#      x y z
#    x 1.715420 0.000000 0.000000 
#    y 0.000000 1.652590 0.000000 
#    z 0.000000 0.000000 1.663740 
# 
# From -- ./inp_files/18954.got.cif
#   From: 2010.03.12/outbox.cif.g09.slc.cpg/sg47_10_cif.got.tgz:18954.got - 2010.04.14 03:12:58.
