data_PCOD8193150
_publ_section_title
;
Structure prediction by ZEFSAII (Michael W. Deem and Ramdas Pophale) SiO2 
 PCOD8193150
Probable space group: I M A 2
;
_chemical_formula_sum "Si O2"
_cell_formula_units_Z 48
_cell_length_a 24.874334
_cell_length_b 7.055409
_cell_length_c 14.031421
_cell_angle_alpha 90.000000
_cell_angle_beta 90.000000
_cell_angle_gamma 90.000000
_cell_volume 2462.494741
_symmetry_space_group_name_H-M "I M A 2"
_symmetry_group_IT_number 46
_symmetry_cell_setting 'orthorhombic'
loop_
_space_group_symop_operation_xyz
x,y,z
-x,-y,z
1/2-x,y,z
1/2+x,-y,z
1/2+x,1/2+y,1/2+z
1/2-x,1/2-y,1/2+z
-x,1/2+y,1/2+z
x,1/2-y,1/2+z
loop_
_atom_site_type_symbol
_atom_site_label
_atom_site_fract_x
_atom_site_fract_y
_atom_site_fract_z
Si Si1 0.374609 0.839811 0.895670
Si Si2 0.947985 0.634147 0.494321
Si Si3 0.309231 0.669766 0.578088
Si Si4 0.878853 0.854225 0.173886
Si Si5 0.942263 0.528820 0.853774
Si Si6 0.689820 0.002973 0.720099
O O1 0.416759 0.668373 0.888477
O O2 0.346711 0.887080 0.796065
O O3 0.404185 0.027285 0.931167
O O4 0.328928 0.788673 0.971511
O O5 0.926525 0.687878 0.599315
O O6 0.956668 0.835081 0.442928
O O7 0.000000 0.500000 0.503358
O O8 0.250000 0.575339 0.573773
O O9 0.348977 0.541947 0.639672
O O10 0.306041 0.872510 0.626318
O O11 0.902514 0.876721 0.278936
O O12 0.835927 0.688910 0.182156
O O13 0.000000 0.500000 0.802794
O O14 0.750000 0.964008 0.761319
#
# Coordination Sequence:
#
# PCOD8193150 Si02
#       6
#     8   8   8   8   8   8
#     4  11  22  40  63  90 125 161 205 257 312 370
#     4  11  23  42  62  91 124 163 209 258 311 369
#     4  10  22  40  62  87 122 162 205 255 309 369
#     4  11  23  40  63  91 125 161 206 259 310 371
#     4  12  23  40  64  92 124 165 209 255 310 375
#     4  11  22  40  64  92 125 163 207 255 315 375
#
# _framework density 19.492428
#
# number of rings (size 3 to 8) (size 9 to 14) (size 15 to 20)
#    0.000    1.000    5.000    2.500    0.000    0.000 
#    0.000    0.833    0.000    0.000    0.000    0.000 
#    0.000    0.000    0.000    0.000    0.000    0.000 
#
# Total GULP energy -297600.036302 kJ/mol
# GULP energy per Si atom -12400.001513 kJ/mol
# Density = 1.944806 g / cm^3
# Si number density = 19.492428 Si / 1000 Ang^3
#
#
#
# Elastic Constant Matrix: (Units=GPa)
#
#
# Indices 1 2 3 4 5 6 
#
# 1 102.6713 23.5519 20.6416 0.0000 0.0000 0.0000
# 2 23.5519 87.0840 20.1739 0.0000 0.0000 0.0000
# 3 20.6416 20.1739 70.4878 0.0000 0.0000 0.0000
# 4 0.0000 0.0000 0.0000 20.3879 0.0000 0.0000
# 5 0.0000 0.0000 0.0000 0.0000 27.0071 0.0000
# 6 0.0000 0.0000 0.0000 0.0000 0.0000 39.2672
#
#
#
# Elastic Compliance Matrix: (Units=1/GPa)
#
#
# Indices 1 2 3 4 5 6 
#
# 1 0.010776 -0.002338 -0.002486 0.000000 0.000000 0.000000
# 2 -0.002338 0.012806 -0.002980 0.000000 0.000000 0.000000
# 3 -0.002486 -0.002980 0.015768 0.000000 0.000000 0.000000
# 4 0.000000 0.000000 0.000000 0.049049 0.000000 0.000000
# 5 0.000000 0.000000 0.000000 0.000000 0.037027 0.000000
# 6 0.000000 0.000000 0.000000 0.000000 0.000000 0.025467
#
#
# Mechanical properties :
#
#
# Convention : Reuss Voigt Hill
#
# Bulk Modulus (GPa) = 42.12345 43.21977 42.67161
# Shear Modulus (GPa) = 28.66705 30.39081 29.52893
#
# Velocity S-wave (km/s) = 3.83910 3.95284 3.89638
# Velocity P-wave (km/s) = 6.42718 6.56155 6.49471
#
# Compressibility (1/GPa) = 0.02373975
#
# Stress axis : x y z
#
# Youngs Moduli (GPa) = 92.79788 78.08827 63.41974
#
# Poissons Ratio (x) = 0.18260 0.15769
# Poissons Ratio (y) = 0.21700 0.18901
# Poissons Ratio (z) = 0.23073 0.23273
#
# Static dielectric constant tensor:
#      x y z
#    x 3.822010 0.000000 0.000000 
#    y 0.000000 3.466080 0.000000 
#    z 0.000000 0.000000 3.498460 
# 
# 
# High freq. dielectric constant tensor:
#      x y z
#    x 1.775600 0.000000 0.000000 
#    y 0.000000 1.762190 0.000000 
#    z 0.000000 0.000000 1.761240 
# 
# From -- ./inp_files/12696.got.cif
#   From: 2010.03.12/outbox.cif.g09.slc.cpg/sg46_7_cif.got.tgz:12696.got - 2010.04.14 02:56:35.
