data_PCOD8193707
_publ_section_title
;
Structure prediction by ZEFSAII (Michael W. Deem and Ramdas Pophale) SiO2 
 PCOD8193707
Probable space group: P M M M
;
_chemical_formula_sum "Si O2"
_cell_formula_units_Z 52
_cell_length_a 9.131443
_cell_length_b 26.753436
_cell_length_c 13.661966
_cell_angle_alpha 90.000000
_cell_angle_beta 90.000000
_cell_angle_gamma 90.000000
_cell_volume 3337.583809
_symmetry_space_group_name_H-M "P M M M"
_symmetry_group_IT_number 47
_symmetry_cell_setting 'orthorhombic'
loop_
_space_group_symop_operation_xyz
x,y,z
-x,-y,z
x,-y,-z
-x,y,-z
-x,-y,-z
x,y,-z
-x,y,z
x,-y,z
loop_
_atom_site_type_symbol
_atom_site_label
_atom_site_fract_x
_atom_site_fract_y
_atom_site_fract_z
Si Si1 0.174909 0.340368 0.609831
Si Si2 0.173587 0.240908 0.712099
Si Si3 0.669227 0.847849 0.389227
Si Si4 0.668976 0.197365 0.110928
Si Si5 0.826790 0.000000 0.111606
Si Si6 0.835636 0.552919 0.383621
Si Si7 0.667319 0.908050 0.796394
O O1 0.233182 0.329936 0.500000
O O2 0.228614 0.295637 0.679152
O O3 0.237158 0.394240 0.650947
O O4 0.000000 0.343326 0.608077
O O5 0.234909 0.200337 0.636202
O O6 0.232637 0.232482 0.821200
O O7 0.000000 0.236607 0.711495
O O8 0.702759 0.865220 0.500000
O O9 0.500000 0.832478 0.374933
O O10 0.705947 0.893598 0.316038
O O11 0.500000 0.210793 0.129305
O O12 0.696602 0.139459 0.134861
O O13 0.716569 0.207577 0.000000
O O14 0.772982 0.951548 0.169045
O O15 0.000000 0.000000 0.112369
O O16 0.766979 0.000000 0.000000
O O17 0.840364 0.555753 0.500000
O O18 0.756297 0.500000 0.351415
O O19 0.000000 0.550443 0.342086
O O20 0.500000 0.926418 0.805408
#
# Coordination Sequence:
#
# PCOD8193707 Si02
#       7
#     8   8   8   8   4   8   8
#     4   8  13  20  30  49  80 113 141 169 202 242
#     4  10  18  26  40  64  91 115 139 170 211 258
#     4   9  18  33  50  66  87 116 149 180 205 236
#     4   9  18  33  50  65  83 109 141 175 209 247
#     4  11  23  35  48  69  94 114 133 165 210 255
#     4   7   9  14  25  41  65 102 143 174 199 232
#     4   9  18  33  52  70  85 107 140 172 203 241
#
# _framework density 15.580133999999999
#
# number of rings (size 3 to 8) (size 9 to 14) (size 15 to 20)
#    0.000    3.154    0.000    3.923    0.000    4.923 
#    0.000    0.385    0.000    2.308    0.000    0.000 
#    0.000    3.077    0.000   25.077    0.000   15.692 
#
# Total GULP energy -644260.124112 kJ/mol
# GULP energy per Si atom -12389.617771 kJ/mol
# Density = 1.554467 g / cm^3
# Si number density = 15.580134 Si / 1000 Ang^3
#
#
#
# Elastic Constant Matrix: (Units=GPa)
#
#
# Indices 1 2 3 4 5 6 
#
# 1 42.0165 41.6386 31.6042 0.0000 0.0000 0.0000
# 2 41.6386 133.8436 62.2844 0.0000 0.0000 0.0000
# 3 31.6042 62.2844 106.4233 0.0000 0.0000 0.0000
# 4 0.0000 0.0000 0.0000 16.4754 0.0000 0.0000
# 5 0.0000 0.0000 0.0000 0.0000 19.9099 0.0000
# 6 0.0000 0.0000 0.0000 0.0000 0.0000 0.5440
#
#
#
# Elastic Compliance Matrix: (Units=1/GPa)
#
#
# Indices 1 2 3 4 5 6 
#
# 1 0.036857 -0.008758 -0.005820 0.000000 0.000000 0.000000
# 2 -0.008758 0.012349 -0.004626 0.000000 0.000000 0.000000
# 3 -0.005820 -0.004626 0.013832 0.000000 0.000000 0.000000
# 4 0.000000 0.000000 0.000000 0.060696 0.000000 0.000000
# 5 0.000000 0.000000 0.000000 0.000000 0.050226 0.000000
# 6 0.000000 0.000000 0.000000 0.000000 0.000000 1.838194
#
#
# Mechanical properties :
#
#
# Convention : Reuss Voigt Hill
#
# Bulk Modulus (GPa) = 40.60091 61.48198 51.04144
# Shear Modulus (GPa) = 2.42863 17.16962 9.79913
#
# Velocity S-wave (km/s) = 1.24987 3.32327 2.51061
# Velocity P-wave (km/s) = 5.31026 7.36702 6.42152
#
# Compressibility (1/GPa) = 0.02462999
#
# Stress axis : x y z
#
# Youngs Moduli (GPa) = 27.13208 80.97904 72.29461
#
# Poissons Ratio (x) = 0.70920 0.42073
# Poissons Ratio (y) = 0.23762 0.33446
# Poissons Ratio (z) = 0.15790 0.37464
#
# Static dielectric constant tensor:
#      x y z
#    x 2.709500 0.000000 0.000000 
#    y 0.000000 3.265320 0.000000 
#    z 0.000000 0.000000 2.958650 
# 
# 
# High freq. dielectric constant tensor:
#      x y z
#    x 1.569760 0.000000 0.000000 
#    y 0.000000 1.600300 0.000000 
#    z 0.000000 0.000000 1.575290 
# 
# From -- ./inp_files/21742.got.cif
#   From: 2010.03.12/outbox.cif.g09.slc.cpg/sg47_11_cif.got.tgz:21742.got - 2010.04.14 03:12:58.
