data_PCOD8193469
_publ_section_title
;
Structure prediction by ZEFSAII (Michael W. Deem and Ramdas Pophale) SiO2 
 PCOD8193469
Probable space group: P M M M
;
_chemical_formula_sum "Si O2"
_cell_formula_units_Z 56
_cell_length_a 18.672711
_cell_length_b 14.540922
_cell_length_c 14.009703
_cell_angle_alpha 90.000000
_cell_angle_beta 90.000000
_cell_angle_gamma 90.000000
_cell_volume 3803.892622
_symmetry_space_group_name_H-M "P M M M"
_symmetry_group_IT_number 47
_symmetry_cell_setting 'orthorhombic'
loop_
_space_group_symop_operation_xyz
x,y,z
-x,-y,z
x,-y,-z
-x,y,-z
-x,-y,-z
x,y,-z
-x,y,z
x,-y,z
loop_
_atom_site_type_symbol
_atom_site_label
_atom_site_fract_x
_atom_site_fract_y
_atom_site_fract_z
Si Si1 0.500000 0.260793 0.390623
Si Si2 0.860416 0.601951 0.608676
Si Si3 0.715280 0.604263 0.713077
Si Si4 0.216566 0.103737 0.385982
Si Si5 0.361048 0.392927 0.104626
Si Si6 0.922533 0.791481 0.388533
Si Si7 0.500000 0.390667 0.784268
Si Si8 0.655252 0.228090 0.610049
O O1 0.500000 0.297565 0.500000
O O2 0.500000 0.347607 0.320863
O O3 0.428044 0.198723 0.373864
O O4 0.830974 0.611583 0.500000
O O5 0.894505 0.500000 0.623291
O O6 0.796690 0.618217 0.682698
O O7 0.917500 0.681573 0.629636
O O8 0.689322 0.500000 0.691635
O O9 0.707341 0.625676 0.826546
O O10 0.663870 0.671492 0.655205
O O11 0.215833 0.104507 0.500000
O O12 0.145110 0.153854 0.344189
O O13 0.287995 0.154872 0.346161
O O14 0.217633 0.000000 0.346580
O O15 0.372807 0.500000 0.088611
O O16 0.431583 0.353834 0.156733
O O17 0.349488 0.346342 0.000000
O O18 0.922940 0.812782 0.500000
O O19 0.000000 0.822928 0.345385
O O20 0.500000 0.500000 0.771343
O O21 0.674430 0.237631 0.500000
#
# Coordination Sequence:
#
# PCOD8193469 Si02
#       8
#     4   8   8   8   8   8   4   8
#     4  10  20  28  38  58  82 107 137 178 211 236
#     4   9  16  25  37  56  83 115 145 166 192 236
#     4  10  17  25  40  58  78 108 140 169 202 240
#     4   9  17  29  43  56  74 106 143 175 210 248
#     4   9  17  27  38  53  75 104 139 176 209 243
#     4   9  16  25  38  58  83 110 141 173 199 230
#     4  10  17  27  38  52  76 111 142 167 206 248
#     4  10  18  29  41  56  80 108 139 174 209 245
#
# _framework density 14.721761000000001
#
# number of rings (size 3 to 8) (size 9 to 14) (size 15 to 20)
#    0.000    2.571    2.857    0.643    0.000    2.429 
#    0.000    4.643    0.000    2.143    0.000    0.000 
#    0.000    1.143    0.000    6.857    0.000    2.000 
#
# Total GULP energy -693731.053458 kJ/mol
# GULP energy per Si atom -12388.054526 kJ/mol
# Density = 1.468825 g / cm^3
# Si number density = 14.721761 Si / 1000 Ang^3
#
#
#
# Elastic Constant Matrix: (Units=GPa)
#
#
# Indices 1 2 3 4 5 6 
#
# 1 111.3699 47.6268 28.1818 0.0000 0.0000 0.0000
# 2 47.6268 74.4824 15.6226 0.0000 0.0000 0.0000
# 3 28.1818 15.6226 51.9577 0.0000 0.0000 0.0000
# 4 0.0000 0.0000 0.0000 3.7849 0.0000 0.0000
# 5 0.0000 0.0000 0.0000 0.0000 8.0943 0.0000
# 6 0.0000 0.0000 0.0000 0.0000 0.0000 11.6254
#
#
#
# Elastic Compliance Matrix: (Units=1/GPa)
#
#
# Indices 1 2 3 4 5 6 
#
# 1 0.013492 -0.007570 -0.005042 0.000000 0.000000 0.000000
# 2 -0.007570 0.018577 -0.001480 0.000000 0.000000 0.000000
# 3 -0.005042 -0.001480 0.022426 0.000000 0.000000 0.000000
# 4 0.000000 0.000000 0.000000 0.264208 0.000000 0.000000
# 5 0.000000 0.000000 0.000000 0.000000 0.123544 0.000000
# 6 0.000000 0.000000 0.000000 0.000000 0.000000 0.086018
#
#
# Mechanical properties :
#
#
# Convention : Reuss Voigt Hill
#
# Bulk Modulus (GPa) = 38.00573 46.74138 42.37355
# Shear Modulus (GPa) = 8.84613 14.45951 11.65282
#
# Velocity S-wave (km/s) = 2.45396 3.13739 2.81648
# Velocity P-wave (km/s) = 5.82248 6.70396 6.27871
#
# Compressibility (1/GPa) = 0.02631182
#
# Stress axis : x y z
#
# Youngs Moduli (GPa) = 74.11714 53.83059 44.59078
#
# Poissons Ratio (x) = 0.40749 0.22483
# Poissons Ratio (y) = 0.56105 0.06598
# Poissons Ratio (z) = 0.37370 0.07966
#
# Static dielectric constant tensor:
#      x y z
#    x 3.071200 0.000000 0.000000 
#    y 0.000000 2.773650 0.000000 
#    z 0.000000 0.000000 2.687550 
# 
# 
# High freq. dielectric constant tensor:
#      x y z
#    x 1.569130 0.000000 0.000000 
#    y 0.000000 1.536800 0.000000 
#    z 0.000000 0.000000 1.511370 
# 
# From -- ./inp_files/24734.got.cif
#   From: 2010.03.12/outbox.cif.g09.slc.cpg/sg47_13_cif.got.tgz:24734.got - 2010.04.14 03:12:58.
