data_PCOD8193388
_publ_section_title
;
Structure prediction by ZEFSAII (Michael W. Deem and Ramdas Pophale) SiO2 
 PCOD8193388
Probable space group: I M A 2
;
_chemical_formula_sum "Si O2"
_cell_formula_units_Z 48
_cell_length_a 30.513685
_cell_length_b 7.662377
_cell_length_c 9.014425
_cell_angle_alpha 90.000000
_cell_angle_beta 90.000000
_cell_angle_gamma 90.000000
_cell_volume 2107.638894
_symmetry_space_group_name_H-M "I M A 2"
_symmetry_group_IT_number 46
_symmetry_cell_setting 'orthorhombic'
loop_
_space_group_symop_operation_xyz
x,y,z
-x,-y,z
1/2-x,y,z
1/2+x,-y,z
1/2+x,1/2+y,1/2+z
1/2-x,1/2-y,1/2+z
-x,1/2+y,1/2+z
x,1/2-y,1/2+z
loop_
_atom_site_type_symbol
_atom_site_label
_atom_site_fract_x
_atom_site_fract_y
_atom_site_fract_z
Si Si1 0.162968 0.076950 0.552330
Si Si2 0.510816 0.825556 0.264428
Si Si3 0.066784 0.101559 0.550073
Si Si4 0.416609 0.783454 0.743402
Si Si5 0.300702 0.114689 0.881005
Si Si6 0.357421 0.672089 0.512350
O O1 0.115737 0.173951 0.526242
O O2 0.175838 0.096639 0.723237
O O3 0.194869 0.188674 0.446464
O O4 0.162443 0.870391 0.509825
O O5 0.537960 0.891867 0.404717
O O6 0.540252 0.690307 0.180972
O O7 0.463491 0.757361 0.315157
O O8 0.500000 0.000000 0.166754
O O9 0.074656 0.904090 0.600283
O O10 0.386072 0.634817 0.663659
O O11 0.388680 0.869028 0.872793
O O12 0.250000 0.073407 0.857689
O O13 0.318990 0.971059 0.998973
#
# Coordination Sequence:
#
# PCOD8193388 Si02
#       6
#     8   8   8   8   8   8
#     4  11  26  49  73 107 150 192 240 301 375 439
#     4  12  24  37  64 101 135 184 237 296 341 421
#     4  11  24  44  63  97 141 187 241 291 353 431
#     4  11  24  45  68  98 145 191 244 291 362 423
#     4  12  27  47  77 112 141 188 249 306 375 448
#     4  11  24  48  72 104 146 202 237 304 365 443
#
# _framework density 22.7743
#
# number of rings (size 3 to 8) (size 9 to 14) (size 15 to 20)
#    0.000    0.667    3.333    6.000    4.667    2.667 
#    0.000    0.000    0.000    0.000    0.000    0.000 
#    0.000    0.000    0.000    0.000    0.000    0.000 
#
# Total GULP energy -297350.529969 kJ/mol
# GULP energy per Si atom -12389.605415 kJ/mol
# Density = 2.272246 g / cm^3
# Si number density = 22.774300 Si / 1000 Ang^3
#
#
#
# Elastic Constant Matrix: (Units=GPa)
#
#
# Indices 1 2 3 4 5 6 
#
# 1 126.3953 25.6715 25.2319 0.0000 0.0000 0.0000
# 2 25.6715 85.8492 9.7283 0.0000 0.0000 0.0000
# 3 25.2319 9.7283 60.1297 0.0000 0.0000 0.0000
# 4 0.0000 0.0000 0.0000 32.7168 0.0000 0.0000
# 5 0.0000 0.0000 0.0000 0.0000 23.2565 0.0000
# 6 0.0000 0.0000 0.0000 0.0000 0.0000 36.4123
#
#
#
# Elastic Compliance Matrix: (Units=1/GPa)
#
#
# Indices 1 2 3 4 5 6 
#
# 1 0.009068 -0.002323 -0.003429 0.000000 0.000000 0.000000
# 2 -0.002323 0.012461 -0.001041 0.000000 0.000000 0.000000
# 3 -0.003429 -0.001041 0.018238 0.000000 0.000000 0.000000
# 4 0.000000 0.000000 0.000000 0.030565 0.000000 0.000000
# 5 0.000000 0.000000 0.000000 0.000000 0.042999 0.000000
# 6 0.000000 0.000000 0.000000 0.000000 0.000000 0.027463
#
#
# Mechanical properties :
#
#
# Convention : Reuss Voigt Hill
#
# Bulk Modulus (GPa) = 38.19703 43.73750 40.96726
# Shear Modulus (GPa) = 30.65445 32.59329 31.62387
#
# Velocity S-wave (km/s) = 3.67278 3.78715 3.73040
# Velocity P-wave (km/s) = 5.89866 6.19434 6.04830
#
# Compressibility (1/GPa) = 0.02618005
#
# Stress axis : x y z
#
# Youngs Moduli (GPa) = 110.27670 80.25054 54.82987
#
# Poissons Ratio (x) = 0.18642 0.18803
# Poissons Ratio (y) = 0.25618 0.05709
# Poissons Ratio (z) = 0.37818 0.08356
#
# Static dielectric constant tensor:
#      x y z
#    x 4.419850 0.000000 0.000000 
#    y 0.000000 4.247090 0.000000 
#    z 0.000000 0.000000 4.131490 
# 
# 
# High freq. dielectric constant tensor:
#      x y z
#    x 1.910870 0.000000 0.000000 
#    y 0.000000 1.893140 0.000000 
#    z 0.000000 0.000000 1.900510 
# 
# From -- ./inp_files/8392.got.cif
#   From: 2010.03.12/outbox.cif.g09.slc.cpg/sg46_5_cif.got.tgz:8392.got - 2010.04.14 02:56:35.
