data_PCOD8193423
_publ_section_title
;
Structure prediction by ZEFSAII (Michael W. Deem and Ramdas Pophale) SiO2 
 PCOD8193423
Probable space group: I M A 2
;
_chemical_formula_sum "Si O2"
_cell_formula_units_Z 40
_cell_length_a 21.346148
_cell_length_b 9.540408
_cell_length_c 8.358948
_cell_angle_alpha 90.000000
_cell_angle_beta 90.000000
_cell_angle_gamma 90.000000
_cell_volume 1702.307794
_symmetry_space_group_name_H-M "I M A 2"
_symmetry_group_IT_number 46
_symmetry_cell_setting 'orthorhombic'
loop_
_space_group_symop_operation_xyz
x,y,z
-x,-y,z
1/2-x,y,z
1/2+x,-y,z
1/2+x,1/2+y,1/2+z
1/2-x,1/2-y,1/2+z
-x,1/2+y,1/2+z
x,1/2-y,1/2+z
loop_
_atom_site_type_symbol
_atom_site_label
_atom_site_fract_x
_atom_site_fract_y
_atom_site_fract_z
Si Si1 0.425453 0.303410 0.501120
Si Si2 0.882791 0.067491 0.180571
Si Si3 0.750000 0.121953 0.301579
Si Si4 0.750000 0.069816 0.676469
Si Si5 0.065426 0.694614 0.999063
Si Si6 0.118967 0.058818 0.680061
O O1 0.412846 0.418985 0.637439
O O2 0.495709 0.249522 0.517796
O O3 0.380407 0.169768 0.532947
O O4 0.414383 0.367019 0.328119
O O5 0.810341 0.047327 0.225500
O O6 0.922587 0.133783 0.324407
O O7 0.887605 0.174726 0.030526
O O8 0.750000 0.099547 0.489549
O O9 0.750000 0.287281 0.274471
O O10 0.810479 0.980743 0.726480
O O11 0.078654 0.576893 0.132685
#
# Coordination Sequence:
#
# PCOD8193423 Si02
#       6
#     8   8   4   4   8   8
#     4  12  29  48  75 115 155 200 254 315 389 453
#     4  12  25  46  80 111 148 200 254 318 376 447
#     4  12  24  49  79 112 148 196 260 312 372 459
#     4  12  28  49  81 110 156 198 264 314 382 463
#     4  12  25  49  74 110 153 197 257 309 377 461
#     4  12  27  50  77 111 154 203 254 318 384 454
#
# _framework density 23.497513000000001
#
# number of rings (size 3 to 8) (size 9 to 14) (size 15 to 20)
#    0.000    0.000    4.000    4.800    2.800    4.800 
#    0.000    2.000    0.000    0.000    0.000    0.000 
#    0.000    0.000    0.000    0.000    0.000    0.000 
#
# Total GULP energy -248159.819009 kJ/mol
# GULP energy per Si atom -12407.990950 kJ/mol
# Density = 2.344403 g / cm^3
# Si number density = 23.497513 Si / 1000 Ang^3
#
#
#
# Elastic Constant Matrix: (Units=GPa)
#
#
# Indices 1 2 3 4 5 6 
#
# 1 156.6555 89.8836 54.3645 0.0000 0.0000 0.0000
# 2 89.8836 134.8747 19.2197 0.0000 0.0000 0.0000
# 3 54.3645 19.2197 54.9262 0.0000 0.0000 0.0000
# 4 0.0000 0.0000 0.0000 50.2452 0.0000 0.0000
# 5 0.0000 0.0000 0.0000 0.0000 29.2885 0.0000
# 6 0.0000 0.0000 0.0000 0.0000 0.0000 -47.5188
#
#
#
# Elastic Compliance Matrix: (Units=1/GPa)
#
#
# Indices 1 2 3 4 5 6 
#
# 1 0.015707 -0.008685 -0.012507 0.000000 0.000000 0.000000
# 2 -0.008685 0.012606 0.004185 0.000000 0.000000 0.000000
# 3 -0.012507 0.004185 0.029121 0.000000 0.000000 0.000000
# 4 0.000000 0.000000 0.000000 0.019902 0.000000 0.000000
# 5 0.000000 0.000000 0.000000 0.000000 0.034143 0.000000
# 6 0.000000 0.000000 0.000000 0.000000 0.000000 -0.021044
#
#
# Mechanical properties :
#
#
# Convention : Reuss Voigt Hill
#
# Bulk Modulus (GPa) = 42.69898 74.82131 58.76014
# Shear Modulus (GPa) = 37.80514 18.60222 28.20368
#
# Velocity S-wave (km/s) = 4.01546 2.81671 3.46827
# Velocity P-wave (km/s) = 6.30156 6.51842 6.41091
#
# Compressibility (1/GPa) = 0.02341977
#
# Stress axis : x y z
#
# Youngs Moduli (GPa) = 63.66462 79.32733 34.33920
#
# Poissons Ratio (x) = 0.68899 0.42950
# Poissons Ratio (y) = 0.55295 -0.14373
# Poissons Ratio (z) = 0.79628 -0.33202
#
# Static dielectric constant tensor:
#      x y z
#    x 4.366140 0.000000 0.000000 
#    y 0.000000 4.653530 0.000000 
#    z 0.000000 0.000000 4.339110 
# 
# 
# High freq. dielectric constant tensor:
#      x y z
#    x 1.933730 0.000000 0.000000 
#    y 0.000000 1.947460 0.000000 
#    z 0.000000 0.000000 1.943790 
# 
# From -- ./inp_files/7731.got.cif
#   From: 2010.03.12/outbox.cif.g09.slc.cpg/sg46_4_cif.got.tgz:7731.got - 2010.04.14 02:56:35.
