data_PCOD8193142
_publ_section_title
;
Structure prediction by ZEFSAII (Michael W. Deem and Ramdas Pophale) SiO2 
 PCOD8193142
Probable space group: I M A 2
;
_chemical_formula_sum "Si O2"
_cell_formula_units_Z 64
_cell_length_a 15.191234
_cell_length_b 9.306763
_cell_length_c 21.836193
_cell_angle_alpha 90.000000
_cell_angle_beta 90.000000
_cell_angle_gamma 90.000000
_cell_volume 3087.227487
_symmetry_space_group_name_H-M "I M A 2"
_symmetry_group_IT_number 46
_symmetry_cell_setting 'orthorhombic'
loop_
_space_group_symop_operation_xyz
x,y,z
-x,-y,z
1/2-x,y,z
1/2+x,-y,z
1/2+x,1/2+y,1/2+z
1/2-x,1/2-y,1/2+z
-x,1/2+y,1/2+z
x,1/2-y,1/2+z
loop_
_atom_site_type_symbol
_atom_site_label
_atom_site_fract_x
_atom_site_fract_y
_atom_site_fract_z
Si Si1 0.649357 0.423447 0.686560
Si Si2 0.352320 0.136892 0.285387
Si Si3 0.152408 0.823594 0.764067
Si Si4 0.086181 0.423715 0.330071
Si Si5 0.912187 0.419992 0.553204
Si Si6 0.347995 0.356883 0.457046
Si Si7 0.847434 0.121551 0.376912
Si Si8 0.014917 0.659836 0.984242
O O1 0.750000 0.417422 0.709577
O O2 0.613398 0.566257 0.721100
O O3 0.603402 0.279252 0.714297
O O4 0.646880 0.425058 0.613703
O O5 0.250000 0.190237 0.281145
O O6 0.420515 0.265488 0.300285
O O7 0.363000 0.025843 0.340832
O O8 0.250000 0.850761 0.740193
O O9 0.148997 0.754453 0.831171
O O10 0.111210 0.980001 0.771373
O O11 0.152613 0.413015 0.387218
O O12 0.000000 0.500000 0.358419
O O13 0.863761 0.503968 0.499073
O O14 0.933054 0.256701 0.533482
O O15 0.000000 0.500000 0.572820
O O16 0.250000 0.294766 0.470845
O O17 0.421215 0.233677 0.467536
O O18 0.750000 0.117418 0.408283
O O19 0.925229 0.143529 0.424727
O O20 0.000000 0.500000 0.012045
#
# Coordination Sequence:
#
# PCOD8193142 Si02
#       8
#     8   8   8   8   8   8   8   8
#     4   9  19  38  61  82 106 145 197 240 279 342
#     4   9  19  36  59  86 118 157 196 235 289 359
#     4   9  18  33  53  80 113 143 179 229 281 337
#     4  12  22  33  53  86 120 148 187 238 297 353
#     4  10  22  40  60  82 111 151 199 244 290 351
#     4  11  23  40  61  85 119 162 203 246 297 356
#     4   9  18  34  58  87 118 154 191 232 290 358
#     4  11  23  38  58  88 122 152 195 250 302 362
#
# _framework density 20.730574000000001
#
# number of rings (size 3 to 8) (size 9 to 14) (size 15 to 20)
#    0.000    2.000    0.000    6.375    0.000    4.500 
#    0.000    5.625    0.000    1.500    0.000    0.000 
#    0.000    0.000    0.000    0.000    0.000    0.000 
#
# Total GULP energy -396529.433661 kJ/mol
# GULP energy per Si atom -12391.544802 kJ/mol
# Density = 2.068339 g / cm^3
# Si number density = 20.730574 Si / 1000 Ang^3
#
#
#
# Elastic Constant Matrix: (Units=GPa)
#
#
# Indices 1 2 3 4 5 6 
#
# 1 87.3468 41.2559 21.6887 0.0000 0.0000 0.0000
# 2 41.2559 139.9289 53.9141 0.0000 0.0000 0.0000
# 3 21.6887 53.9141 108.6150 0.0000 0.0000 0.0000
# 4 0.0000 0.0000 0.0000 18.0371 0.0000 0.0000
# 5 0.0000 0.0000 0.0000 0.0000 21.9989 0.0000
# 6 0.0000 0.0000 0.0000 0.0000 0.0000 27.8416
#
#
#
# Elastic Compliance Matrix: (Units=1/GPa)
#
#
# Indices 1 2 3 4 5 6 
#
# 1 0.013369 -0.003602 -0.000882 0.000000 0.000000 0.000000
# 2 -0.003602 0.009807 -0.004149 0.000000 0.000000 0.000000
# 3 -0.000882 -0.004149 0.011442 0.000000 0.000000 0.000000
# 4 0.000000 0.000000 0.000000 0.055441 0.000000 0.000000
# 5 0.000000 0.000000 0.000000 0.000000 0.045457 0.000000
# 6 0.000000 0.000000 0.000000 0.000000 0.000000 0.035917
#
#
# Mechanical properties :
#
#
# Convention : Reuss Voigt Hill
#
# Bulk Modulus (GPa) = 57.62539 63.28978 60.45759
# Shear Modulus (GPa) = 25.70928 28.17766 26.94347
#
# Velocity S-wave (km/s) = 3.52541 3.69078 3.60904
# Velocity P-wave (km/s) = 6.66551 6.98272 6.82596
#
# Compressibility (1/GPa) = 0.01735346
#
# Stress axis : x y z
#
# Youngs Moduli (GPa) = 74.80108 101.96875 87.39580
#
# Poissons Ratio (x) = 0.36728 0.07705
# Poissons Ratio (y) = 0.26943 0.36258
# Poissons Ratio (z) = 0.06595 0.42304
#
# Static dielectric constant tensor:
#      x y z
#    x 3.853110 0.000000 0.000000 
#    y 0.000000 3.983170 0.000000 
#    z 0.000000 0.000000 3.404880 
# 
# 
# High freq. dielectric constant tensor:
#      x y z
#    x 1.809550 0.000000 0.000000 
#    y 0.000000 1.818140 0.000000 
#    z 0.000000 0.000000 1.782570 
# 
# From -- ./inp_files/23713.got.cif
#   From: 2010.03.12/outbox.cif.g09.slc.cpg/sg46_12_cif.got.tgz:23713.got - 2010.04.14 02:56:35.
