data_PCOD8193920
_publ_section_title
;
Structure prediction by ZEFSAII (Michael W. Deem and Ramdas Pophale) SiO2 
 PCOD8193920
Probable space group: P M M M
;
_chemical_formula_sum "Si O2"
_cell_formula_units_Z 64
_cell_length_a 9.558911
_cell_length_b 31.052667
_cell_length_c 14.219108
_cell_angle_alpha 90.000000
_cell_angle_beta 90.000000
_cell_angle_gamma 90.000000
_cell_volume 4220.653280
_symmetry_space_group_name_H-M "P M M M"
_symmetry_group_IT_number 47
_symmetry_cell_setting 'orthorhombic'
loop_
_space_group_symop_operation_xyz
x,y,z
-x,-y,z
x,-y,-z
-x,y,-z
-x,-y,-z
x,y,-z
-x,y,z
x,-y,z
loop_
_atom_site_type_symbol
_atom_site_label
_atom_site_fract_x
_atom_site_fract_y
_atom_site_fract_z
Si Si1 0.160848 0.210386 0.890749
Si Si2 0.165904 0.952337 0.104898
Si Si3 0.665587 0.253533 0.601542
Si Si4 0.338941 0.155939 0.393026
Si Si5 0.665860 0.714667 0.798738
Si Si6 0.337772 0.374078 0.890898
Si Si7 0.157428 0.452603 0.888247
Si Si8 0.164877 0.126272 0.227533
O O1 0.258271 0.249849 0.861347
O O2 0.204665 0.168113 0.833274
O O3 0.000000 0.222889 0.870689
O O4 0.184646 0.200125 0.000000
O O5 0.224056 0.915771 0.174107
O O6 0.000000 0.948697 0.100673
O O7 0.210660 0.000000 0.140815
O O8 0.225946 0.944567 0.000000
O O9 0.723788 0.270819 0.500000
O O10 0.500000 0.253189 0.596103
O O11 0.716766 0.204788 0.617216
O O12 0.715582 0.282286 0.689621
O O13 0.321536 0.139908 0.500000
O O14 0.500000 0.152525 0.360943
O O15 0.243303 0.126530 0.327086
O O16 0.500000 0.721855 0.809732
O O17 0.711637 0.667844 0.834402
O O18 0.500000 0.383459 0.875919
O O19 0.257228 0.415301 0.848071
O O20 0.301634 0.366400 0.000000
O O21 0.205852 0.500000 0.852051
O O22 0.000000 0.443284 0.853884
O O23 0.164486 0.452270 0.000000
O O24 0.000000 0.123496 0.245790
#
# Coordination Sequence:
#
# PCOD8193920 Si02
#       8
#     8   8   8   8   8   8   8   8
#     4  10  20  30  39  57  87 117 140 166 204 247
#     4   8  14  26  45  67  89 114 143 174 211 256
#     4   8  14  26  44  62  79 104 140 178 211 244
#     4   9  17  30  47  65  85 111 143 175 211 257
#     4  10  18  29  44  60  82 112 146 177 203 243
#     4   9  17  26  36  55  82 110 138 168 204 242
#     4   8  14  25  40  56  74 101 139 176 206 241
#     4  10  18  28  45  68  89 108 138 179 216 249
#
# _framework density 15.16353
#
# number of rings (size 3 to 8) (size 9 to 14) (size 15 to 20)
#    0.000    3.000    1.250    2.250    0.000    3.250 
#    0.000    2.500    0.000    2.250    0.000    3.500 
#    0.000    0.500    0.000    6.250    0.000    1.250 
#
# Total GULP energy -793249.864233 kJ/mol
# GULP energy per Si atom -12394.529129 kJ/mol
# Density = 1.512902 g / cm^3
# Si number density = 15.163530 Si / 1000 Ang^3
#
#
#
# Elastic Constant Matrix: (Units=GPa)
#
#
# Indices 1 2 3 4 5 6 
#
# 1 38.1928 43.4249 30.5871 0.0000 0.0000 0.0000
# 2 43.4249 122.5159 54.3809 0.0000 0.0000 0.0000
# 3 30.5871 54.3809 85.3864 0.0000 0.0000 0.0000
# 4 0.0000 0.0000 0.0000 9.8023 0.0000 0.0000
# 5 0.0000 0.0000 0.0000 0.0000 18.9926 0.0000
# 6 0.0000 0.0000 0.0000 0.0000 0.0000 18.0373
#
#
#
# Elastic Compliance Matrix: (Units=1/GPa)
#
#
# Indices 1 2 3 4 5 6 
#
# 1 0.048281 -0.013155 -0.008917 0.000000 0.000000 0.000000
# 2 -0.013155 0.014963 -0.004817 0.000000 0.000000 0.000000
# 3 -0.008917 -0.004817 0.017974 0.000000 0.000000 0.000000
# 4 0.000000 0.000000 0.000000 0.102017 0.000000 0.000000
# 5 0.000000 0.000000 0.000000 0.000000 0.052652 0.000000
# 6 0.000000 0.000000 0.000000 0.000000 0.000000 0.055441
#
#
# Mechanical properties :
#
#
# Convention : Reuss Voigt Hill
#
# Bulk Modulus (GPa) = 36.44402 55.87566 46.15984
# Shear Modulus (GPa) = 14.11418 17.21325 15.66371
#
# Velocity S-wave (km/s) = 3.05421 3.37289 3.21750
# Velocity P-wave (km/s) = 6.04349 7.21784 6.65661
#
# Compressibility (1/GPa) = 0.02743935
#
# Stress axis : x y z
#
# Youngs Moduli (GPa) = 20.71189 66.83088 55.63625
#
# Poissons Ratio (x) = 0.87915 0.49612
# Poissons Ratio (y) = 0.27246 0.26802
# Poissons Ratio (z) = 0.18469 0.32195
#
# Static dielectric constant tensor:
#      x y z
#    x 2.716350 0.000000 0.000000 
#    y 0.000000 3.044170 0.000000 
#    z 0.000000 0.000000 3.050030 
# 
# 
# High freq. dielectric constant tensor:
#      x y z
#    x 1.558210 0.000000 0.000000 
#    y 0.000000 1.571740 0.000000 
#    z 0.000000 0.000000 1.564950 
# 
# From -- ./inp_files/8248.got.cif
#   From: 2010.03.12/outbox.cif.g09.slc.cpg/sg47_5_cif.got.tgz:8248.got - 2010.04.14 03:12:58.
