data_PCOD8193789
_publ_section_title
;
Structure prediction by ZEFSAII (Michael W. Deem and Ramdas Pophale) SiO2 
 PCOD8193789
Probable space group: P M M M
;
_chemical_formula_sum "Si O2"
_cell_formula_units_Z 64
_cell_length_a 9.532905
_cell_length_b 14.512913
_cell_length_c 28.173040
_cell_angle_alpha 90.000000
_cell_angle_beta 90.000000
_cell_angle_gamma 90.000000
_cell_volume 3897.746307
_symmetry_space_group_name_H-M "P M M M"
_symmetry_group_IT_number 47
_symmetry_cell_setting 'orthorhombic'
loop_
_space_group_symop_operation_xyz
x,y,z
-x,-y,z
x,-y,-z
-x,y,-z
-x,-y,-z
x,y,-z
-x,y,z
x,-y,z
loop_
_atom_site_type_symbol
_atom_site_label
_atom_site_fract_x
_atom_site_fract_y
_atom_site_fract_z
Si Si1 0.661627 0.396870 0.312360
Si Si2 0.165555 0.284906 0.870875
Si Si3 0.338506 0.395208 0.944808
Si Si4 0.336466 0.212977 0.358208
Si Si5 0.833749 0.899489 0.174407
Si Si6 0.160374 0.107243 0.280999
Si Si7 0.666507 0.896414 0.552359
Si Si8 0.160033 0.606868 0.778198
O O1 0.500000 0.396482 0.296836
O O2 0.706905 0.500000 0.329143
O O3 0.688109 0.323651 0.354786
O O4 0.749199 0.363782 0.266951
O O5 0.243567 0.323519 0.916585
O O6 0.212117 0.178430 0.863232
O O7 0.214266 0.339925 0.824326
O O8 0.000000 0.295121 0.879305
O O9 0.500000 0.379817 0.930934
O O10 0.293811 0.500000 0.932708
O O11 0.314560 0.375220 0.000000
O O12 0.500000 0.188324 0.353494
O O13 0.258235 0.164073 0.315558
O O14 0.276400 0.175875 0.408517
O O15 0.783872 0.873940 0.227578
O O16 0.000000 0.905343 0.176781
O O17 0.773379 0.000000 0.158851
O O18 0.000000 0.140685 0.286906
O O19 0.173002 0.000000 0.293486
O O20 0.724503 0.869000 0.500000
O O21 0.500000 0.893627 0.551045
O O22 0.716874 0.000000 0.565486
O O23 0.177599 0.500000 0.789640
O O24 0.000000 0.633601 0.766691
#
# Coordination Sequence:
#
# PCOD8193789 Si02
#       8
#     8   8   8   8   8   8   8   8
#     4   9  18  30  41  57  85 118 148 178 213 251
#     4  10  18  28  47  71  90 112 146 185 217 245
#     4   9  19  35  51  67  90 118 143 170 213 268
#     4  10  18  27  43  64  84 110 145 183 217 250
#     4   8  15  28  44  63  90 122 150 175 208 252
#     4   9  17  29  45  65  90 119 146 172 209 258
#     4   8  14  25  41  61  83 105 132 170 217 267
#     4   9  17  28  42  63  90 116 144 179 216 255
#
# _framework density 16.419746
#
# number of rings (size 3 to 8) (size 9 to 14) (size 15 to 20)
#    0.000    3.000    0.000    3.000    0.000    3.750 
#    0.000    2.500    0.000    2.250    0.000    7.000 
#    0.000    0.000    0.000    4.250    0.000    4.625 
#
# Total GULP energy -793269.439441 kJ/mol
# GULP energy per Si atom -12394.834991 kJ/mol
# Density = 1.638237 g / cm^3
# Si number density = 16.419746 Si / 1000 Ang^3
#
#
#
# Elastic Constant Matrix: (Units=GPa)
#
#
# Indices 1 2 3 4 5 6 
#
# 1 35.2578 35.3022 34.1073 0.0000 0.0000 0.0000
# 2 35.3022 105.1458 77.1065 0.0000 0.0000 0.0000
# 3 34.1073 77.1065 96.8724 0.0000 0.0000 0.0000
# 4 0.0000 0.0000 0.0000 30.2523 0.0000 0.0000
# 5 0.0000 0.0000 0.0000 0.0000 2.3810 0.0000
# 6 0.0000 0.0000 0.0000 0.0000 0.0000 17.3003
#
#
#
# Elastic Compliance Matrix: (Units=1/GPa)
#
#
# Indices 1 2 3 4 5 6 
#
# 1 0.046019 -0.008573 -0.009379 0.000000 0.000000 0.000000
# 2 -0.008573 0.024443 -0.016437 0.000000 0.000000 0.000000
# 3 -0.009379 -0.016437 0.026708 0.000000 0.000000 0.000000
# 4 0.000000 0.000000 0.000000 0.033055 0.000000 0.000000
# 5 0.000000 0.000000 0.000000 0.000000 0.419997 0.000000
# 6 0.000000 0.000000 0.000000 0.000000 0.000000 0.057802
#
#
# Mechanical properties :
#
#
# Convention : Reuss Voigt Hill
#
# Bulk Modulus (GPa) = 35.22072 58.92311 47.07192
# Shear Modulus (GPa) = 7.28580 16.03738 11.66159
#
# Velocity S-wave (km/s) = 2.10876 3.12863 2.66788
# Velocity P-wave (km/s) = 5.23698 7.00104 6.18225
#
# Compressibility (1/GPa) = 0.02839238
#
# Stress axis : x y z
#
# Youngs Moduli (GPa) = 21.73008 40.91230 37.44165
#
# Poissons Ratio (x) = 0.35073 0.35117
# Poissons Ratio (y) = 0.18629 0.61543
# Poissons Ratio (z) = 0.20381 0.67247
#
# Static dielectric constant tensor:
#      x y z
#    x 2.859180 0.000000 0.000000 
#    y 0.000000 3.470760 0.000000 
#    z 0.000000 0.000000 3.072290 
# 
# 
# High freq. dielectric constant tensor:
#      x y z
#    x 1.604130 0.000000 0.000000 
#    y 0.000000 1.639400 0.000000 
#    z 0.000000 0.000000 1.612860 
# 
# From -- ./inp_files/34423.got.cif
#   From: 2010.03.12/outbox.cif.g09.slc.cpg/sg47_18_cif.got.tgz:34423.got - 2010.04.14 03:12:58.
