data_PCOD8193437
_publ_section_title
;
Structure prediction by ZEFSAII (Michael W. Deem and Ramdas Pophale) SiO2 
 PCOD8193437
Probable space group: I M A 2
;
_chemical_formula_sum "Si O2"
_cell_formula_units_Z 24
_cell_length_a 9.000000
_cell_length_b 18.000000
_cell_length_c 15.000000
_cell_angle_alpha 90.000000
_cell_angle_beta 90.000000
_cell_angle_gamma 90.000000
_cell_volume 2430.000000
_symmetry_space_group_name_H-M "I M A 2"
_symmetry_group_IT_number 46
_symmetry_cell_setting 'orthorhombic'
loop_
_space_group_symop_operation_xyz
x,y,z
-x,-y,z
1/2-x,y,z
1/2+x,-y,z
1/2+x,1/2+y,1/2+z
1/2-x,1/2-y,1/2+z
-x,1/2+y,1/2+z
x,1/2-y,1/2+z
loop_
_atom_site_type_symbol
_atom_site_label
_atom_site_fract_x
_atom_site_fract_y
_atom_site_fract_z
Si Si1 0.419148 0.288040 0.650500
Si Si2 0.916456 0.273916 0.310594
Si Si3 0.082074 0.632800 0.904934
Si Si4 0.578158 0.634087 0.079183
Si Si5 0.080758 0.928378 0.751803
Si Si6 0.576591 0.424112 0.709512
O O1 0.250000 0.315206 0.648940
O O2 0.453495 0.249607 0.744529
O O3 0.448613 0.223524 0.577776
O O4 0.522305 0.360648 0.640071
O O5 0.750000 0.258770 0.269109
O O6 0.931020 0.223306 0.398758
O O7 0.934536 0.362463 0.325615
O O8 0.250000 0.609183 0.927700
O O9 0.031486 0.597544 0.810780
O O10 0.977006 0.603337 0.983709
O O11 0.750000 0.614253 0.092151
O O12 0.487578 0.594422 0.156979
O O13 0.250000 0.949273 0.733709
O O14 0.000000 0.000000 0.792440
O O15 0.500000 0.500000 0.681602
O O16 0.750000 0.433680 0.698797
#
# Coordination Sequence:
#
# PCOD8193437 Si02
#       6
#     8   8   8   8   8   8
#     4   9  17  30  48  69  93 122 159 198 233 275
#     4   8  16  31  49  68  91 122 160 196 233 279
#     4   9  18  32  49  70  96 126 159 194 235 282
#     4  10  20  32  48  72  99 127 159 194 234 280
#     4  10  19  32  50  71  97 127 158 195 237 281
#     4  10  20  33  50  72  97 126 159 195 237 283
#
# _framework density 9.8765429999999999
#
# number of rings (size 3 to 8) (size 9 to 14) (size 15 to 20)
#    0.000    2.667    0.000    3.000    0.000    6.667 
#    0.000    1.667    0.000    1.000    0.000    4.667 
#    0.000    0.000    0.000    0.000    0.000    0.000 
#
# Total GULP energy -297369.261489 kJ/mol
# GULP energy per Si atom -12390.385895 kJ/mol
# Density = 0.985406 g / cm^3
# Si number density = 9.876543 Si / 1000 Ang^3
#
#
#
# Elastic Constant Matrix: (Units=GPa)
#
#
# Indices 1 2 3 4 5 6 
#
# 1 79.1424 29.0378 1.2947 0.0000 0.0000 0.0000
# 2 29.0378 92.1319 -17.2592 0.0000 0.0000 0.0000
# 3 1.2947 -17.2592 6.6341 0.0000 0.0000 0.0000
# 4 0.0000 0.0000 0.0000 12.9782 0.0000 0.0000
# 5 0.0000 0.0000 0.0000 0.0000 17.8371 0.0000
# 6 0.0000 0.0000 0.0000 0.0000 0.0000 34.0763
#
#
#
# Elastic Compliance Matrix: (Units=1/GPa)
#
#
# Indices 1 2 3 4 5 6 
#
# 1 0.017651 -0.012111 -0.034951 0.000000 0.000000 0.000000
# 2 -0.012111 0.029482 0.079063 0.000000 0.000000 0.000000
# 3 -0.034951 0.079063 0.363246 0.000000 0.000000 0.000000
# 4 0.000000 0.000000 0.000000 0.077052 0.000000 0.000000
# 5 0.000000 0.000000 0.000000 0.000000 0.056063 0.000000
# 6 0.000000 0.000000 0.000000 0.000000 0.000000 0.029346
#
#
# Mechanical properties :
#
#
# Convention : Reuss Voigt Hill
#
# Bulk Modulus (GPa) = 2.10801 22.67280 12.39041
# Shear Modulus (GPa) = 7.49666 23.96732 15.73199
#
# Velocity S-wave (km/s) = 1.95024 3.48709 2.82517
# Velocity P-wave (km/s) = 2.47805 5.26461 4.11441
#
# Compressibility (1/GPa) = 0.47438077
#
# Stress axis : x y z
#
# Youngs Moduli (GPa) = 56.65503 33.91900 2.75296
#
# Poissons Ratio (x) = 0.41078 0.09622
# Poissons Ratio (y) = 0.68612 -0.21766
# Poissons Ratio (z) = 1.98017 -2.68174
#
# Static dielectric constant tensor:
#      x y z
#    x 3.563910 0.000000 0.000000 
#    y 0.000000 3.862420 0.000000 
#    z 0.000000 0.000000 3.050000 
# 
# 
# High freq. dielectric constant tensor:
#      x y z
#    x 1.775910 0.000000 0.000000 
#    y 0.000000 1.774450 0.000000 
#    z 0.000000 0.000000 1.707200 
# 
# From -- ./inp_files/13893.got.cif
#   From: 2010.03.12/outbox.ucp.g09.slc.cvg/sg46_7_cif.got.tgz:13893.got - 2010.05.04 21:24:43.
