data_PCOD8193170
_publ_section_title
;
Structure prediction by ZEFSAII (Michael W. Deem and Ramdas Pophale) SiO2 
 PCOD8193170
Probable space group: I M A 2
;
_chemical_formula_sum "Si O2"
_cell_formula_units_Z 64
_cell_length_a 30.258633
_cell_length_b 9.186037
_cell_length_c 10.807171
_cell_angle_alpha 90.000000
_cell_angle_beta 90.000000
_cell_angle_gamma 90.000000
_cell_volume 3003.927990
_symmetry_space_group_name_H-M "I M A 2"
_symmetry_group_IT_number 46
_symmetry_cell_setting 'orthorhombic'
loop_
_space_group_symop_operation_xyz
x,y,z
-x,-y,z
1/2-x,y,z
1/2+x,-y,z
1/2+x,1/2+y,1/2+z
1/2-x,1/2-y,1/2+z
-x,1/2+y,1/2+z
x,1/2-y,1/2+z
loop_
_atom_site_type_symbol
_atom_site_label
_atom_site_fract_x
_atom_site_fract_y
_atom_site_fract_z
Si Si1 0.199362 0.824427 0.158470
Si Si2 0.849246 0.462904 0.237337
Si Si3 0.033831 0.811152 0.072146
Si Si4 0.631460 0.984978 0.297010
Si Si5 0.638407 0.803801 0.527719
Si Si6 0.922188 0.264527 0.322806
Si Si7 0.700380 0.945014 0.967216
Si Si8 0.435816 0.372310 0.601625
O O1 0.250000 0.805795 0.204923
O O2 0.173952 0.671284 0.165147
O O3 0.174853 0.952265 0.232088
O O4 0.197855 0.888792 0.019324
O O5 0.864480 0.583871 0.140703
O O6 0.889962 0.405072 0.322867
O O7 0.815564 0.545622 0.326556
O O8 0.059622 0.730797 0.182039
O O9 0.983833 0.800838 0.122236
O O10 0.054472 0.969186 0.050285
O O11 0.040775 0.753346 0.931729
O O12 0.651659 0.887187 0.404491
O O13 0.597396 0.885059 0.218427
O O14 0.604539 0.119363 0.352114
O O15 0.672742 0.671470 0.548804
O O16 0.589900 0.732012 0.506337
O O17 0.750000 0.886029 0.969391
#
# Coordination Sequence:
#
# PCOD8193170 Si02
#       8
#     8   8   8   8   8   8   8   8
#     4  10  23  44  68  93 128 178 231 276 333 408
#     4  11  25  42  70  98 135 174 228 278 349 412
#     4  10  22  41  64  95 128 182 224 278 332 408
#     4  10  22  40  67  92 130 173 221 275 341 404
#     4  12  24  42  67 101 133 175 216 285 350 412
#     4  10  22  41  67  94 131 173 230 279 328 404
#     4  11  25  43  65  94 136 175 223 283 339 415
#     4  10  22  41  62  89 137 177 215 269 345 408
#
# _framework density 21.305437000000001
#
# number of rings (size 3 to 8) (size 9 to 14) (size 15 to 20)
#    0.000    1.500    1.250    2.625    8.750    1.500 
#    2.250    1.250    0.000    0.000    0.000    0.000 
#    0.000    0.000    0.000    0.000    0.000    0.000 
#
# Total GULP energy -396504.617172 kJ/mol
# GULP energy per Si atom -12390.769287 kJ/mol
# Density = 2.125695 g / cm^3
# Si number density = 21.305437 Si / 1000 Ang^3
#
#
#
# Elastic Constant Matrix: (Units=GPa)
#
#
# Indices 1 2 3 4 5 6 
#
# 1 131.5140 42.9473 35.6260 0.0000 0.0000 0.0000
# 2 42.9473 85.8742 19.5378 0.0000 0.0000 0.0000
# 3 35.6260 19.5378 74.1496 0.0000 0.0000 0.0000
# 4 0.0000 0.0000 0.0000 25.1128 0.0000 0.0000
# 5 0.0000 0.0000 0.0000 0.0000 26.2827 0.0000
# 6 0.0000 0.0000 0.0000 0.0000 0.0000 20.1972
#
#
#
# Elastic Compliance Matrix: (Units=1/GPa)
#
#
# Indices 1 2 3 4 5 6 
#
# 1 0.009956 -0.004139 -0.003693 0.000000 0.000000 0.000000
# 2 -0.004139 0.014108 -0.001729 0.000000 0.000000 0.000000
# 3 -0.003693 -0.001729 0.015716 0.000000 0.000000 0.000000
# 4 0.000000 0.000000 0.000000 0.039820 0.000000 0.000000
# 5 0.000000 0.000000 0.000000 0.000000 0.038048 0.000000
# 6 0.000000 0.000000 0.000000 0.000000 0.000000 0.049512
#
#
# Mechanical properties :
#
#
# Convention : Reuss Voigt Hill
#
# Bulk Modulus (GPa) = 48.40508 54.19555 51.30031
# Shear Modulus (GPa) = 25.88432 27.21365 26.54899
#
# Velocity S-wave (km/s) = 3.48935 3.57782 3.53386
# Velocity P-wave (km/s) = 6.24523 6.52383 6.38605
#
# Compressibility (1/GPa) = 0.02065899
#
# Stress axis : x y z
#
# Youngs Moduli (GPa) = 100.44510 70.88073 63.62941
#
# Poissons Ratio (x) = 0.29337 0.23497
# Poissons Ratio (y) = 0.41573 0.11000
# Poissons Ratio (z) = 0.37092 0.12254
#
# Static dielectric constant tensor:
#      x y z
#    x 4.017210 0.000000 0.000000 
#    y 0.000000 3.931840 0.000000 
#    z 0.000000 0.000000 3.664050 
# 
# 
# High freq. dielectric constant tensor:
#      x y z
#    x 1.840370 0.000000 0.000000 
#    y 0.000000 1.838840 0.000000 
#    z 0.000000 0.000000 1.827110 
# 
# From -- ./inp_files/13199.got.cif
#   From: 2010.03.12/outbox.cif.g09.slc.cpg/sg46_7_cif.got.tgz:13199.got - 2010.04.14 02:56:35.
