data_PCOD8193401
_publ_section_title
;
Structure prediction by ZEFSAII (Michael W. Deem and Ramdas Pophale) SiO2 
 PCOD8193401
Probable space group: I M A 2
;
_chemical_formula_sum "Si O2"
_cell_formula_units_Z 28
_cell_length_a 14.139232
_cell_length_b 5.258521
_cell_length_c 14.783593
_cell_angle_alpha 90.000000
_cell_angle_beta 90.000000
_cell_angle_gamma 90.000000
_cell_volume 1099.181552
_symmetry_space_group_name_H-M "I M A 2"
_symmetry_group_IT_number 46
_symmetry_cell_setting 'orthorhombic'
loop_
_space_group_symop_operation_xyz
x,y,z
-x,-y,z
1/2-x,y,z
1/2+x,-y,z
1/2+x,1/2+y,1/2+z
1/2-x,1/2-y,1/2+z
-x,1/2+y,1/2+z
x,1/2-y,1/2+z
loop_
_atom_site_type_symbol
_atom_site_label
_atom_site_fract_x
_atom_site_fract_y
_atom_site_fract_z
Si Si1 0.500000 0.500000 0.033950
Si Si2 0.853635 0.724068 0.652736
Si Si3 0.143913 0.907017 0.986798
Si Si4 0.942613 0.753059 0.840062
O O1 0.420930 0.414952 0.102467
O O2 0.444678 0.713589 0.971171
O O3 0.750000 0.848277 0.651628
O O4 0.855312 0.465396 0.593831
O O5 0.879965 0.661792 0.755532
O O6 0.250000 0.808173 0.958238
O O7 0.120991 0.163771 0.927682
O O8 0.000000 0.500000 0.867747
O O9 0.000000 0.000000 0.806513
#
# Coordination Sequence:
#
# PCOD8193401 Si02
#       4
#     4   8   8   8
#     4  12  22  48  76 114 156 212 262 322 402 464
#     4  11  25  47  76 114 156 204 264 328 393 471
#     4  11  27  48  79 118 159 207 267 329 394 473
#     4  12  27  48  79 113 157 207 256 319 397 469
#
# _framework density 25.473500999999999
#
# number of rings (size 3 to 8) (size 9 to 14) (size 15 to 20)
#    0.000    0.571    1.429    6.000    8.000    0.000 
#    0.000    2.857    0.000    5.143    0.000    0.000 
#    0.000    0.000    0.000    0.000    0.000    0.000 
#
# Total GULP energy -173439.733670 kJ/mol
# GULP energy per Si atom -12388.552405 kJ/mol
# Density = 2.541552 g / cm^3
# Si number density = 25.473501 Si / 1000 Ang^3
#
#
#
# Elastic Constant Matrix: (Units=GPa)
#
#
# Indices 1 2 3 4 5 6 
#
# 1 212.4140 88.5203 78.6068 0.0000 0.0000 0.0000
# 2 88.5203 135.3869 53.5489 0.0000 0.0000 0.0000
# 3 78.6068 53.5489 201.6364 0.0000 0.0000 0.0000
# 4 0.0000 0.0000 0.0000 -13.3069 0.0000 0.0000
# 5 0.0000 0.0000 0.0000 0.0000 32.6608 0.0000
# 6 0.0000 0.0000 0.0000 0.0000 0.0000 28.1350
#
#
#
# Elastic Compliance Matrix: (Units=1/GPa)
#
#
# Indices 1 2 3 4 5 6 
#
# 1 0.006944 -0.003877 -0.001678 0.000000 0.000000 0.000000
# 2 -0.003877 0.010418 -0.001255 0.000000 0.000000 0.000000
# 3 -0.001678 -0.001255 0.005947 0.000000 0.000000 0.000000
# 4 0.000000 0.000000 0.000000 -0.075149 0.000000 0.000000
# 5 0.000000 0.000000 0.000000 0.000000 0.030618 0.000000
# 6 0.000000 0.000000 0.000000 0.000000 0.000000 0.035543
#
#
# Mechanical properties :
#
#
# Convention : Reuss Voigt Hill
#
# Bulk Modulus (GPa) = 103.20768 110.08770 106.64769
# Shear Modulus (GPa) = 160.41468 31.41519 95.91494
#
# Velocity S-wave (km/s) = 7.94417 3.51558 6.14285
# Velocity P-wave (km/s) = 11.16916 7.73236 9.60572
#
# Compressibility (1/GPa) = 0.00968920
#
# Stress axis : x y z
#
# Youngs Moduli (GPa) = 144.00486 95.99224 168.15833
#
# Poissons Ratio (x) = 0.37214 0.28210
# Poissons Ratio (y) = 0.55828 0.21108
# Poissons Ratio (z) = 0.24158 0.12049
#
# Static dielectric constant tensor:
#      x y z
#    x 5.615540 0.000000 0.000000 
#    y 0.000000 4.366530 0.000000 
#    z 0.000000 0.000000 4.862070 
# 
# 
# High freq. dielectric constant tensor:
#      x y z
#    x 2.030540 0.000000 0.000000 
#    y 0.000000 2.004620 0.000000 
#    z 0.000000 0.000000 2.048590 
# 
# From -- ./inp_files/19075.got.cif
#   From: 2010.03.12/outbox.cif.g09.slc.cpg/sg46_10_cif.got.tgz:19075.got - 2010.04.14 02:56:35.
