data_PCOD8193086
_publ_section_title
;
Structure prediction by ZEFSAII (Michael W. Deem and Ramdas Pophale) SiO2 
 PCOD8193086
Probable space group: I M A 2
;
_chemical_formula_sum "Si O2"
_cell_formula_units_Z 40
_cell_length_a 9.940602
_cell_length_b 8.196360
_cell_length_c 25.037443
_cell_angle_alpha 90.000000
_cell_angle_beta 90.000000
_cell_angle_gamma 90.000000
_cell_volume 2039.969549
_symmetry_space_group_name_H-M "I M A 2"
_symmetry_group_IT_number 46
_symmetry_cell_setting 'orthorhombic'
loop_
_space_group_symop_operation_xyz
x,y,z
-x,-y,z
1/2-x,y,z
1/2+x,-y,z
1/2+x,1/2+y,1/2+z
1/2-x,1/2-y,1/2+z
-x,1/2+y,1/2+z
x,1/2-y,1/2+z
loop_
_atom_site_type_symbol
_atom_site_label
_atom_site_fract_x
_atom_site_fract_y
_atom_site_fract_z
Si Si1 0.020415 0.185534 0.204190
Si Si2 0.750000 0.344745 0.240725
Si Si3 0.000000 0.500000 0.426640
Si Si4 0.750000 0.807504 0.768318
Si Si5 0.250000 0.546676 0.355118
Si Si6 0.601661 0.866376 0.604941
Si Si7 0.090182 0.162185 0.483480
O O1 0.114748 0.210414 0.255829
O O2 0.093108 0.224322 0.148366
O O3 0.880359 0.274118 0.212899
O O4 0.000000 0.000000 0.199854
O O5 0.750000 0.537144 0.227923
O O6 0.750000 0.322691 0.305790
O O7 0.118988 0.570118 0.390473
O O8 0.045821 0.337257 0.458691
O O9 0.750000 0.862793 0.830170
O O10 0.750000 0.942951 0.602981
O O11 0.562978 0.805185 0.545915
O O12 0.500000 0.000000 0.626247
O O13 0.250000 0.129836 0.471144
O O14 0.000000 0.000000 0.465849
#
# Coordination Sequence:
#
# PCOD8193086 Si02
#       7
#     8   4   4   4   4   8   8
#     4  12  23  37  60  97 130 166 212 270 326 377
#     4  10  23  41  65  83 122 172 216 259 314 395
#     4  12  22  46  72 100 128 180 224 282 342 388
#     4  10  21  43  63  81 124 170 216 263 310 397
#     4  10  24  42  70  92 120 178 230 268 328 398
#     4  10  22  41  63  94 131 177 216 256 322 401
#     4  10  24  44  69 100 138 175 223 279 334 403
#
# _framework density 19.608134
#
# number of rings (size 3 to 8) (size 9 to 14) (size 15 to 20)
#    0.600    0.800    2.000    3.600    4.200    0.000 
#    0.000    6.000    0.000    0.000    0.000    0.000 
#    0.000    0.000    0.000    0.000    0.000    0.000 
#
# Total GULP energy -247768.517589 kJ/mol
# GULP energy per Si atom -12388.425879 kJ/mol
# Density = 1.956351 g / cm^3
# Si number density = 19.608134 Si / 1000 Ang^3
#
#
#
# Elastic Constant Matrix: (Units=GPa)
#
#
# Indices 1 2 3 4 5 6 
#
# 1 139.9732 35.5540 34.9321 0.0000 0.0000 0.0000
# 2 35.5540 106.4426 29.3801 0.0000 0.0000 0.0000
# 3 34.9321 29.3801 80.4837 0.0000 0.0000 0.0000
# 4 0.0000 0.0000 0.0000 28.2669 0.0000 0.0000
# 5 0.0000 0.0000 0.0000 0.0000 39.6200 0.0000
# 6 0.0000 0.0000 0.0000 0.0000 0.0000 26.1817
#
#
#
# Elastic Compliance Matrix: (Units=1/GPa)
#
#
# Indices 1 2 3 4 5 6 
#
# 1 0.008377 -0.001996 -0.002907 0.000000 0.000000 0.000000
# 2 -0.001996 0.010923 -0.003121 0.000000 0.000000 0.000000
# 3 -0.002907 -0.003121 0.014826 0.000000 0.000000 0.000000
# 4 0.000000 0.000000 0.000000 0.035377 0.000000 0.000000
# 5 0.000000 0.000000 0.000000 0.000000 0.025240 0.000000
# 6 0.000000 0.000000 0.000000 0.000000 0.000000 0.038195
#
#
# Mechanical properties :
#
#
# Convention : Reuss Voigt Hill
#
# Bulk Modulus (GPa) = 55.31706 58.51464 56.91585
# Shear Modulus (GPa) = 32.25583 33.94927 33.10255
#
# Velocity S-wave (km/s) = 4.06029 4.16551 4.11323
# Velocity P-wave (km/s) = 7.08899 7.28300 7.18665
#
# Compressibility (1/GPa) = 0.01807761
#
# Stress axis : x y z
#
# Youngs Moduli (GPa) = 119.37975 91.55175 67.44881
#
# Poissons Ratio (x) = 0.18269 0.19609
# Poissons Ratio (y) = 0.23822 0.21052
# Poissons Ratio (z) = 0.34706 0.28575
#
# Static dielectric constant tensor:
#      x y z
#    x 3.848540 0.000000 0.000000 
#    y 0.000000 3.379160 0.000000 
#    z 0.000000 0.000000 3.618140 
# 
# 
# High freq. dielectric constant tensor:
#      x y z
#    x 1.785890 0.000000 0.000000 
#    y 0.000000 1.748370 0.000000 
#    z 0.000000 0.000000 1.766200 
# 
# From -- ./inp_files/22797.got.cif
#   From: 2010.03.12/outbox.cif.g09.slc.cpg/sg46_12_cif.got.tgz:22797.got - 2010.04.14 02:56:35.
