data_PCOD8193644
_publ_section_title
;
Structure prediction by ZEFSAII (Michael W. Deem and Ramdas Pophale) SiO2 
 PCOD8193644
Probable space group: P M M M
;
_chemical_formula_sum "Si O2"
_cell_formula_units_Z 44
_cell_length_a 15.620858
_cell_length_b 17.011329
_cell_length_c 9.410942
_cell_angle_alpha 90.000000
_cell_angle_beta 90.000000
_cell_angle_gamma 90.000000
_cell_volume 2500.784249
_symmetry_space_group_name_H-M "P M M M"
_symmetry_group_IT_number 47
_symmetry_cell_setting 'orthorhombic'
loop_
_space_group_symop_operation_xyz
x,y,z
-x,-y,z
x,-y,-z
-x,y,-z
-x,-y,-z
x,y,-z
-x,y,z
x,-y,z
loop_
_atom_site_type_symbol
_atom_site_label
_atom_site_fract_x
_atom_site_fract_y
_atom_site_fract_z
Si Si1 0.167118 0.500000 0.167977
Si Si2 0.093972 0.335367 0.168742
Si Si3 0.339221 0.500000 0.338870
Si Si4 0.743138 0.755416 0.835453
Si Si5 0.500000 0.906939 0.341415
Si Si6 0.596571 0.330525 0.336686
Si Si7 0.661558 0.088317 0.162840
O O1 0.115735 0.423383 0.219975
O O2 0.260425 0.500000 0.233010
O O3 0.178643 0.500000 0.000000
O O4 0.166247 0.275165 0.227244
O O5 0.000000 0.312185 0.229476
O O6 0.091543 0.331786 0.000000
O O7 0.303984 0.500000 0.500000
O O8 0.396953 0.576252 0.309821
O O9 0.663799 0.715267 0.758857
O O10 0.739418 0.850264 0.815574
O O11 0.735820 0.731640 0.000000
O O12 0.500000 0.870317 0.500000
O O13 0.415715 0.879201 0.258942
O O14 0.500000 0.000000 0.347959
O O15 0.616576 0.310236 0.500000
O O16 0.500000 0.303811 0.296814
O O17 0.691082 0.000000 0.207024
O O18 0.629898 0.088343 0.000000
#
# Coordination Sequence:
#
# PCOD8193644 Si02
#       7
#     4   8   4   8   4   8   8
#     4  10  17  29  51  74  96 124 159 197 241 292
#     4   9  17  30  50  75  99 123 156 200 248 293
#     4  10  19  33  51  68  96 134 167 197 235 288
#     4  10  20  33  51  74  97 125 164 208 245 286
#     4   9  17  29  47  71  95 122 161 202 235 277
#     4  10  21  35  50  69  97 135 170 199 238 286
#     4   9  18  32  48  67  96 132 163 195 243 295
#
# _framework density 17.594480999999998
#
# number of rings (size 3 to 8) (size 9 to 14) (size 15 to 20)
#    0.000    2.455    1.818    0.818    1.273    4.364 
#    0.000    0.000    0.000    4.909    0.000    3.818 
#    0.000    0.000    0.000    6.182    0.000    6.545 
#
# Total GULP energy -545415.663366 kJ/mol
# GULP energy per Si atom -12395.810531 kJ/mol
# Density = 1.755443 g / cm^3
# Si number density = 17.594481 Si / 1000 Ang^3
#
#
#
# Elastic Constant Matrix: (Units=GPa)
#
#
# Indices 1 2 3 4 5 6 
#
# 1 146.2496 64.4337 36.8705 0.0000 0.0000 0.0000
# 2 64.4337 105.4371 27.5566 0.0000 0.0000 0.0000
# 3 36.8705 27.5566 44.1021 0.0000 0.0000 0.0000
# 4 0.0000 0.0000 0.0000 15.7117 0.0000 0.0000
# 5 0.0000 0.0000 0.0000 0.0000 7.5895 0.0000
# 6 0.0000 0.0000 0.0000 0.0000 0.0000 204.7572
#
#
#
# Elastic Compliance Matrix: (Units=1/GPa)
#
#
# Indices 1 2 3 4 5 6 
#
# 1 0.010417 -0.004888 -0.005654 0.000000 0.000000 0.000000
# 2 -0.004888 0.013629 -0.004430 0.000000 0.000000 0.000000
# 3 -0.005654 -0.004430 0.030170 0.000000 0.000000 0.000000
# 4 0.000000 0.000000 0.000000 0.063647 0.000000 0.000000
# 5 0.000000 0.000000 0.000000 0.000000 0.131761 0.000000
# 6 0.000000 0.000000 0.000000 0.000000 0.000000 0.004884
#
#
# Mechanical properties :
#
#
# Convention : Reuss Voigt Hill
#
# Bulk Modulus (GPa) = 41.20040 61.50115 51.35078
# Shear Modulus (GPa) = 17.09163 56.74021 36.91592
#
# Velocity S-wave (km/s) = 3.12014 5.68497 4.58553
# Velocity P-wave (km/s) = 6.03721 8.83869 7.56870
#
# Compressibility (1/GPa) = 0.02427161
#
# Stress axis : x y z
#
# Youngs Moduli (GPa) = 96.00048 73.37266 33.14589
#
# Poissons Ratio (x) = 0.35864 0.18742
# Poissons Ratio (y) = 0.46924 0.14682
# Poissons Ratio (z) = 0.54283 0.32501
#
# Static dielectric constant tensor:
#      x y z
#    x 3.359020 0.000000 0.000000 
#    y 0.000000 3.484230 0.000000 
#    z 0.000000 0.000000 3.154610 
# 
# 
# High freq. dielectric constant tensor:
#      x y z
#    x 1.664020 0.000000 0.000000 
#    y 0.000000 1.686410 0.000000 
#    z 0.000000 0.000000 1.656900 
# 
# From -- ./inp_files/6239.got.cif
#   From: 2010.03.12/outbox.cif.g09.slc.cpg/sg47_4_cif.got.tgz:6239.got - 2010.04.14 03:12:58.
