data_PCOD8193268
_publ_section_title
;
Structure prediction by ZEFSAII (Michael W. Deem and Ramdas Pophale) SiO2 
 PCOD8193268
Probable space group: I M A 2
;
_chemical_formula_sum "Si O2"
_cell_formula_units_Z 56
_cell_length_a 14.746274
_cell_length_b 20.484172
_cell_length_c 8.479798
_cell_angle_alpha 90.000000
_cell_angle_beta 90.000000
_cell_angle_gamma 90.000000
_cell_volume 2561.451989
_symmetry_space_group_name_H-M "I M A 2"
_symmetry_group_IT_number 46
_symmetry_cell_setting 'orthorhombic'
loop_
_space_group_symop_operation_xyz
x,y,z
-x,-y,z
1/2-x,y,z
1/2+x,-y,z
1/2+x,1/2+y,1/2+z
1/2-x,1/2-y,1/2+z
-x,1/2+y,1/2+z
x,1/2-y,1/2+z
loop_
_atom_site_type_symbol
_atom_site_label
_atom_site_fract_x
_atom_site_fract_y
_atom_site_fract_z
Si Si1 0.144361 0.504841 0.395300
Si Si2 0.415886 0.438225 0.929989
Si Si3 0.750000 0.851366 0.490889
Si Si4 0.352853 0.943029 0.243149
Si Si5 0.994050 0.161129 0.231869
Si Si6 0.550206 0.712394 0.395107
Si Si7 0.501301 0.912303 0.745145
Si Si8 0.750000 0.731872 0.303897
O O1 0.250000 0.496263 0.343195
O O2 0.138095 0.517816 0.580594
O O3 0.083817 0.441747 0.351601
O O4 0.097939 0.565563 0.304575
O O5 0.399487 0.513196 0.879869
O O6 0.442359 0.400466 0.770653
O O7 0.332530 0.400687 0.009741
O O8 0.492922 0.435406 0.064462
O O9 0.750000 0.811714 0.323110
O O10 0.750000 0.794272 0.624528
O O11 0.250000 0.933218 0.292597
O O12 0.393279 0.869663 0.233318
O O13 0.010184 0.215641 0.365536
O O14 0.018573 0.191117 0.065801
O O15 0.507601 0.665535 0.261889
O O16 0.659172 0.707887 0.391024
#
# Coordination Sequence:
#
# PCOD8193268 Si02
#       8
#     8   8   4   8   8   8   8   4
#     4  10  24  45  70 101 138 183 228 285 351 412
#     4  12  25  43  68 100 144 182 228 288 348 419
#     4  12  24  42  62 106 142 186 232 273 355 410
#     4  11  25  47  71 100 138 182 237 288 345 412
#     4  12  26  45  68 101 133 185 229 288 352 413
#     4  12  24  43  70  96 143 177 231 277 348 415
#     4  11  24  44  67 104 140 180 226 285 346 412
#     4  12  24  42  66 104 146 184 222 281 339 436
#
# _framework density 21.8626
#
# number of rings (size 3 to 8) (size 9 to 14) (size 15 to 20)
#    0.000    0.571    5.000    3.000    8.000    0.000 
#    0.000    1.429    0.000    0.000    0.000    0.000 
#    0.000    0.000    0.000    0.000    0.000    0.000 
#
# Total GULP energy -347090.870037 kJ/mol
# GULP energy per Si atom -12396.102501 kJ/mol
# Density = 2.181284 g / cm^3
# Si number density = 21.862600 Si / 1000 Ang^3
#
#
#
# Elastic Constant Matrix: (Units=GPa)
#
#
# Indices 1 2 3 4 5 6 
#
# 1 96.7208 34.0731 42.2577 0.0000 0.0000 0.0000
# 2 34.0731 108.0567 36.4273 0.0000 0.0000 0.0000
# 3 42.2577 36.4273 114.8773 0.0000 0.0000 0.0000
# 4 0.0000 0.0000 0.0000 38.3756 0.0000 0.0000
# 5 0.0000 0.0000 0.0000 0.0000 19.6145 0.0000
# 6 0.0000 0.0000 0.0000 0.0000 0.0000 36.7072
#
#
#
# Elastic Compliance Matrix: (Units=1/GPa)
#
#
# Indices 1 2 3 4 5 6 
#
# 1 0.013030 -0.002791 -0.003908 0.000000 0.000000 0.000000
# 2 -0.002791 0.010960 -0.002449 0.000000 0.000000 0.000000
# 3 -0.003908 -0.002449 0.010919 0.000000 0.000000 0.000000
# 4 0.000000 0.000000 0.000000 0.026058 0.000000 0.000000
# 5 0.000000 0.000000 0.000000 0.000000 0.050983 0.000000
# 6 0.000000 0.000000 0.000000 0.000000 0.000000 0.027243
#
#
# Mechanical properties :
#
#
# Convention : Reuss Voigt Hill
#
# Bulk Modulus (GPa) = 60.19334 60.57457 60.38396
# Shear Modulus (GPa) = 30.67006 32.73256 31.70131
#
# Velocity S-wave (km/s) = 3.74953 3.87356 3.81205
# Velocity P-wave (km/s) = 6.80718 6.91180 6.85969
#
# Compressibility (1/GPa) = 0.01661313
#
# Stress axis : x y z
#
# Youngs Moduli (GPa) = 76.74770 91.24081 91.58407
#
# Poissons Ratio (x) = 0.25467 0.35790
# Poissons Ratio (y) = 0.21422 0.22426
# Poissons Ratio (z) = 0.29992 0.22342
#
# Static dielectric constant tensor:
#      x y z
#    x 4.088350 0.000000 0.000000 
#    y 0.000000 4.224440 0.000000 
#    z 0.000000 0.000000 3.872770 
# 
# 
# High freq. dielectric constant tensor:
#      x y z
#    x 1.853010 0.000000 0.000000 
#    y 0.000000 1.863980 0.000000 
#    z 0.000000 0.000000 1.867820 
# 
# From -- ./inp_files/5972.got.cif
#   From: 2010.03.12/outbox.cif.g09.slc.cpg/sg46_3_cif.got.tgz:5972.got - 2010.04.14 02:56:35.
