data_PCOD8193957
_publ_section_title
;
Structure prediction by ZEFSAII (Michael W. Deem and Ramdas Pophale) SiO2 
 PCOD8193957
Probable space group: P M M M
;
_chemical_formula_sum "Si O2"
_cell_formula_units_Z 44
_cell_length_a 12.820525
_cell_length_b 21.064454
_cell_length_c 9.312749
_cell_angle_alpha 90.000000
_cell_angle_beta 90.000000
_cell_angle_gamma 90.000000
_cell_volume 2514.976401
_symmetry_space_group_name_H-M "P M M M"
_symmetry_group_IT_number 47
_symmetry_cell_setting 'orthorhombic'
loop_
_space_group_symop_operation_xyz
x,y,z
-x,-y,z
x,-y,-z
-x,y,-z
-x,-y,-z
x,y,-z
-x,y,z
x,-y,z
loop_
_atom_site_type_symbol
_atom_site_label
_atom_site_fract_x
_atom_site_fract_y
_atom_site_fract_z
Si Si1 0.379766 0.144431 0.667114
Si Si2 0.118295 0.500000 0.328633
Si Si3 0.193619 0.633822 0.670699
Si Si4 0.795930 0.072996 0.832355
Si Si5 0.000000 0.281775 0.669963
Si Si6 0.614741 0.287541 0.328986
Si Si7 0.000000 0.149604 0.169559
O O1 0.353148 0.138115 0.500000
O O2 0.500000 0.126341 0.696419
O O3 0.306998 0.096702 0.752691
O O4 0.357552 0.216245 0.721108
O O5 0.116529 0.500000 0.500000
O O6 0.177480 0.437509 0.269548
O O7 0.000000 0.500000 0.270865
O O8 0.196552 0.631777 0.500000
O O9 0.301155 0.662694 0.733354
O O10 0.100061 0.678718 0.721293
O O11 0.897928 0.111049 0.781450
O O12 0.815038 0.000000 0.792811
O O13 0.776490 0.082381 0.000000
O O14 0.000000 0.215477 0.748883
O O15 0.000000 0.270086 0.500000
O O16 0.614807 0.288498 0.500000
O O17 0.500000 0.307179 0.271757
O O18 0.000000 0.161454 0.000000
#
# Coordination Sequence:
#
# PCOD8193957 Si02
#       7
#     8   4   8   8   4   8   4
#     4   9  18  33  52  73  97 124 155 195 241 283
#     4   9  14  22  33  53  89 121 146 182 228 268
#     4   9  15  23  38  61  87 115 148 187 227 266
#     4  10  21  36  52  69  93 126 159 191 233 287
#     4  10  18  28  47  71  90 113 152 196 232 273
#     4   8  14  25  40  58  83 115 148 182 224 272
#     4  10  21  36  51  69  95 125 156 194 240 284
#
# _framework density 17.495194000000001
#
# number of rings (size 3 to 8) (size 9 to 14) (size 15 to 20)
#    0.000    2.818    0.909    2.455    0.000    4.364 
#    0.000    2.273    0.000    4.364    0.000    1.273 
#    0.000    0.000    0.000    0.000    0.000   30.364 
#
# Total GULP energy -545473.637297 kJ/mol
# GULP energy per Si atom -12397.128120 kJ/mol
# Density = 1.745537 g / cm^3
# Si number density = 17.495194 Si / 1000 Ang^3
#
#
#
# Elastic Constant Matrix: (Units=GPa)
#
#
# Indices 1 2 3 4 5 6 
#
# 1 134.5913 87.2963 29.3494 0.0000 0.0000 0.0000
# 2 87.2963 156.8941 35.0082 0.0000 0.0000 0.0000
# 3 29.3494 35.0082 18.4010 0.0000 0.0000 0.0000
# 4 0.0000 0.0000 0.0000 8.2057 0.0000 0.0000
# 5 0.0000 0.0000 0.0000 0.0000 17.5563 0.0000
# 6 0.0000 0.0000 0.0000 0.0000 0.0000 20.4830
#
#
#
# Elastic Compliance Matrix: (Units=1/GPa)
#
#
# Indices 1 2 3 4 5 6 
#
# 1 0.013018 -0.004536 -0.012134 0.000000 0.000000 0.000000
# 2 -0.004536 0.012656 -0.016843 0.000000 0.000000 0.000000
# 3 -0.012134 -0.016843 0.105744 0.000000 0.000000 0.000000
# 4 0.000000 0.000000 0.000000 0.121867 0.000000 0.000000
# 5 0.000000 0.000000 0.000000 0.000000 0.056959 0.000000
# 6 0.000000 0.000000 0.000000 0.000000 0.000000 0.048821
#
#
# Mechanical properties :
#
#
# Convention : Reuss Voigt Hill
#
# Bulk Modulus (GPa) = 15.53013 68.13268 41.83141
# Shear Modulus (GPa) = 11.17183 19.79783 15.48483
#
# Velocity S-wave (km/s) = 2.52973 3.36760 2.97827
# Velocity P-wave (km/s) = 4.17478 7.35861 5.98239
#
# Compressibility (1/GPa) = 0.06439095
#
# Stress axis : x y z
#
# Youngs Moduli (GPa) = 76.81860 79.01617 9.45681
#
# Poissons Ratio (x) = 0.35838 0.11475
# Poissons Ratio (y) = 0.34841 0.15929
# Poissons Ratio (z) = 0.93213 1.33090
#
# Static dielectric constant tensor:
#      x y z
#    x 3.534090 0.000000 0.000000 
#    y 0.000000 3.420800 0.000000 
#    z 0.000000 0.000000 2.707600 
# 
# 
# High freq. dielectric constant tensor:
#      x y z
#    x 1.688870 0.000000 0.000000 
#    y 0.000000 1.683180 0.000000 
#    z 0.000000 0.000000 1.617580 
# 
# From -- ./inp_files/6301.got.cif
#   From: 2010.03.12/outbox.cif.g09.slc.cpg/sg47_4_cif.got.tgz:6301.got - 2010.04.14 03:12:58.
