data_PCOD8193325
_publ_section_title
;
Structure prediction by ZEFSAII (Michael W. Deem and Ramdas Pophale) SiO2 
 PCOD8193325
Probable space group: I M A 2
;
_chemical_formula_sum "Si O2"
_cell_formula_units_Z 64
_cell_length_a 21.361199
_cell_length_b 9.178977
_cell_length_c 16.016666
_cell_angle_alpha 90.000000
_cell_angle_beta 90.000000
_cell_angle_gamma 90.000000
_cell_volume 3140.451038
_symmetry_space_group_name_H-M "I M A 2"
_symmetry_group_IT_number 46
_symmetry_cell_setting 'orthorhombic'
loop_
_space_group_symop_operation_xyz
x,y,z
-x,-y,z
1/2-x,y,z
1/2+x,-y,z
1/2+x,1/2+y,1/2+z
1/2-x,1/2-y,1/2+z
-x,1/2+y,1/2+z
x,1/2-y,1/2+z
loop_
_atom_site_type_symbol
_atom_site_label
_atom_site_fract_x
_atom_site_fract_y
_atom_site_fract_z
Si Si1 0.321913 0.016673 0.720130
Si Si2 0.386081 0.204437 0.578749
Si Si3 0.097239 0.491541 0.379651
Si Si4 0.822871 0.997866 0.035526
Si Si5 0.060776 0.942422 0.506415
Si Si6 0.494008 0.333248 0.689359
Si Si7 0.125512 0.750637 0.636182
Si Si8 0.998734 0.259931 0.368432
O O1 0.250000 0.055228 0.734844
O O2 0.350382 0.114073 0.648266
O O3 0.357761 0.055078 0.804809
O O4 0.327939 0.847983 0.691684
O O5 0.339253 0.330703 0.552005
O O6 0.450203 0.264884 0.618573
O O7 0.399857 0.095441 0.499294
O O8 0.138265 0.551684 0.455837
O O9 0.054856 0.623614 0.347073
O O10 0.055546 0.352181 0.411403
O O11 0.750000 0.013402 0.016068
O O12 0.840758 0.098341 0.114770
O O13 0.105068 0.825658 0.549498
O O14 0.030758 0.872166 0.422544
O O15 0.000000 0.000000 0.559962
O O16 0.500000 0.500000 0.665299
O O17 0.563224 0.267852 0.689205
O O18 0.471020 0.306456 0.783918
#
# Coordination Sequence:
#
# PCOD8193325 Si02
#       8
#     8   8   8   8   8   8   8   8
#     4  11  23  43  65  90 126 174 224 262 308 389
#     4  11  24  40  67  96 124 168 215 265 325 386
#     4  11  23  39  67  94 125 171 219 261 322 387
#     4  12  25  44  63  92 132 173 218 266 318 389
#     4  11  21  37  62  91 129 159 199 255 332 379
#     4  12  22  38  65  97 130 157 209 270 333 386
#     4  11  23  38  65  95 121 167 213 266 323 376
#     4  11  23  39  62  99 132 161 203 274 332 386
#
# _framework density 20.379238999999998
#
# number of rings (size 3 to 8) (size 9 to 14) (size 15 to 20)
#    0.000    0.750    6.250    2.250    0.000    0.000 
#    0.000    0.000    0.000    0.000    0.000    0.000 
#    0.000    0.000    0.000    0.000    0.000    0.000 
#
# Total GULP energy -396591.467566 kJ/mol
# GULP energy per Si atom -12393.483361 kJ/mol
# Density = 2.033286 g / cm^3
# Si number density = 20.379239 Si / 1000 Ang^3
#
#
#
# Elastic Constant Matrix: (Units=GPa)
#
#
# Indices 1 2 3 4 5 6 
#
# 1 105.1031 35.5584 15.7464 0.0000 0.0000 0.0000
# 2 35.5584 113.7252 24.9848 0.0000 0.0000 0.0000
# 3 15.7464 24.9848 65.6415 0.0000 0.0000 0.0000
# 4 0.0000 0.0000 0.0000 38.1427 0.0000 0.0000
# 5 0.0000 0.0000 0.0000 0.0000 128.1590 0.0000
# 6 0.0000 0.0000 0.0000 0.0000 0.0000 25.0117
#
#
#
# Elastic Compliance Matrix: (Units=1/GPa)
#
#
# Indices 1 2 3 4 5 6 
#
# 1 0.010760 -0.003052 -0.001419 0.000000 0.000000 0.000000
# 2 -0.003052 0.010461 -0.003250 0.000000 0.000000 0.000000
# 3 -0.001419 -0.003250 0.016812 0.000000 0.000000 0.000000
# 4 0.000000 0.000000 0.000000 0.026217 0.000000 0.000000
# 5 0.000000 0.000000 0.000000 0.000000 0.007803 0.000000
# 6 0.000000 0.000000 0.000000 0.000000 0.000000 0.039981
#
#
# Mechanical properties :
#
#
# Convention : Reuss Voigt Hill
#
# Bulk Modulus (GPa) = 44.26712 48.56100 46.41406
# Shear Modulus (GPa) = 37.03506 52.14136 44.58821
#
# Velocity S-wave (km/s) = 4.26760 5.06370 4.68260
# Velocity P-wave (km/s) = 6.78616 7.62027 7.21528
#
# Compressibility (1/GPa) = 0.02259013
#
# Stress axis : x y z
#
# Youngs Moduli (GPa) = 92.93845 95.58886 59.48260
#
# Poissons Ratio (x) = 0.29178 0.08442
# Poissons Ratio (y) = 0.28369 0.19330
# Poissons Ratio (z) = 0.13190 0.31063
#
# Static dielectric constant tensor:
#      x y z
#    x 2.418990 0.000000 0.000000 
#    y 0.000000 3.888960 0.000000 
#    z 0.000000 0.000000 3.496540 
# 
# 
# High freq. dielectric constant tensor:
#      x y z
#    x 1.788140 0.000000 0.000000 
#    y 0.000000 1.814710 0.000000 
#    z 0.000000 0.000000 1.780880 
# 
# From -- ./inp_files/20219.got.cif
#   From: 2010.03.12/outbox.cif.g09.slc.cpg/sg46_11_cif.got.tgz:20219.got - 2010.04.14 02:56:35.
