data_PCOD8193100
_publ_section_title
;
Structure prediction by ZEFSAII (Michael W. Deem and Ramdas Pophale) SiO2 
 PCOD8193100
Probable space group: I M A 2
;
_chemical_formula_sum "Si O2"
_cell_formula_units_Z 48
_cell_length_a 18.037907
_cell_length_b 7.139406
_cell_length_c 20.544726
_cell_angle_alpha 90.000000
_cell_angle_beta 90.000000
_cell_angle_gamma 90.000000
_cell_volume 2645.748612
_symmetry_space_group_name_H-M "I M A 2"
_symmetry_group_IT_number 46
_symmetry_cell_setting 'orthorhombic'
loop_
_space_group_symop_operation_xyz
x,y,z
-x,-y,z
1/2-x,y,z
1/2+x,-y,z
1/2+x,1/2+y,1/2+z
1/2-x,1/2-y,1/2+z
-x,1/2+y,1/2+z
x,1/2-y,1/2+z
loop_
_atom_site_type_symbol
_atom_site_label
_atom_site_fract_x
_atom_site_fract_y
_atom_site_fract_z
Si Si1 0.586099 0.317554 0.324640
Si Si2 0.500000 0.000000 0.936951
Si Si3 0.332837 0.038417 0.375079
Si Si4 0.000000 0.500000 0.108705
Si Si5 0.062894 0.127586 0.484989
Si Si6 0.166160 0.156759 0.767685
Si Si7 0.019529 0.285981 0.713739
O O1 0.564005 0.408967 0.392916
O O2 0.644511 0.444034 0.285093
O O3 0.511739 0.289564 0.282242
O O4 0.621281 0.116044 0.336381
O O5 0.461392 0.154964 0.982585
O O6 0.250000 0.962930 0.383488
O O7 0.361379 0.087475 0.447336
O O8 0.337318 0.227602 0.334207
O O9 0.019909 0.675675 0.154475
O O10 0.068565 0.440390 0.060769
O O11 0.000000 0.000000 0.449294
O O12 0.250000 0.161060 0.738578
O O13 0.108218 0.245078 0.715360
O O14 0.000000 0.500000 0.702106
#
# Coordination Sequence:
#
# PCOD8193100 Si02
#       7
#     8   4   8   4   8   8   8
#     4  12  19  34  60  88 116 152 185 238 296 352
#     4  12  19  32  62  88 113 140 192 242 288 338
#     4  11  22  37  57  88 122 149 182 238 304 356
#     4  10  23  40  60  84 105 160 212 240 270 314
#     4  10  22  37  59  81 112 149 200 234 280 329
#     4  11  22  35  55  89 122 148 182 238 305 352
#     4  12  22  37  62  84 117 154 201 239 281 344
#
# _framework density 18.142313000000001
#
# number of rings (size 3 to 8) (size 9 to 14) (size 15 to 20)
#    0.500    0.333    8.333    0.500    1.167    0.000 
#    0.000    0.833    0.000    0.000    0.000    0.000 
#    0.000    0.000    0.000    0.000    0.000    0.000 
#
# Total GULP energy -297528.785222 kJ/mol
# GULP energy per Si atom -12397.032718 kJ/mol
# Density = 1.810102 g / cm^3
# Si number density = 18.142313 Si / 1000 Ang^3
#
#
#
# Elastic Constant Matrix: (Units=GPa)
#
#
# Indices 1 2 3 4 5 6 
#
# 1 100.0303 32.0781 29.7869 0.0000 0.0000 0.0000
# 2 32.0781 112.0000 33.6499 0.0000 0.0000 0.0000
# 3 29.7869 33.6499 88.0118 0.0000 0.0000 0.0000
# 4 0.0000 0.0000 0.0000 20.2940 0.0000 0.0000
# 5 0.0000 0.0000 0.0000 0.0000 17.2469 0.0000
# 6 0.0000 0.0000 0.0000 0.0000 0.0000 21.7754
#
#
#
# Elastic Compliance Matrix: (Units=1/GPa)
#
#
# Indices 1 2 3 4 5 6 
#
# 1 0.011678 -0.002437 -0.003020 0.000000 0.000000 0.000000
# 2 -0.002437 0.010596 -0.003226 0.000000 0.000000 0.000000
# 3 -0.003020 -0.003226 0.013618 0.000000 0.000000 0.000000
# 4 0.000000 0.000000 0.000000 0.049276 0.000000 0.000000
# 5 0.000000 0.000000 0.000000 0.000000 0.057981 0.000000
# 6 0.000000 0.000000 0.000000 0.000000 0.000000 0.045923
#
#
# Mechanical properties :
#
#
# Convention : Reuss Voigt Hill
#
# Bulk Modulus (GPa) = 53.98470 54.56353 54.27411
# Shear Modulus (GPa) = 23.51668 25.49841 24.50754
#
# Velocity S-wave (km/s) = 3.60423 3.75302 3.67938
# Velocity P-wave (km/s) = 6.86596 6.99434 6.93045
#
# Compressibility (1/GPa) = 0.01852377
#
# Stress axis : x y z
#
# Youngs Moduli (GPa) = 85.63127 94.37558 73.43265
#
# Poissons Ratio (x) = 0.23001 0.22180
# Poissons Ratio (y) = 0.20870 0.23692
# Poissons Ratio (z) = 0.25865 0.30449
#
# Static dielectric constant tensor:
#      x y z
#    x 3.299300 0.000000 0.000000 
#    y 0.000000 3.503680 0.000000 
#    z 0.000000 0.000000 3.100470 
# 
# 
# High freq. dielectric constant tensor:
#      x y z
#    x 1.682090 0.000000 0.000000 
#    y 0.000000 1.723850 0.000000 
#    z 0.000000 0.000000 1.677540 
# 
# From -- ./inp_files/23819.got.cif
#   From: 2010.03.12/outbox.cif.g09.slc.cpg/sg46_12_cif.got.tgz:23819.got - 2010.04.14 02:56:35.
