data_PCOD8193481
_publ_section_title
;
Structure prediction by ZEFSAII (Michael W. Deem and Ramdas Pophale) SiO2 
 PCOD8193481
Probable space group: P M M M
;
_chemical_formula_sum "Si O2"
_cell_formula_units_Z 56
_cell_length_a 23.417684
_cell_length_b 9.300287
_cell_length_c 14.650083
_cell_angle_alpha 90.000000
_cell_angle_beta 90.000000
_cell_angle_gamma 90.000000
_cell_volume 3190.658894
_symmetry_space_group_name_H-M "P M M M"
_symmetry_group_IT_number 47
_symmetry_cell_setting 'orthorhombic'
loop_
_space_group_symop_operation_xyz
x,y,z
-x,-y,z
x,-y,-z
-x,y,-z
-x,-y,-z
x,y,-z
-x,y,z
x,-y,z
loop_
_atom_site_type_symbol
_atom_site_label
_atom_site_fract_x
_atom_site_fract_y
_atom_site_fract_z
Si Si1 0.063354 0.670071 0.214632
Si Si2 0.287604 0.831077 0.104647
Si Si3 0.436089 0.329262 0.601942
Si Si4 0.112025 0.670722 0.599676
Si Si5 0.158149 0.838332 0.107049
Si Si6 0.760638 0.670578 0.600848
Si Si7 0.336813 0.328619 0.266761
O O1 0.070577 0.500000 0.208453
O O2 0.070526 0.722978 0.319658
O O3 0.111708 0.736173 0.151909
O O4 0.000000 0.717368 0.182255
O O5 0.222454 0.784777 0.128498
O O6 0.332266 0.744319 0.167512
O O7 0.295287 0.000000 0.120816
O O8 0.301563 0.791440 0.000000
O O9 0.419135 0.273583 0.500000
O O10 0.500000 0.276388 0.626639
O O11 0.433466 0.500000 0.600341
O O12 0.393098 0.272571 0.679896
O O13 0.091958 0.729928 0.500000
O O14 0.113243 0.500000 0.594785
O O15 0.175759 0.727310 0.622748
O O16 0.149654 0.000000 0.143990
O O17 0.147427 0.834211 0.000000
O O18 0.741997 0.723477 0.500000
O O19 0.758978 0.500000 0.603476
O O20 0.716932 0.730388 0.675394
O O21 0.337117 0.500000 0.254851
#
# Coordination Sequence:
#
# PCOD8193481 Si02
#       7
#     8   8   8   8   8   8   8
#     4  10  20  31  45  69  96 118 146 188 232 268
#     4   9  19  35  51  67  90 119 149 186 237 290
#     4   8  14  25  42  68 104 140 167 191 223 265
#     4   8  14  25  40  59  87 120 147 174 215 266
#     4   9  19  36  54  68  85 115 152 185 225 284
#     4   8  13  21  36  62  92 116 141 178 223 267
#     4  10  17  25  45  74  97 120 155 195 229 265
#
# _framework density 17.551234000000001
#
# number of rings (size 3 to 8) (size 9 to 14) (size 15 to 20)
#    0.000    3.143    0.000    3.429    0.000    4.857 
#    0.000    4.286    0.000    3.000    0.000   11.000 
#    0.000    0.000    0.000    0.000    0.000    0.000 
#
# Total GULP energy -693945.935886 kJ/mol
# GULP energy per Si atom -12391.891712 kJ/mol
# Density = 1.751129 g / cm^3
# Si number density = 17.551234 Si / 1000 Ang^3
#
#
#
# Elastic Constant Matrix: (Units=GPa)
#
#
# Indices 1 2 3 4 5 6 
#
# 1 100.9707 30.7147 68.1853 0.0000 0.0000 0.0000
# 2 30.7147 25.3354 30.9235 0.0000 0.0000 0.0000
# 3 68.1853 30.9235 101.8762 0.0000 0.0000 0.0000
# 4 0.0000 0.0000 0.0000 0.0093 0.0000 0.0000
# 5 0.0000 0.0000 0.0000 0.0000 28.5262 0.0000
# 6 0.0000 0.0000 0.0000 0.0000 0.0000 14.5777
#
#
#
# Elastic Compliance Matrix: (Units=1/GPa)
#
#
# Indices 1 2 3 4 5 6 
#
# 1 0.020391 -0.012808 -0.009760 0.000000 0.000000 0.000000
# 2 -0.012808 0.070745 -0.012902 0.000000 0.000000 0.000000
# 3 -0.009760 -0.012902 0.020264 0.000000 0.000000 0.000000
# 4 0.000000 0.000000 0.000000107.679928 0.000000 0.000000
# 5 0.000000 0.000000 0.000000 0.000000 0.035055 0.000000
# 6 0.000000 0.000000 0.000000 0.000000 0.000000 0.068598
#
#
# Mechanical properties :
#
#
# Convention : Reuss Voigt Hill
#
# Bulk Modulus (GPa) = 24.71494 54.20325 39.45910
# Shear Modulus (GPa) = 0.04631 15.17989 7.61310
#
# Velocity S-wave (km/s) = 0.16260 2.94409 2.08496
# Velocity P-wave (km/s) = 3.76131 6.51973 5.32232
#
# Compressibility (1/GPa) = 0.04046135
#
# Stress axis : x y z
#
# Youngs Moduli (GPa) = 49.04229 14.13532 49.34823
#
# Poissons Ratio (x) = 0.18104 0.48162
# Poissons Ratio (y) = 0.62811 0.63668
# Poissons Ratio (z) = 0.47864 0.18237
#
# Static dielectric constant tensor:
#      x y z
#    x 3.392370 0.000000 0.000000 
#    y 0.000000 2.753510 0.000000 
#    z 0.000000 0.000000 3.427080 
# 
# 
# High freq. dielectric constant tensor:
#      x y z
#    x 1.670570 0.000000 0.000000 
#    y 0.000000 1.623100 0.000000 
#    z 0.000000 0.000000 1.684280 
# 
# From -- ./inp_files/25144.got.cif
#   From: 2010.03.12/outbox.cif.g09.slc.cpg/sg47_13_cif.got.tgz:25144.got - 2010.04.14 03:12:58.
