data_PCOD8193428
_publ_section_title
;
Structure prediction by ZEFSAII (Michael W. Deem and Ramdas Pophale) SiO2 
 PCOD8193428
Probable space group: I M A 2
;
_chemical_formula_sum "Si O2"
_cell_formula_units_Z 64
_cell_length_a 10.025156
_cell_length_b 22.306081
_cell_length_c 17.237213
_cell_angle_alpha 90.000000
_cell_angle_beta 90.000000
_cell_angle_gamma 90.000000
_cell_volume 3854.619042
_symmetry_space_group_name_H-M "I M A 2"
_symmetry_group_IT_number 46
_symmetry_cell_setting 'orthorhombic'
loop_
_space_group_symop_operation_xyz
x,y,z
-x,-y,z
1/2-x,y,z
1/2+x,-y,z
1/2+x,1/2+y,1/2+z
1/2-x,1/2-y,1/2+z
-x,1/2+y,1/2+z
x,1/2-y,1/2+z
loop_
_atom_site_type_symbol
_atom_site_label
_atom_site_fract_x
_atom_site_fract_y
_atom_site_fract_z
Si Si1 0.602840 0.263252 0.991140
Si Si2 0.602840 0.763252 0.772400
Si Si3 0.397118 0.323559 0.439099
Si Si4 0.904573 0.445857 0.900449
Si Si5 0.602882 0.176442 0.324441
Si Si6 0.904444 0.886796 0.699858
Si Si7 0.904573 0.945857 0.863091
Si Si8 0.095556 0.613204 0.063682
O O1 0.750000 0.239667 0.013828
O O2 0.499990 0.207891 0.998455
O O3 0.606695 0.287709 0.904317
O O4 0.559979 0.317307 0.047506
O O5 0.750000 0.739665 0.749715
O O6 0.606693 0.787712 0.859221
O O7 0.499989 0.707891 0.765085
O O8 0.559983 0.817306 0.716031
O O9 0.250000 0.321661 0.477230
O O10 0.439237 0.391886 0.421988
O O11 0.750000 0.464729 0.892140
O O12 0.939241 0.391885 0.841554
O O13 0.000000 0.500000 0.876541
O O14 0.934875 0.426380 0.988335
O O15 0.750000 0.178336 0.286310
O O16 0.750000 0.893441 0.675122
O O17 0.934881 0.926377 0.775206
O O18 1.000000 0.910672 0.631770
O O19 0.750000 0.964729 0.871395
O O20 0.000000 0.000000 0.886998
O O21 0.250000 0.606562 0.088419
#
# Coordination Sequence:
#
# PCOD8193428 Si02
#       8
#     8   8   8   8   8   8   8   8
#     4   8  14  25  40  57  76  97 124 161 202 239
#     4   8  14  25  40  57  76  97 124 161 202 239
#     4   8  14  25  40  57  76  97 124 161 202 239
#     4   9  18  30  41  56  80 108 138 170 199 230
#     4   8  14  25  40  57  76  97 124 161 202 239
#     4   9  18  30  41  56  80 108 138 170 199 230
#     4   9  18  30  41  56  80 108 138 170 199 230
#     4   9  18  30  41  56  80 108 138 170 199 230
#
# _framework density 16.603458
#
# number of rings (size 3 to 8) (size 9 to 14) (size 15 to 20)
#    0.000    3.500    0.000    3.000    0.000    3.500 
#    0.000    7.500    0.000    0.000    0.000    0.000 
#    0.000    1.000    0.000   11.000    0.000    9.000 
#
# Total GULP energy -396602.700764 kJ/mol
# GULP energy per Si atom -12393.834399 kJ/mol
# Density = 1.656567 g / cm^3
# Si number density = 16.603458 Si / 1000 Ang^3
#
#
#
# Elastic Constant Matrix: (Units=GPa)
#
#
# Indices 1 2 3 4 5 6 
#
# 1 80.3308 60.8606 3.6873 0.0000 0.0000 0.0000
# 2 60.8606 97.3874 1.4627 0.0000 0.0000 0.0000
# 3 3.6873 1.4627 1.3955 0.0000 0.0000 0.0000
# 4 0.0000 0.0000 0.0000 12.5043 0.0000 0.0000
# 5 0.0000 0.0000 0.0000 0.0000 20.2200 0.0000
# 6 0.0000 0.0000 0.0000 0.0000 0.0000 32.9962
#
#
#
# Elastic Compliance Matrix: (Units=1/GPa)
#
#
# Indices 1 2 3 4 5 6 
#
# 1 0.027250 -0.016203 -0.055018 0.000000 0.000000 0.000000
# 2 -0.016203 0.020067 0.021779 0.000000 0.000000 0.000000
# 3 -0.055018 0.021779 0.839127 0.000000 0.000000 0.000000
# 4 0.000000 0.000000 0.000000 0.079973 0.000000 0.000000
# 5 0.000000 0.000000 0.000000 0.000000 0.049456 0.000000
# 6 0.000000 0.000000 0.000000 0.000000 0.000000 0.030307
#
#
# Mechanical properties :
#
#
# Convention : Reuss Voigt Hill
#
# Bulk Modulus (GPa) = 1.26974 34.57057 17.92016
# Shear Modulus (GPa) = 3.55219 20.68429 12.11824
#
# Velocity S-wave (km/s) = 1.46427 3.53339 2.70453
# Velocity P-wave (km/s) = 1.90399 6.12479 4.53532
#
# Compressibility (1/GPa) = 0.78756036
#
# Stress axis : x y z
#
# Youngs Moduli (GPa) = 36.69779 49.83346 1.19171
#
# Poissons Ratio (x) = 0.80744 0.06557
# Poissons Ratio (y) = 0.59461 -0.02595
# Poissons Ratio (z) = 2.01902 -1.08531
#
# Static dielectric constant tensor:
#      x y z
#    x 3.466670 0.000000 0.000000 
#    y 0.000000 3.059390 0.000000 
#    z 0.000000 0.000000 2.638470 
# 
# 
# High freq. dielectric constant tensor:
#      x y z
#    x 1.647730 0.000000 0.000000 
#    y 0.000000 1.627470 0.000000 
#    z 0.000000 0.000000 1.583620 
# 
# From -- ./inp_files/21476.got.cif
#   From: 2010.03.12/outbox.cif.g09.slc.cpg/sg46_11_cif.got.tgz:21476.got - 2010.04.14 02:56:35.
