data_PCOD8193586
_publ_section_title
;
Structure prediction by ZEFSAII (Michael W. Deem and Ramdas Pophale) SiO2 
 PCOD8193586
Probable space group: P M M M
;
_chemical_formula_sum "Si O2"
_cell_formula_units_Z 52
_cell_length_a 20.307869
_cell_length_b 11.824254
_cell_length_c 14.054278
_cell_angle_alpha 90.000000
_cell_angle_beta 90.000000
_cell_angle_gamma 90.000000
_cell_volume 3374.789144
_symmetry_space_group_name_H-M "P M M M"
_symmetry_group_IT_number 47
_symmetry_cell_setting 'orthorhombic'
loop_
_space_group_symop_operation_xyz
x,y,z
-x,-y,z
x,-y,-z
-x,y,-z
-x,-y,-z
x,y,-z
-x,y,z
x,-y,z
loop_
_atom_site_type_symbol
_atom_site_label
_atom_site_fract_x
_atom_site_fract_y
_atom_site_fract_z
Si Si1 0.576852 0.630624 0.782607
Si Si2 0.338748 0.000000 0.392586
Si Si3 0.072751 0.232394 0.112869
Si Si4 0.575466 0.779571 0.393646
Si Si5 0.862891 0.000000 0.112133
Si Si6 0.719673 0.000000 0.199436
Si Si7 0.194133 0.626254 0.886606
Si Si8 0.681664 0.230305 0.887841
O O1 0.500000 0.644571 0.806238
O O2 0.598199 0.500000 0.784707
O O3 0.594785 0.679845 0.678792
O O4 0.616550 0.699053 0.862614
O O5 0.382573 0.890428 0.373639
O O6 0.280482 0.000000 0.314798
O O7 0.309551 0.000000 0.500000
O O8 0.095020 0.107695 0.143874
O O9 0.125273 0.322974 0.152396
O O10 0.000000 0.257880 0.155163
O O11 0.070081 0.239171 0.000000
O O12 0.588265 0.732727 0.500000
O O13 0.500000 0.815652 0.380001
O O14 0.794294 0.000000 0.166202
O O15 0.847018 0.000000 0.000000
O O16 0.680170 0.108460 0.161218
O O17 0.201796 0.500000 0.845578
O O18 0.254347 0.702208 0.849708
O O19 0.194035 0.625034 0.000000
O O20 0.684954 0.212930 0.000000
#
# Coordination Sequence:
#
# PCOD8193586 Si02
#       8
#     8   4   8   8   4   4   8   8
#     4  10  21  35  50  69  92 122 161 200 238 280
#     4  10  19  32  51  74  95 114 143 184 241 296
#     4   9  16  25  39  61  90 122 156 193 229 265
#     4   9  17  31  51  72  93 116 144 186 241 298
#     4  10  17  28  43  63  92 125 158 188 222 268
#     4  12  20  32  52  72  90 119 152 194 237 276
#     4   9  17  28  42  60  85 122 163 194 224 266
#     4  11  21  34  49  67  91 124 164 201 232 270
#
# _framework density 15.40837
#
# number of rings (size 3 to 8) (size 9 to 14) (size 15 to 20)
#    0.000    2.154    3.077    1.615    0.000    3.692 
#    0.000    4.231    0.000    0.923    0.000    0.000 
#    0.000    1.231    0.000    0.000    0.000    2.308 
#
# Total GULP energy -644727.206821 kJ/mol
# GULP energy per Si atom -12398.600131 kJ/mol
# Density = 1.537330 g / cm^3
# Si number density = 15.408370 Si / 1000 Ang^3
#
#
#
# Elastic Constant Matrix: (Units=GPa)
#
#
# Indices 1 2 3 4 5 6 
#
# 1 78.9661 43.4138 29.2381 0.0000 0.0000 0.0000
# 2 43.4138 119.9839 27.5235 0.0000 0.0000 0.0000
# 3 29.2381 27.5235 57.1714 0.0000 0.0000 0.0000
# 4 0.0000 0.0000 0.0000 16.7092 0.0000 0.0000
# 5 0.0000 0.0000 0.0000 0.0000 9.6831 0.0000
# 6 0.0000 0.0000 0.0000 0.0000 0.0000 25.4616
#
#
#
# Elastic Compliance Matrix: (Units=1/GPa)
#
#
# Indices 1 2 3 4 5 6 
#
# 1 0.017873 -0.004913 -0.006775 0.000000 0.000000 0.000000
# 2 -0.004913 0.010720 -0.002648 0.000000 0.000000 0.000000
# 3 -0.006775 -0.002648 0.022231 0.000000 0.000000 0.000000
# 4 0.000000 0.000000 0.000000 0.059847 0.000000 0.000000
# 5 0.000000 0.000000 0.000000 0.000000 0.103273 0.000000
# 6 0.000000 0.000000 0.000000 0.000000 0.000000 0.039275
#
#
# Mechanical properties :
#
#
# Convention : Reuss Voigt Hill
#
# Bulk Modulus (GPa) = 45.14439 50.71915 47.93177
# Shear Modulus (GPa) = 17.28454 20.76717 19.02585
#
# Velocity S-wave (km/s) = 3.35291 3.67520 3.51775
# Velocity P-wave (km/s) = 6.65969 7.14126 6.90468
#
# Compressibility (1/GPa) = 0.02215115
#
# Stress axis : x y z
#
# Youngs Moduli (GPa) = 55.94930 93.28758 44.98193
#
# Poissons Ratio (x) = 0.45831 0.30477
# Poissons Ratio (y) = 0.27487 0.11912
# Poissons Ratio (z) = 0.37908 0.24704
#
# Static dielectric constant tensor:
#      x y z
#    x 3.028940 0.000000 0.000000 
#    y 0.000000 3.175450 0.000000 
#    z 0.000000 0.000000 2.695730 
# 
# 
# High freq. dielectric constant tensor:
#      x y z
#    x 1.587100 0.000000 0.000000 
#    y 0.000000 1.605970 0.000000 
#    z 0.000000 0.000000 1.544790 
# 
# From -- ./inp_files/24638.got.cif
#   From: 2010.03.12/outbox.cif.g09.slc.cpg/sg47_13_cif.got.tgz:24638.got - 2010.04.14 03:12:58.
