data_PCOD8193304
_publ_section_title
;
Structure prediction by ZEFSAII (Michael W. Deem and Ramdas Pophale) SiO2 
 PCOD8193304
Probable space group: I M A 2
;
_chemical_formula_sum "Si O2"
_cell_formula_units_Z 60
_cell_length_a 17.632530
_cell_length_b 8.753733
_cell_length_c 17.686679
_cell_angle_alpha 90.000000
_cell_angle_beta 90.000000
_cell_angle_gamma 90.000000
_cell_volume 2729.947035
_symmetry_space_group_name_H-M "I M A 2"
_symmetry_group_IT_number 46
_symmetry_cell_setting 'orthorhombic'
loop_
_space_group_symop_operation_xyz
x,y,z
-x,-y,z
1/2-x,y,z
1/2+x,-y,z
1/2+x,1/2+y,1/2+z
1/2-x,1/2-y,1/2+z
-x,1/2+y,1/2+z
x,1/2-y,1/2+z
loop_
_atom_site_type_symbol
_atom_site_label
_atom_site_fract_x
_atom_site_fract_y
_atom_site_fract_z
Si Si1 0.413707 0.007579 0.133050
Si Si2 0.415985 0.833421 0.281105
Si Si3 0.000000 0.000000 0.930512
Si Si4 0.090097 0.739763 0.528591
Si Si5 0.337203 0.529342 0.914523
Si Si6 0.161588 0.287112 0.190425
Si Si7 0.576900 0.753053 0.346596
Si Si8 0.075685 0.574090 0.170455
O O1 0.377163 0.174095 0.129317
O O2 0.500000 0.000000 0.100369
O O3 0.416130 0.971254 0.221758
O O4 0.365658 0.890799 0.078942
O O5 0.349823 0.867461 0.340482
O O6 0.496425 0.823656 0.322842
O O7 0.393411 0.682487 0.236160
O O8 0.066016 0.082531 0.881656
O O9 0.966316 0.147003 0.974303
O O10 0.141934 0.861032 0.484976
O O11 0.048772 0.838737 0.594393
O O12 0.250000 0.481930 0.922366
O O13 0.386666 0.373160 0.907093
O O14 0.250000 0.256035 0.190852
O O15 0.131442 0.267593 0.275223
O O16 0.142491 0.453100 0.156640
O O17 0.000000 0.500000 0.204988
#
# Coordination Sequence:
#
# PCOD8193304 Si02
#       8
#     8   8   4   8   8   8   8   8
#     4  11  20  42  70 104 139 178 235 287 342 408
#     4  11  21  41  71 101 132 178 229 290 340 404
#     4  12  26  42  70 106 134 174 236 292 348 396
#     4  11  27  42  68 102 139 185 231 279 341 417
#     4  12  27  45  67 100 145 191 227 274 351 425
#     4  12  25  41  71 108 139 177 230 293 355 407
#     4  12  23  43  70 106 134 175 233 295 340 414
#     4  11  24  43  71 102 136 177 232 290 344 414
#
# _framework density 21.978448
#
# number of rings (size 3 to 8) (size 9 to 14) (size 15 to 20)
#    0.000    0.533    6.000    2.400    1.867    1.600 
#    0.000    3.333    0.000    0.000    0.000    0.000 
#    0.000    0.000    0.000    0.000    0.000    0.000 
#
# Total GULP energy -371741.703359 kJ/mol
# GULP energy per Si atom -12391.390112 kJ/mol
# Density = 2.192842 g / cm^3
# Si number density = 21.978448 Si / 1000 Ang^3
#
#
#
# Elastic Constant Matrix: (Units=GPa)
#
#
# Indices 1 2 3 4 5 6 
#
# 1 104.7029 57.0269 26.6583 0.0000 0.0000 0.0000
# 2 57.0269 167.3471 53.5238 0.0000 0.0000 0.0000
# 3 26.6583 53.5238 87.1712 0.0000 0.0000 0.0000
# 4 0.0000 0.0000 0.0000 34.2527 0.0000 0.0000
# 5 0.0000 0.0000 0.0000 0.0000 12.7513 0.0000
# 6 0.0000 0.0000 0.0000 0.0000 0.0000 25.4232
#
#
#
# Elastic Compliance Matrix: (Units=1/GPa)
#
#
# Indices 1 2 3 4 5 6 
#
# 1 0.011868 -0.003588 -0.001426 0.000000 0.000000 0.000000
# 2 -0.003588 0.008521 -0.004134 0.000000 0.000000 0.000000
# 3 -0.001426 -0.004134 0.014446 0.000000 0.000000 0.000000
# 4 0.000000 0.000000 0.000000 0.029195 0.000000 0.000000
# 5 0.000000 0.000000 0.000000 0.000000 0.078423 0.000000
# 6 0.000000 0.000000 0.000000 0.000000 0.000000 0.039334
#
#
# Mechanical properties :
#
#
# Convention : Reuss Voigt Hill
#
# Bulk Modulus (GPa) = 60.46856 70.40437 65.43647
# Shear Modulus (GPa) = 24.31931 29.28626 26.80278
#
# Velocity S-wave (km/s) = 3.33003 3.65430 3.49593
# Velocity P-wave (km/s) = 6.50829 7.06457 6.79213
#
# Compressibility (1/GPa) = 0.01653752
#
# Stress axis : x y z
#
# Youngs Moduli (GPa) = 84.25801 117.36129 69.22104
#
# Poissons Ratio (x) = 0.42111 0.09873
# Poissons Ratio (y) = 0.30233 0.28619
# Poissons Ratio (z) = 0.12018 0.48523
#
# Static dielectric constant tensor:
#      x y z
#    x 3.509880 0.000000 0.000000 
#    y 0.000000 4.456260 0.000000 
#    z 0.000000 0.000000 4.204130 
# 
# 
# High freq. dielectric constant tensor:
#      x y z
#    x 1.815740 0.000000 0.000000 
#    y 0.000000 1.893040 0.000000 
#    z 0.000000 0.000000 1.874080 
# 
# From -- ./inp_files/19978.got.cif
#   From: 2010.03.12/outbox.cif.g09.slc.cpg/sg46_10_cif.got.tgz:19978.got - 2010.04.14 02:56:35.
