data_PCOD8193787
_publ_section_title
;
Structure prediction by ZEFSAII (Michael W. Deem and Ramdas Pophale) SiO2 
 PCOD8193787
Probable space group: P M M M
;
_chemical_formula_sum "Si O2"
_cell_formula_units_Z 44
_cell_length_a 12.343850
_cell_length_b 14.757978
_cell_length_c 13.931720
_cell_angle_alpha 90.000000
_cell_angle_beta 90.000000
_cell_angle_gamma 90.000000
_cell_volume 2537.945148
_symmetry_space_group_name_H-M "P M M M"
_symmetry_group_IT_number 47
_symmetry_cell_setting 'orthorhombic'
loop_
_space_group_symop_operation_xyz
x,y,z
-x,-y,z
x,-y,-z
-x,y,-z
-x,-y,-z
x,y,-z
-x,y,z
x,-y,z
loop_
_atom_site_type_symbol
_atom_site_label
_atom_site_fract_x
_atom_site_fract_y
_atom_site_fract_z
Si Si1 0.184246 0.601069 0.894910
Si Si2 0.788539 0.896603 0.611342
Si Si3 0.619793 0.752474 0.612203
Si Si4 0.000000 0.895296 0.267519
Si Si5 0.000000 0.253642 0.894262
Si Si6 0.769215 0.397078 0.687865
Si Si7 0.000000 0.392827 0.390892
O O1 0.129926 0.500000 0.890681
O O2 0.100962 0.681227 0.880891
O O3 0.260866 0.609795 0.801617
O O4 0.242922 0.611551 0.000000
O O5 0.811922 0.875547 0.500000
O O6 0.691596 0.835098 0.653526
O O7 0.896387 0.872683 0.668527
O O8 0.752902 0.000000 0.626611
O O9 0.606859 0.765802 0.500000
O O10 0.500000 0.753791 0.659990
O O11 0.678690 0.657866 0.631598
O O12 0.000000 0.831182 0.175902
O O13 0.000000 0.000000 0.233837
O O14 0.000000 0.210138 0.000000
O O15 0.760792 0.500000 0.651012
O O16 0.891198 0.359127 0.664640
O O17 0.000000 0.500000 0.391835
O O18 0.000000 0.354671 0.500000
#
# Coordination Sequence:
#
# PCOD8193787 Si02
#       7
#     8   8   8   4   4   8   4
#     4   9  17  29  46  68  92 120 159 202 239 278
#     4   9  18  33  52  72  94 121 154 194 237 276
#     4  10  21  34  48  69  95 125 162 196 228 276
#     4  10  19  31  49  73 100 126 152 185 230 286
#     4  10  18  27  42  65  97 133 158 182 225 277
#     4  10  19  31  48  69  96 128 158 193 237 281
#     4   9  17  28  42  63  91 123 159 191 220 264
#
# _framework density 17.336860999999999
#
# number of rings (size 3 to 8) (size 9 to 14) (size 15 to 20)
#    0.000    2.455    0.000    2.727    0.000    6.364 
#    0.000    3.636    0.000    0.545    0.000    2.545 
#    0.000    0.000    0.000   15.636    0.000    0.364 
#
# Total GULP energy -545201.985392 kJ/mol
# GULP energy per Si atom -12390.954213 kJ/mol
# Density = 1.729740 g / cm^3
# Si number density = 17.336861 Si / 1000 Ang^3
#
#
#
# Elastic Constant Matrix: (Units=GPa)
#
#
# Indices 1 2 3 4 5 6 
#
# 1 118.5623 55.5423 26.0382 0.0000 0.0000 0.0000
# 2 55.5423 91.2528 32.1977 0.0000 0.0000 0.0000
# 3 26.0382 32.1977 69.1953 0.0000 0.0000 0.0000
# 4 0.0000 0.0000 0.0000 27.6028 0.0000 0.0000
# 5 0.0000 0.0000 0.0000 0.0000 4.5998 0.0000
# 6 0.0000 0.0000 0.0000 0.0000 0.0000 18.7633
#
#
#
# Elastic Compliance Matrix: (Units=1/GPa)
#
#
# Indices 1 2 3 4 5 6 
#
# 1 0.011899 -0.006775 -0.001325 0.000000 0.000000 0.000000
# 2 -0.006775 0.016969 -0.005346 0.000000 0.000000 0.000000
# 3 -0.001325 -0.005346 0.017438 0.000000 0.000000 0.000000
# 4 0.000000 0.000000 0.000000 0.036228 0.000000 0.000000
# 5 0.000000 0.000000 0.000000 0.000000 0.217400 0.000000
# 6 0.000000 0.000000 0.000000 0.000000 0.000000 0.053296
#
#
# Mechanical properties :
#
#
# Convention : Reuss Voigt Hill
#
# Bulk Modulus (GPa) = 51.51167 56.28520 53.89843
# Shear Modulus (GPa) = 12.93344 21.20866 17.07105
#
# Velocity S-wave (km/s) = 2.73428 3.50140 3.14135
# Velocity P-wave (km/s) = 6.30437 6.99161 6.65686
#
# Compressibility (1/GPa) = 0.01941308
#
# Stress axis : x y z
#
# Youngs Moduli (GPa) = 84.03847 58.93185 57.34517
#
# Poissons Ratio (x) = 0.39927 0.07599
# Poissons Ratio (y) = 0.56937 0.30659
# Poissons Ratio (z) = 0.11136 0.31507
#
# Static dielectric constant tensor:
#      x y z
#    x 3.191980 0.000000 0.000000 
#    y 0.000000 3.239740 0.000000 
#    z 0.000000 0.000000 3.400340 
# 
# 
# High freq. dielectric constant tensor:
#      x y z
#    x 1.632780 0.000000 0.000000 
#    y 0.000000 1.672660 0.000000 
#    z 0.000000 0.000000 1.664320 
# 
# From -- ./inp_files/22670.got.cif
#   From: 2010.03.12/outbox.cif.g09.slc.cpg/sg47_12_cif.got.tgz:22670.got - 2010.04.14 03:12:58.
