data_PCOD8193861
_publ_section_title
;
Structure prediction by ZEFSAII (Michael W. Deem and Ramdas Pophale) SiO2 
 PCOD8193861
Probable space group: P M M M
;
_chemical_formula_sum "Si O2"
_cell_formula_units_Z 60
_cell_length_a 9.035919
_cell_length_b 18.154703
_cell_length_c 23.833222
_cell_angle_alpha 90.000000
_cell_angle_beta 90.000000
_cell_angle_gamma 90.000000
_cell_volume 3909.707217
_symmetry_space_group_name_H-M "P M M M"
_symmetry_group_IT_number 47
_symmetry_cell_setting 'orthorhombic'
loop_
_space_group_symop_operation_xyz
x,y,z
-x,-y,z
x,-y,-z
-x,y,-z
-x,-y,-z
x,y,-z
-x,y,z
x,-y,z
loop_
_atom_site_type_symbol
_atom_site_label
_atom_site_fract_x
_atom_site_fract_y
_atom_site_fract_z
Si Si1 0.826658 0.086340 0.887624
Si Si2 0.675085 0.833527 0.784905
Si Si3 0.329786 0.585185 0.667178
Si Si4 0.174128 0.348942 0.436730
Si Si5 0.163120 0.203621 0.616080
Si Si6 0.326565 0.082132 0.672214
Si Si7 0.667039 0.087342 0.000000
Si Si8 0.166113 0.706465 0.269686
O O1 0.748228 0.130592 0.838680
O O2 0.755240 0.114976 0.945461
O O3 0.000000 0.104037 0.888516
O O4 0.796611 0.000000 0.878564
O O5 0.500000 0.827872 0.793067
O O6 0.718272 0.884616 0.732210
O O7 0.741316 0.751555 0.776850
O O8 0.500000 0.610501 0.665702
O O9 0.313278 0.500000 0.682405
O O10 0.261716 0.598678 0.605573
O O11 0.246581 0.629636 0.716284
O O12 0.210621 0.373992 0.500000
O O13 0.222265 0.262961 0.429367
O O14 0.000000 0.356000 0.423065
O O15 0.265519 0.131745 0.621038
O O16 0.160301 0.245884 0.674560
O O17 0.000000 0.175763 0.599519
O O18 0.500000 0.079990 0.665060
O O19 0.259276 0.000000 0.668033
O O20 0.500000 0.119490 0.000000
O O21 0.662003 0.000000 0.000000
O O22 0.000000 0.690879 0.247388
#
# Coordination Sequence:
#
# PCOD8193861 Si02
#       8
#     8   8   8   8   8   8   4   8
#     4  10  19  29  41  59  85 117 154 194 231 265
#     4  10  18  28  43  62  85 112 143 180 220 259
#     4  10  20  32  46  66  91 115 138 165 199 243
#     4   9  18  32  48  64  82 106 137 171 205 244
#     4   8  15  27  42  59  77  99 129 165 204 246
#     4   9  17  27  39  57  80 104 131 166 208 252
#     4   9  17  29  43  57  77 111 154 195 234 273
#     4   9  17  30  46  63  84 110 140 171 206 250
#
# _framework density 15.346418
#
# number of rings (size 3 to 8) (size 9 to 14) (size 15 to 20)
#    0.000    2.733    0.000    3.000    0.000    7.733 
#    0.000    1.333    0.000    0.400    0.000    2.800 
#    0.000    0.000    0.000    0.600    0.000   11.067 
#
# Total GULP energy -743822.882888 kJ/mol
# GULP energy per Si atom -12397.048048 kJ/mol
# Density = 1.531149 g / cm^3
# Si number density = 15.346418 Si / 1000 Ang^3
#
#
#
# Elastic Constant Matrix: (Units=GPa)
#
#
# Indices 1 2 3 4 5 6 
#
# 1 88.0119 43.8558 35.5409 0.0000 0.0000 0.0000
# 2 43.8558 78.6954 26.2756 0.0000 0.0000 0.0000
# 3 35.5409 26.2756 47.6537 0.0000 0.0000 0.0000
# 4 0.0000 0.0000 0.0000 15.2138 0.0000 0.0000
# 5 0.0000 0.0000 0.0000 0.0000 23.7568 0.0000
# 6 0.0000 0.0000 0.0000 0.0000 0.0000 24.7318
#
#
#
# Elastic Compliance Matrix: (Units=1/GPa)
#
#
# Indices 1 2 3 4 5 6 
#
# 1 0.019106 -0.007219 -0.010269 0.000000 0.000000 0.000000
# 2 -0.007219 0.018302 -0.004708 0.000000 0.000000 0.000000
# 3 -0.010269 -0.004708 0.031239 0.000000 0.000000 0.000000
# 4 0.000000 0.000000 0.000000 0.065730 0.000000 0.000000
# 5 0.000000 0.000000 0.000000 0.000000 0.042093 0.000000
# 6 0.000000 0.000000 0.000000 0.000000 0.000000 0.040434
#
#
# Mechanical properties :
#
#
# Convention : Reuss Voigt Hill
#
# Bulk Modulus (GPa) = 41.22658 47.30063 44.26361
# Shear Modulus (GPa) = 18.56108 19.98641 19.27375
#
# Velocity S-wave (km/s) = 3.48152 3.61272 3.54773
# Velocity P-wave (km/s) = 6.56381 6.94919 6.75925
#
# Compressibility (1/GPa) = 0.02425620
#
# Stress axis : x y z
#
# Youngs Moduli (GPa) = 52.33925 54.63900 32.01077
#
# Poissons Ratio (x) = 0.39442 0.32873
# Poissons Ratio (y) = 0.37782 0.15069
# Poissons Ratio (z) = 0.53749 0.25722
#
# Static dielectric constant tensor:
#      x y z
#    x 3.111840 0.000000 0.000000 
#    y 0.000000 2.928740 0.000000 
#    z 0.000000 0.000000 2.820380 
# 
# 
# High freq. dielectric constant tensor:
#      x y z
#    x 1.601170 0.000000 0.000000 
#    y 0.000000 1.568040 0.000000 
#    z 0.000000 0.000000 1.556790 
# 
# From -- ./inp_files/32198.got.cif
#   From: 2010.03.12/outbox.cif.g09.slc.cpg/sg47_17_cif.got.tgz:32198.got - 2010.04.14 03:12:58.
