data_PCOD8193719
_publ_section_title
;
Structure prediction by ZEFSAII (Michael W. Deem and Ramdas Pophale) SiO2 
 PCOD8193719
Probable space group: P M M M
;
_chemical_formula_sum "Si O2"
_cell_formula_units_Z 60
_cell_length_a 9.421713
_cell_length_b 15.226567
_cell_length_c 24.202632
_cell_angle_alpha 90.000000
_cell_angle_beta 90.000000
_cell_angle_gamma 90.000000
_cell_volume 3472.117918
_symmetry_space_group_name_H-M "P M M M"
_symmetry_group_IT_number 47
_symmetry_cell_setting 'orthorhombic'
loop_
_space_group_symop_operation_xyz
x,y,z
-x,-y,z
x,-y,-z
-x,y,-z
-x,-y,-z
x,y,-z
-x,y,z
x,-y,z
loop_
_atom_site_type_symbol
_atom_site_label
_atom_site_fract_x
_atom_site_fract_y
_atom_site_fract_z
Si Si1 0.168636 0.096720 0.864067
Si Si2 0.331598 0.403005 0.745992
Si Si3 0.161964 0.898068 0.739792
Si Si4 0.663060 0.398280 0.870612
Si Si5 0.167052 0.742237 0.063852
Si Si6 0.669086 0.312362 0.439065
Si Si7 0.652860 0.500000 0.564631
Si Si8 0.332191 0.240199 0.325908
O O1 0.217850 0.119728 0.801882
O O2 0.226686 0.170704 0.905519
O O3 0.000000 0.092972 0.865359
O O4 0.227443 0.000000 0.881269
O O5 0.500000 0.405790 0.745907
O O6 0.274717 0.500000 0.727656
O O7 0.280753 0.381732 0.808312
O O8 0.274601 0.327603 0.705101
O O9 0.259330 0.845935 0.697421
O O10 0.000000 0.866282 0.733541
O O11 0.175449 0.000000 0.724872
O O12 0.500000 0.368382 0.876386
O O13 0.679555 0.500000 0.886499
O O14 0.757693 0.343631 0.912823
O O15 0.000000 0.731575 0.073513
O O16 0.205456 0.752797 0.000000
O O17 0.724605 0.281531 0.500000
O O18 0.500000 0.323638 0.441459
O O19 0.733989 0.408500 0.421695
O O20 0.711152 0.244618 0.390873
O O21 0.500000 0.500000 0.596243
O O22 0.623716 0.500000 0.500000
O O23 0.500000 0.231156 0.318058
#
# Coordination Sequence:
#
# PCOD8193719 Si02
#       8
#     8   8   8   8   8   8   4   8
#     4   8  15  30  51  71  91 117 146 175 217 278
#     4   8  15  27  43  67  96 120 146 184 227 267
#     4   9  18  33  51  68  88 117 150 184 226 274
#     4   9  18  33  49  62  84 123 162 189 218 262
#     4  10  20  31  46  71  96 115 142 185 229 263
#     4   8  14  23  36  60  94 126 153 181 217 263
#     4   7  10  18  32  52  83 121 153 177 202 243
#     4  10  18  26  45  73  95 118 148 188 230 264
#
# _framework density 17.280519000000002
#
# number of rings (size 3 to 8) (size 9 to 14) (size 15 to 20)
#    0.000    3.267    0.000    3.200    0.933    1.333 
#    0.000    2.667    0.000    3.200    0.000    3.733 
#    0.000    1.600    0.000    0.000    0.000    0.000 
#
# Total GULP energy -743467.950825 kJ/mol
# GULP energy per Si atom -12391.132514 kJ/mol
# Density = 1.724119 g / cm^3
# Si number density = 17.280519 Si / 1000 Ang^3
#
#
#
# Elastic Constant Matrix: (Units=GPa)
#
#
# Indices 1 2 3 4 5 6 
#
# 1 24.9665 29.5301 32.9255 0.0000 0.0000 0.0000
# 2 29.5301 92.8428 71.7674 0.0000 0.0000 0.0000
# 3 32.9255 71.7674 125.1030 0.0000 0.0000 0.0000
# 4 0.0000 0.0000 0.0000 25.7277 0.0000 0.0000
# 5 0.0000 0.0000 0.0000 0.0000 16.1100 0.0000
# 6 0.0000 0.0000 0.0000 0.0000 0.0000 21.0957
#
#
#
# Elastic Compliance Matrix: (Units=1/GPa)
#
#
# Indices 1 2 3 4 5 6 
#
# 1 0.070875 -0.014597 -0.010280 0.000000 0.000000 0.000000
# 2 -0.014597 0.022359 -0.008985 0.000000 0.000000 0.000000
# 3 -0.010280 -0.008985 0.015853 0.000000 0.000000 0.000000
# 4 0.000000 0.000000 0.000000 0.038869 0.000000 0.000000
# 5 0.000000 0.000000 0.000000 0.000000 0.062073 0.000000
# 6 0.000000 0.000000 0.000000 0.000000 0.000000 0.047403
#
#
# Mechanical properties :
#
#
# Convention : Reuss Voigt Hill
#
# Bulk Modulus (GPa) = 24.17524 56.81760 40.49642
# Shear Modulus (GPa) = 14.75171 19.83262 17.29216
#
# Velocity S-wave (km/s) = 2.92492 3.39143 3.16677
# Velocity P-wave (km/s) = 5.04253 6.94886 6.07099
#
# Compressibility (1/GPa) = 0.04136464
#
# Stress axis : x y z
#
# Youngs Moduli (GPa) = 14.10927 44.72479 63.07844
#
# Poissons Ratio (x) = 0.65284 0.64843
# Poissons Ratio (y) = 0.20595 0.56675
# Poissons Ratio (z) = 0.14504 0.40185
#
# Static dielectric constant tensor:
#      x y z
#    x 2.692150 0.000000 0.000000 
#    y 0.000000 3.347590 0.000000 
#    z 0.000000 0.000000 3.341760 
# 
# 
# High freq. dielectric constant tensor:
#      x y z
#    x 1.608070 0.000000 0.000000 
#    y 0.000000 1.666300 0.000000 
#    z 0.000000 0.000000 1.669320 
# 
# From -- ./inp_files/32517.got.cif
#   From: 2010.03.12/outbox.cif.g09.slc.cpg/sg47_17_cif.got.tgz:32517.got - 2010.04.14 03:12:58.
