data_PCOD8193336
_publ_section_title
;
Structure prediction by ZEFSAII (Michael W. Deem and Ramdas Pophale) SiO2 
 PCOD8193336
Probable space group: I M A 2
;
_chemical_formula_sum "Si O2"
_cell_formula_units_Z 64
_cell_length_a 8.764786
_cell_length_b 28.967644
_cell_length_c 12.726118
_cell_angle_alpha 90.000000
_cell_angle_beta 90.000000
_cell_angle_gamma 90.000000
_cell_volume 3231.100282
_symmetry_space_group_name_H-M "I M A 2"
_symmetry_group_IT_number 46
_symmetry_cell_setting 'orthorhombic'
loop_
_space_group_symop_operation_xyz
x,y,z
-x,-y,z
1/2-x,y,z
1/2+x,-y,z
1/2+x,1/2+y,1/2+z
1/2-x,1/2-y,1/2+z
-x,1/2+y,1/2+z
x,1/2-y,1/2+z
loop_
_atom_site_type_symbol
_atom_site_label
_atom_site_fract_x
_atom_site_fract_y
_atom_site_fract_z
Si Si1 0.927713 0.101907 0.526680
Si Si2 0.931439 0.703812 0.517990
Si Si3 0.431795 0.303826 0.959703
Si Si4 0.423790 0.954229 0.082805
Si Si5 0.078800 0.583972 0.796304
Si Si6 0.073122 0.327971 0.735672
Si Si7 0.068720 0.550778 0.235216
Si Si8 0.930255 0.609908 0.422213
O O1 0.750000 0.110327 0.542559
O O2 0.962732 0.072994 0.418319
O O3 0.990466 0.071635 0.623874
O O4 0.004133 0.152610 0.524901
O O5 0.750000 0.705919 0.524088
O O6 0.997082 0.754758 0.497457
O O7 0.006000 0.690703 0.630304
O O8 0.973693 0.664670 0.430725
O O9 0.250000 0.307001 0.966894
O O10 0.492605 0.304235 0.840190
O O11 0.250000 0.951405 0.043127
O O12 0.429626 0.957296 0.211246
O O13 0.500000 0.000000 0.036453
O O14 0.516693 0.911753 0.033133
O O15 0.250000 0.605381 0.795076
O O16 0.955558 0.618149 0.748116
O O17 0.250000 0.317961 0.726413
O O18 0.250000 0.546396 0.237897
O O19 0.000000 0.500000 0.252335
O O20 0.015997 0.585960 0.325624
O O21 0.750000 0.603029 0.408176
#
# Coordination Sequence:
#
# PCOD8193336 Si02
#       8
#     8   8   8   8   8   8   8   8
#     4   9  20  39  59  81 114 150 186 234 288 342
#     4   9  18  32  53  82 113 148 190 237 287 337
#     4   9  18  32  54  84 113 148 192 237 283 337
#     4  11  22  35  54  81 111 142 178 225 278 336
#     4   9  18  34  55  78 105 139 177 220 275 331
#     4   9  16  30  51  74 106 143 179 223 275 327
#     4  11  24  42  62  84 115 154 198 246 297 352
#     4  11  22  38  59  82 112 150 193 238 288 342
#
# _framework density 19.807494999999999
#
# number of rings (size 3 to 8) (size 9 to 14) (size 15 to 20)
#    0.000    2.250    1.250    1.500    0.000    3.000 
#    0.000    4.375    0.000    3.000    0.000    0.000 
#    0.000    0.000    0.000    0.000    0.000    0.000 
#
# Total GULP energy -396434.787218 kJ/mol
# GULP energy per Si atom -12388.587101 kJ/mol
# Density = 1.976241 g / cm^3
# Si number density = 19.807495 Si / 1000 Ang^3
#
#
#
# Elastic Constant Matrix: (Units=GPa)
#
#
# Indices 1 2 3 4 5 6 
#
# 1 37.6658 23.7516 23.7384 -0.0001 0.0000 0.0000
# 2 23.7516 89.3745 34.7538 0.0001 0.0000 0.0000
# 3 23.7384 34.7538 120.3339 -0.0007 0.0003 0.0000
# 4 -0.0001 0.0001 -0.0007 26.9428 0.0001 0.0000
# 5 0.0000 0.0000 0.0003 0.0001 24.0198 -0.0001
# 6 0.0000 0.0000 0.0000 0.0000 -0.0001 23.1570
#
#
#
# Elastic Compliance Matrix: (Units=1/GPa)
#
#
# Indices 1 2 3 4 5 6 
#
# 1 0.034031 -0.007247 -0.004620 0.000000 0.000000 0.000000
# 2 -0.007247 0.014148 -0.002656 0.000000 0.000000 0.000000
# 3 -0.004620 -0.002656 0.009989 0.000000 0.000000 0.000000
# 4 0.000000 0.000000 0.000000 0.037116 0.000000 0.000000
# 5 0.000000 0.000000 0.000000 0.000000 0.041632 0.000000
# 6 0.000000 0.000000 0.000000 0.000000 0.000000 0.043183
#
#
# Mechanical properties :
#
#
# Convention : Reuss Voigt Hill
#
# Bulk Modulus (GPa) = 34.34068 45.76242 40.05155
# Shear Modulus (GPa) = 22.84630 25.83261 24.33946
#
# Velocity S-wave (km/s) = 3.39988 3.61527 3.50923
# Velocity P-wave (km/s) = 5.72600 6.37029 6.05672
#
# Compressibility (1/GPa) = 0.02911998
#
# Stress axis : x y z
#
# Youngs Moduli (GPa) = 29.38481 70.68222 100.11167
#
# Poissons Ratio (x) = 0.51226 0.46254
# Poissons Ratio (y) = 0.21296 0.26593
# Poissons Ratio (z) = 0.13577 0.18776
#
# Static dielectric constant tensor:
#      x y z
#    x 3.434740 0.000000 0.000000 
#    y 0.000000 3.631300 0.000000 
#    z 0.000000 0.000000 4.006350 
# 
# 
# High freq. dielectric constant tensor:
#      x y z
#    x 1.754420 0.000000 0.000000 
#    y 0.000000 1.762180 0.000000 
#    z 0.000000 0.000000 1.783340 
# 
# From -- ./inp_files/9673.got.cif
#   From: 2010.03.12/outbox.cif.g09.slc.cpg/sg46_5_cif.got.tgz:9673.got - 2010.04.14 02:56:35.
