data_PCOD8193822
_publ_section_title
;
Structure prediction by ZEFSAII (Michael W. Deem and Ramdas Pophale) SiO2 
 PCOD8193822
Probable space group: P M M M
;
_chemical_formula_sum "Si O2"
_cell_formula_units_Z 40
_cell_length_a 9.728946
_cell_length_b 19.330253
_cell_length_c 15.528984
_cell_angle_alpha 90.000000
_cell_angle_beta 90.000000
_cell_angle_gamma 90.000000
_cell_volume 2920.427125
_symmetry_space_group_name_H-M "P M M M"
_symmetry_group_IT_number 47
_symmetry_cell_setting 'orthorhombic'
loop_
_space_group_symop_operation_xyz
x,y,z
-x,-y,z
x,-y,-z
-x,y,-z
-x,-y,-z
x,y,-z
-x,y,z
x,-y,z
loop_
_atom_site_type_symbol
_atom_site_label
_atom_site_fract_x
_atom_site_fract_y
_atom_site_fract_z
Si Si1 0.663334 0.077607 0.500000
Si Si2 0.161639 0.075003 0.000000
Si Si3 0.840543 0.082181 0.187041
Si Si4 0.657734 0.301200 0.599262
Si Si5 0.339161 0.153281 0.669765
Si Si6 0.154446 0.423693 0.397708
O O1 0.500000 0.080466 0.500000
O O2 0.718462 0.115216 0.415006
O O3 0.720634 0.000000 0.500000
O O4 0.200235 0.111124 0.909039
O O5 0.000000 0.063275 0.000000
O O6 0.233756 0.000000 0.000000
O O7 0.745236 0.125438 0.250042
O O8 0.000000 0.097410 0.207813
O O9 0.811683 0.000000 0.194509
O O10 0.696420 0.284147 0.500000
O O11 0.500000 0.323608 0.605180
O O12 0.687447 0.234697 0.658033
O O13 0.745434 0.364495 0.638546
O O14 0.500000 0.137424 0.684212
O O15 0.161921 0.423640 0.500000
O O16 0.199272 0.500000 0.363932
O O17 0.000000 0.407205 0.366619
#
# Coordination Sequence:
#
# PCOD8193822 Si02
#       6
#     4   4   8   8   8   8
#     4   9  16  26  39  51  68 101 138 164 191 227
#     4   7  12  26  45  59  73  95 120 151 198 251
#     4   9  17  29  44  60  76  96 126 163 202 243
#     4   9  16  26  38  52  73 101 133 163 188 222
#     4  10  18  28  40  56  77 103 134 165 195 229
#     4   8  14  24  37  53  72  94 123 159 196 230
#
# _framework density 13.696626
#
# number of rings (size 3 to 8) (size 9 to 14) (size 15 to 20)
#    0.000    3.200    1.000    2.400    0.000    2.400 
#    0.000    3.000    0.000    3.600    0.000    0.000 
#    0.000    0.000    0.000    0.900    0.000   17.600 
#
# Total GULP energy -495601.560574 kJ/mol
# GULP energy per Si atom -12390.039014 kJ/mol
# Density = 1.366545 g / cm^3
# Si number density = 13.696626 Si / 1000 Ang^3
#
#
#
# Elastic Constant Matrix: (Units=GPa)
#
#
# Indices 1 2 3 4 5 6 
#
# 1 59.2735 52.6115 42.4099 0.0000 0.0000 0.0000
# 2 52.6115 93.1878 43.6248 0.0000 0.0000 0.0000
# 3 42.4099 43.6248 90.4526 0.0000 0.0000 0.0000
# 4 0.0000 0.0000 0.0000 4.7498 0.0000 0.0000
# 5 0.0000 0.0000 0.0000 0.0000 18.2240 0.0000
# 6 0.0000 0.0000 0.0000 0.0000 0.0000 25.3660
#
#
#
# Elastic Compliance Matrix: (Units=1/GPa)
#
#
# Indices 1 2 3 4 5 6 
#
# 1 0.039911 -0.017789 -0.010133 0.000000 0.000000 0.000000
# 2 -0.017789 0.021789 -0.002168 0.000000 0.000000 0.000000
# 3 -0.010133 -0.002168 0.016852 0.000000 0.000000 0.000000
# 4 0.000000 0.000000 0.000000 0.210534 0.000000 0.000000
# 5 0.000000 0.000000 0.000000 0.000000 0.054873 0.000000
# 6 0.000000 0.000000 0.000000 0.000000 0.000000 0.039423
#
#
# Mechanical properties :
#
#
# Convention : Reuss Voigt Hill
#
# Bulk Modulus (GPa) = 54.43183 57.80070 56.11626
# Shear Modulus (GPa) = 11.11887 16.61915 13.86901
#
# Velocity S-wave (km/s) = 2.85229 3.48713 3.18557
# Velocity P-wave (km/s) = 7.11862 7.64891 7.38852
#
# Compressibility (1/GPa) = 0.01837160
#
# Stress axis : x y z
#
# Youngs Moduli (GPa) = 25.05592 45.89429 59.33886
#
# Poissons Ratio (x) = 0.81641 0.60129
# Poissons Ratio (y) = 0.44572 0.12866
# Poissons Ratio (z) = 0.25390 0.09951
#
# Static dielectric constant tensor:
#      x y z
#    x 2.610890 0.000000 0.000000 
#    y 0.000000 2.781220 0.000000 
#    z 0.000000 0.000000 2.612600 
# 
# 
# High freq. dielectric constant tensor:
#      x y z
#    x 1.510110 0.000000 0.000000 
#    y 0.000000 1.511690 0.000000 
#    z 0.000000 0.000000 1.488420 
# 
# From -- ./inp_files/6635.got.cif
#   From: 2010.03.12/outbox.cif.g09.slc.cpg/sg47_4_cif.got.tgz:6635.got - 2010.04.14 03:12:58.
