data_PCOD8193980
_publ_section_title
;
Structure prediction by ZEFSAII (Michael W. Deem and Ramdas Pophale) SiO2 
 PCOD8193980
Probable space group: P M M M
;
_chemical_formula_sum "Si O2"
_cell_formula_units_Z 56
_cell_length_a 9.176595
_cell_length_b 14.208547
_cell_length_c 23.691990
_cell_angle_alpha 90.000000
_cell_angle_beta 90.000000
_cell_angle_gamma 90.000000
_cell_volume 3089.105736
_symmetry_space_group_name_H-M "P M M M"
_symmetry_group_IT_number 47
_symmetry_cell_setting 'orthorhombic'
loop_
_space_group_symop_operation_xyz
x,y,z
-x,-y,z
x,-y,-z
-x,y,-z
-x,-y,-z
x,y,-z
-x,y,z
x,-y,z
loop_
_atom_site_type_symbol
_atom_site_label
_atom_site_fract_x
_atom_site_fract_y
_atom_site_fract_z
Si Si1 0.334068 0.389027 0.837273
Si Si2 0.672286 0.235717 0.337112
Si Si3 0.669838 0.893320 0.233195
Si Si4 0.168227 0.710882 0.936232
Si Si5 0.170486 0.609641 0.724072
Si Si6 0.673030 0.105085 0.563222
Si Si7 0.832625 0.895390 0.123246
O O1 0.500000 0.353895 0.829805
O O2 0.326131 0.500000 0.843570
O O3 0.267843 0.347472 0.894175
O O4 0.244583 0.356078 0.782342
O O5 0.500000 0.255463 0.339761
O O6 0.717271 0.167910 0.286173
O O7 0.757188 0.333889 0.328118
O O8 0.730956 0.184581 0.393807
O O9 0.500000 0.886381 0.221915
O O10 0.747335 0.854798 0.177201
O O11 0.718971 0.000000 0.245605
O O12 0.192510 0.822968 0.927879
O O13 0.000000 0.684105 0.925127
O O14 0.213991 0.685817 0.000000
O O15 0.200787 0.500000 0.712863
O O16 0.000000 0.631694 0.727933
O O17 0.723651 0.132498 0.500000
O O18 0.500000 0.102180 0.567239
O O19 0.731521 0.000000 0.578681
O O20 0.000000 0.900058 0.140934
O O21 0.776768 0.000000 0.105609
#
# Coordination Sequence:
#
# PCOD8193980 Si02
#       7
#     8   8   8   8   8   8   8
#     4  10  21  37  56  76  98 124 155 196 248 300
#     4  10  18  28  48  76 102 130 166 207 246 284
#     4   9  17  28  43  67  98 126 152 188 238 292
#     4  10  21  35  51  72  97 127 163 200 239 287
#     4  10  21  36  53  73  98 128 161 199 247 302
#     4   8  14  26  46  74 108 143 176 208 243 286
#     4   9  18  32  48  66  91 124 160 196 234 279
#
# _framework density 18.128223999999999
#
# number of rings (size 3 to 8) (size 9 to 14) (size 15 to 20)
#    0.000    2.571    0.000    2.571    0.000    7.714 
#    0.000    2.857    0.000    2.143    0.000    7.000 
#    0.000    0.000    0.000    0.000    0.000    0.000 
#
# Total GULP energy -694326.648606 kJ/mol
# GULP energy per Si atom -12398.690154 kJ/mol
# Density = 1.808696 g / cm^3
# Si number density = 18.128224 Si / 1000 Ang^3
#
#
#
# Elastic Constant Matrix: (Units=GPa)
#
#
# Indices 1 2 3 4 5 6 
#
# 1 61.9661 40.6839 45.6837 0.0000 0.0000 0.0000
# 2 40.6839 70.0979 62.0148 0.0000 0.0000 0.0000
# 3 45.6837 62.0148 116.0174 0.0000 0.0000 0.0000
# 4 0.0000 0.0000 0.0000 30.9214 0.0000 0.0000
# 5 0.0000 0.0000 0.0000 0.0000 9.3097 0.0000
# 6 0.0000 0.0000 0.0000 0.0000 0.0000 26.3916
#
#
#
# Elastic Compliance Matrix: (Units=1/GPa)
#
#
# Indices 1 2 3 4 5 6 
#
# 1 0.027161 -0.011956 -0.004304 0.000000 0.000000 0.000000
# 2 -0.011956 0.032327 -0.012572 0.000000 0.000000 0.000000
# 3 -0.004304 -0.012572 0.017034 0.000000 0.000000 0.000000
# 4 0.000000 0.000000 0.000000 0.032340 0.000000 0.000000
# 5 0.000000 0.000000 0.000000 0.000000 0.107414 0.000000
# 6 0.000000 0.000000 0.000000 0.000000 0.000000 0.037891
#
#
# Mechanical properties :
#
#
# Convention : Reuss Voigt Hill
#
# Bulk Modulus (GPa) = 53.02775 60.53849 56.78312
# Shear Modulus (GPa) = 15.71746 19.97115 17.84431
#
# Velocity S-wave (km/s) = 2.94771 3.32273 3.14082
# Velocity P-wave (km/s) = 6.39533 6.94174 6.67413
#
# Compressibility (1/GPa) = 0.01885805
#
# Stress axis : x y z
#
# Youngs Moduli (GPa) = 36.81794 30.93382 58.70490
#
# Poissons Ratio (x) = 0.36984 0.25268
# Poissons Ratio (y) = 0.44019 0.73804
# Poissons Ratio (z) = 0.15847 0.38890
#
# Static dielectric constant tensor:
#      x y z
#    x 3.191960 0.000000 0.000000 
#    y 0.000000 3.509830 0.000000 
#    z 0.000000 0.000000 3.376260 
# 
# 
# High freq. dielectric constant tensor:
#      x y z
#    x 1.683340 0.000000 0.000000 
#    y 0.000000 1.708460 0.000000 
#    z 0.000000 0.000000 1.687270 
# 
# From -- ./inp_files/7232.got.cif
#   From: 2010.03.12/outbox.cif.g09.slc.cpg/sg47_4_cif.got.tgz:7232.got - 2010.04.14 03:12:58.
