data_PCOD8193786
_publ_section_title
;
Structure prediction by ZEFSAII (Michael W. Deem and Ramdas Pophale) SiO2 
 PCOD8193786
Probable space group: P M M M
;
_chemical_formula_sum "Si O2"
_cell_formula_units_Z 64
_cell_length_a 9.496560
_cell_length_b 19.558012
_cell_length_c 20.333092
_cell_angle_alpha 90.000000
_cell_angle_beta 90.000000
_cell_angle_gamma 90.000000
_cell_volume 3776.543143
_symmetry_space_group_name_H-M "P M M M"
_symmetry_group_IT_number 47
_symmetry_cell_setting 'orthorhombic'
loop_
_space_group_symop_operation_xyz
x,y,z
-x,-y,z
x,-y,-z
-x,y,-z
-x,-y,-z
x,y,-z
-x,y,z
x,-y,z
loop_
_atom_site_type_symbol
_atom_site_label
_atom_site_fract_x
_atom_site_fract_y
_atom_site_fract_z
Si Si1 0.342023 0.075819 0.774042
Si Si2 0.839633 0.799913 0.380573
Si Si3 0.163282 0.346781 0.424592
Si Si4 0.341934 0.924873 0.382315
Si Si5 0.162327 0.201209 0.224812
Si Si6 0.662422 0.421316 0.317948
Si Si7 0.333090 0.576152 0.927078
Si Si8 0.333260 0.667863 0.808005
O O1 0.500000 0.094584 0.797993
O O2 0.338450 0.076650 0.695836
O O3 0.230123 0.130466 0.801640
O O4 0.300227 0.000000 0.799548
O O5 0.780732 0.730268 0.412586
O O6 0.755041 0.864286 0.410413
O O7 0.821684 0.793272 0.302784
O O8 0.000000 0.812058 0.401249
O O9 0.186610 0.367404 0.500000
O O10 0.247574 0.400709 0.381163
O O11 0.000000 0.350603 0.404147
O O12 0.500000 0.912340 0.407944
O O13 0.288943 0.000000 0.406419
O O14 0.248686 0.261942 0.191752
O O15 0.000000 0.204052 0.202814
O O16 0.500000 0.409097 0.335562
O O17 0.691917 0.500000 0.300310
O O18 0.707659 0.376441 0.255581
O O19 0.500000 0.572794 0.922164
O O20 0.272647 0.500000 0.913830
O O21 0.276821 0.627912 0.872118
O O22 0.286830 0.601197 0.000000
O O23 0.500000 0.682630 0.810354
#
# Coordination Sequence:
#
# PCOD8193786 Si02
#       8
#     8   8   8   8   8   8   8   8
#     4   8  14  25  40  60  89 123 156 190 231 278
#     4   9  17  29  44  63  86 113 149 190 229 272
#     4  10  21  37  53  67  87 117 154 195 239 287
#     4   8  14  24  40  63  88 114 144 179 222 272
#     4  10  18  27  42  65  94 124 156 195 234 274
#     4  10  21  35  51  72  95 118 148 190 237 284
#     4   8  14  26  46  72  99 126 159 198 234 270
#     4  10  18  29  48  72  98 127 157 190 232 279
#
# _framework density 16.946715000000001
#
# number of rings (size 3 to 8) (size 9 to 14) (size 15 to 20)
#    0.000    2.875    1.250    1.875    0.000    3.750 
#    0.000    3.750    0.000    1.875    0.000    3.500 
#    0.000    0.500    0.000    5.750    0.000    1.875 
#
# Total GULP energy -793375.181850 kJ/mol
# GULP energy per Si atom -12396.487216 kJ/mol
# Density = 1.690814 g / cm^3
# Si number density = 16.946715 Si / 1000 Ang^3
#
#
#
# Elastic Constant Matrix: (Units=GPa)
#
#
# Indices 1 2 3 4 5 6 
#
# 1 65.5547 55.3335 28.8848 0.0000 0.0000 0.0000
# 2 55.3335 119.8508 39.3061 0.0000 0.0000 0.0000
# 3 28.8848 39.3061 60.0406 0.0000 0.0000 0.0000
# 4 0.0000 0.0000 0.0000 16.3171 0.0000 0.0000
# 5 0.0000 0.0000 0.0000 0.0000 10.6345 0.0000
# 6 0.0000 0.0000 0.0000 0.0000 0.0000 24.8304
#
#
#
# Elastic Compliance Matrix: (Units=1/GPa)
#
#
# Indices 1 2 3 4 5 6 
#
# 1 0.026622 -0.010303 -0.006063 0.000000 0.000000 0.000000
# 2 -0.010303 0.014612 -0.004609 0.000000 0.000000 0.000000
# 3 -0.006063 -0.004609 0.022590 0.000000 0.000000 0.000000
# 4 0.000000 0.000000 0.000000 0.061286 0.000000 0.000000
# 5 0.000000 0.000000 0.000000 0.000000 0.094033 0.000000
# 6 0.000000 0.000000 0.000000 0.000000 0.000000 0.040273
#
#
# Mechanical properties :
#
#
# Convention : Reuss Voigt Hill
#
# Bulk Modulus (GPa) = 45.71629 54.72167 50.21898
# Shear Modulus (GPa) = 16.19920 18.48451 17.34185
#
# Velocity S-wave (km/s) = 3.09510 3.30622 3.20240
# Velocity P-wave (km/s) = 6.30935 6.85094 6.58571
#
# Compressibility (1/GPa) = 0.02187404
#
# Stress axis : x y z
#
# Youngs Moduli (GPa) = 37.56266 68.43680 44.26791
#
# Poissons Ratio (x) = 0.70509 0.26839
# Poissons Ratio (y) = 0.38700 0.20405
# Poissons Ratio (z) = 0.22774 0.31545
#
# Static dielectric constant tensor:
#      x y z
#    x 3.103810 0.000000 0.000000 
#    y 0.000000 3.416740 0.000000 
#    z 0.000000 0.000000 2.894240 
# 
# 
# High freq. dielectric constant tensor:
#      x y z
#    x 1.637630 0.000000 0.000000 
#    y 0.000000 1.664440 0.000000 
#    z 0.000000 0.000000 1.609610 
# 
# From -- ./inp_files/27055.got.cif
#   From: 2010.03.12/outbox.cif.g09.slc.cpg/sg47_14_cif.got.tgz:27055.got - 2010.04.14 03:12:58.
