data_PCOD8193655
_publ_section_title
;
Structure prediction by ZEFSAII (Michael W. Deem and Ramdas Pophale) SiO2 
 PCOD8193655
Probable space group: P M M M
;
_chemical_formula_sum "Si O2"
_cell_formula_units_Z 52
_cell_length_a 11.977776
_cell_length_b 30.304084
_cell_length_c 7.948956
_cell_angle_alpha 90.000000
_cell_angle_beta 90.000000
_cell_angle_gamma 90.000000
_cell_volume 2885.276517
_symmetry_space_group_name_H-M "P M M M"
_symmetry_group_IT_number 47
_symmetry_cell_setting 'orthorhombic'
loop_
_space_group_symop_operation_xyz
x,y,z
-x,-y,z
x,-y,-z
-x,y,-z
-x,-y,-z
x,y,-z
-x,y,z
x,-y,z
loop_
_atom_site_type_symbol
_atom_site_label
_atom_site_fract_x
_atom_site_fract_y
_atom_site_fract_z
Si Si1 0.633199 0.949966 0.500000
Si Si2 0.632441 0.106956 0.189330
Si Si3 0.742044 0.547778 0.302490
Si Si4 0.500000 0.577513 0.694979
Si Si5 0.500000 0.328341 0.190719
Si Si6 0.126906 0.632276 0.701194
Si Si7 0.622996 0.203970 0.194756
Si Si8 0.724601 0.289508 0.691105
O O1 0.500000 0.947596 0.500000
O O2 0.679869 0.926975 0.670884
O O3 0.676718 0.000000 0.500000
O O4 0.500000 0.103221 0.179288
O O5 0.664516 0.156054 0.258123
O O6 0.681043 0.097276 0.000000
O O7 0.763023 0.549121 0.500000
O O8 0.784246 0.500000 0.232107
O O9 0.610349 0.549799 0.262649
O O10 0.809892 0.589071 0.223257
O O11 0.500000 0.592791 0.500000
O O12 0.500000 0.619260 0.816751
O O13 0.393672 0.312810 0.293268
O O14 0.500000 0.308966 0.000000
O O15 0.135873 0.632340 0.500000
O O16 0.183724 0.677311 0.773078
O O17 0.000000 0.630945 0.764289
O O18 0.500000 0.216740 0.273480
O O19 0.717465 0.240954 0.227323
O O20 0.604351 0.198264 0.000000
O O21 0.757279 0.281781 0.500000
#
# Coordination Sequence:
#
# PCOD8193655 Si02
#       8
#     4   8   8   4   4   8   8   8
#     4   9  16  24  36  54  78 114 163 205 234 271
#     4   8  15  26  37  52  80 113 148 194 242 279
#     4   9  16  26  45  71  94 115 140 177 225 272
#     4  10  17  30  48  70  96 114 138 176 223 275
#     4  12  22  31  45  67  94 118 140 179 225 274
#     4   9  18  31  45  65  93 118 147 188 223 261
#     4   9  17  28  42  63  90 117 143 184 234 281
#     4  11  20  30  47  69  89 116 149 182 229 281
#
# _framework density 18.022537
#
# number of rings (size 3 to 8) (size 9 to 14) (size 15 to 20)
#    0.000    2.538    2.308    2.308    1.077    1.538 
#    0.000    3.077    0.000    2.769    0.000    0.000 
#    0.000    1.231    0.000    0.000    0.000    1.538 
#
# Total GULP energy -644242.368424 kJ/mol
# GULP energy per Si atom -12389.276316 kJ/mol
# Density = 1.798152 g / cm^3
# Si number density = 18.022537 Si / 1000 Ang^3
#
#
#
# Elastic Constant Matrix: (Units=GPa)
#
#
# Indices 1 2 3 4 5 6 
#
# 1 80.0731 44.8556 9.1300 0.0000 0.0000 0.0000
# 2 44.8556 166.6754 36.7845 0.0000 0.0000 0.0000
# 3 9.1300 36.7845 43.4827 0.0000 0.0000 0.0000
# 4 0.0000 0.0000 0.0000 11.7351 0.0000 0.0000
# 5 0.0000 0.0000 0.0000 0.0000 2.9491 0.0000
# 6 0.0000 0.0000 0.0000 0.0000 0.0000 11.3854
#
#
#
# Elastic Compliance Matrix: (Units=1/GPa)
#
#
# Indices 1 2 3 4 5 6 
#
# 1 0.014709 -0.004029 0.000320 0.000000 0.000000 0.000000
# 2 -0.004029 0.008481 -0.006328 0.000000 0.000000 0.000000
# 3 0.000320 -0.006328 0.028284 0.000000 0.000000 0.000000
# 4 0.000000 0.000000 0.000000 0.085215 0.000000 0.000000
# 5 0.000000 0.000000 0.000000 0.000000 0.339082 0.000000
# 6 0.000000 0.000000 0.000000 0.000000 0.000000 0.087832
#
#
# Mechanical properties :
#
#
# Convention : Reuss Voigt Hill
#
# Bulk Modulus (GPa) = 31.84820 52.41904 42.13362
# Shear Modulus (GPa) = 8.41548 18.51133 13.46341
#
# Velocity S-wave (km/s) = 2.16323 3.20835 2.73615
# Velocity P-wave (km/s) = 4.89378 6.54776 5.78023
#
# Compressibility (1/GPa) = 0.03139895
#
# Stress axis : x y z
#
# Youngs Moduli (GPa) = 67.98482 117.91581 35.35578
#
# Poissons Ratio (x) = 0.47510 -0.01131
# Poissons Ratio (y) = 0.27392 0.22374
# Poissons Ratio (z) = -0.02176 0.74620
#
# Static dielectric constant tensor:
#      x y z
#    x 2.964670 0.000000 0.000000 
#    y 0.000000 3.674780 0.000000 
#    z 0.000000 0.000000 3.144120 
# 
# 
# High freq. dielectric constant tensor:
#      x y z
#    x 1.632040 0.000000 0.000000 
#    y 0.000000 1.705070 0.000000 
#    z 0.000000 0.000000 1.676970 
# 
# From -- ./inp_files/4590.got.cif
#   From: 2010.03.12/outbox.cif.g09.slc.cpg/sg47_3_cif.got.tgz:4590.got - 2010.04.14 03:12:58.
