data_PCOD8193873
_publ_section_title
;
Structure prediction by ZEFSAII (Michael W. Deem and Ramdas Pophale) SiO2 
 PCOD8193873
Probable space group: P M M M
;
_chemical_formula_sum "Si O2"
_cell_formula_units_Z 46
_cell_length_a 26.300287
_cell_length_b 12.027244
_cell_length_c 8.215892
_cell_angle_alpha 90.000000
_cell_angle_beta 90.000000
_cell_angle_gamma 90.000000
_cell_volume 2598.850703
_symmetry_space_group_name_H-M "P M M M"
_symmetry_group_IT_number 47
_symmetry_cell_setting 'orthorhombic'
loop_
_space_group_symop_operation_xyz
x,y,z
-x,-y,z
x,-y,-z
-x,y,-z
-x,-y,-z
x,y,-z
-x,y,z
x,-y,z
loop_
_atom_site_type_symbol
_atom_site_label
_atom_site_fract_x
_atom_site_fract_y
_atom_site_fract_z
Si Si1 0.276412 0.373529 0.812147
Si Si2 0.114199 0.500000 0.679230
Si Si3 0.558078 0.632325 0.000000
Si Si4 0.826486 0.291227 0.306585
Si Si5 0.000000 0.749521 0.176258
Si Si6 0.906543 0.122236 0.690922
Si Si7 0.000000 0.500000 0.755765
Si Si8 0.383231 0.631901 0.681668
O O1 0.261590 0.500000 0.765255
O O2 0.228809 0.294875 0.774122
O O3 0.324645 0.332768 0.707967
O O4 0.292017 0.365244 0.000000
O O5 0.137332 0.500000 0.500000
O O6 0.137244 0.390028 0.764607
O O7 0.053037 0.500000 0.658728
O O8 0.583277 0.680243 0.832335
O O9 0.563242 0.500000 0.000000
O O10 0.500000 0.671765 0.000000
O O11 0.821080 0.297446 0.500000
O O12 0.853161 0.176069 0.251861
O O13 0.950906 0.791325 0.270798
O O14 0.000000 0.616072 0.147045
O O15 0.000000 0.806169 0.000000
O O16 0.906256 0.107070 0.500000
O O17 0.913575 0.000000 0.772691
O O18 0.400444 0.674573 0.500000
O O19 0.387878 0.500000 0.686439
#
# Coordination Sequence:
#
# PCOD8193873 Si02
#       8
#     8   4   4   8   4   8   2   8
#     4  10  18  28  43  65  93 123 152 194 247 298
#     4  10  19  31  51  74  95 118 153 193 238 297
#     4   9  16  26  38  56  86 122 167 215 250 285
#     4  10  19  32  49  72  93 115 151 195 242 294
#     4  12  25  38  54  75  98 123 151 191 243 298
#     4  10  22  40  58  73  92 122 161 199 236 289
#     4  12  22  38  52  74 101 128 149 184 251 310
#     4   9  16  26  40  58  84 121 163 205 251 298
#
# _framework density 17.700130999999999
#
# number of rings (size 3 to 8) (size 9 to 14) (size 15 to 20)
#    0.000    2.000    3.478    1.304    0.000    3.826 
#    0.000    1.739    0.000    0.000    0.000    0.000 
#    0.000    0.000    0.000    0.000    0.000    1.739 
#
# Total GULP energy -569910.566273 kJ/mol
# GULP energy per Si atom -12389.360136 kJ/mol
# Density = 1.765984 g / cm^3
# Si number density = 17.700131 Si / 1000 Ang^3
#
#
#
# Elastic Constant Matrix: (Units=GPa)
#
#
# Indices 1 2 3 4 5 6 
#
# 1 116.9030 28.7635 47.1399 0.0000 0.0000 0.0000
# 2 28.7635 74.8387 20.6829 0.0000 0.0000 0.0000
# 3 47.1399 20.6829 79.2991 0.0000 0.0000 0.0000
# 4 0.0000 0.0000 0.0000 4.4609 0.0000 0.0000
# 5 0.0000 0.0000 0.0000 0.0000 23.6021 0.0000
# 6 0.0000 0.0000 0.0000 0.0000 0.0000 7.6361
#
#
#
# Elastic Compliance Matrix: (Units=1/GPa)
#
#
# Indices 1 2 3 4 5 6 
#
# 1 0.011768 -0.002791 -0.006268 0.000000 0.000000 0.000000
# 2 -0.002791 0.015062 -0.002269 0.000000 0.000000 0.000000
# 3 -0.006268 -0.002269 0.016928 0.000000 0.000000 0.000000
# 4 0.000000 0.000000 0.000000 0.224168 0.000000 0.000000
# 5 0.000000 0.000000 0.000000 0.000000 0.042369 0.000000
# 6 0.000000 0.000000 0.000000 0.000000 0.000000 0.130957
#
#
# Mechanical properties :
#
#
# Convention : Reuss Voigt Hill
#
# Bulk Modulus (GPa) = 47.38809 51.57927 49.48368
# Shear Modulus (GPa) = 10.61702 18.77012 14.69357
#
# Velocity S-wave (km/s) = 2.45179 3.25999 2.88434
# Velocity P-wave (km/s) = 5.90304 6.58589 6.25379
#
# Compressibility (1/GPa) = 0.02110235
#
# Stress axis : x y z
#
# Youngs Moduli (GPa) = 84.97496 66.39273 59.07259
#
# Poissons Ratio (x) = 0.18529 0.37025
# Poissons Ratio (y) = 0.23715 0.13406
# Poissons Ratio (z) = 0.53260 0.15068
#
# Static dielectric constant tensor:
#      x y z
#    x 3.217040 0.000000 0.000000 
#    y 0.000000 3.084730 0.000000 
#    z 0.000000 0.000000 3.297260 
# 
# 
# High freq. dielectric constant tensor:
#      x y z
#    x 1.679690 0.000000 0.000000 
#    y 0.000000 1.625330 0.000000 
#    z 0.000000 0.000000 1.684540 
# 
# From -- ./inp_files/12407.got.cif
#   From: 2010.03.12/outbox.cif.g09.slc.cpg/sg47_7_cif.got.tgz:12407.got - 2010.04.14 03:12:58.
