data_PCOD8193892
_publ_section_title
;
Structure prediction by ZEFSAII (Michael W. Deem and Ramdas Pophale) SiO2 
 PCOD8193892
Probable space group: P M M M
;
_chemical_formula_sum "Si O2"
_cell_formula_units_Z 64
_cell_length_a 23.874232
_cell_length_b 19.022129
_cell_length_c 8.936523
_cell_angle_alpha 90.000000
_cell_angle_beta 90.000000
_cell_angle_gamma 90.000000
_cell_volume 4058.421124
_symmetry_space_group_name_H-M "P M M M"
_symmetry_group_IT_number 47
_symmetry_cell_setting 'orthorhombic'
loop_
_space_group_symop_operation_xyz
x,y,z
-x,-y,z
x,-y,-z
-x,y,-z
-x,-y,-z
x,y,-z
-x,y,z
x,-y,z
loop_
_atom_site_type_symbol
_atom_site_label
_atom_site_fract_x
_atom_site_fract_y
_atom_site_fract_z
Si Si1 0.767063 0.787601 0.176452
Si Si2 0.717901 0.419712 0.176963
Si Si3 0.938553 0.420437 0.821882
Si Si4 0.666634 0.292976 0.325034
Si Si5 0.740401 0.921265 0.324656
Si Si6 0.622589 0.920718 0.828087
Si Si7 0.169745 0.346491 0.823780
Si Si8 0.436956 0.799714 0.671619
O O1 0.709274 0.759746 0.244740
O O2 0.780712 0.864614 0.243553
O O3 0.817629 0.734530 0.219657
O O4 0.759611 0.792495 0.000000
O O5 0.707653 0.500000 0.224313
O O6 0.671545 0.371408 0.257608
O O7 0.779527 0.395849 0.233123
O O8 0.712390 0.408894 0.000000
O O9 0.927422 0.500000 0.768198
O O10 0.889498 0.371167 0.752623
O O11 0.000000 0.395079 0.764707
O O12 0.937621 0.417532 0.000000
O O13 0.680476 0.294705 0.500000
O O14 0.604172 0.265164 0.291533
O O15 0.742710 0.908024 0.500000
O O16 0.677414 0.908684 0.271018
O O17 0.760815 0.000000 0.283097
O O18 0.575034 0.867385 0.774062
O O19 0.599729 0.000000 0.807778
O O20 0.638361 0.905774 0.000000
O O21 0.165593 0.355386 0.000000
O O22 0.429559 0.823322 0.500000
O O23 0.500000 0.773850 0.704681
#
# Coordination Sequence:
#
# PCOD8193892 Si02
#       8
#     8   8   8   8   8   8   8   8
#     4  10  18  28  44  64  88 116 145 178 218 262
#     4   9  17  29  46  66  88 114 141 175 221 268
#     4   8  12  18  31  53  84 123 160 186 208 242
#     4  10  19  31  47  65  86 110 139 177 217 261
#     4  10  19  30  45  64  87 115 144 175 215 262
#     4  10  20  32  47  67  89 113 142 176 212 254
#     4   8  14  23  36  58  88 119 148 179 215 254
#     4  10  21  35  49  64  84 113 146 179 217 261
#
# _framework density 15.769679
#
# number of rings (size 3 to 8) (size 9 to 14) (size 15 to 20)
#    0.000    2.625    1.250    3.000    0.000    4.250 
#    0.000    1.250    0.000    0.375    0.000    2.625 
#    0.000   13.000    0.000   46.375    0.000   37.250 
#
# Total GULP energy -793331.334798 kJ/mol
# GULP energy per Si atom -12395.802106 kJ/mol
# Density = 1.573379 g / cm^3
# Si number density = 15.769679 Si / 1000 Ang^3
#
#
#
# Elastic Constant Matrix: (Units=GPa)
#
#
# Indices 1 2 3 4 5 6 
#
# 1 100.0713 66.9478 28.0367 0.0000 0.0000 0.0000
# 2 66.9478 137.3590 47.9277 0.0000 0.0000 0.0000
# 3 28.0367 47.9277 51.8668 0.0000 0.0000 0.0000
# 4 0.0000 0.0000 0.0000 24.2777 0.0000 0.0000
# 5 0.0000 0.0000 0.0000 0.0000 4.3649 0.0000
# 6 0.0000 0.0000 0.0000 0.0000 0.0000 25.4936
#
#
#
# Elastic Compliance Matrix: (Units=1/GPa)
#
#
# Indices 1 2 3 4 5 6 
#
# 1 0.014966 -0.006599 -0.001992 0.000000 0.000000 0.000000
# 2 -0.006599 0.013654 -0.009050 0.000000 0.000000 0.000000
# 3 -0.001992 -0.009050 0.028720 0.000000 0.000000 0.000000
# 4 0.000000 0.000000 0.000000 0.041190 0.000000 0.000000
# 5 0.000000 0.000000 0.000000 0.000000 0.229103 0.000000
# 6 0.000000 0.000000 0.000000 0.000000 0.000000 0.039225
#
#
# Mechanical properties :
#
#
# Convention : Reuss Voigt Hill
#
# Bulk Modulus (GPa) = 45.33597 63.90238 54.61918
# Shear Modulus (GPa) = 12.21021 20.58622 16.39822
#
# Velocity S-wave (km/s) = 2.78561 3.61699 3.22818
# Velocity P-wave (km/s) = 6.25759 7.61930 6.97177
#
# Compressibility (1/GPa) = 0.02205754
#
# Stress axis : x y z
#
# Youngs Moduli (GPa) = 66.81891 73.23616 34.81941
#
# Poissons Ratio (x) = 0.48331 0.06935
# Poissons Ratio (y) = 0.44096 0.31512
# Poissons Ratio (z) = 0.13308 0.66280
#
# Static dielectric constant tensor:
#      x y z
#    x 3.000210 0.000000 0.000000 
#    y 0.000000 3.222980 0.000000 
#    z 0.000000 0.000000 2.874830 
# 
# 
# High freq. dielectric constant tensor:
#      x y z
#    x 1.571500 0.000000 0.000000 
#    y 0.000000 1.606720 0.000000 
#    z 0.000000 0.000000 1.593400 
# 
# From -- ./inp_files/12921.got.cif
#   From: 2010.03.12/outbox.cif.g09.slc.cpg/sg47_7_cif.got.tgz:12921.got - 2010.04.14 03:12:58.
