data_PCOD8193532
_publ_section_title
;
Structure prediction by ZEFSAII (Michael W. Deem and Ramdas Pophale) SiO2 
 PCOD8193532
Probable space group: P M M M
;
_chemical_formula_sum "Si O2"
_cell_formula_units_Z 60
_cell_length_a 25.351846
_cell_length_b 18.482952
_cell_length_c 8.185957
_cell_angle_alpha 90.000000
_cell_angle_beta 90.000000
_cell_angle_gamma 90.000000
_cell_volume 3835.750786
_symmetry_space_group_name_H-M "P M M M"
_symmetry_group_IT_number 47
_symmetry_cell_setting 'orthorhombic'
loop_
_space_group_symop_operation_xyz
x,y,z
-x,-y,z
x,-y,-z
-x,y,-z
-x,-y,-z
x,y,-z
-x,y,z
x,-y,z
loop_
_atom_site_type_symbol
_atom_site_label
_atom_site_fract_x
_atom_site_fract_y
_atom_site_fract_z
Si Si1 0.333503 0.419511 0.692756
Si Si2 0.442586 0.841651 0.689295
Si Si3 0.874040 0.415599 0.814167
Si Si4 0.280039 0.210371 0.184205
Si Si5 0.609506 0.709532 0.816558
Si Si6 0.772722 0.342540 0.310885
Si Si7 0.339466 0.081089 0.306644
Si Si8 0.058875 0.585600 0.500000
O O1 0.333181 0.420945 0.500000
O O2 0.339753 0.500000 0.765716
O O3 0.383465 0.371984 0.750834
O O4 0.278273 0.386119 0.754252
O O5 0.444890 0.859323 0.500000
O O6 0.500000 0.861523 0.766850
O O7 0.432286 0.755812 0.712745
O O8 0.394902 0.888520 0.768970
O O9 0.860846 0.500000 0.787802
O O10 0.821017 0.369258 0.798260
O O11 0.913334 0.388747 0.669565
O O12 0.896696 0.403294 0.000000
O O13 0.334693 0.251736 0.199089
O O14 0.236737 0.256232 0.285834
O O15 0.289333 0.129631 0.253819
O O16 0.259632 0.204334 0.000000
O O17 0.588450 0.706736 0.000000
O O18 0.784702 0.358799 0.500000
O O19 0.343333 0.082547 0.500000
O O20 0.330588 0.000000 0.240198
O O21 0.056173 0.500000 0.500000
O O22 0.000000 0.618745 0.500000
#
# Coordination Sequence:
#
# PCOD8193532 Si02
#       8
#     8   8   8   8   8   8   8   4
#     4   9  17  27  41  60  81 106 132 161 202 253
#     4   9  17  29  45  62  78  99 128 163 204 246
#     4  10  19  29  43  64  89 118 155 199 241 276
#     4   9  17  28  41  59  82 109 140 168 201 250
#     4   9  17  28  41  57  78 102 128 160 197 243
#     4  10  17  27  43  62  87 114 142 178 220 262
#     4   9  17  29  44  62  84 108 135 166 200 244
#     4   9  18  32  46  60  84 120 161 203 242 277
#
# _framework density 15.64231
#
# number of rings (size 3 to 8) (size 9 to 14) (size 15 to 20)
#    0.000    2.733    0.667    1.600    0.000    5.600 
#    0.000    2.667    0.000    0.400    0.000    6.533 
#    0.000    0.000    0.000    0.000    0.000    1.333 
#
# Total GULP energy -743542.780379 kJ/mol
# GULP energy per Si atom -12392.379673 kJ/mol
# Density = 1.560671 g / cm^3
# Si number density = 15.642310 Si / 1000 Ang^3
#
#
#
# Elastic Constant Matrix: (Units=GPa)
#
#
# Indices 1 2 3 4 5 6 
#
# 1 47.7290 30.4803 21.0445 0.0000 0.0000 0.0000
# 2 30.4803 100.2792 17.0178 0.0000 0.0000 0.0000
# 3 21.0445 17.0178 57.1920 0.0000 0.0000 0.0000
# 4 0.0000 0.0000 0.0000 15.1406 0.0000 0.0000
# 5 0.0000 0.0000 0.0000 0.0000 13.9435 0.0000
# 6 0.0000 0.0000 0.0000 0.0000 0.0000 10.6338
#
#
#
# Elastic Compliance Matrix: (Units=1/GPa)
#
#
# Indices 1 2 3 4 5 6 
#
# 1 0.029564 -0.007520 -0.008641 0.000000 0.000000 0.000000
# 2 -0.007520 0.012415 -0.000927 0.000000 0.000000 0.000000
# 3 -0.008641 -0.000927 0.020940 0.000000 0.000000 0.000000
# 4 0.000000 0.000000 0.000000 0.066048 0.000000 0.000000
# 5 0.000000 0.000000 0.000000 0.000000 0.071718 0.000000
# 6 0.000000 0.000000 0.000000 0.000000 0.000000 0.094040
#
#
# Mechanical properties :
#
#
# Convention : Reuss Voigt Hill
#
# Bulk Modulus (GPa) = 34.79012 38.03170 36.41091
# Shear Modulus (GPa) = 14.77188 17.05409 15.91299
#
# Velocity S-wave (km/s) = 3.07637 3.30548 3.19298
# Velocity P-wave (km/s) = 5.90830 6.23974 6.07628
#
# Compressibility (1/GPa) = 0.02874379
#
# Stress axis : x y z
#
# Youngs Moduli (GPa) = 33.82539 80.54694 47.75467
#
# Poissons Ratio (x) = 0.60568 0.41264
# Poissons Ratio (y) = 0.25435 0.04428
# Poissons Ratio (z) = 0.29228 0.07469
#
# Static dielectric constant tensor:
#      x y z
#    x 2.823930 0.000000 0.000000 
#    y 0.000000 3.097080 0.000000 
#    z 0.000000 0.000000 2.993350 
# 
# 
# High freq. dielectric constant tensor:
#      x y z
#    x 1.554680 0.000000 0.000000 
#    y 0.000000 1.580600 0.000000 
#    z 0.000000 0.000000 1.604840 
# 
# From -- ./inp_files/12885.got.cif
#   From: 2010.03.12/outbox.cif.g09.slc.cpg/sg47_7_cif.got.tgz:12885.got - 2010.04.14 03:12:58.
