data_PCOD8193679
_publ_section_title
;
Structure prediction by ZEFSAII (Michael W. Deem and Ramdas Pophale) SiO2 
 PCOD8193679
Probable space group: P M M M
;
_chemical_formula_sum "Si O2"
_cell_formula_units_Z 52
_cell_length_a 7.955477
_cell_length_b 10.894482
_cell_length_c 28.796762
_cell_angle_alpha 90.000000
_cell_angle_beta 90.000000
_cell_angle_gamma 90.000000
_cell_volume 2495.838428
_symmetry_space_group_name_H-M "P M M M"
_symmetry_group_IT_number 47
_symmetry_cell_setting 'orthorhombic'
loop_
_space_group_symop_operation_xyz
x,y,z
-x,-y,z
x,-y,-z
-x,y,-z
-x,-y,-z
x,y,-z
-x,y,z
x,-y,z
loop_
_atom_site_type_symbol
_atom_site_label
_atom_site_fract_x
_atom_site_fract_y
_atom_site_fract_z
Si Si1 0.186895 0.639559 0.857959
Si Si2 0.191308 0.639471 0.677794
Si Si3 0.689218 0.255939 0.767245
Si Si4 0.302033 0.000000 0.799136
Si Si5 0.000000 0.143690 0.448846
Si Si6 0.309079 0.857577 0.384277
Si Si7 0.800280 0.755059 0.948989
Si Si8 0.194243 0.000000 0.095832
O O1 0.178308 0.500000 0.844339
O O2 0.307024 0.702187 0.820694
O O3 0.254820 0.653941 0.910747
O O4 0.000000 0.699613 0.854464
O O5 0.259217 0.500000 0.666565
O O6 0.197320 0.661061 0.733362
O O7 0.295335 0.752847 0.655450
O O8 0.000000 0.647824 0.660650
O O9 0.500000 0.266458 0.748683
O O10 0.752683 0.115485 0.767653
O O11 0.500000 0.000000 0.808671
O O12 0.214507 0.000000 0.848956
O O13 0.171826 0.181959 0.422713
O O14 0.000000 0.206375 0.500000
O O15 0.000000 0.000000 0.455176
O O16 0.500000 0.850872 0.404205
O O17 0.275096 0.000000 0.367113
O O18 0.000000 0.758806 0.953732
O O19 0.724810 0.881694 0.928759
O O20 0.722492 0.726361 0.000000
O O21 0.000000 0.000000 0.083936
#
# Coordination Sequence:
#
# PCOD8193679 Si02
#       8
#     8   8   8   4   4   8   8   4
#     4  10  20  34  52  74 101 133 174 222 268 327
#     4  11  24  41  62  89 123 164 209 258 314 377
#     4  11  23  38  56  79 109 145 187 234 290 353
#     4  10  22  37  53  77 108 138 174 229 285 342
#     4   9  18  36  63  97 139 181 225 277 330 379
#     4  10  21  38  63  96 134 175 222 273 326 381
#     4   9  17  29  48  75 101 124 158 209 268 329
#     4  10  17  30  54  76  96 124 164 208 265 331
#
# _framework density 20.834679999999999
#
# number of rings (size 3 to 8) (size 9 to 14) (size 15 to 20)
#    0.000    1.923    2.308    1.615    1.077    5.538 
#    0.000    3.077    0.000    3.231    0.000    2.154 
#    0.000    0.000    0.000    0.000    0.000    0.000 
#
# Total GULP energy -644274.716569 kJ/mol
# GULP energy per Si atom -12389.898396 kJ/mol
# Density = 2.078726 g / cm^3
# Si number density = 20.834680 Si / 1000 Ang^3
#
#
#
# Elastic Constant Matrix: (Units=GPa)
#
#
# Indices 1 2 3 4 5 6 
#
# 1 67.7700 28.3014 33.0932 0.0000 0.0000 0.0000
# 2 28.3014 116.1771 44.2927 0.0000 0.0000 0.0000
# 3 33.0932 44.2927 102.4522 0.0000 0.0000 0.0000
# 4 0.0000 0.0000 0.0000 18.2106 0.0000 0.0000
# 5 0.0000 0.0000 0.0000 0.0000 12.9298 0.0000
# 6 0.0000 0.0000 0.0000 0.0000 0.0000 19.2558
#
#
#
# Elastic Compliance Matrix: (Units=1/GPa)
#
#
# Indices 1 2 3 4 5 6 
#
# 1 0.018161 -0.002619 -0.004734 0.000000 0.000000 0.000000
# 2 -0.002619 0.010684 -0.003773 0.000000 0.000000 0.000000
# 3 -0.004734 -0.003773 0.012921 0.000000 0.000000 0.000000
# 4 0.000000 0.000000 0.000000 0.054913 0.000000 0.000000
# 5 0.000000 0.000000 0.000000 0.000000 0.077341 0.000000
# 6 0.000000 0.000000 0.000000 0.000000 0.000000 0.051932
#
#
# Mechanical properties :
#
#
# Convention : Reuss Voigt Hill
#
# Bulk Modulus (GPa) = 51.24557 55.30824 53.27690
# Shear Modulus (GPa) = 19.63022 22.12671 20.87846
#
# Velocity S-wave (km/s) = 3.07284 3.26239 3.16903
# Velocity P-wave (km/s) = 6.10242 6.38708 6.24637
#
# Compressibility (1/GPa) = 0.01951388
#
# Stress axis : x y z
#
# Youngs Moduli (GPa) = 55.06213 93.59727 77.39419
#
# Poissons Ratio (x) = 0.24517 0.36637
# Poissons Ratio (y) = 0.14423 0.29200
# Poissons Ratio (z) = 0.26066 0.35313
#
# Static dielectric constant tensor:
#      x y z
#    x 3.590160 0.000000 0.000000 
#    y 0.000000 3.932070 0.000000 
#    z 0.000000 0.000000 3.737000 
# 
# 
# High freq. dielectric constant tensor:
#      x y z
#    x 1.795350 0.000000 0.000000 
#    y 0.000000 1.814730 0.000000 
#    z 0.000000 0.000000 1.797410 
# 
# From -- ./inp_files/33287.got.cif
#   From: 2010.03.12/outbox.cif.g09.slc.cpg/sg47_17_cif.got.tgz:33287.got - 2010.04.14 03:12:58.
