data_PCOD8193282
_publ_section_title
;
Structure prediction by ZEFSAII (Michael W. Deem and Ramdas Pophale) SiO2 
 PCOD8193282
Probable space group: I M A 2
;
_chemical_formula_sum "Si O2"
_cell_formula_units_Z 48
_cell_length_a 22.811803
_cell_length_b 9.973913
_cell_length_c 9.528950
_cell_angle_alpha 90.000000
_cell_angle_beta 90.000000
_cell_angle_gamma 90.000000
_cell_volume 2168.054705
_symmetry_space_group_name_H-M "I M A 2"
_symmetry_group_IT_number 46
_symmetry_cell_setting 'orthorhombic'
loop_
_space_group_symop_operation_xyz
x,y,z
-x,-y,z
1/2-x,y,z
1/2+x,-y,z
1/2+x,1/2+y,1/2+z
1/2-x,1/2-y,1/2+z
-x,1/2+y,1/2+z
x,1/2-y,1/2+z
loop_
_atom_site_type_symbol
_atom_site_label
_atom_site_fract_x
_atom_site_fract_y
_atom_site_fract_z
Si Si1 0.454597 0.213833 0.477080
Si Si2 0.569100 0.519428 0.614070
Si Si3 0.750000 0.173621 0.790153
Si Si4 0.250000 0.930892 0.469457
Si Si5 0.871589 0.487111 0.907431
Si Si6 0.981134 0.148206 0.735268
Si Si7 0.626323 0.178679 0.899533
O O1 0.419080 0.340129 0.536784
O O2 0.510675 0.178551 0.572074
O O3 0.478840 0.243469 0.321338
O O4 0.414749 0.081958 0.494977
O O5 0.500000 0.500000 0.649979
O O6 0.611226 0.511118 0.747053
O O7 0.590532 0.401933 0.514379
O O8 0.750000 0.147420 0.621637
O O9 0.750000 0.330442 0.833622
O O10 0.690271 0.115673 0.861907
O O11 0.305365 0.029953 0.448066
O O12 0.871690 0.331483 0.952119
O O13 0.912524 0.172387 0.758400
O O14 0.000000 0.000000 0.785055
#
# Coordination Sequence:
#
# PCOD8193282 Si02
#       7
#     8   8   4   4   8   8   8
#     4  12  25  45  67 106 140 189 229 290 362 435
#     4  12  24  46  70 110 147 183 237 299 364 435
#     4  10  26  44  73 105 140 192 246 296 350 424
#     4  10  26  50  69 105 144 188 246 300 354 430
#     4  11  28  43  75 101 147 183 246 295 359 423
#     4  12  26  41  71 103 144 184 230 291 363 428
#     4  11  25  43  72 104 142 185 236 298 354 426
#
# _framework density 22.139662999999999
#
# number of rings (size 3 to 8) (size 9 to 14) (size 15 to 20)
#    0.000    0.667    5.000    1.000   14.000    0.000 
#    0.000    1.667    0.000    0.000    0.000    0.000 
#    0.000    0.000    0.000    0.000    0.000    0.000 
#
# Total GULP energy -297470.203231 kJ/mol
# GULP energy per Si atom -12394.591801 kJ/mol
# Density = 2.208927 g / cm^3
# Si number density = 22.139663 Si / 1000 Ang^3
#
#
#
# Elastic Constant Matrix: (Units=GPa)
#
#
# Indices 1 2 3 4 5 6 
#
# 1 142.4790 40.0749 29.4216 0.0000 0.0000 0.0000
# 2 40.0749 99.3516 20.8831 0.0000 0.0000 0.0000
# 3 29.4216 20.8831 91.0595 0.0000 0.0000 0.0000
# 4 0.0000 0.0000 0.0000 22.5539 0.0000 0.0000
# 5 0.0000 0.0000 0.0000 0.0000 30.2272 0.0000
# 6 0.0000 0.0000 0.0000 0.0000 0.0000 30.3568
#
#
#
# Elastic Compliance Matrix: (Units=1/GPa)
#
#
# Indices 1 2 3 4 5 6 
#
# 1 0.008249 -0.002907 -0.001999 0.000000 0.000000 0.000000
# 2 -0.002907 0.011600 -0.001721 0.000000 0.000000 0.000000
# 3 -0.001999 -0.001721 0.012022 0.000000 0.000000 0.000000
# 4 0.000000 0.000000 0.000000 0.044338 0.000000 0.000000
# 5 0.000000 0.000000 0.000000 0.000000 0.033083 0.000000
# 6 0.000000 0.000000 0.000000 0.000000 0.000000 0.032942
#
#
# Mechanical properties :
#
#
# Convention : Reuss Voigt Hill
#
# Bulk Modulus (GPa) = 53.71279 57.07217 55.39248
# Shear Modulus (GPa) = 30.92287 32.79494 31.85890
#
# Velocity S-wave (km/s) = 3.74132 3.85291 3.79753
# Velocity P-wave (km/s) = 6.55568 6.75481 6.65599
#
# Compressibility (1/GPa) = 0.01861754
#
# Stress axis : x y z
#
# Youngs Moduli (GPa) = 121.22683 86.20938 83.17930
#
# Poissons Ratio (x) = 0.25063 0.16624
# Poissons Ratio (y) = 0.35244 0.14314
# Poissons Ratio (z) = 0.24228 0.14835
#
# Static dielectric constant tensor:
#      x y z
#    x 4.450690 0.000000 0.000000 
#    y 0.000000 4.182920 0.000000 
#    z 0.000000 0.000000 4.010550 
# 
# 
# High freq. dielectric constant tensor:
#      x y z
#    x 1.871960 0.000000 0.000000 
#    y 0.000000 1.862390 0.000000 
#    z 0.000000 0.000000 1.880960 
# 
# From -- ./inp_files/7852.got.cif
#   From: 2010.03.12/outbox.cif.g09.slc.cpg/sg46_4_cif.got.tgz:7852.got - 2010.04.14 02:56:35.
