data_PCOD8193232
_publ_section_title
;
Structure prediction by ZEFSAII (Michael W. Deem and Ramdas Pophale) SiO2 
 PCOD8193232
Probable space group: I M A 2
;
_chemical_formula_sum "Si O2"
_cell_formula_units_Z 48
_cell_length_a 8.931300
_cell_length_b 27.726367
_cell_length_c 9.729866
_cell_angle_alpha 90.000000
_cell_angle_beta 90.000000
_cell_angle_gamma 90.000000
_cell_volume 2409.431058
_symmetry_space_group_name_H-M "I M A 2"
_symmetry_group_IT_number 46
_symmetry_cell_setting 'orthorhombic'
loop_
_space_group_symop_operation_xyz
x,y,z
-x,-y,z
1/2-x,y,z
1/2+x,-y,z
1/2+x,1/2+y,1/2+z
1/2-x,1/2-y,1/2+z
-x,1/2+y,1/2+z
x,1/2-y,1/2+z
loop_
_atom_site_type_symbol
_atom_site_label
_atom_site_fract_x
_atom_site_fract_y
_atom_site_fract_z
Si Si1 0.927791 0.715453 0.155990
Si Si2 0.917387 0.401588 0.512312
Si Si3 0.076670 0.050441 0.774399
Si Si4 0.923907 0.291628 0.457174
Si Si5 0.574428 0.614384 0.026096
Si Si6 0.078072 0.948389 0.305582
O O1 0.750000 0.720647 0.177699
O O2 0.967980 0.669006 0.063743
O O3 0.002465 0.712409 0.306413
O O4 0.991301 0.759597 0.069158
O O5 0.750000 0.412499 0.456348
O O6 0.940967 0.344542 0.522335
O O7 0.942843 0.429772 0.652553
O O8 0.043328 0.422302 0.414297
O O9 0.250000 0.041674 0.761689
O O10 0.015089 0.082279 0.650878
O O11 0.000000 0.000000 0.768014
O O12 0.750000 0.276444 0.444935
O O13 0.750000 0.608924 0.000587
O O14 0.489826 0.595409 0.892915
O O15 0.250000 0.955623 0.346102
O O16 0.000000 0.000000 0.329829
#
# Coordination Sequence:
#
# PCOD8193232 Si02
#       6
#     8   8   8   8   8   8
#     4  11  24  44  67  97 130 167 213 263 321 384
#     4  10  23  42  63  91 125 163 208 257 312 374
#     4  11  22  38  62  91 123 160 206 255 310 372
#     4  11  24  43  67  97 130 168 213 263 321 384
#     4  10  23  42  63  91 125 163 209 257 312 375
#     4  11  24  41  62  91 127 167 213 259 312 373
#
# _framework density 19.921714999999999
#
# number of rings (size 3 to 8) (size 9 to 14) (size 15 to 20)
#    0.000    1.333    1.667    3.000    2.333    7.333 
#    0.000    0.000    0.000    0.000    0.000    0.000 
#    0.000    0.000    0.000    0.000    0.000    0.000 
#
# Total GULP energy -297614.418111 kJ/mol
# GULP energy per Si atom -12400.600755 kJ/mol
# Density = 1.987637 g / cm^3
# Si number density = 19.921715 Si / 1000 Ang^3
#
#
#
# Elastic Constant Matrix: (Units=GPa)
#
#
# Indices 1 2 3 4 5 6 
#
# 1 65.1642 25.5608 18.4224 0.0006 -0.0001 -0.0004
# 2 25.5608 90.8793 5.6455 0.0007 0.0000 -0.0001
# 3 18.4224 5.6455 39.2630 0.0002 0.0010 0.0014
# 4 0.0006 0.0007 0.0002 42.4346 0.0001 0.0003
# 5 -0.0001 0.0000 0.0010 0.0001 37.9337 -0.0004
# 6 -0.0004 -0.0001 0.0014 0.0003 -0.0004 36.9224
#
#
#
# Elastic Compliance Matrix: (Units=1/GPa)
#
#
# Indices 1 2 3 4 5 6 
#
# 1 0.019727 -0.005018 -0.008534 0.000000 0.000000 0.000001
# 2 -0.005018 0.012379 0.000575 0.000000 0.000000 0.000000
# 3 -0.008534 0.000575 0.029391 0.000000 -0.000001 -0.000001
# 4 0.000000 0.000000 0.000000 0.023566 0.000000 0.000000
# 5 0.000000 0.000000 -0.000001 0.000000 0.026362 0.000000
# 6 0.000001 0.000000 -0.000001 0.000000 0.000000 0.027084
#
#
# Mechanical properties :
#
#
# Convention : Reuss Voigt Hill
#
# Bulk Modulus (GPa) = 28.13639 32.72935 30.43287
# Shear Modulus (GPa) = 28.35880 33.16999 30.76440
#
# Velocity S-wave (km/s) = 3.77704 4.08489 3.93398
# Velocity P-wave (km/s) = 5.75982 6.22198 5.99536
#
# Compressibility (1/GPa) = 0.03554116
#
# Stress axis : x y z
#
# Youngs Moduli (GPa) = 50.69181 80.77961 34.02398
#
# Poissons Ratio (x) = 0.40538 0.29038
# Poissons Ratio (y) = 0.25439 -0.01955
# Poissons Ratio (z) = 0.43263 -0.04642
#
# Static dielectric constant tensor:
#      x y z
#    x 3.810020 0.000000 0.000000 
#    y 0.000000 3.780560 0.000000 
#    z 0.000000 0.000000 3.670110 
# 
# 
# High freq. dielectric constant tensor:
#      x y z
#    x 1.787100 0.000000 0.000000 
#    y 0.000000 1.794620 0.000000 
#    z 0.000000 0.000000 1.785860 
# 
# From -- ./inp_files/3886.got.cif
#   From: 2010.03.12/outbox.cif.g09.slc.cpg/sg46_2_cif.got.tgz:3886.got - 2010.04.14 02:56:35.
