data_PCOD8193635
_publ_section_title
;
Structure prediction by ZEFSAII (Michael W. Deem and Ramdas Pophale) SiO2 
 PCOD8193635
Probable space group: P M M M
;
_chemical_formula_sum "Si O2"
_cell_formula_units_Z 64
_cell_length_a 19.907930
_cell_length_b 8.939193
_cell_length_c 20.940160
_cell_angle_alpha 90.000000
_cell_angle_beta 90.000000
_cell_angle_gamma 90.000000
_cell_volume 3726.528223
_symmetry_space_group_name_H-M "P M M M"
_symmetry_group_IT_number 47
_symmetry_cell_setting 'orthorhombic'
loop_
_space_group_symop_operation_xyz
x,y,z
-x,-y,z
x,-y,-z
-x,y,-z
-x,-y,-z
x,y,-z
-x,y,z
x,-y,z
loop_
_atom_site_type_symbol
_atom_site_label
_atom_site_fract_x
_atom_site_fract_y
_atom_site_fract_z
Si Si1 0.427376 0.822656 0.235303
Si Si2 0.286120 0.178269 0.807024
Si Si3 0.926697 0.176934 0.871696
Si Si4 0.213658 0.325939 0.686789
Si Si5 0.208242 0.178042 0.069951
Si Si6 0.074391 0.328993 0.739609
Si Si7 0.572800 0.822486 0.379231
Si Si8 0.712751 0.175521 0.571956
O O1 0.500000 0.764402 0.208528
O O2 0.364211 0.768677 0.193051
O O3 0.416925 0.763015 0.307198
O O4 0.428598 0.000000 0.236687
O O5 0.247784 0.246705 0.746979
O O6 0.256114 0.239726 0.873804
O O7 0.279327 0.000000 0.801556
O O8 0.868046 0.235363 0.918305
O O9 0.910400 0.226970 0.800262
O O10 0.000000 0.238006 0.894131
O O11 0.927076 0.000000 0.871472
O O12 0.231706 0.500000 0.689874
O O13 0.132979 0.298417 0.688107
O O14 0.238384 0.260038 0.620016
O O15 0.210455 0.000000 0.070956
O O16 0.231392 0.237322 0.000000
O O17 0.077383 0.500000 0.762995
O O18 0.000000 0.292860 0.710699
O O19 0.500000 0.764362 0.405557
O O20 0.635772 0.765457 0.420798
O O21 0.571653 0.000000 0.379864
O O22 0.736444 0.210128 0.500000
O O23 0.716321 0.000000 0.587509
#
# Coordination Sequence:
#
# PCOD8193635 Si02
#       8
#     8   8   8   8   8   8   8   8
#     4   8  13  22  41  68  91 115 153 198 236 270
#     4  10  17  29  50  69  91 124 160 199 236 277
#     4   9  16  26  43  67  93 122 155 189 226 274
#     4  11  21  32  50  73  96 122 154 195 237 279
#     4   9  17  27  41  66  97 127 158 193 235 279
#     4   9  18  32  49  69  93 120 152 192 235 277
#     4   8  13  23  42  69  97 122 154 193 226 263
#     4  10  20  33  50  72  98 128 160 192 229 276
#
# _framework density 17.174161999999999
#
# number of rings (size 3 to 8) (size 9 to 14) (size 15 to 20)
#    0.000    2.750    2.500    1.125    0.000    1.250 
#    0.000    2.500    0.000    3.750    0.000    7.875 
#    0.000    0.000    0.000    1.125    0.000    1.250 
#
# Total GULP energy -792902.613111 kJ/mol
# GULP energy per Si atom -12389.103330 kJ/mol
# Density = 1.713507 g / cm^3
# Si number density = 17.174162 Si / 1000 Ang^3
#
#
#
# Elastic Constant Matrix: (Units=GPa)
#
#
# Indices 1 2 3 4 5 6 
#
# 1 134.8699 23.6715 70.5723 0.0000 0.0000 0.0000
# 2 23.6715 18.2055 20.2196 0.0000 0.0000 0.0000
# 3 70.5723 20.2196 108.7122 0.0000 0.0000 0.0000
# 4 0.0000 0.0000 0.0000 4.8839 0.0000 0.0000
# 5 0.0000 0.0000 0.0000 0.0000 25.8738 0.0000
# 6 0.0000 0.0000 0.0000 0.0000 0.0000 13.6757
#
#
#
# Elastic Compliance Matrix: (Units=1/GPa)
#
#
# Indices 1 2 3 4 5 6 
#
# 1 0.012291 -0.008973 -0.006310 0.000000 0.000000 0.000000
# 2 -0.008973 0.075780 -0.008269 0.000000 0.000000 0.000000
# 3 -0.006310 -0.008269 0.014833 0.000000 0.000000 0.000000
# 4 0.000000 0.000000 0.000000 0.204754 0.000000 0.000000
# 5 0.000000 0.000000 0.000000 0.000000 0.038649 0.000000
# 6 0.000000 0.000000 0.000000 0.000000 0.000000 0.073122
#
#
# Mechanical properties :
#
#
# Convention : Reuss Voigt Hill
#
# Bulk Modulus (GPa) = 17.92150 54.52380 36.22265
# Shear Modulus (GPa) = 10.30640 18.70831 14.50735
#
# Velocity S-wave (km/s) = 2.45237 3.30408 2.90956
# Velocity P-wave (km/s) = 4.29845 6.80973 5.69425
#
# Compressibility (1/GPa) = 0.05579891
#
# Stress axis : x y z
#
# Youngs Moduli (GPa) = 81.35780 13.19604 67.41748
#
# Poissons Ratio (x) = 0.11841 0.42542
# Poissons Ratio (y) = 0.73006 0.55749
# Poissons Ratio (z) = 0.51338 0.10912
#
# Static dielectric constant tensor:
#      x y z
#    x 3.854460 0.000000 0.000000 
#    y 0.000000 2.841100 0.000000 
#    z 0.000000 0.000000 3.119570 
# 
# 
# High freq. dielectric constant tensor:
#      x y z
#    x 1.678720 0.000000 0.000000 
#    y 0.000000 1.620200 0.000000 
#    z 0.000000 0.000000 1.634420 
# 
# From -- ./inp_files/11873.got.cif
#   From: 2010.03.12/outbox.cif.g09.slc.cpg/sg47_6_cif.got.tgz:11873.got - 2010.04.14 03:12:58.
