data_PCOD8193710
_publ_section_title
;
Structure prediction by ZEFSAII (Michael W. Deem and Ramdas Pophale) SiO2 
 PCOD8193710
Probable space group: P M M M
;
_chemical_formula_sum "Si O2"
_cell_formula_units_Z 52
_cell_length_a 13.604838
_cell_length_b 11.594692
_cell_length_c 21.549419
_cell_angle_alpha 90.000000
_cell_angle_beta 90.000000
_cell_angle_gamma 90.000000
_cell_volume 3399.289532
_symmetry_space_group_name_H-M "P M M M"
_symmetry_group_IT_number 47
_symmetry_cell_setting 'orthorhombic'
loop_
_space_group_symop_operation_xyz
x,y,z
-x,-y,z
x,-y,-z
-x,y,-z
-x,-y,-z
x,y,-z
-x,y,z
x,-y,z
loop_
_atom_site_type_symbol
_atom_site_label
_atom_site_fract_x
_atom_site_fract_y
_atom_site_fract_z
Si Si1 0.270376 0.865891 0.429979
Si Si2 0.607657 0.864119 0.313721
Si Si3 0.883570 0.869824 0.000000
Si Si4 0.112961 0.741115 0.643368
Si Si5 0.883536 0.748178 0.125233
Si Si6 0.798310 0.863482 0.244371
Si Si7 0.883282 0.500000 0.695092
Si Si8 0.884489 0.500000 0.165997
O O1 0.304278 0.838574 0.500000
O O2 0.357822 0.830444 0.383303
O O3 0.173500 0.792585 0.414011
O O4 0.243148 0.000000 0.421423
O O5 0.500000 0.807872 0.301113
O O6 0.688416 0.821138 0.263829
O O7 0.598261 0.000000 0.308503
O O8 0.847150 0.800105 0.060126
O O9 0.000000 0.876061 0.000000
O O10 0.840122 0.000000 0.000000
O O11 0.124284 0.817948 0.705140
O O12 0.152631 0.612602 0.658178
O O13 0.000000 0.739515 0.623072
O O14 0.824174 0.815517 0.177461
O O15 0.852975 0.613582 0.127691
O O16 0.000000 0.765633 0.135355
O O17 0.805546 0.000000 0.242998
O O18 0.837580 0.500000 0.764842
O O19 0.000000 0.500000 0.700779
O O20 0.000000 0.500000 0.174453
#
# Coordination Sequence:
#
# PCOD8193710 Si02
#       8
#     8   8   4   8   8   8   4   4
#     4   9  18  30  43  63  88 112 141 171 207 263
#     4   8  15  28  44  63  86 108 135 175 218 259
#     4   9  18  29  39  57  90 129 157 176 207 250
#     4  10  18  28  42  60  84 113 143 178 214 249
#     4  10  18  28  42  61  89 121 153 183 209 245
#     4  10  18  26  41  65  87 110 142 176 217 264
#     4   9  16  28  42  58  80 110 148 185 216 246
#     4   9  16  27  42  60  82 114 154 189 218 241
#
# _framework density 15.297314
#
# number of rings (size 3 to 8) (size 9 to 14) (size 15 to 20)
#    0.000    2.692    1.538    2.308    0.000    3.692 
#    0.000    4.231    0.000    1.385    0.000   14.000 
#    0.000    8.000    0.000    1.385    0.000    0.615 
#
# Total GULP energy -644566.910318 kJ/mol
# GULP energy per Si atom -12395.517506 kJ/mol
# Density = 1.526250 g / cm^3
# Si number density = 15.297314 Si / 1000 Ang^3
#
#
#
# Elastic Constant Matrix: (Units=GPa)
#
#
# Indices 1 2 3 4 5 6 
#
# 1 64.6107 23.7469 31.5351 0.0000 0.0000 0.0000
# 2 23.7469 92.3875 38.6306 0.0000 0.0000 0.0000
# 3 31.5351 38.6306 101.6522 0.0000 0.0000 0.0000
# 4 0.0000 0.0000 0.0000 22.9402 0.0000 0.0000
# 5 0.0000 0.0000 0.0000 0.0000 12.1754 0.0000
# 6 0.0000 0.0000 0.0000 0.0000 0.0000 5.2315
#
#
#
# Elastic Compliance Matrix: (Units=1/GPa)
#
#
# Indices 1 2 3 4 5 6 
#
# 1 0.018851 -0.002854 -0.004764 0.000000 0.000000 0.000000
# 2 -0.002854 0.013301 -0.004169 0.000000 0.000000 0.000000
# 3 -0.004764 -0.004169 0.012900 0.000000 0.000000 0.000000
# 4 0.000000 0.000000 0.000000 0.043592 0.000000 0.000000
# 5 0.000000 0.000000 0.000000 0.000000 0.082133 0.000000
# 6 0.000000 0.000000 0.000000 0.000000 0.000000 0.191150
#
#
# Mechanical properties :
#
#
# Convention : Reuss Voigt Hill
#
# Bulk Modulus (GPa) = 46.55833 49.60840 48.08337
# Shear Modulus (GPa) = 12.73369 19.05194 15.89281
#
# Velocity S-wave (km/s) = 2.88829 3.53291 3.22674
# Velocity P-wave (km/s) = 6.45172 7.01012 6.73671
#
# Compressibility (1/GPa) = 0.02147843
#
# Stress axis : x y z
#
# Youngs Moduli (GPa) = 53.04718 75.18320 77.52065
#
# Poissons Ratio (x) = 0.21454 0.36928
# Poissons Ratio (y) = 0.15137 0.32322
# Poissons Ratio (z) = 0.25270 0.31347
#
# Static dielectric constant tensor:
#      x y z
#    x 2.848010 0.000000 0.000000 
#    y 0.000000 3.063790 0.000000 
#    z 0.000000 0.000000 2.945770 
# 
# 
# High freq. dielectric constant tensor:
#      x y z
#    x 1.545680 0.000000 0.000000 
#    y 0.000000 1.582280 0.000000 
#    z 0.000000 0.000000 1.581970 
# 
# From -- ./inp_files/31154.got.cif
#   From: 2010.03.12/outbox.cif.g09.slc.cpg/sg47_16_cif.got.tgz:31154.got - 2010.04.14 03:12:58.
