data_PCOD8193052
_publ_section_title
;
Structure prediction by ZEFSAII (Michael W. Deem and Ramdas Pophale) SiO2 
 PCOD8193052
Probable space group: I M A 2
;
_chemical_formula_sum "Si O2"
_cell_formula_units_Z 48
_cell_length_a 10.036852
_cell_length_b 8.856183
_cell_length_c 27.847719
_cell_angle_alpha 90.000000
_cell_angle_beta 90.000000
_cell_angle_gamma 90.000000
_cell_volume 2475.333562
_symmetry_space_group_name_H-M "I M A 2"
_symmetry_group_IT_number 46
_symmetry_cell_setting 'orthorhombic'
loop_
_space_group_symop_operation_xyz
x,y,z
-x,-y,z
1/2-x,y,z
1/2+x,-y,z
1/2+x,1/2+y,1/2+z
1/2-x,1/2-y,1/2+z
-x,1/2+y,1/2+z
x,1/2-y,1/2+z
loop_
_atom_site_type_symbol
_atom_site_label
_atom_site_fract_x
_atom_site_fract_y
_atom_site_fract_z
Si Si1 0.507306 0.680230 0.825520
Si Si2 0.405624 0.145977 0.530569
Si Si3 0.250000 0.169275 0.778265
Si Si4 0.250000 0.829715 0.781433
Si Si5 0.250000 0.672994 0.165628
Si Si6 0.096804 0.360054 0.924680
Si Si7 0.006624 0.178380 0.120273
Si Si8 0.250000 0.167381 0.667495
O O1 0.500000 0.500000 0.825593
O O2 0.621998 0.734109 0.790588
O O3 0.374049 0.748939 0.805324
O O4 0.542565 0.739317 0.879799
O O5 0.250000 0.107128 0.543302
O O6 0.411310 0.219497 0.476917
O O7 0.465113 0.271247 0.565825
O O8 0.500000 0.000000 0.535280
O O9 0.250000 0.138413 0.722914
O O10 0.250000 0.001582 0.800736
O O11 0.250000 0.812721 0.723649
O O12 0.374706 0.754728 0.142718
O O13 0.250000 0.501439 0.145617
O O14 0.250000 0.409487 0.913918
O O15 0.000000 0.500000 0.928909
O O16 0.122621 0.237390 0.153875
O O17 0.000000 0.000000 0.121455
#
# Coordination Sequence:
#
# PCOD8193052 Si02
#       8
#     8   8   4   4   4   8   8   4
#     4  11  22  38  63  93 122 159 205 253 306 359
#     4  10  21  40  66  93 123 164 210 250 300 371
#     4  11  23  41  62  87 124 159 206 253 306 367
#     4  11  25  41  60  91 124 165 202 255 304 365
#     4  11  25  43  64  85 122 165 214 245 296 375
#     4   9  19  36  62  93 124 160 208 257 296 359
#     4  12  25  40  61  94 126 156 196 261 319 360
#     4  11  23  43  64  85 116 167 212 247 296 373
#
# _framework density 19.391324999999998
#
# number of rings (size 3 to 8) (size 9 to 14) (size 15 to 20)
#    0.000    1.333    1.667    4.000    4.667    6.667 
#    0.000    1.667    0.000    0.000    0.000    0.000 
#    0.000    0.000    0.000    0.000    0.000    0.000 
#
# Total GULP energy -297439.884273 kJ/mol
# GULP energy per Si atom -12393.328511 kJ/mol
# Density = 1.934719 g / cm^3
# Si number density = 19.391325 Si / 1000 Ang^3
#
#
#
# Elastic Constant Matrix: (Units=GPa)
#
#
# Indices 1 2 3 4 5 6 
#
# 1 183.5202 65.9937 65.3428 0.0000 0.0000 0.0000
# 2 65.9937 137.5219 50.6499 0.0000 0.0000 0.0000
# 3 65.3428 50.6499 114.6780 0.0000 0.0000 0.0000
# 4 0.0000 0.0000 0.0000 24.4275 0.0000 0.0000
# 5 0.0000 0.0000 0.0000 0.0000 42.1861 0.0000
# 6 0.0000 0.0000 0.0000 0.0000 0.0000 50.6674
#
#
#
# Elastic Compliance Matrix: (Units=1/GPa)
#
#
# Indices 1 2 3 4 5 6 
#
# 1 0.007445 -0.002401 -0.003182 0.000000 0.000000 0.000000
# 2 -0.002401 0.009458 -0.002809 0.000000 0.000000 0.000000
# 3 -0.003182 -0.002809 0.011774 0.000000 0.000000 0.000000
# 4 0.000000 0.000000 0.000000 0.040937 0.000000 0.000000
# 5 0.000000 0.000000 0.000000 0.000000 0.023704 0.000000
# 6 0.000000 0.000000 0.000000 0.000000 0.000000 0.019737
#
#
# Mechanical properties :
#
#
# Convention : Reuss Voigt Hill
#
# Bulk Modulus (GPa) = 84.08213 88.85476 86.46844
# Shear Modulus (GPa) = 37.36779 40.37179 38.86979
#
# Velocity S-wave (km/s) = 4.39456 4.56779 4.48201
# Velocity P-wave (km/s) = 8.31892 8.58726 8.45415
#
# Compressibility (1/GPa) = 0.01189313
#
# Stress axis : x y z
#
# Youngs Moduli (GPa) = 134.31349 105.72535 84.93340
#
# Poissons Ratio (x) = 0.25384 0.27024
# Poissons Ratio (y) = 0.32248 0.23862
# Poissons Ratio (z) = 0.42736 0.29703
#
# Static dielectric constant tensor:
#      x y z
#    x 3.735040 0.000000 0.000000 
#    y 0.000000 3.473070 0.000000 
#    z 0.000000 0.000000 4.203050 
# 
# 
# High freq. dielectric constant tensor:
#      x y z
#    x 1.779380 0.000000 0.000000 
#    y 0.000000 1.730690 0.000000 
#    z 0.000000 0.000000 1.779030 
# 
# From -- ./inp_files/25070.got.cif
#   From: 2010.03.12/outbox.cif.g09.slc.cpg/sg46_13_cif.got.tgz:25070.got - 2010.04.14 02:56:35.
