data_PCOD8193371
_publ_section_title
;
Structure prediction by ZEFSAII (Michael W. Deem and Ramdas Pophale) SiO2 
 PCOD8193371
Probable space group: I M A 2
;
_chemical_formula_sum "Si O2"
_cell_formula_units_Z 64
_cell_length_a 29.730168
_cell_length_b 11.104012
_cell_length_c 8.883073
_cell_angle_alpha 90.000000
_cell_angle_beta 90.000000
_cell_angle_gamma 90.000000
_cell_volume 2932.516855
_symmetry_space_group_name_H-M "I M A 2"
_symmetry_group_IT_number 46
_symmetry_cell_setting 'orthorhombic'
loop_
_space_group_symop_operation_xyz
x,y,z
-x,-y,z
1/2-x,y,z
1/2+x,-y,z
1/2+x,1/2+y,1/2+z
1/2-x,1/2-y,1/2+z
-x,1/2+y,1/2+z
x,1/2-y,1/2+z
loop_
_atom_site_type_symbol
_atom_site_label
_atom_site_fract_x
_atom_site_fract_y
_atom_site_fract_z
Si Si1 0.962344 0.642809 0.899650
Si Si2 0.341710 0.312864 0.610304
Si Si3 0.802190 0.110348 0.616241
Si Si4 0.934523 0.111276 0.342001
Si Si5 0.077758 0.335339 0.202074
Si Si6 0.357882 0.510049 0.368576
Si Si7 0.800642 0.884476 0.419479
Si Si8 0.115702 0.728049 0.560088
O O1 0.931577 0.534129 0.832374
O O2 0.942976 0.770060 0.846245
O O3 0.012881 0.640925 0.840619
O O4 0.960834 0.629278 0.081627
O O5 0.390573 0.253694 0.606703
O O6 0.340185 0.427291 0.502374
O O7 0.306571 0.212597 0.553012
O O8 0.332355 0.353101 0.780306
O O9 0.750000 0.151134 0.619852
O O10 0.813895 0.043629 0.772148
O O11 0.833883 0.227559 0.600420
O O12 0.811567 0.018539 0.478659
O O13 0.912803 0.159525 0.497037
O O14 0.909092 0.170667 0.202379
O O15 0.105293 0.449844 0.260148
O O16 0.381735 0.628693 0.430484
O O17 0.750000 0.878905 0.360954
#
# Coordination Sequence:
#
# PCOD8193371 Si02
#       8
#     8   8   8   8   8   8   8   8
#     4  11  25  44  73 107 140 179 233 291 345 426
#     4  12  22  38  68 100 136 187 224 287 364 423
#     4  11  26  48  71  98 137 188 247 301 349 421
#     4  11  26  47  73 100 144 183 234 289 348 417
#     4  12  22  43  70 105 141 178 231 283 359 421
#     4  12  25  42  71 104 138 186 235 293 352 429
#     4  11  23  40  64  98 139 180 235 299 357 418
#     4  12  26  48  71 100 140 189 234 287 357 419
#
# _framework density 21.824255999999998
#
# number of rings (size 3 to 8) (size 9 to 14) (size 15 to 20)
#    0.000    0.500    5.000    2.625    3.500    2.500 
#    0.000    0.000    0.000    0.000    0.000    0.000 
#    0.000    0.000    0.000    0.000    0.000    0.000 
#
# Total GULP energy -396877.637867 kJ/mol
# GULP energy per Si atom -12402.426183 kJ/mol
# Density = 2.177458 g / cm^3
# Si number density = 21.824256 Si / 1000 Ang^3
#
#
#
# Elastic Constant Matrix: (Units=GPa)
#
#
# Indices 1 2 3 4 5 6 
#
# 1 102.4467 58.0140 47.6703 0.0000 0.0000 0.0000
# 2 58.0140 97.0980 40.7754 0.0000 0.0000 0.0000
# 3 47.6703 40.7754 121.5737 0.0000 0.0000 0.0000
# 4 0.0000 0.0000 0.0000 39.1193 0.0000 0.0000
# 5 0.0000 0.0000 0.0000 0.0000 30.1443 0.0000
# 6 0.0000 0.0000 0.0000 0.0000 0.0000 34.9947
#
#
#
# Elastic Compliance Matrix: (Units=1/GPa)
#
#
# Indices 1 2 3 4 5 6 
#
# 1 0.015979 -0.008050 -0.003566 0.000000 0.000000 0.000000
# 2 -0.008050 0.016042 -0.002224 0.000000 0.000000 0.000000
# 3 -0.003566 -0.002224 0.010370 0.000000 0.000000 0.000000
# 4 0.000000 0.000000 0.000000 0.025563 0.000000 0.000000
# 5 0.000000 0.000000 0.000000 0.000000 0.033174 0.000000
# 6 0.000000 0.000000 0.000000 0.000000 0.000000 0.028576
#
#
# Mechanical properties :
#
#
# Convention : Reuss Voigt Hill
#
# Bulk Modulus (GPa) = 67.97272 68.22645 68.09958
# Shear Modulus (GPa) = 30.80988 32.49558 31.65273
#
# Velocity S-wave (km/s) = 3.76137 3.86290 3.81247
# Velocity P-wave (km/s) = 7.07651 7.15721 7.11697
#
# Compressibility (1/GPa) = 0.01471179
#
# Stress axis : x y z
#
# Youngs Moduli (GPa) = 62.58353 62.33499 96.43601
#
# Poissons Ratio (x) = 0.50177 0.34385
# Poissons Ratio (y) = 0.50377 0.21450
# Poissons Ratio (z) = 0.22315 0.13865
#
# Static dielectric constant tensor:
#      x y z
#    x 3.869100 0.000000 0.000000 
#    y 0.000000 4.072460 0.000000 
#    z 0.000000 0.000000 3.923500 
# 
# 
# High freq. dielectric constant tensor:
#      x y z
#    x 1.855230 0.000000 0.000000 
#    y 0.000000 1.864770 0.000000 
#    z 0.000000 0.000000 1.867410 
# 
# From -- ./inp_files/8511.got.cif
#   From: 2010.03.12/outbox.cif.g09.slc.cpg/sg46_5_cif.got.tgz:8511.got - 2010.04.14 02:56:35.
