data_PCOD8193055
_publ_section_title
;
Structure prediction by ZEFSAII (Michael W. Deem and Ramdas Pophale) SiO2 
 PCOD8193055
Probable space group: I M A 2
;
_chemical_formula_sum "Si O2"
_cell_formula_units_Z 36
_cell_length_a 14.295726
_cell_length_b 7.694043
_cell_length_c 15.012844
_cell_angle_alpha 90.000000
_cell_angle_beta 90.000000
_cell_angle_gamma 90.000000
_cell_volume 1651.291695
_symmetry_space_group_name_H-M "I M A 2"
_symmetry_group_IT_number 46
_symmetry_cell_setting 'orthorhombic'
loop_
_space_group_symop_operation_xyz
x,y,z
-x,-y,z
1/2-x,y,z
1/2+x,-y,z
1/2+x,1/2+y,1/2+z
1/2-x,1/2-y,1/2+z
-x,1/2+y,1/2+z
x,1/2-y,1/2+z
loop_
_atom_site_type_symbol
_atom_site_label
_atom_site_fract_x
_atom_site_fract_y
_atom_site_fract_z
Si Si1 0.851413 0.924945 0.449320
Si Si2 0.060068 0.170565 0.616935
Si Si3 0.479662 0.307574 0.795658
Si Si4 0.000000 0.500000 0.517481
Si Si5 0.140764 0.684090 0.400379
O O1 0.750000 0.887728 0.407812
O O2 0.851459 0.858288 0.551815
O O3 0.925795 0.817728 0.390180
O O4 0.870833 0.130947 0.449872
O O5 0.082751 0.207537 0.721168
O O6 0.003747 0.334488 0.580626
O O7 0.000000 0.000000 0.605939
O O8 0.500000 0.500000 0.759562
O O9 0.578088 0.204175 0.810066
O O10 0.905930 0.471646 0.457580
O O11 0.250000 0.640822 0.379702
#
# Coordination Sequence:
#
# PCOD8193055 Si02
#       5
#     8   8   8   4   8
#     4  10  21  42  68  97 136 175 219 273 327 392
#     4  12  23  40  66  97 133 174 219 273 329 387
#     4  10  21  40  67  95 133 174 218 274 330 390
#     4  12  22  42  68  96 128 176 224 266 334 392
#     4  10  22  43  69  96 130 175 223 276 334 391
#
# _framework density 21.801116
#
# number of rings (size 3 to 8) (size 9 to 14) (size 15 to 20)
#    0.000    1.333    5.556    0.667    1.556    1.778 
#    0.000    2.222    0.000    0.000    0.000    0.000 
#    0.000    0.000    0.000    0.000    0.000    0.000 
#
# Total GULP energy -223006.873030 kJ/mol
# GULP energy per Si atom -12389.270724 kJ/mol
# Density = 2.175150 g / cm^3
# Si number density = 21.801116 Si / 1000 Ang^3
#
#
#
# Elastic Constant Matrix: (Units=GPa)
#
#
# Indices 1 2 3 4 5 6 
#
# 1 129.6905 29.5500 48.6001 0.0000 0.0000 0.0000
# 2 29.5500 93.5077 35.4950 0.0000 0.0000 0.0000
# 3 48.6001 35.4950 124.3489 0.0000 0.0000 0.0000
# 4 0.0000 0.0000 0.0000 24.3349 0.0000 0.0000
# 5 0.0000 0.0000 0.0000 0.0000 18.8414 0.0000
# 6 0.0000 0.0000 0.0000 0.0000 0.0000 28.9893
#
#
#
# Elastic Compliance Matrix: (Units=1/GPa)
#
#
# Indices 1 2 3 4 5 6 
#
# 1 0.009281 -0.001745 -0.003129 0.000000 0.000000 0.000000
# 2 -0.001745 0.012322 -0.002835 0.000000 0.000000 0.000000
# 3 -0.003129 -0.002835 0.010074 0.000000 0.000000 0.000000
# 4 0.000000 0.000000 0.000000 0.041093 0.000000 0.000000
# 5 0.000000 0.000000 0.000000 0.000000 0.053075 0.000000
# 6 0.000000 0.000000 0.000000 0.000000 0.000000 0.034496
#
#
# Mechanical properties :
#
#
# Convention : Reuss Voigt Hill
#
# Bulk Modulus (GPa) = 61.50781 63.87079 62.68930
# Shear Modulus (GPa) = 27.59705 30.02660 28.81183
#
# Velocity S-wave (km/s) = 3.56175 3.71522 3.63929
# Velocity P-wave (km/s) = 6.72228 6.91118 6.81739
#
# Compressibility (1/GPa) = 0.01625810
#
# Stress axis : x y z
#
# Youngs Moduli (GPa) = 107.74801 81.15547 99.26351
#
# Poissons Ratio (x) = 0.14162 0.31061
# Poissons Ratio (y) = 0.18803 0.28144
# Poissons Ratio (z) = 0.33716 0.23010
#
# Static dielectric constant tensor:
#      x y z
#    x 3.817660 0.000000 0.000000 
#    y 0.000000 4.115780 0.000000 
#    z 0.000000 0.000000 3.904520 
# 
# 
# High freq. dielectric constant tensor:
#      x y z
#    x 1.827850 0.000000 0.000000 
#    y 0.000000 1.877090 0.000000 
#    z 0.000000 0.000000 1.844500 
# 
# From -- ./inp_files/15632.got.cif
#   From: 2010.03.12/outbox.cif.g09.slc.cpg/sg46_8_cif.got.tgz:15632.got - 2010.04.14 02:56:35.
