data_PCOD8193698
_publ_section_title
;
Structure prediction by ZEFSAII (Michael W. Deem and Ramdas Pophale) SiO2 
 PCOD8193698
Probable space group: P M M M
;
_chemical_formula_sum "Si O2"
_cell_formula_units_Z 52
_cell_length_a 17.412692
_cell_length_b 25.504069
_cell_length_c 7.713513
_cell_angle_alpha 90.000000
_cell_angle_beta 90.000000
_cell_angle_gamma 90.000000
_cell_volume 3425.528685
_symmetry_space_group_name_H-M "P M M M"
_symmetry_group_IT_number 47
_symmetry_cell_setting 'orthorhombic'
loop_
_space_group_symop_operation_xyz
x,y,z
-x,-y,z
x,-y,-z
-x,y,-z
-x,-y,-z
x,y,-z
-x,y,z
x,-y,z
loop_
_atom_site_type_symbol
_atom_site_label
_atom_site_fract_x
_atom_site_fract_y
_atom_site_fract_z
Si Si1 0.414508 0.654638 0.293893
Si Si2 0.175305 0.379679 0.308162
Si Si3 0.680238 0.442146 0.705550
Si Si4 0.277227 0.723703 0.692886
Si Si5 0.911742 0.659906 0.000000
Si Si6 0.908896 0.941582 0.692758
Si Si7 0.188851 0.235982 0.000000
Si Si8 0.091731 0.868231 0.000000
O O1 0.415784 0.650446 0.500000
O O2 0.500000 0.663169 0.218164
O O3 0.379970 0.600187 0.216994
O O4 0.361195 0.704168 0.241695
O O5 0.140936 0.391317 0.500000
O O6 0.232627 0.425779 0.246639
O O7 0.223556 0.326651 0.316408
O O8 0.106523 0.374530 0.170674
O O9 0.671906 0.442921 0.500000
O O10 0.663426 0.500000 0.783328
O O11 0.281831 0.749391 0.500000
O O12 0.242914 0.765463 0.829188
O O13 0.862268 0.712314 0.000000
O O14 0.000000 0.675860 0.000000
O O15 0.881809 0.924505 0.500000
O O16 0.000000 0.943234 0.701405
O O17 0.877513 0.000000 0.736125
O O18 0.878539 0.899877 0.831846
O O19 0.131917 0.187455 0.000000
O O20 0.000000 0.860287 0.000000
#
# Coordination Sequence:
#
# PCOD8193698 Si02
#       8
#     8   8   8   8   4   8   4   4
#     4   8  13  22  38  60  83 104 128 159 189 221
#     4   8  15  28  43  57  74  98 126 152 183 234
#     4   8  13  22  38  59  81 104 125 146 183 235
#     4   8  15  28  42  55  75 104 134 159 187 232
#     4  10  19  30  44  59  72  91 125 168 209 242
#     4   8  14  25  40  57  79 109 141 168 197 237
#     4  10  19  29  41  57  78 104 133 167 208 244
#     4  10  18  26  38  58  82 105 135 180 220 238
#
# _framework density 15.18014
#
# number of rings (size 3 to 8) (size 9 to 14) (size 15 to 20)
#    0.000    3.538    0.000    2.769    0.000    2.154 
#    0.000    2.308    0.000    3.692    0.000    2.154 
#    0.000    6.154    0.000    0.615    0.000    6.154 
#
# Total GULP energy -644299.373336 kJ/mol
# GULP energy per Si atom -12390.372564 kJ/mol
# Density = 1.514559 g / cm^3
# Si number density = 15.180140 Si / 1000 Ang^3
#
#
#
# Elastic Constant Matrix: (Units=GPa)
#
#
# Indices 1 2 3 4 5 6 
#
# 1 67.1474 28.5347 37.0325 0.0000 0.0000 0.0000
# 2 28.5347 57.8625 34.8497 0.0000 0.0000 0.0000
# 3 37.0325 34.8497 84.2670 0.0000 0.0000 0.0000
# 4 0.0000 0.0000 0.0000 10.3616 0.0000 0.0000
# 5 0.0000 0.0000 0.0000 0.0000 10.1216 0.0000
# 6 0.0000 0.0000 0.0000 0.0000 0.0000 8.3283
#
#
#
# Elastic Compliance Matrix: (Units=1/GPa)
#
#
# Indices 1 2 3 4 5 6 
#
# 1 0.021344 -0.006494 -0.006694 0.000000 0.000000 0.000000
# 2 -0.006494 0.024991 -0.007481 0.000000 0.000000 0.000000
# 3 -0.006694 -0.007481 0.017903 0.000000 0.000000 0.000000
# 4 0.000000 0.000000 0.000000 0.096510 0.000000 0.000000
# 5 0.000000 0.000000 0.000000 0.000000 0.098799 0.000000
# 6 0.000000 0.000000 0.000000 0.000000 0.000000 0.120073
#
#
# Mechanical properties :
#
#
# Convention : Reuss Voigt Hill
#
# Bulk Modulus (GPa) = 43.67083 45.56786 44.61935
# Shear Modulus (GPa) = 11.66610 13.01962 12.34286
#
# Velocity S-wave (km/s) = 2.77521 2.93179 2.85457
# Velocity P-wave (km/s) = 6.25299 6.44544 6.34995
#
# Compressibility (1/GPa) = 0.02289858
#
# Stress axis : x y z
#
# Youngs Moduli (GPa) = 46.85096 40.01478 55.85638
#
# Poissons Ratio (x) = 0.25985 0.37393
# Poissons Ratio (y) = 0.30425 0.41788
# Poissons Ratio (z) = 0.31364 0.29937
#
# Static dielectric constant tensor:
#      x y z
#    x 2.812180 0.000000 0.000000 
#    y 0.000000 2.740030 0.000000 
#    z 0.000000 0.000000 3.171240 
# 
# 
# High freq. dielectric constant tensor:
#      x y z
#    x 1.545650 0.000000 0.000000 
#    y 0.000000 1.542890 0.000000 
#    z 0.000000 0.000000 1.585790 
# 
# From -- ./inp_files/7717.got.cif
#   From: 2010.03.12/outbox.cif.g09.slc.cpg/sg47_4_cif.got.tgz:7717.got - 2010.04.14 03:12:58.
