data_PCOD8193629
_publ_section_title
;
Structure prediction by ZEFSAII (Michael W. Deem and Ramdas Pophale) SiO2 
 PCOD8193629
Probable space group: P M M M
;
_chemical_formula_sum "Si O2"
_cell_formula_units_Z 52
_cell_length_a 27.366458
_cell_length_b 11.972134
_cell_length_c 9.431609
_cell_angle_alpha 90.000000
_cell_angle_beta 90.000000
_cell_angle_gamma 90.000000
_cell_volume 3090.124293
_symmetry_space_group_name_H-M "P M M M"
_symmetry_group_IT_number 47
_symmetry_cell_setting 'orthorhombic'
loop_
_space_group_symop_operation_xyz
x,y,z
-x,-y,z
x,-y,-z
-x,y,-z
-x,-y,-z
x,y,-z
-x,y,z
x,-y,z
loop_
_atom_site_type_symbol
_atom_site_label
_atom_site_fract_x
_atom_site_fract_y
_atom_site_fract_z
Si Si1 0.341053 0.000000 0.844449
Si Si2 0.000000 0.133486 0.841250
Si Si3 0.801502 0.130505 0.335169
Si Si4 0.445929 0.000000 0.754939
Si Si5 0.286944 0.216341 0.830164
Si Si6 0.645842 0.369218 0.334423
Si Si7 0.911145 0.132703 0.343091
Si Si8 0.447444 0.756681 0.339591
O O1 0.399962 0.000000 0.861100
O O2 0.320308 0.887347 0.772567
O O3 0.317890 0.000000 0.000000
O O4 0.951461 0.180778 0.764712
O O5 0.000000 0.000000 0.839220
O O6 0.000000 0.180454 0.000000
O O7 0.789619 0.155630 0.500000
O O8 0.767419 0.200721 0.229922
O O9 0.856643 0.169075 0.297772
O O10 0.794221 0.000000 0.303064
O O11 0.439831 0.890162 0.659469
O O12 0.500000 0.000000 0.830435
O O13 0.308557 0.327538 0.758373
O O14 0.286321 0.229409 0.000000
O O15 0.653819 0.338506 0.500000
O O16 0.639954 0.500000 0.312181
O O17 0.597328 0.309607 0.268421
O O18 0.923165 0.178953 0.500000
O O19 0.913411 0.000000 0.346668
O O20 0.449828 0.715117 0.500000
O O21 0.500000 0.727684 0.265632
#
# Coordination Sequence:
#
# PCOD8193629 Si02
#       8
#     4   4   8   4   8   8   8   8
#     4  10  20  32  45  68  94 120 154 187 228 287
#     4   9  15  21  31  51  79 115 160 201 232 267
#     4   9  17  29  45  67  92 120 157 198 240 286
#     4  10  17  29  48  69  95 122 149 186 230 284
#     4  11  21  34  50  69  96 124 153 193 241 290
#     4  10  21  36  53  72  92 119 158 197 232 277
#     4   8  14  24  37  53  79 116 156 195 233 274
#     4   9  17  29  47  72  97 119 146 184 232 281
#
# _framework density 16.827802999999999
#
# number of rings (size 3 to 8) (size 9 to 14) (size 15 to 20)
#    0.000    2.538    2.308    1.846    0.000    3.231 
#    0.000    3.077    0.000    0.462    0.000    1.077 
#    0.000    0.000    0.000    0.692    0.000   13.462 
#
# Total GULP energy -644350.855365 kJ/mol
# GULP energy per Si atom -12391.362603 kJ/mol
# Density = 1.678950 g / cm^3
# Si number density = 16.827803 Si / 1000 Ang^3
#
#
#
# Elastic Constant Matrix: (Units=GPa)
#
#
# Indices 1 2 3 4 5 6 
#
# 1 146.1080 40.2617 64.3400 0.0000 0.0000 0.0000
# 2 40.2617 60.7130 29.0290 0.0000 0.0000 0.0000
# 3 64.3400 29.0290 81.1111 0.0000 0.0000 0.0000
# 4 0.0000 0.0000 0.0000 14.6019 0.0000 0.0000
# 5 0.0000 0.0000 0.0000 0.0000 19.0536 0.0000
# 6 0.0000 0.0000 0.0000 0.0000 0.0000 8.6076
#
#
#
# Elastic Compliance Matrix: (Units=1/GPa)
#
#
# Indices 1 2 3 4 5 6 
#
# 1 0.011215 -0.003841 -0.007521 0.000000 0.000000 0.000000
# 2 -0.003841 0.021187 -0.004536 0.000000 0.000000 0.000000
# 3 -0.007521 -0.004536 0.019918 0.000000 0.000000 0.000000
# 4 0.000000 0.000000 0.000000 0.068484 0.000000 0.000000
# 5 0.000000 0.000000 0.000000 0.000000 0.052484 0.000000
# 6 0.000000 0.000000 0.000000 0.000000 0.000000 0.116176
#
#
# Mechanical properties :
#
#
# Convention : Reuss Voigt Hill
#
# Bulk Modulus (GPa) = 48.72413 61.68818 55.20616
# Shear Modulus (GPa) = 15.23922 18.73939 16.98930
#
# Velocity S-wave (km/s) = 3.01258 3.34068 3.18086
# Velocity P-wave (km/s) = 6.41235 7.18458 6.80942
#
# Compressibility (1/GPa) = 0.02052371
#
# Stress axis : x y z
#
# Youngs Moduli (GPa) = 89.16872 47.19938 50.20520
#
# Poissons Ratio (x) = 0.18128 0.37761
# Poissons Ratio (y) = 0.34248 0.22772
# Poissons Ratio (z) = 0.67066 0.21409
#
# Static dielectric constant tensor:
#      x y z
#    x 3.391440 0.000000 0.000000 
#    y 0.000000 2.741110 0.000000 
#    z 0.000000 0.000000 2.988440 
# 
# 
# High freq. dielectric constant tensor:
#      x y z
#    x 1.660460 0.000000 0.000000 
#    y 0.000000 1.594380 0.000000 
#    z 0.000000 0.000000 1.630110 
# 
# From -- ./inp_files/13343.got.cif
#   From: 2010.03.12/outbox.cif.g09.slc.cpg/sg47_7_cif.got.tgz:13343.got - 2010.04.14 03:12:58.
