data_PCOD8193549
_publ_section_title
;
Structure prediction by ZEFSAII (Michael W. Deem and Ramdas Pophale) SiO2 
 PCOD8193549
Probable space group: P M M M
;
_chemical_formula_sum "Si O2"
_cell_formula_units_Z 52
_cell_length_a 14.449630
_cell_length_b 9.054567
_cell_length_c 23.811705
_cell_angle_alpha 90.000000
_cell_angle_beta 90.000000
_cell_angle_gamma 90.000000
_cell_volume 3115.407828
_symmetry_space_group_name_H-M "P M M M"
_symmetry_group_IT_number 47
_symmetry_cell_setting 'orthorhombic'
loop_
_space_group_symop_operation_xyz
x,y,z
-x,-y,z
x,-y,-z
-x,y,-z
-x,-y,-z
x,y,-z
-x,y,z
x,-y,z
loop_
_atom_site_type_symbol
_atom_site_label
_atom_site_fract_x
_atom_site_fract_y
_atom_site_fract_z
Si Si1 0.897072 0.669007 0.119979
Si Si2 0.278311 0.324577 0.724828
Si Si3 0.390118 0.338192 0.500000
Si Si4 0.603877 0.323201 0.620389
Si Si5 0.104396 0.827740 0.235884
Si Si6 0.286093 0.326005 0.938613
Si Si7 0.395565 0.676046 0.831735
O O1 0.882102 0.500000 0.140387
O O2 0.881456 0.773768 0.172641
O O3 0.821603 0.711254 0.073267
O O4 0.000000 0.690268 0.094351
O O5 0.271122 0.500000 0.724865
O O6 0.329052 0.264835 0.669086
O O7 0.175734 0.256761 0.723840
O O8 0.335251 0.267637 0.779118
O O9 0.343747 0.500000 0.500000
O O10 0.500000 0.355222 0.500000
O O11 0.362169 0.259068 0.440851
O O12 0.500000 0.268025 0.634117
O O13 0.604335 0.500000 0.617780
O O14 0.000000 0.792855 0.256453
O O15 0.125855 0.000000 0.237964
O O16 0.301109 0.500000 0.940577
O O17 0.351326 0.260325 0.889517
O O18 0.311558 0.258556 0.000000
O O19 0.500000 0.736734 0.826225
O O20 0.395404 0.500000 0.832384
#
# Coordination Sequence:
#
# PCOD8193549 Si02
#       7
#     8   8   4   8   8   8   8
#     4   9  16  28  46  65  84 106 135 175 221 266
#     4  10  17  27  45  68  90 113 144 180 215 252
#     4   7  10  18  32  56  94 129 150 172 207 249
#     4   8  13  21  37  64  96 126 151 176 209 251
#     4  10  20  32  46  64  86 112 140 174 220 269
#     4   9  16  25  38  60  87 112 140 173 212 256
#     4   9  16  25  38  59  87 114 140 175 214 247
#
# _framework density 16.691234000000001
#
# number of rings (size 3 to 8) (size 9 to 14) (size 15 to 20)
#    0.000    3.000    1.538    1.846    0.000    3.385 
#    0.000    3.077    0.000    2.308    0.000    3.231 
#    0.000    7.385    0.000    0.000    0.000    0.000 
#
# Total GULP energy -644321.091827 kJ/mol
# GULP energy per Si atom -12390.790227 kJ/mol
# Density = 1.665324 g / cm^3
# Si number density = 16.691234 Si / 1000 Ang^3
#
#
#
# Elastic Constant Matrix: (Units=GPa)
#
#
# Indices 1 2 3 4 5 6 
#
# 1 111.1498 21.7975 68.6737 0.0000 0.0000 0.0000
# 2 21.7975 17.8512 18.9340 0.0000 0.0000 0.0000
# 3 68.6737 18.9340 147.1880 0.0000 0.0000 0.0000
# 4 0.0000 0.0000 0.0000 2.7249 0.0000 0.0000
# 5 0.0000 0.0000 0.0000 0.0000 23.0976 0.0000
# 6 0.0000 0.0000 0.0000 0.0000 0.0000 9.1784
#
#
#
# Elastic Compliance Matrix: (Units=1/GPa)
#
#
# Indices 1 2 3 4 5 6 
#
# 1 0.014661 -0.012329 -0.005255 0.000000 0.000000 0.000000
# 2 -0.012329 0.075238 -0.003926 0.000000 0.000000 0.000000
# 3 -0.005255 -0.003926 0.009751 0.000000 0.000000 0.000000
# 4 0.000000 0.000000 0.000000 0.366983 0.000000 0.000000
# 5 0.000000 0.000000 0.000000 0.000000 0.043294 0.000000
# 6 0.000000 0.000000 0.000000 0.000000 0.000000 0.108951
#
#
# Mechanical properties :
#
#
# Convention : Reuss Voigt Hill
#
# Bulk Modulus (GPa) = 17.65841 54.99993 36.32917
# Shear Modulus (GPa) = 7.34458 18.11912 12.73185
#
# Velocity S-wave (km/s) = 2.09996 3.29834 2.76486
# Velocity P-wave (km/s) = 4.05982 6.89408 5.65732
#
# Compressibility (1/GPa) = 0.05663026
#
# Stress axis : x y z
#
# Youngs Moduli (GPa) = 68.20720 13.29121 102.55702
#
# Poissons Ratio (x) = 0.16387 0.53889
# Poissons Ratio (y) = 0.84093 0.40264
# Poissons Ratio (z) = 0.35840 0.05218
#
# Static dielectric constant tensor:
#      x y z
#    x 3.282420 0.000000 0.000000 
#    y 0.000000 2.599100 0.000000 
#    z 0.000000 0.000000 3.418090 
# 
# 
# High freq. dielectric constant tensor:
#      x y z
#    x 1.639330 0.000000 0.000000 
#    y 0.000000 1.581750 0.000000 
#    z 0.000000 0.000000 1.637180 
# 
# From -- ./inp_files/31975.got.cif
#   From: 2010.03.12/outbox.cif.g09.slc.cpg/sg47_16_cif.got.tgz:31975.got - 2010.04.14 03:12:58.
