data_PCOD8193796
_publ_section_title
;
Structure prediction by ZEFSAII (Michael W. Deem and Ramdas Pophale) SiO2 
 PCOD8193796
Probable space group: P M M M
;
_chemical_formula_sum "Si O2"
_cell_formula_units_Z 64
_cell_length_a 14.430875
_cell_length_b 28.381238
_cell_length_c 9.666884
_cell_angle_alpha 90.000000
_cell_angle_beta 90.000000
_cell_angle_gamma 90.000000
_cell_volume 3959.227959
_symmetry_space_group_name_H-M "P M M M"
_symmetry_group_IT_number 47
_symmetry_cell_setting 'orthorhombic'
loop_
_space_group_symop_operation_xyz
x,y,z
-x,-y,z
x,-y,-z
-x,y,-z
-x,-y,-z
x,y,-z
-x,y,z
x,-y,z
loop_
_atom_site_type_symbol
_atom_site_label
_atom_site_fract_x
_atom_site_fract_y
_atom_site_fract_z
Si Si1 0.392690 0.587042 0.841159
Si Si2 0.108060 0.261685 0.660856
Si Si3 0.393172 0.862702 0.160772
Si Si4 0.398322 0.306817 0.163886
Si Si5 0.238923 0.447627 0.340896
Si Si6 0.897903 0.368123 0.663987
Si Si7 0.265660 0.225554 0.836746
Si Si8 0.609955 0.051928 0.345062
O O1 0.500000 0.574825 0.820688
O O2 0.370898 0.640412 0.792913
O O3 0.334014 0.552675 0.744621
O O4 0.363685 0.579415 0.000000
O O5 0.131011 0.253302 0.500000
O O6 0.133466 0.315348 0.705382
O O7 0.168732 0.225796 0.753694
O O8 0.000000 0.251560 0.689689
O O9 0.500000 0.850512 0.200906
O O10 0.326551 0.819828 0.201230
O O11 0.353595 0.908158 0.241231
O O12 0.386592 0.874603 0.000000
O O13 0.500000 0.294204 0.224868
O O14 0.322965 0.270368 0.220099
O O15 0.404303 0.302941 0.000000
O O16 0.261595 0.435966 0.500000
O O17 0.195014 0.500000 0.327329
O O18 0.169996 0.408372 0.276621
O O19 0.902638 0.371932 0.500000
O O20 0.000000 0.377937 0.725785
O O21 0.245072 0.228149 0.000000
O O22 0.644771 0.063637 0.500000
O O23 0.500000 0.051285 0.341385
O O24 0.646861 0.000000 0.300105
#
# Coordination Sequence:
#
# PCOD8193796 Si02
#       8
#     8   8   8   8   8   8   8   8
#     4   9  18  32  48  63  80 109 147 177 202 240
#     4   9  18  32  48  64  83 110 142 174 211 255
#     4   9  17  27  39  60  91 123 152 181 216 258
#     4   8  14  26  44  64  85 110 141 174 206 244
#     4  10  20  31  45  67  89 107 131 167 211 253
#     4   8  15  30  50  68  86 108 134 166 206 255
#     4  10  18  27  43  66  90 115 142 175 215 255
#     4   8  14  25  40  57  80 115 158 197 226 250
#
# _framework density 16.164767999999999
#
# number of rings (size 3 to 8) (size 9 to 14) (size 15 to 20)
#    0.000    3.125    0.000    3.000    0.000    3.500 
#    0.000    3.750    0.000    3.000    0.000    0.875 
#    0.000    0.500    0.000    5.500    0.000    4.250 
#
# Total GULP energy -793243.049833 kJ/mol
# GULP energy per Si atom -12394.422654 kJ/mol
# Density = 1.612798 g / cm^3
# Si number density = 16.164768 Si / 1000 Ang^3
#
#
#
# Elastic Constant Matrix: (Units=GPa)
#
#
# Indices 1 2 3 4 5 6 
#
# 1 76.3269 50.1432 40.3722 0.0000 0.0000 0.0000
# 2 50.1432 91.3549 42.9299 0.0000 0.0000 0.0000
# 3 40.3722 42.9299 48.2407 0.0000 0.0000 0.0000
# 4 0.0000 0.0000 0.0000 23.4860 0.0000 0.0000
# 5 0.0000 0.0000 0.0000 0.0000 22.5180 0.0000
# 6 0.0000 0.0000 0.0000 0.0000 0.0000 15.5879
#
#
#
# Elastic Compliance Matrix: (Units=1/GPa)
#
#
# Indices 1 2 3 4 5 6 
#
# 1 0.025815 -0.006904 -0.015460 0.000000 0.000000 0.000000
# 2 -0.006904 0.020661 -0.012608 0.000000 0.000000 0.000000
# 3 -0.015460 -0.012608 0.044888 0.000000 0.000000 0.000000
# 4 0.000000 0.000000 0.000000 0.042579 0.000000 0.000000
# 5 0.000000 0.000000 0.000000 0.000000 0.044409 0.000000
# 6 0.000000 0.000000 0.000000 0.000000 0.000000 0.064153
#
#
# Mechanical properties :
#
#
# Convention : Reuss Voigt Hill
#
# Bulk Modulus (GPa) = 46.68835 53.64591 50.16713
# Shear Modulus (GPa) = 15.64517 17.81684 16.73100
#
# Velocity S-wave (km/s) = 3.11441 3.32354 3.22068
# Velocity P-wave (km/s) = 6.47134 6.92726 6.70318
#
# Compressibility (1/GPa) = 0.02141862
#
# Stress axis : x y z
#
# Youngs Moduli (GPa) = 38.73773 48.40062 22.27778
#
# Poissons Ratio (x) = 0.33417 0.34441
# Poissons Ratio (y) = 0.26746 0.28088
# Poissons Ratio (z) = 0.59888 0.61025
#
# Static dielectric constant tensor:
#      x y z
#    x 2.979420 0.000000 0.000000 
#    y 0.000000 3.181640 0.000000 
#    z 0.000000 0.000000 2.819030 
# 
# 
# High freq. dielectric constant tensor:
#      x y z
#    x 1.599940 0.000000 0.000000 
#    y 0.000000 1.614290 0.000000 
#    z 0.000000 0.000000 1.598680 
# 
# From -- ./inp_files/8297.got.cif
#   From: 2010.03.12/outbox.cif.g09.slc.cpg/sg47_5_cif.got.tgz:8297.got - 2010.04.14 03:12:58.
