data_PCOD8193702
_publ_section_title
;
Structure prediction by ZEFSAII (Michael W. Deem and Ramdas Pophale) SiO2 
 PCOD8193702
Probable space group: P M M M
;
_chemical_formula_sum "Si O2"
_cell_formula_units_Z 52
_cell_length_a 26.992622
_cell_length_b 13.883555
_cell_length_c 8.863217
_cell_angle_alpha 90.000000
_cell_angle_beta 90.000000
_cell_angle_gamma 90.000000
_cell_volume 3321.522054
_symmetry_space_group_name_H-M "P M M M"
_symmetry_group_IT_number 47
_symmetry_cell_setting 'orthorhombic'
loop_
_space_group_symop_operation_xyz
x,y,z
-x,-y,z
x,-y,-z
-x,y,-z
-x,-y,-z
x,y,-z
-x,y,z
x,-y,z
loop_
_atom_site_type_symbol
_atom_site_label
_atom_site_fract_x
_atom_site_fract_y
_atom_site_fract_z
Si Si1 0.248283 0.890945 0.178785
Si Si2 0.208760 0.608913 0.176538
Si Si3 0.149768 0.788475 0.177408
Si Si4 0.054418 0.890950 0.820426
Si Si5 0.702190 0.282886 0.321350
Si Si6 0.500000 0.385609 0.665346
Si Si7 0.606092 0.391990 0.680407
O O1 0.194187 0.856785 0.236035
O O2 0.289776 0.823015 0.252600
O O3 0.257393 0.000000 0.232441
O O4 0.252150 0.880803 0.000000
O O5 0.194268 0.500000 0.219693
O O6 0.162270 0.677670 0.220270
O O7 0.257049 0.640702 0.267096
O O8 0.220990 0.620073 0.000000
O O9 0.097265 0.821813 0.249261
O O10 0.145413 0.801566 0.000000
O O11 0.000000 0.857764 0.761393
O O12 0.065212 0.000000 0.767448
O O13 0.054697 0.886488 0.000000
O O14 0.704605 0.276666 0.500000
O O15 0.648812 0.319956 0.263548
O O16 0.500000 0.500000 0.648478
O O17 0.500000 0.337370 0.500000
O O18 0.552172 0.356470 0.746442
O O19 0.603058 0.393202 0.500000
O O20 0.618339 0.500000 0.738423
#
# Coordination Sequence:
#
# PCOD8193702 Si02
#       7
#     8   8   8   8   8   4   8
#     4   9  17  29  43  57  76 105 137 162 187 228
#     4   9  17  28  40  54  75 106 140 165 187 224
#     4   8  13  22  36  52  71  98 130 159 187 224
#     4   8  12  17  28  49  74  96 119 152 196 240
#     4  10  18  26  39  61  85 104 125 159 201 236
#     4   7  10  18  32  50  74 103 130 152 179 223
#     4   8  13  21  34  54  80 106 128 152 186 228
#
# _framework density 15.655472
#
# number of rings (size 3 to 8) (size 9 to 14) (size 15 to 20)
#    0.000    3.462    0.000    3.692    0.000    3.077 
#    0.000    0.000    0.000    0.462    0.000    5.923 
#    0.000   22.769    0.000   39.385    0.000   36.923 
#
# Total GULP energy -644185.540583 kJ/mol
# GULP energy per Si atom -12388.183473 kJ/mol
# Density = 1.561984 g / cm^3
# Si number density = 15.655472 Si / 1000 Ang^3
#
#
#
# Elastic Constant Matrix: (Units=GPa)
#
#
# Indices 1 2 3 4 5 6 
#
# 1 155.0864 81.5110 15.9488 0.0000 0.0000 0.0000
# 2 81.5110 129.6068 18.6102 0.0000 0.0000 0.0000
# 3 15.9488 18.6102 16.5106 0.0000 0.0000 0.0000
# 4 0.0000 0.0000 0.0000 15.2755 0.0000 0.0000
# 5 0.0000 0.0000 0.0000 0.0000 18.4140 0.0000
# 6 0.0000 0.0000 0.0000 0.0000 0.0000 27.1441
#
#
#
# Elastic Compliance Matrix: (Units=1/GPa)
#
#
# Indices 1 2 3 4 5 6 
#
# 1 0.009754 -0.005705 -0.002992 0.000000 0.000000 0.000000
# 2 -0.005705 0.012542 -0.008626 0.000000 0.000000 0.000000
# 3 -0.002992 -0.008626 0.073181 0.000000 0.000000 0.000000
# 4 0.000000 0.000000 0.000000 0.065464 0.000000 0.000000
# 5 0.000000 0.000000 0.000000 0.000000 0.054307 0.000000
# 6 0.000000 0.000000 0.000000 0.000000 0.000000 0.036840
#
#
# Mechanical properties :
#
#
# Convention : Reuss Voigt Hill
#
# Bulk Modulus (GPa) = 16.43908 59.26043 37.84976
# Shear Modulus (GPa) = 16.28606 24.50896 20.39751
#
# Velocity S-wave (km/s) = 3.22883 3.96096 3.61349
# Velocity P-wave (km/s) = 4.94205 7.67163 6.45282
#
# Compressibility (1/GPa) = 0.06083066
#
# Stress axis : x y z
#
# Youngs Moduli (GPa) = 102.52135 79.73136 13.66482
#
# Poissons Ratio (x) = 0.45485 0.04088
# Poissons Ratio (y) = 0.58487 0.11788
# Poissons Ratio (z) = 0.30673 0.68779
#
# Static dielectric constant tensor:
#      x y z
#    x 3.439710 0.000000 0.000000 
#    y 0.000000 3.016020 0.000000 
#    z 0.000000 0.000000 2.534010 
# 
# 
# High freq. dielectric constant tensor:
#      x y z
#    x 1.602660 0.000000 0.000000 
#    y 0.000000 1.583710 0.000000 
#    z 0.000000 0.000000 1.552670 
# 
# From -- ./inp_files/13386.got.cif
#   From: 2010.03.12/outbox.cif.g09.slc.cpg/sg47_7_cif.got.tgz:13386.got - 2010.04.14 03:12:58.
