data_PCOD8193406
_publ_section_title
;
Structure prediction by ZEFSAII (Michael W. Deem and Ramdas Pophale) SiO2 
 PCOD8193406
Probable space group: I M A 2
;
_chemical_formula_sum "Si O2"
_cell_formula_units_Z 36
_cell_length_a 18.246223
_cell_length_b 8.623283
_cell_length_c 9.668905
_cell_angle_alpha 90.000000
_cell_angle_beta 90.000000
_cell_angle_gamma 90.000000
_cell_volume 1521.328183
_symmetry_space_group_name_H-M "I M A 2"
_symmetry_group_IT_number 46
_symmetry_cell_setting 'orthorhombic'
loop_
_space_group_symop_operation_xyz
x,y,z
-x,-y,z
1/2-x,y,z
1/2+x,-y,z
1/2+x,1/2+y,1/2+z
1/2-x,1/2-y,1/2+z
-x,1/2+y,1/2+z
x,1/2-y,1/2+z
loop_
_atom_site_type_symbol
_atom_site_label
_atom_site_fract_x
_atom_site_fract_y
_atom_site_fract_z
Si Si1 0.901576 0.622936 0.800950
Si Si2 0.250000 0.906038 0.916898
Si Si3 0.250000 0.148848 0.161189
Si Si4 0.872267 0.165909 0.466664
Si Si5 0.250000 0.016330 0.622384
Si Si6 0.483568 0.331551 0.517332
O O1 0.817529 0.649603 0.765177
O O2 0.907707 0.444545 0.849945
O O3 0.950238 0.646636 0.667440
O O4 0.926330 0.741641 0.920377
O O5 0.322032 0.799894 0.901915
O O6 0.250000 0.022106 0.788562
O O7 0.250000 0.999598 0.060875
O O8 0.250000 0.306162 0.070175
O O9 0.941034 0.240532 0.544184
O O10 0.823760 0.066494 0.572423
O O11 0.500000 0.500000 0.450067
#
# Coordination Sequence:
#
# PCOD8193406 Si02
#       6
#     8   4   4   8   4   8
#     4  12  29  50  78 114 153 207 252 326 376 461
#     4  11  28  45  81 111 151 208 246 317 387 450
#     4  12  28  49  76 112 153 197 261 307 382 458
#     4  11  27  49  75 115 153 198 258 312 383 463
#     4  11  28  46  81 111 150 205 249 322 371 470
#     4  12  28  48  80 111 157 203 254 318 388 453
#
# _framework density 23.663533000000001
#
# number of rings (size 3 to 8) (size 9 to 14) (size 15 to 20)
#    0.000    0.444    0.000    6.000   21.778    1.778 
#    0.000    0.000    0.000    0.000    0.000    0.000 
#    0.000    0.000    0.000    0.000    0.000    0.000 
#
# Total GULP energy -223286.265853 kJ/mol
# GULP energy per Si atom -12404.792547 kJ/mol
# Density = 2.360967 g / cm^3
# Si number density = 23.663533 Si / 1000 Ang^3
#
#
#
# Elastic Constant Matrix: (Units=GPa)
#
#
# Indices 1 2 3 4 5 6 
#
# 1 176.1458 75.0870 69.2890 0.0000 0.0000 0.0000
# 2 75.0870 177.1100 65.4019 0.0000 0.0000 0.0000
# 3 69.2890 65.4019 132.6816 0.0000 0.0000 0.0000
# 4 0.0000 0.0000 0.0000 32.2517 0.0000 0.0000
# 5 0.0000 0.0000 0.0000 0.0000 8.1113 0.0000
# 6 0.0000 0.0000 0.0000 0.0000 0.0000 43.9506
#
#
#
# Elastic Compliance Matrix: (Units=1/GPa)
#
#
# Indices 1 2 3 4 5 6 
#
# 1 0.007788 -0.002201 -0.002983 0.000000 0.000000 0.000000
# 2 -0.002201 0.007524 -0.002560 0.000000 0.000000 0.000000
# 3 -0.002983 -0.002560 0.010356 0.000000 0.000000 0.000000
# 4 0.000000 0.000000 0.000000 0.031006 0.000000 0.000000
# 5 0.000000 0.000000 0.000000 0.000000 0.123285 0.000000
# 6 0.000000 0.000000 0.000000 0.000000 0.000000 0.022753
#
#
# Mechanical properties :
#
#
# Convention : Reuss Voigt Hill
#
# Bulk Modulus (GPa) = 98.20114 100.61035 99.40574
# Shear Modulus (GPa) = 22.56385 35.27333 28.91859
#
# Velocity S-wave (km/s) = 3.09128 3.86504 3.49961
# Velocity P-wave (km/s) = 7.37091 7.90743 7.64388
#
# Compressibility (1/GPa) = 0.01018318
#
# Stress axis : x y z
#
# Youngs Moduli (GPa) = 128.39634 132.90075 96.56086
#
# Poissons Ratio (x) = 0.29246 0.28800
# Poissons Ratio (y) = 0.28254 0.24717
# Poissons Ratio (z) = 0.38295 0.34020
#
# Static dielectric constant tensor:
#      x y z
#    x 4.640440 0.000000 0.000000 
#    y 0.000000 4.766060 0.000000 
#    z 0.000000 0.000000 4.000440 
# 
# 
# High freq. dielectric constant tensor:
#      x y z
#    x 1.963120 0.000000 0.000000 
#    y 0.000000 1.956480 0.000000 
#    z 0.000000 0.000000 1.932150 
# 
# From -- ./inp_files/7187.got.cif
#   From: 2010.03.12/outbox.cif.g09.slc.cpg/sg46_4_cif.got.tgz:7187.got - 2010.04.14 02:56:35.
