data_PCOD8193212
_publ_section_title
;
Structure prediction by ZEFSAII (Michael W. Deem and Ramdas Pophale) SiO2 
 PCOD8193212
Probable space group: I M A 2
;
_chemical_formula_sum "Si O2"
_cell_formula_units_Z 28
_cell_length_a 22.474335
_cell_length_b 5.196630
_cell_length_c 8.105635
_cell_angle_alpha 90.000000
_cell_angle_beta 90.000000
_cell_angle_gamma 90.000000
_cell_volume 946.663624
_symmetry_space_group_name_H-M "I M A 2"
_symmetry_group_IT_number 46
_symmetry_cell_setting 'orthorhombic'
loop_
_space_group_symop_operation_xyz
x,y,z
-x,-y,z
1/2-x,y,z
1/2+x,-y,z
1/2+x,1/2+y,1/2+z
1/2-x,1/2-y,1/2+z
-x,1/2+y,1/2+z
x,1/2-y,1/2+z
loop_
_atom_site_type_symbol
_atom_site_label
_atom_site_fract_x
_atom_site_fract_y
_atom_site_fract_z
Si Si1 0.250000 0.229398 0.121680
Si Si2 0.250000 0.772450 0.826853
Si Si3 0.071535 0.631885 0.685332
Si Si4 0.353210 0.989518 0.478097
Si Si5 0.500000 0.000000 0.889777
O O1 0.250000 0.436902 0.266666
O O2 0.188398 0.264992 0.018442
O O3 0.250000 0.559539 0.683678
O O4 0.191772 0.744169 0.938927
O O5 0.107922 0.888736 0.632495
O O6 0.055885 0.468366 0.519021
O O7 0.107165 0.452821 0.814136
O O8 0.011543 0.746972 0.776755
#
# Coordination Sequence:
#
# PCOD8193212 Si02
#       5
#     4   4   8   8   4
#     4  11  24  46  71 115 152 195 247 310 372 475
#     4  11  24  46  71 115 152 195 247 310 372 475
#     4  10  22  49  70 110 146 199 246 330 372 464
#     4  10  22  44  75 102 155 193 248 298 397 442
#     4  10  24  44  70  98 148 188 260 312 386 428
#
# _framework density 29.577559999999998
#
# number of rings (size 3 to 8) (size 9 to 14) (size 15 to 20)
#    0.000    1.714    2.857    0.000    0.000    9.143 
#   15.429    0.000    0.000    0.000    0.000    0.000 
#    0.000    0.000    0.000    0.000    0.000    0.000 
#
# Total GULP energy -173473.841300 kJ/mol
# GULP energy per Si atom -12390.988664 kJ/mol
# Density = 2.951024 g / cm^3
# Si number density = 29.577560 Si / 1000 Ang^3
#
#
#
# Elastic Constant Matrix: (Units=GPa)
#
#
# Indices 1 2 3 4 5 6 
#
# 1 138.4576 17.0872 46.6036 0.0000 0.0000 0.0000
# 2 17.0872 97.0988 59.8161 0.0000 0.0000 0.0000
# 3 46.6036 59.8161 144.3673 0.0000 0.0000 0.0000
# 4 0.0000 0.0000 0.0000 66.4806 0.0000 0.0000
# 5 0.0000 0.0000 0.0000 0.0000 76.5355 0.0000
# 6 0.0000 0.0000 0.0000 0.0000 0.0000 0.1359
#
#
#
# Elastic Compliance Matrix: (Units=1/GPa)
#
#
# Indices 1 2 3 4 5 6 
#
# 1 0.008107 0.000249 -0.002720 0.000000 0.000000 0.000000
# 2 0.000249 0.013836 -0.005813 0.000000 0.000000 0.000000
# 3 -0.002720 -0.005813 0.010214 0.000000 0.000000 0.000000
# 4 0.000000 0.000000 0.000000 0.015042 0.000000 0.000000
# 5 0.000000 0.000000 0.000000 0.000000 0.013066 0.000000
# 6 0.000000 0.000000 0.000000 0.000000 0.000000 7.357692
#
#
# Mechanical properties :
#
#
# Convention : Reuss Voigt Hill
#
# Bulk Modulus (GPa) = 64.15141 69.65972 66.90557
# Shear Modulus (GPa) = 0.67207 45.72485 23.19846
#
# Velocity S-wave (km/s) = 0.47720 3.93610 2.80362
# Velocity P-wave (km/s) = 4.69467 6.65281 5.75759
#
# Compressibility (1/GPa) = 0.01558812
#
# Stress axis : x y z
#
# Youngs Moduli (GPa) = 123.34506 72.27508 97.90947
#
# Poissons Ratio (x) = -0.01801 0.26635
# Poissons Ratio (y) = -0.03073 0.56916
# Poissons Ratio (z) = 0.33554 0.42014
#
# Static dielectric constant tensor:
#      x y z
#    x 6.047720 0.000000 0.000000 
#    y 0.000000 4.634800 0.000000 
#    z 0.000000 0.000000 5.915600 
# 
# 
# High freq. dielectric constant tensor:
#      x y z
#    x 2.220530 0.000000 0.000000 
#    y 0.000000 2.171660 0.000000 
#    z 0.000000 0.000000 2.232900 
# 
# From -- ./inp_files/7090.got.cif
#   From: 2010.03.12/outbox.cif.g09.slc.cpg/sg46_4_cif.got.tgz:7090.got - 2010.04.14 02:56:35.
