data_PCOD8193943
_publ_section_title
;
Structure prediction by ZEFSAII (Michael W. Deem and Ramdas Pophale) SiO2 
 PCOD8193943
Probable space group: P M M M
;
_chemical_formula_sum "Si O2"
_cell_formula_units_Z 64
_cell_length_a 14.254976
_cell_length_b 9.164175
_cell_length_c 31.500952
_cell_angle_alpha 90.000000
_cell_angle_beta 90.000000
_cell_angle_gamma 90.000000
_cell_volume 4115.129847
_symmetry_space_group_name_H-M "P M M M"
_symmetry_group_IT_number 47
_symmetry_cell_setting 'orthorhombic'
loop_
_space_group_symop_operation_xyz
x,y,z
-x,-y,z
x,-y,-z
-x,y,-z
-x,-y,-z
x,y,-z
-x,y,z
x,-y,z
loop_
_atom_site_type_symbol
_atom_site_label
_atom_site_fract_x
_atom_site_fract_y
_atom_site_fract_z
Si Si1 0.898162 0.826952 0.247580
Si Si2 0.702476 0.173339 0.214240
Si Si3 0.277022 0.327437 0.625213
Si Si4 0.395023 0.673319 0.453095
Si Si5 0.106204 0.831730 0.343345
Si Si6 0.611481 0.669110 0.863207
Si Si7 0.609151 0.331353 0.708144
Si Si8 0.395093 0.672994 0.955145
O O1 0.811040 0.773781 0.218928
O O2 0.883085 0.770121 0.295489
O O3 0.000000 0.769536 0.230277
O O4 0.901500 0.000000 0.249192
O O5 0.665615 0.230765 0.169674
O O6 0.639620 0.235817 0.251924
O O7 0.694455 0.000000 0.215346
O O8 0.268520 0.500000 0.622890
O O9 0.327331 0.263175 0.583254
O O10 0.173481 0.260021 0.626167
O O11 0.335496 0.278520 0.666546
O O12 0.359124 0.721019 0.500000
O O13 0.500000 0.734005 0.445567
O O14 0.397555 0.500000 0.449767
O O15 0.000000 0.810589 0.359454
O O16 0.136257 0.000000 0.345223
O O17 0.500000 0.693867 0.859711
O O18 0.635350 0.500000 0.854388
O O19 0.649906 0.721080 0.910050
O O20 0.500000 0.305947 0.699181
O O21 0.630151 0.500000 0.718645
O O22 0.500000 0.736484 0.956649
O O23 0.400306 0.500000 0.953750
O O24 0.344091 0.722404 0.000000
#
# Coordination Sequence:
#
# PCOD8193943 Si02
#       8
#     8   8   8   8   8   8   8   8
#     4   8  15  29  46  60  76 103 140 178 213 250
#     4  11  20  29  43  61  82 110 145 178 206 245
#     4  10  18  28  46  70  90 108 139 182 217 245
#     4   8  14  26  45  68  92 117 144 173 209 256
#     4   9  17  31  49  65  84 112 143 174 214 262
#     4   9  17  28  41  58  85 119 146 171 209 251
#     4  10  20  31  41  57  86 119 143 166 202 246
#     4   7  10  19  37  58  76 100 141 183 208 235
#
# _framework density 15.552365
#
# number of rings (size 3 to 8) (size 9 to 14) (size 15 to 20)
#    0.000    3.000    1.250    3.375    0.000    3.750 
#    0.000    0.000    0.000    3.750    0.000    5.250 
#    0.000    0.500    0.000    6.250    0.000    0.250 
#
# Total GULP energy -792912.875034 kJ/mol
# GULP energy per Si atom -12389.263672 kJ/mol
# Density = 1.551697 g / cm^3
# Si number density = 15.552365 Si / 1000 Ang^3
#
#
#
# Elastic Constant Matrix: (Units=GPa)
#
#
# Indices 1 2 3 4 5 6 
#
# 1 85.5636 25.4277 53.9117 0.0000 0.0000 0.0000
# 2 25.4277 28.3831 30.2131 0.0000 0.0000 0.0000
# 3 53.9117 30.2131 130.8131 0.0000 0.0000 0.0000
# 4 0.0000 0.0000 0.0000 8.8610 0.0000 0.0000
# 5 0.0000 0.0000 0.0000 0.0000 11.0160 0.0000
# 6 0.0000 0.0000 0.0000 0.0000 0.0000 20.3976
#
#
#
# Elastic Compliance Matrix: (Units=1/GPa)
#
#
# Indices 1 2 3 4 5 6 
#
# 1 0.018025 -0.010927 -0.004905 0.000000 0.000000 0.000000
# 2 -0.010927 0.053342 -0.007817 0.000000 0.000000 0.000000
# 3 -0.004905 -0.007817 0.011471 0.000000 0.000000 0.000000
# 4 0.000000 0.000000 0.000000 0.112854 0.000000 0.000000
# 5 0.000000 0.000000 0.000000 0.000000 0.090777 0.000000
# 6 0.000000 0.000000 0.000000 0.000000 0.000000 0.049025
#
#
# Mechanical properties :
#
#
# Convention : Reuss Voigt Hill
#
# Bulk Modulus (GPa) = 28.13639 51.54054 39.83847
# Shear Modulus (GPa) = 12.66981 17.06875 14.86928
#
# Velocity S-wave (km/s) = 2.85731 3.31645 3.09541
# Velocity P-wave (km/s) = 5.38668 6.91933 6.20054
#
# Compressibility (1/GPa) = 0.03554116
#
# Stress axis : x y z
#
# Youngs Moduli (GPa) = 55.47880 18.74688 87.17407
#
# Poissons Ratio (x) = 0.20485 0.42757
# Poissons Ratio (y) = 0.60622 0.68142
# Poissons Ratio (z) = 0.27211 0.14654
#
# Static dielectric constant tensor:
#      x y z
#    x 3.038650 0.000000 0.000000 
#    y 0.000000 2.636070 0.000000 
#    z 0.000000 0.000000 3.263720 
# 
# 
# High freq. dielectric constant tensor:
#      x y z
#    x 1.578280 0.000000 0.000000 
#    y 0.000000 1.563700 0.000000 
#    z 0.000000 0.000000 1.594690 
# 
# From -- ./inp_files/34676.got.cif
#   From: 2010.03.12/outbox.cif.g09.slc.cpg/sg47_18_cif.got.tgz:34676.got - 2010.04.14 03:12:58.
