data_PCOD8193621
_publ_section_title
;
Structure prediction by ZEFSAII (Michael W. Deem and Ramdas Pophale) SiO2 
 PCOD8193621
Probable space group: P M M M
;
_chemical_formula_sum "Si O2"
_cell_formula_units_Z 48
_cell_length_a 9.274884
_cell_length_b 14.494613
_cell_length_c 20.868902
_cell_angle_alpha 90.000000
_cell_angle_beta 90.000000
_cell_angle_gamma 90.000000
_cell_volume 2805.528667
_symmetry_space_group_name_H-M "P M M M"
_symmetry_group_IT_number 47
_symmetry_cell_setting 'orthorhombic'
loop_
_space_group_symop_operation_xyz
x,y,z
-x,-y,z
x,-y,-z
-x,y,-z
-x,-y,-z
x,y,-z
-x,y,z
x,-y,z
loop_
_atom_site_type_symbol
_atom_site_label
_atom_site_fract_x
_atom_site_fract_y
_atom_site_fract_z
Si Si1 0.170899 0.400466 0.239901
Si Si2 0.167943 0.396203 0.384724
Si Si3 0.828769 0.103505 0.929599
Si Si4 0.669004 0.892851 0.309248
Si Si5 0.171992 0.207113 0.194289
Si Si6 0.665918 0.226710 0.429160
O O1 0.228885 0.500000 0.213383
O O2 0.226057 0.385814 0.312155
O O3 0.223183 0.314096 0.197304
O O4 0.000000 0.404316 0.241217
O O5 0.197582 0.500000 0.409807
O O6 0.250706 0.323406 0.428106
O O7 0.000000 0.372802 0.388446
O O8 0.769836 0.170136 0.873952
O O9 0.000000 0.103224 0.928386
O O10 0.771532 0.000000 0.916656
O O11 0.775226 0.137403 0.000000
O O12 0.500000 0.877327 0.296650
O O13 0.757808 0.851415 0.250641
O O14 0.720938 0.844553 0.375191
O O15 0.707006 0.000000 0.315645
O O16 0.000000 0.197715 0.200872
O O17 0.689225 0.182804 0.500000
O O18 0.500000 0.249571 0.416851
#
# Coordination Sequence:
#
# PCOD8193621 Si02
#       6
#     8   8   8   8   8   8
#     4   8  14  25  43  68  94 117 144 183 229 270
#     4   9  17  31  50  70  93 120 149 184 232 284
#     4   8  14  24  39  65  99 126 150 185 227 268
#     4  10  21  35  49  67  92 119 149 191 238 277
#     4  10  17  28  51  74  91 119 158 193 223 265
#     4  10  21  35  49  66  90 121 155 190 230 277
#
# _framework density 17.109075000000001
#
# number of rings (size 3 to 8) (size 9 to 14) (size 15 to 20)
#    0.000    2.833    1.667    2.000    0.000    2.333 
#    0.000    3.333    0.000    1.500    0.000    8.167 
#    0.000    0.000    0.000    1.500    0.000    1.833 
#
# Total GULP energy -594863.251153 kJ/mol
# GULP energy per Si atom -12392.984399 kJ/mol
# Density = 1.707013 g / cm^3
# Si number density = 17.109075 Si / 1000 Ang^3
#
#
#
# Elastic Constant Matrix: (Units=GPa)
#
#
# Indices 1 2 3 4 5 6 
#
# 1 23.9100 28.9105 26.1204 0.0000 0.0000 0.0000
# 2 28.9105 131.4457 77.6615 0.0000 0.0000 0.0000
# 3 26.1204 77.6615 135.2443 0.0000 0.0000 0.0000
# 4 0.0000 0.0000 0.0000 28.8038 0.0000 0.0000
# 5 0.0000 0.0000 0.0000 0.0000 15.8124 0.0000
# 6 0.0000 0.0000 0.0000 0.0000 0.0000 19.6904
#
#
#
# Elastic Compliance Matrix: (Units=1/GPa)
#
#
# Indices 1 2 3 4 5 6 
#
# 1 0.060107 -0.009628 -0.006080 0.000000 0.000000 0.000000
# 2 -0.009628 0.013056 -0.005638 0.000000 0.000000 0.000000
# 3 -0.006080 -0.005638 0.011806 0.000000 0.000000 0.000000
# 4 0.000000 0.000000 0.000000 0.034718 0.000000 0.000000
# 5 0.000000 0.000000 0.000000 0.000000 0.063242 0.000000
# 6 0.000000 0.000000 0.000000 0.000000 0.000000 0.050786
#
#
# Mechanical properties :
#
#
# Convention : Reuss Voigt Hill
#
# Bulk Modulus (GPa) = 23.65323 61.77608 42.71466
# Shear Modulus (GPa) = 17.21177 23.38849 20.30013
#
# Velocity S-wave (km/s) = 3.17519 3.70134 3.44832
# Velocity P-wave (km/s) = 5.22470 7.37917 6.39334
#
# Compressibility (1/GPa) = 0.04227752
#
# Stress axis : x y z
#
# Youngs Moduli (GPa) = 16.63693 76.59178 84.70438
#
# Poissons Ratio (x) = 0.73741 0.51503
# Poissons Ratio (y) = 0.16018 0.47755
# Poissons Ratio (z) = 0.10116 0.43181
#
# Static dielectric constant tensor:
#      x y z
#    x 2.817460 0.000000 0.000000 
#    y 0.000000 3.557920 0.000000 
#    z 0.000000 0.000000 3.349390 
# 
# 
# High freq. dielectric constant tensor:
#      x y z
#    x 1.619660 0.000000 0.000000 
#    y 0.000000 1.665990 0.000000 
#    z 0.000000 0.000000 1.652240 
# 
# From -- ./inp_files/6739.got.cif
#   From: 2010.03.12/outbox.cif.g09.slc.cpg/sg47_4_cif.got.tgz:6739.got - 2010.04.14 03:12:58.
