data_PCOD8193396
_publ_section_title
;
Structure prediction by ZEFSAII (Michael W. Deem and Ramdas Pophale) SiO2 
 PCOD8193396
Probable space group: I M A 2
;
_chemical_formula_sum "Si O2"
_cell_formula_units_Z 40
_cell_length_a 21.790711
_cell_length_b 8.581742
_cell_length_c 9.344822
_cell_angle_alpha 90.000000
_cell_angle_beta 90.000000
_cell_angle_gamma 90.000000
_cell_volume 1747.502831
_symmetry_space_group_name_H-M "I M A 2"
_symmetry_group_IT_number 46
_symmetry_cell_setting 'orthorhombic'
loop_
_space_group_symop_operation_xyz
x,y,z
-x,-y,z
1/2-x,y,z
1/2+x,-y,z
1/2+x,1/2+y,1/2+z
1/2-x,1/2-y,1/2+z
-x,1/2+y,1/2+z
x,1/2-y,1/2+z
loop_
_atom_site_type_symbol
_atom_site_label
_atom_site_fract_x
_atom_site_fract_y
_atom_site_fract_z
Si Si1 0.321072 0.379676 0.830170
Si Si2 0.112420 0.593225 0.049118
Si Si3 0.590069 0.602009 0.324000
Si Si4 0.124890 0.590567 0.596709
Si Si5 0.976134 0.334664 0.810072
O O1 0.250000 0.354239 0.861437
O O2 0.351087 0.212018 0.805628
O O3 0.329691 0.484110 0.688383
O O4 0.353280 0.455034 0.966881
O O5 0.093383 0.529690 0.204333
O O6 0.157194 0.748987 0.040648
O O7 0.049782 0.644998 0.969602
O O8 0.592374 0.513106 0.475639
O O9 0.527397 0.700081 0.310809
O O10 0.077088 0.690765 0.694662
O O11 0.000000 0.500000 0.756094
#
# Coordination Sequence:
#
# PCOD8193396 Si02
#       5
#     8   8   8   8   8
#     4  11  26  47  70  97 132 176 232 287 343 403
#     4  11  26  45  68 102 139 180 224 277 338 404
#     4  12  25  44  73  99 136 181 230 275 332 405
#     4  11  26  45  68 102 139 180 224 277 338 404
#     4  11  25  40  65 103 142 174 219 274 334 400
#
# _framework density 22.889804000000002
#
# number of rings (size 3 to 8) (size 9 to 14) (size 15 to 20)
#    0.000    0.800    4.000    3.600    5.600    5.600 
#    0.000    2.000    0.000    0.000    0.000    0.000 
#    0.000    0.000    0.000    0.000    0.000    0.000 
#
# Total GULP energy -247856.095700 kJ/mol
# GULP energy per Si atom -12392.804785 kJ/mol
# Density = 2.283771 g / cm^3
# Si number density = 22.889804 Si / 1000 Ang^3
#
#
#
# Elastic Constant Matrix: (Units=GPa)
#
#
# Indices 1 2 3 4 5 6 
#
# 1 100.4611 31.1459 20.0240 0.0000 0.0000 0.0000
# 2 31.1459 152.8507 22.2815 0.0000 0.0000 0.0000
# 3 20.0240 22.2815 100.3514 0.0000 0.0000 0.0000
# 4 0.0000 0.0000 0.0000 54.2926 0.0000 0.0000
# 5 0.0000 0.0000 0.0000 0.0000 5.4428 0.0000
# 6 0.0000 0.0000 0.0000 0.0000 0.0000 5.6490
#
#
#
# Elastic Compliance Matrix: (Units=1/GPa)
#
#
# Indices 1 2 3 4 5 6 
#
# 1 0.010912 -0.001970 -0.001740 0.000000 0.000000 0.000000
# 2 -0.001970 0.007117 -0.001187 0.000000 0.000000 0.000000
# 3 -0.001740 -0.001187 0.010576 0.000000 0.000000 0.000000
# 4 0.000000 0.000000 0.000000 0.018419 0.000000 0.000000
# 5 0.000000 0.000000 0.000000 0.000000 0.183729 0.000000
# 6 0.000000 0.000000 0.000000 0.000000 0.000000 0.177024
#
#
# Mechanical properties :
#
#
# Convention : Reuss Voigt Hill
#
# Bulk Modulus (GPa) = 53.16198 55.61845 54.39021
# Shear Modulus (GPa) = 11.79694 31.75765 21.77729
#
# Velocity S-wave (km/s) = 2.27266 3.72884 3.08782
# Velocity P-wave (km/s) = 5.49202 6.54906 6.04369
#
# Compressibility (1/GPa) = 0.01881044
#
# Stress axis : x y z
#
# Youngs Moduli (GPa) = 91.64563 140.51333 94.55596
#
# Poissons Ratio (x) = 0.27678 0.16452
# Poissons Ratio (y) = 0.18052 0.11225
# Poissons Ratio (z) = 0.15946 0.16681
#
# Static dielectric constant tensor:
#      x y z
#    x 3.853920 0.000000 0.000000 
#    y 0.000000 3.989200 0.000000 
#    z 0.000000 0.000000 4.268430 
# 
# 
# High freq. dielectric constant tensor:
#      x y z
#    x 1.860270 0.000000 0.000000 
#    y 0.000000 1.949490 0.000000 
#    z 0.000000 0.000000 1.922550 
# 
# From -- ./inp_files/7721.got.cif
#   From: 2010.03.12/outbox.cif.g09.slc.cpg/sg46_4_cif.got.tgz:7721.got - 2010.04.14 02:56:35.
