data_PCOD8193006
_publ_section_title
;
Structure prediction by ZEFSAII (Michael W. Deem and Ramdas Pophale) SiO2 
 PCOD8193006
Probable space group: I M A 2
;
_chemical_formula_sum "Si O2"
_cell_formula_units_Z 40
_cell_length_a 14.420520
_cell_length_b 26.629544
_cell_length_c 5.215832
_cell_angle_alpha 90.000000
_cell_angle_beta 90.000000
_cell_angle_gamma 90.000000
_cell_volume 2002.941410
_symmetry_space_group_name_H-M "I M A 2"
_symmetry_group_IT_number 46
_symmetry_cell_setting 'orthorhombic'
loop_
_space_group_symop_operation_xyz
x,y,z
-x,-y,z
1/2-x,y,z
1/2+x,-y,z
1/2+x,1/2+y,1/2+z
1/2-x,1/2-y,1/2+z
-x,1/2+y,1/2+z
x,1/2-y,1/2+z
loop_
_atom_site_type_symbol
_atom_site_label
_atom_site_fract_x
_atom_site_fract_y
_atom_site_fract_z
Si Si1 0.998997 0.440735 0.281840
Si Si2 0.640865 0.281309 0.764801
Si Si3 0.855736 0.727338 0.311934
Si Si4 0.529820 0.384244 0.792194
Si Si5 0.854322 0.878165 0.576937
O O1 0.955952 0.417532 0.539200
O O2 0.000000 0.500000 0.296295
O O3 0.107037 0.424859 0.243268
O O4 0.940434 0.418434 0.039526
O O5 0.750000 0.291907 0.768067
O O6 0.610782 0.252143 0.507854
O O7 0.591731 0.334995 0.775161
O O8 0.750000 0.747250 0.335876
O O9 0.905969 0.743140 0.576711
O O10 0.860910 0.668411 0.270276
O O11 0.420869 0.368879 0.830162
O O12 0.750000 0.887911 0.480156
#
# Coordination Sequence:
#
# PCOD8193006 Si02
#       5
#     8   8   8   8   8
#     4  10  22  41  61  81 119 160 204 258 308 355
#     4  10  21  39  64  93 127 163 204 253 313 376
#     4   9  18  30  46  72 110 147 179 216 258 318
#     4  10  22  38  62  89 118 160 199 255 301 369
#     4   9  22  38  59  87 121 158 196 238 292 362
#
# _framework density 19.97063
#
# number of rings (size 3 to 8) (size 9 to 14) (size 15 to 20)
#    1.200    1.200    0.000    1.800    2.800    2.400 
#    0.000    2.000    0.000    0.000    0.000    0.000 
#    0.000    0.000    0.000    0.000    0.000    0.000 
#
# Total GULP energy -247808.471070 kJ/mol
# GULP energy per Si atom -12390.423553 kJ/mol
# Density = 1.992518 g / cm^3
# Si number density = 19.970630 Si / 1000 Ang^3
#
#
#
# Elastic Constant Matrix: (Units=GPa)
#
#
# Indices 1 2 3 4 5 6 
#
# 1 49.2731 42.7021 7.2759 0.0794 0.0421 -0.0406
# 2 42.7021 163.2667 62.2472 0.1950 0.1074 -0.0388
# 3 7.2759 62.2472 142.4697 0.6003 -0.2434 -0.0006
# 4 0.0794 0.1950 0.6003 35.9318 -0.1128 0.0065
# 5 0.0421 0.1074 -0.2434 -0.1128 4.5211 -0.0110
# 6 -0.0406 -0.0388 -0.0006 0.0065 -0.0110 27.3120
#
#
#
# Elastic Compliance Matrix: (Units=1/GPa)
#
#
# Indices 1 2 3 4 5 6 
#
# 1 0.026723 -0.007762 0.002027 -0.000051 0.000044 0.000029
# 2 -0.007762 0.009604 -0.003801 0.000027 -0.000360 0.000002
# 3 0.002027 -0.003801 0.008577 -0.000125 0.000530 -0.000002
# 4 -0.000051 0.000027 -0.000125 0.027835 0.000688 -0.000006
# 5 0.000044 -0.000360 0.000530 0.000688 0.221239 0.000088
# 6 0.000029 0.000002 -0.000002 -0.000006 0.000088 0.036614
#
#
# Mechanical properties :
#
#
# Convention : Reuss Voigt Hill
#
# Bulk Modulus (GPa) = 38.71003 64.38444 51.54724
# Shear Modulus (GPa) = 13.95576 29.73859 21.84717
#
# Velocity S-wave (km/s) = 2.64638 3.86309 3.31110
# Velocity P-wave (km/s) = 5.36314 7.22548 6.36282
#
# Compressibility (1/GPa) = 0.02583310
#
# Stress axis : x y z
#
# Youngs Moduli (GPa) = 37.42137 104.11991 116.58414
#
# Poissons Ratio (x) = 0.80818 -0.23631
# Poissons Ratio (y) = 0.29047 0.44309
# Poissons Ratio (z) = -0.07585 0.39572
#
# Static dielectric constant tensor:
#      x y z
#    x 3.443860 -0.000040 0.000480 
#    y -0.000040 3.403970 -0.000730 
#    z 0.000480 -0.000730 3.963350 
# 
# 
# High freq. dielectric constant tensor:
#      x y z
#    x 1.749390 0.000000 0.000010 
#    y 0.000000 1.772380 -0.000040 
#    z 0.000010 -0.000040 1.795840 
# 
# From -- ./inp_files/1202.got.cif
#   From: 2010.03.12/outbox.cif.g09.slc.cpg/sg46_1_cif.got.tgz:1202.got - 2010.04.14 02:56:35.
