data_PCOD8193157
_publ_section_title
;
Structure prediction by ZEFSAII (Michael W. Deem and Ramdas Pophale) SiO2 
 PCOD8193157
Probable space group: I M A 2
;
_chemical_formula_sum "Si O2"
_cell_formula_units_Z 64
_cell_length_a 8.821120
_cell_length_b 23.644407
_cell_length_c 15.234833
_cell_angle_alpha 90.000000
_cell_angle_beta 90.000000
_cell_angle_gamma 90.000000
_cell_volume 3177.531427
_symmetry_space_group_name_H-M "I M A 2"
_symmetry_group_IT_number 46
_symmetry_cell_setting 'orthorhombic'
loop_
_space_group_symop_operation_xyz
x,y,z
-x,-y,z
1/2-x,y,z
1/2+x,-y,z
1/2+x,1/2+y,1/2+z
1/2-x,1/2-y,1/2+z
-x,1/2+y,1/2+z
x,1/2-y,1/2+z
loop_
_atom_site_type_symbol
_atom_site_label
_atom_site_fract_x
_atom_site_fract_y
_atom_site_fract_z
Si Si1 0.575176 0.748680 0.929730
Si Si2 0.928016 0.439117 0.038640
Si Si3 0.925012 0.744426 0.634052
Si Si4 0.576106 0.127631 0.178456
Si Si5 0.924558 0.355698 0.190055
Si Si6 0.427795 0.059969 0.027660
Si Si7 0.076991 0.862302 0.886604
Si Si8 0.075615 0.636010 0.876681
O O1 0.750000 0.762413 0.909130
O O2 0.469296 0.796975 0.890170
O O3 0.530411 0.690481 0.883607
O O4 0.544947 0.743026 0.032645
O O5 0.750000 0.446927 0.044483
O O6 0.986734 0.400227 0.118803
O O7 0.000000 0.500000 0.047349
O O8 0.977587 0.410858 0.946735
O O9 0.750000 0.731432 0.653763
O O10 0.022319 0.691360 0.664413
O O11 0.976397 0.798987 0.688245
O O12 0.750000 0.123589 0.148906
O O13 0.555669 0.109895 0.279863
O O14 0.481193 0.083734 0.120993
O O15 0.750000 0.339763 0.170003
O O16 0.941130 0.383447 0.286413
O O17 0.250000 0.052630 0.031251
O O18 0.468569 0.102438 0.949613
O O19 0.500000 0.000000 0.006769
O O20 0.250000 0.869119 0.918555
O O21 0.250000 0.653767 0.894347
#
# Coordination Sequence:
#
# PCOD8193157 Si02
#       8
#     8   8   8   8   8   8   8   8
#     4  11  22  36  59  92 127 162 201 248 305 361
#     4  10  22  41  62  85 118 155 199 249 295 352
#     4  11  22  36  59  92 127 162 201 248 305 361
#     4  11  23  40  64  93 123 160 203 250 304 365
#     4  10  22  40  63  90 122 161 204 248 302 362
#     4  12  26  45  66  89 120 161 205 255 307 362
#     4  11  23  40  64  93 123 160 203 250 304 365
#     4  10  22  40  63  90 122 161 204 248 302 362
#
# _framework density 20.141421999999999
#
# number of rings (size 3 to 8) (size 9 to 14) (size 15 to 20)
#    0.000    1.250    2.500    3.375    0.000    8.000 
#    0.000    2.500    0.000    0.000    0.000    0.000 
#    0.000    0.000    0.000    0.000    0.000    0.000 
#
# Total GULP energy -397000.039849 kJ/mol
# GULP energy per Si atom -12406.251245 kJ/mol
# Density = 2.009558 g / cm^3
# Si number density = 20.141422 Si / 1000 Ang^3
#
#
#
# Elastic Constant Matrix: (Units=GPa)
#
#
# Indices 1 2 3 4 5 6 
#
# 1 97.8954 25.4514 35.9557 0.0001 -0.0001 0.0000
# 2 25.4514 82.0830 14.1423 0.0002 0.0000 0.0000
# 3 35.9557 14.1423 101.9013 -0.0002 0.0002 0.0000
# 4 0.0001 0.0002 -0.0002 8.6071 0.0000 0.0000
# 5 -0.0001 0.0000 0.0002 0.0000 30.1367 0.0000
# 6 0.0000 0.0000 0.0000 0.0000 0.0000 39.3746
#
#
#
# Elastic Compliance Matrix: (Units=1/GPa)
#
#
# Indices 1 2 3 4 5 6 
#
# 1 0.012503 -0.003193 -0.003968 0.000000 0.000000 0.000000
# 2 -0.003193 0.013297 -0.000719 0.000000 0.000000 0.000000
# 3 -0.003968 -0.000719 0.011313 0.000000 0.000000 0.000000
# 4 0.000000 0.000000 0.000000 0.116184 0.000000 0.000000
# 5 0.000000 0.000000 0.000000 0.000000 0.033182 0.000000
# 6 0.000000 0.000000 0.000000 0.000000 0.000000 0.025397
#
#
# Mechanical properties :
#
#
# Convention : Reuss Voigt Hill
#
# Bulk Modulus (GPa) = 46.83286 48.10870 47.47078
# Shear Modulus (GPa) = 21.29896 29.37903 25.33900
#
# Velocity S-wave (km/s) = 3.25541 3.82335 3.55075
# Velocity P-wave (km/s) = 6.11823 6.58999 6.35849
#
# Compressibility (1/GPa) = 0.02135253
#
# Stress axis : x y z
#
# Youngs Moduli (GPa) = 79.98303 75.20683 88.39072
#
# Poissons Ratio (x) = 0.24013 0.35077
# Poissons Ratio (y) = 0.25538 0.06353
# Poissons Ratio (z) = 0.31740 0.05405
#
# Static dielectric constant tensor:
#      x y z
#    x 3.657710 0.000000 0.000000 
#    y 0.000000 3.578300 0.000000 
#    z 0.000000 0.000000 3.910600 
# 
# 
# High freq. dielectric constant tensor:
#      x y z
#    x 1.790180 0.000000 0.000000 
#    y 0.000000 1.776390 0.000000 
#    z 0.000000 0.000000 1.804070 
# 
# From -- ./inp_files/14517.got.cif
#   From: 2010.03.12/outbox.cif.g09.slc.cpg/sg46_8_cif.got.tgz:14517.got - 2010.04.14 02:56:35.
