data_PCOD8193788
_publ_section_title
;
Structure prediction by ZEFSAII (Michael W. Deem and Ramdas Pophale) SiO2 
 PCOD8193788
Probable space group: P M M M
;
_chemical_formula_sum "Si O2"
_cell_formula_units_Z 40
_cell_length_a 22.548858
_cell_length_b 7.948393
_cell_length_c 14.275978
_cell_angle_alpha 90.000000
_cell_angle_beta 90.000000
_cell_angle_gamma 90.000000
_cell_volume 2558.643351
_symmetry_space_group_name_H-M "P M M M"
_symmetry_group_IT_number 47
_symmetry_cell_setting 'orthorhombic'
loop_
_space_group_symop_operation_xyz
x,y,z
-x,-y,z
x,-y,-z
-x,y,-z
-x,-y,-z
x,y,-z
-x,y,z
x,-y,z
loop_
_atom_site_type_symbol
_atom_site_label
_atom_site_fract_x
_atom_site_fract_y
_atom_site_fract_z
Si Si1 0.642195 0.186460 0.111212
Si Si2 0.230794 0.301639 0.892250
Si Si3 0.000000 0.700931 0.106525
Si Si4 0.432897 0.500000 0.111879
Si Si5 0.932938 0.801254 0.604254
Si Si6 0.884557 0.305637 0.791197
O O1 0.709459 0.214737 0.145718
O O2 0.599123 0.331747 0.151747
O O3 0.620856 0.000000 0.143844
O O4 0.641398 0.199907 0.000000
O O5 0.239250 0.500000 0.879982
O O6 0.176322 0.227232 0.831075
O O7 0.218093 0.255115 0.000000
O O8 0.058120 0.776207 0.158137
O O9 0.000000 0.500000 0.112366
O O10 0.000000 0.764249 0.000000
O O11 0.500000 0.500000 0.149387
O O12 0.431202 0.500000 0.000000
O O13 0.912826 0.745152 0.500000
O O14 0.888626 0.719904 0.679475
O O15 0.000000 0.737212 0.622972
O O16 0.930427 0.000000 0.613332
O O17 0.883021 0.500000 0.817415
#
# Coordination Sequence:
#
# PCOD8193788 Si02
#       6
#     8   8   4   4   8   8
#     4   9  16  26  40  57  78 108 146 180 211 251
#     4   9  16  27  41  57  81 112 141 171 211 258
#     4   9  16  26  38  57  84 106 129 167 214 259
#     4   9  16  26  40  58  82 109 138 179 222 249
#     4   9  18  32  46  57  74 102 131 166 219 272
#     4  10  18  27  43  64  79  99 135 174 213 256
#
# _framework density 15.633285000000001
#
# number of rings (size 3 to 8) (size 9 to 14) (size 15 to 20)
#    0.000    2.800    2.000    1.200    0.000    4.000 
#    0.000    3.000    0.000    2.400    0.000    0.000 
#    0.000    0.000    0.000    0.000    0.000    2.000 
#
# Total GULP energy -495806.727272 kJ/mol
# GULP energy per Si atom -12395.168182 kJ/mol
# Density = 1.559770 g / cm^3
# Si number density = 15.633285 Si / 1000 Ang^3
#
#
#
# Elastic Constant Matrix: (Units=GPa)
#
#
# Indices 1 2 3 4 5 6 
#
# 1 124.2412 47.6605 37.1375 0.0000 0.0000 0.0000
# 2 47.6605 62.6254 12.9996 0.0000 0.0000 0.0000
# 3 37.1375 12.9996 65.2078 0.0000 0.0000 0.0000
# 4 0.0000 0.0000 0.0000 10.2078 0.0000 0.0000
# 5 0.0000 0.0000 0.0000 0.0000 6.8612 0.0000
# 6 0.0000 0.0000 0.0000 0.0000 0.0000 12.2877
#
#
#
# Elastic Compliance Matrix: (Units=1/GPa)
#
#
# Indices 1 2 3 4 5 6 
#
# 1 0.013141 -0.008812 -0.005728 0.000000 0.000000 0.000000
# 2 -0.008812 0.022566 0.000520 0.000000 0.000000 0.000000
# 3 -0.005728 0.000520 0.018494 0.000000 0.000000 0.000000
# 4 0.000000 0.000000 0.000000 0.097964 0.000000 0.000000
# 5 0.000000 0.000000 0.000000 0.000000 0.145747 0.000000
# 6 0.000000 0.000000 0.000000 0.000000 0.000000 0.081382
#
#
# Mechanical properties :
#
#
# Convention : Reuss Voigt Hill
#
# Bulk Modulus (GPa) = 38.22309 49.74107 43.98208
# Shear Modulus (GPa) = 12.01762 16.15646 14.08704
#
# Velocity S-wave (km/s) = 2.77559 3.21824 3.00508
# Velocity P-wave (km/s) = 5.89701 6.75988 6.34313
#
# Compressibility (1/GPa) = 0.02616220
#
# Stress axis : x y z
#
# Youngs Moduli (GPa) = 76.09539 44.31353 54.07180
#
# Poissons Ratio (x) = 0.39050 0.30970
# Poissons Ratio (y) = 0.67057 -0.02812
# Poissons Ratio (z) = 0.43584 -0.02304
#
# Static dielectric constant tensor:
#      x y z
#    x 3.060370 0.000000 0.000000 
#    y 0.000000 2.919910 0.000000 
#    z 0.000000 0.000000 2.726540 
# 
# 
# High freq. dielectric constant tensor:
#      x y z
#    x 1.585540 0.000000 0.000000 
#    y 0.000000 1.597470 0.000000 
#    z 0.000000 0.000000 1.547200 
# 
# From -- ./inp_files/6661.got.cif
#   From: 2010.03.12/outbox.cif.g09.slc.cpg/sg47_4_cif.got.tgz:6661.got - 2010.04.14 03:12:58.
