data_PCOD8193884
_publ_section_title
;
Structure prediction by ZEFSAII (Michael W. Deem and Ramdas Pophale) SiO2 
 PCOD8193884
Probable space group: P M M M
;
_chemical_formula_sum "Si O2"
_cell_formula_units_Z 56
_cell_length_a 9.140412
_cell_length_b 14.188790
_cell_length_c 31.213185
_cell_angle_alpha 90.000000
_cell_angle_beta 90.000000
_cell_angle_gamma 90.000000
_cell_volume 4048.081236
_symmetry_space_group_name_H-M "P M M M"
_symmetry_group_IT_number 47
_symmetry_cell_setting 'orthorhombic'
loop_
_space_group_symop_operation_xyz
x,y,z
-x,-y,z
x,-y,-z
-x,y,-z
-x,-y,-z
x,y,-z
-x,y,z
x,-y,z
loop_
_atom_site_type_symbol
_atom_site_label
_atom_site_fract_x
_atom_site_fract_y
_atom_site_fract_z
Si Si1 0.834919 0.112154 0.749768
Si Si2 0.334311 0.887659 0.500000
Si Si3 0.829293 0.606704 0.951016
Si Si4 0.834356 0.887675 0.416563
Si Si5 0.329294 0.891034 0.834170
Si Si6 0.325816 0.894300 0.000000
Si Si7 0.665560 0.112402 0.666890
Si Si8 0.326978 0.220045 0.081903
O O1 0.758357 0.147358 0.793185
O O2 0.746002 0.152054 0.709119
O O3 0.000000 0.151280 0.748062
O O4 0.833854 0.000000 0.748346
O O5 0.500000 0.848854 0.500000
O O6 0.250449 0.849192 0.541802
O O7 0.335384 0.000000 0.500000
O O8 0.793812 0.500000 0.936811
O O9 0.741539 0.675996 0.919761
O O10 0.000000 0.627738 0.946608
O O11 0.778371 0.622395 0.000000
O O12 0.751616 0.849345 0.374562
O O13 0.000000 0.848821 0.416848
O O14 0.835426 0.000000 0.416643
O O15 0.500000 0.877521 0.824643
O O16 0.276544 0.830692 0.874684
O O17 0.293538 0.000000 0.843870
O O18 0.267272 0.841099 0.042073
O O19 0.500000 0.897544 0.000000
O O20 0.261922 0.000000 0.000000
O O21 0.500000 0.151050 0.665893
O O22 0.665279 0.000000 0.667099
O O23 0.500000 0.229501 0.079859
#
# Coordination Sequence:
#
# PCOD8193884 Si02
#       8
#     8   4   8   8   8   4   8   8
#     4   9  16  25  36  49  64  84 111 141 170 201
#     4   9  15  21  27  35  49  69  93 121 157 203
#     4   9  18  32  47  61  79 102 123 146 181 219
#     4   9  15  21  28  38  52  70  93 123 160 203
#     4   9  17  28  40  55  76 100 122 144 174 213
#     4   9  16  26  40  59  82 104 125 149 176 207
#     4   9  15  22  32  44  57  74  98 130 167 205
#     4  10  18  28  44  64  80  98 125 153 178 207
#
# _framework density 13.833714000000001
#
# number of rings (size 3 to 8) (size 9 to 14) (size 15 to 20)
#    0.000    2.857    0.714    2.357    0.000    8.571 
#    0.000    0.714    0.000    1.714    0.000    0.000 
#    0.000    0.000    0.000    0.000    0.000    0.000 
#
# Total GULP energy -694324.336083 kJ/mol
# GULP energy per Si atom -12398.648859 kJ/mol
# Density = 1.380223 g / cm^3
# Si number density = 13.833714 Si / 1000 Ang^3
#
#
#
# Elastic Constant Matrix: (Units=GPa)
#
#
# Indices 1 2 3 4 5 6 
#
# 1 90.7670 20.7216 66.3098 0.0000 0.0000 0.0000
# 2 20.7216 40.6548 30.7293 0.0000 0.0000 0.0000
# 3 66.3098 30.7293 139.2195 0.0000 0.0000 0.0000
# 4 0.0000 0.0000 0.0000 2.3152 0.0000 0.0000
# 5 0.0000 0.0000 0.0000 0.0000 25.2344 0.0000
# 6 0.0000 0.0000 0.0000 0.0000 0.0000 11.2011
#
#
#
# Elastic Compliance Matrix: (Units=1/GPa)
#
#
# Indices 1 2 3 4 5 6 
#
# 1 0.017214 -0.003093 -0.007517 0.000000 0.000000 0.000000
# 2 -0.003093 0.030078 -0.005166 0.000000 0.000000 0.000000
# 3 -0.007517 -0.005166 0.011903 0.000000 0.000000 0.000000
# 4 0.000000 0.000000 0.000000 0.431930 0.000000 0.000000
# 5 0.000000 0.000000 0.000000 0.000000 0.039628 0.000000
# 6 0.000000 0.000000 0.000000 0.000000 0.000000 0.089277
#
#
# Mechanical properties :
#
#
# Convention : Reuss Voigt Hill
#
# Bulk Modulus (GPa) = 36.17208 56.24033 46.20620
# Shear Modulus (GPa) = 7.56662 17.94219 12.75440
#
# Velocity S-wave (km/s) = 2.34128 3.60528 3.03971
# Velocity P-wave (km/s) = 5.78907 7.62060 6.76708
#
# Compressibility (1/GPa) = 0.02764563
#
# Stress axis : x y z
#
# Youngs Moduli (GPa) = 58.09059 33.24638 84.01029
#
# Poissons Ratio (x) = 0.10282 0.63147
# Poissons Ratio (y) = 0.17966 0.43400
# Poissons Ratio (z) = 0.43664 0.17175
#
# Static dielectric constant tensor:
#      x y z
#    x 2.788150 0.000000 0.000000 
#    y 0.000000 2.217030 0.000000 
#    z 0.000000 0.000000 2.862970 
# 
# 
# High freq. dielectric constant tensor:
#      x y z
#    x 1.535130 0.000000 0.000000 
#    y 0.000000 1.449570 0.000000 
#    z 0.000000 0.000000 1.534010 
# 
# From -- ./inp_files/34391.got.cif
#   From: 2010.03.12/outbox.cif.g09.slc.cpg/sg47_18_cif.got.tgz:34391.got - 2010.04.14 03:12:58.
