data_PCOD8193528
_publ_section_title
;
Structure prediction by ZEFSAII (Michael W. Deem and Ramdas Pophale) SiO2 
 PCOD8193528
Probable space group: P M M M
;
_chemical_formula_sum "Si O2"
_cell_formula_units_Z 52
_cell_length_a 28.603913
_cell_length_b 9.136850
_cell_length_c 14.424557
_cell_angle_alpha 90.000000
_cell_angle_beta 90.000000
_cell_angle_gamma 90.000000
_cell_volume 3769.853104
_symmetry_space_group_name_H-M "P M M M"
_symmetry_group_IT_number 47
_symmetry_cell_setting 'orthorhombic'
loop_
_space_group_symop_operation_xyz
x,y,z
-x,-y,z
x,-y,-z
-x,y,-z
-x,-y,-z
x,y,-z
-x,y,z
x,-y,z
loop_
_atom_site_type_symbol
_atom_site_label
_atom_site_fract_x
_atom_site_fract_y
_atom_site_fract_z
Si Si1 0.730282 0.164668 0.389908
Si Si2 0.092580 0.173620 0.291008
Si Si3 0.640307 0.335506 0.389279
Si Si4 0.823289 0.327894 0.607619
Si Si5 0.448519 0.164486 0.610212
Si Si6 0.947749 0.173372 0.101442
Si Si7 0.000000 0.173372 0.396559
O O1 0.727849 0.161403 0.500000
O O2 0.683733 0.241743 0.350351
O O3 0.775131 0.256416 0.357355
O O4 0.733381 0.000000 0.350074
O O5 0.135927 0.259627 0.331798
O O6 0.086961 0.223011 0.183484
O O7 0.046214 0.227310 0.344112
O O8 0.100614 0.000000 0.302243
O O9 0.640282 0.333595 0.500000
O O10 0.644995 0.500000 0.351591
O O11 0.591958 0.268658 0.349508
O O12 0.832625 0.291021 0.500000
O O13 0.820196 0.500000 0.624651
O O14 0.446259 0.164822 0.500000
O O15 0.500000 0.219896 0.642584
O O16 0.439848 0.000000 0.646673
O O17 0.000000 0.237133 0.117666
O O18 0.951582 0.000000 0.104752
O O19 0.928846 0.224715 0.000000
O O20 0.000000 0.239919 0.500000
O O21 0.000000 0.000000 0.399730
#
# Coordination Sequence:
#
# PCOD8193528 Si02
#       7
#     8   8   8   8   8   8   4
#     4   9  16  26  39  51  62  81 112 146 177 212
#     4  10  17  27  43  61  77  97 123 148 177 213
#     4   9  15  21  30  44  61  80 103 135 176 219
#     4  10  20  31  40  52  73  98 121 148 183 219
#     4   8  13  20  28  38  54  77 105 137 173 213
#     4   8  13  23  41  64  84  97 115 147 181 210
#     4   9  16  24  36  56  78  97 121 151 174 199
#
# _framework density 13.793640999999999
#
# number of rings (size 3 to 8) (size 9 to 14) (size 15 to 20)
#    0.000    3.000    0.769    2.769    0.000    5.538 
#    0.000    1.923    0.000    1.846    0.000    1.077 
#    0.000    0.000    0.000    0.000    0.000    0.000 
#
# Total GULP energy -644456.370228 kJ/mol
# GULP energy per Si atom -12393.391735 kJ/mol
# Density = 1.376225 g / cm^3
# Si number density = 13.793641 Si / 1000 Ang^3
#
#
#
# Elastic Constant Matrix: (Units=GPa)
#
#
# Indices 1 2 3 4 5 6 
#
# 1 132.5021 59.4293 37.7869 0.0000 0.0000 0.0000
# 2 59.4293 77.9726 24.7685 0.0000 0.0000 0.0000
# 3 37.7869 24.7685 54.0215 0.0000 0.0000 0.0000
# 4 0.0000 0.0000 0.0000 6.2742 0.0000 0.0000
# 5 0.0000 0.0000 0.0000 0.0000 1.0597 0.0000
# 6 0.0000 0.0000 0.0000 0.0000 0.0000 9.2290
#
#
#
# Elastic Compliance Matrix: (Units=1/GPa)
#
#
# Indices 1 2 3 4 5 6 
#
# 1 0.012585 -0.007954 -0.005156 0.000000 0.000000 0.000000
# 2 -0.007954 0.020039 -0.003624 0.000000 0.000000 0.000000
# 3 -0.005156 -0.003624 0.023779 0.000000 0.000000 0.000000
# 4 0.000000 0.000000 0.000000 0.159384 0.000000 0.000000
# 5 0.000000 0.000000 0.000000 0.000000 0.943645 0.000000
# 6 0.000000 0.000000 0.000000 0.000000 0.000000 0.108355
#
#
# Mechanical properties :
#
#
# Convention : Reuss Voigt Hill
#
# Bulk Modulus (GPa) = 43.60180 56.49617 50.04898
# Shear Modulus (GPa) = 3.82001 12.81334 8.31667
#
# Velocity S-wave (km/s) = 1.66596 3.05114 2.45814
# Velocity P-wave (km/s) = 5.94804 7.31161 6.66479
#
# Compressibility (1/GPa) = 0.02293484
#
# Stress axis : x y z
#
# Youngs Moduli (GPa) = 79.45936 49.90337 42.05367
#
# Poissons Ratio (x) = 0.39694 0.21683
# Poissons Ratio (y) = 0.63204 0.15239
# Poissons Ratio (z) = 0.40969 0.18084
#
# Static dielectric constant tensor:
#      x y z
#    x 2.896490 0.000000 0.000000 
#    y 0.000000 2.681570 0.000000 
#    z 0.000000 0.000000 2.458260 
# 
# 
# High freq. dielectric constant tensor:
#      x y z
#    x 1.531450 0.000000 0.000000 
#    y 0.000000 1.517910 0.000000 
#    z 0.000000 0.000000 1.458150 
# 
# From -- ./inp_files/25695.got.cif
#   From: 2010.03.12/outbox.cif.g09.slc.cpg/sg47_13_cif.got.tgz:25695.got - 2010.04.14 03:12:58.
