data_PCOD8193281
_publ_section_title
;
Structure prediction by ZEFSAII (Michael W. Deem and Ramdas Pophale) SiO2 
 PCOD8193281
Probable space group: I M A 2
;
_chemical_formula_sum "Si O2"
_cell_formula_units_Z 36
_cell_length_a 17.789922
_cell_length_b 10.492844
_cell_length_c 8.688264
_cell_angle_alpha 90.000000
_cell_angle_beta 90.000000
_cell_angle_gamma 90.000000
_cell_volume 1621.811102
_symmetry_space_group_name_H-M "I M A 2"
_symmetry_group_IT_number 46
_symmetry_cell_setting 'orthorhombic'
loop_
_space_group_symop_operation_xyz
x,y,z
-x,-y,z
1/2-x,y,z
1/2+x,-y,z
1/2+x,1/2+y,1/2+z
1/2-x,1/2-y,1/2+z
-x,1/2+y,1/2+z
x,1/2-y,1/2+z
loop_
_atom_site_type_symbol
_atom_site_label
_atom_site_fract_x
_atom_site_fract_y
_atom_site_fract_z
Si Si1 0.000000 0.500000 0.281130
Si Si2 0.914307 0.138938 0.523617
Si Si3 0.250000 0.942924 0.202626
Si Si4 0.605372 0.914563 0.309202
Si Si5 0.750000 0.227016 0.487134
Si Si6 0.450200 0.304095 0.498421
O O1 0.052802 0.590030 0.182564
O O2 0.059517 0.422373 0.384493
O O3 0.826439 0.165537 0.554400
O O4 0.962322 0.262879 0.478921
O O5 0.930822 0.039877 0.385076
O O6 0.250000 0.812667 0.306556
O O7 0.250000 0.879576 0.030019
O O8 0.316947 0.040374 0.234949
O O9 0.608102 0.808949 0.448157
O O10 0.558903 0.848708 0.173473
#
# Coordination Sequence:
#
# PCOD8193281 Si02
#       6
#     4   8   4   8   4   8
#     4  12  26  38  70 102 130 184 226 278 348 398
#     4  11  24  46  65 101 139 171 233 290 333 417
#     4  10  26  44  72 100 142 186 224 288 346 422
#     4  11  24  46  67 101 138 182 231 285 346 403
#     4  10  26  42  68  98 138 178 222 276 348 406
#     4  12  25  40  70  98 137 179 229 285 340 415
#
# _framework density 22.197407999999999
#
# number of rings (size 3 to 8) (size 9 to 14) (size 15 to 20)
#    0.000    0.889    4.444    0.000   12.444    0.889 
#    0.000    3.333    0.000    0.000    0.000    0.000 
#    0.000    0.000    0.000    0.000    0.000    0.000 
#
# Total GULP energy -223008.162291 kJ/mol
# GULP energy per Si atom -12389.342350 kJ/mol
# Density = 2.214689 g / cm^3
# Si number density = 22.197408 Si / 1000 Ang^3
#
#
#
# Elastic Constant Matrix: (Units=GPa)
#
#
# Indices 1 2 3 4 5 6 
#
# 1 102.2825 45.1100 29.2491 0.0000 0.0000 0.0000
# 2 45.1100 97.9790 43.7791 0.0000 0.0000 0.0000
# 3 29.2491 43.7791 101.8440 0.0000 0.0000 0.0000
# 4 0.0000 0.0000 0.0000 57.0323 0.0000 0.0000
# 5 0.0000 0.0000 0.0000 0.0000 17.3547 0.0000
# 6 0.0000 0.0000 0.0000 0.0000 0.0000 31.0473
#
#
#
# Elastic Compliance Matrix: (Units=1/GPa)
#
#
# Indices 1 2 3 4 5 6 
#
# 1 0.012421 -0.005105 -0.001373 0.000000 0.000000 0.000000
# 2 -0.005105 0.014731 -0.004866 0.000000 0.000000 0.000000
# 3 -0.001373 -0.004866 0.012305 0.000000 0.000000 0.000000
# 4 0.000000 0.000000 0.000000 0.017534 0.000000 0.000000
# 5 0.000000 0.000000 0.000000 0.000000 0.057621 0.000000
# 6 0.000000 0.000000 0.000000 0.000000 0.000000 0.032209
#
#
# Mechanical properties :
#
#
# Convention : Reuss Voigt Hill
#
# Bulk Modulus (GPa) = 59.63474 59.82023 59.72749
# Shear Modulus (GPa) = 28.55530 33.35137 30.95334
#
# Velocity S-wave (km/s) = 3.59057 3.88040 3.73829
# Velocity P-wave (km/s) = 6.64180 6.86181 6.75270
#
# Compressibility (1/GPa) = 0.01676875
#
# Stress axis : x y z
#
# Youngs Moduli (GPa) = 80.50881 67.88363 81.26823
#
# Poissons Ratio (x) = 0.34657 0.11155
# Poissons Ratio (y) = 0.41103 0.39546
# Poissons Ratio (z) = 0.11051 0.33033
#
# Static dielectric constant tensor:
#      x y z
#    x 3.963530 0.000000 0.000000 
#    y 0.000000 4.190460 0.000000 
#    z 0.000000 0.000000 4.070440 
# 
# 
# High freq. dielectric constant tensor:
#      x y z
#    x 1.857620 0.000000 0.000000 
#    y 0.000000 1.882140 0.000000 
#    z 0.000000 0.000000 1.884370 
# 
# From -- ./inp_files/7190.got.cif
#   From: 2010.03.12/outbox.cif.g09.slc.cpg/sg46_4_cif.got.tgz:7190.got - 2010.04.14 02:56:35.
