data_PCOD8193791
_publ_section_title
;
Structure prediction by ZEFSAII (Michael W. Deem and Ramdas Pophale) SiO2 
 PCOD8193791
Probable space group: P M M M
;
_chemical_formula_sum "Si O2"
_cell_formula_units_Z 48
_cell_length_a 22.684218
_cell_length_b 7.562189
_cell_length_c 18.876806
_cell_angle_alpha 90.000000
_cell_angle_beta 90.000000
_cell_angle_gamma 90.000000
_cell_volume 3238.171545
_symmetry_space_group_name_H-M "P M M M"
_symmetry_group_IT_number 47
_symmetry_cell_setting 'orthorhombic'
loop_
_space_group_symop_operation_xyz
x,y,z
-x,-y,z
x,-y,-z
-x,y,-z
-x,-y,-z
x,y,-z
-x,y,z
x,-y,z
loop_
_atom_site_type_symbol
_atom_site_label
_atom_site_fract_x
_atom_site_fract_y
_atom_site_fract_z
Si Si1 0.000000 0.692688 0.582731
Si Si2 0.565226 0.000000 0.083596
Si Si3 0.930661 0.500000 0.788348
Si Si4 0.144011 0.500000 0.079462
Si Si5 0.872369 0.198835 0.576660
Si Si6 0.346080 0.702256 0.081941
Si Si7 0.777058 0.796612 0.859073
Si Si8 0.850853 0.793468 0.726266
O O1 0.940574 0.796281 0.602532
O O2 0.000000 0.500000 0.620945
O O3 0.000000 0.662812 0.500000
O O4 0.600012 0.824283 0.107746
O O5 0.500000 0.000000 0.118561
O O6 0.558577 0.000000 0.000000
O O7 0.913074 0.500000 0.870947
O O8 0.905450 0.677580 0.753137
O O9 0.000000 0.500000 0.780390
O O10 0.183595 0.674203 0.090811
O O11 0.120159 0.500000 0.000000
O O12 0.862198 0.299583 0.500000
O O13 0.835375 0.269257 0.644905
O O14 0.853633 0.000000 0.562728
O O15 0.365707 0.500000 0.091971
O O16 0.290873 0.746676 0.131519
O O17 0.329333 0.741884 0.000000
O O18 0.794268 0.761661 0.776644
O O19 0.788542 0.000000 0.880257
O O20 0.869693 0.000000 0.726703
#
# Coordination Sequence:
#
# PCOD8193791 Si02
#       8
#     4   4   4   4   8   8   8   8
#     4   9  17  25  35  55  77  95 123 162 195 238
#     4   9  18  30  42  62  92 122 148 172 205 244
#     4  10  22  35  47  62  80 106 134 166 221 279
#     4  10  20  33  48  65  82 100 132 182 223 261
#     4   9  17  29  42  56  76 103 133 163 201 248
#     4  10  18  27  43  65  86 113 146 180 210 239
#     4  10  18  30  46  65  87 107 138 178 218 256
#     4   9  20  33  45  63  84 107 134 174 216 257
#
# _framework density 14.823180000000001
#
# number of rings (size 3 to 8) (size 9 to 14) (size 15 to 20)
#    0.000    2.500    1.667    0.750    2.333    2.833 
#    0.000    1.667    0.000    0.000    0.000    4.667 
#    0.000    0.000    0.000    0.000    0.000    1.667 
#
# Total GULP energy -594684.521959 kJ/mol
# GULP energy per Si atom -12389.260874 kJ/mol
# Density = 1.478944 g / cm^3
# Si number density = 14.823180 Si / 1000 Ang^3
#
#
#
# Elastic Constant Matrix: (Units=GPa)
#
#
# Indices 1 2 3 4 5 6 
#
# 1 88.1914 35.5069 40.3294 0.0000 0.0000 0.0000
# 2 35.5069 87.6325 30.8347 0.0000 0.0000 0.0000
# 3 40.3294 30.8347 109.9462 0.0000 0.0000 0.0000
# 4 0.0000 0.0000 0.0000 12.3452 0.0000 0.0000
# 5 0.0000 0.0000 0.0000 0.0000 10.2661 0.0000
# 6 0.0000 0.0000 0.0000 0.0000 0.0000 15.9580
#
#
#
# Elastic Compliance Matrix: (Units=1/GPa)
#
#
# Indices 1 2 3 4 5 6 
#
# 1 0.015155 -0.004643 -0.004257 0.000000 0.000000 0.000000
# 2 -0.004643 0.014083 -0.002247 0.000000 0.000000 0.000000
# 3 -0.004257 -0.002247 0.011287 0.000000 0.000000 0.000000
# 4 0.000000 0.000000 0.000000 0.081003 0.000000 0.000000
# 5 0.000000 0.000000 0.000000 0.000000 0.097408 0.000000
# 6 0.000000 0.000000 0.000000 0.000000 0.000000 0.062664
#
#
# Mechanical properties :
#
#
# Convention : Reuss Voigt Hill
#
# Bulk Modulus (GPa) = 54.84758 55.45691 55.15224
# Shear Modulus (GPa) = 16.13062 19.65381 17.89222
#
# Velocity S-wave (km/s) = 3.30237 3.64522 3.47802
# Velocity P-wave (km/s) = 7.18487 7.43037 7.30865
#
# Compressibility (1/GPa) = 0.01823235
#
# Stress axis : x y z
#
# Youngs Moduli (GPa) = 65.98572 71.00821 88.59821
#
# Poissons Ratio (x) = 0.32966 0.37716
# Poissons Ratio (y) = 0.30634 0.19905
# Poissons Ratio (z) = 0.28090 0.15953
#
# Static dielectric constant tensor:
#      x y z
#    x 2.707270 0.000000 0.000000 
#    y 0.000000 3.098200 0.000000 
#    z 0.000000 0.000000 3.063150 
# 
# 
# High freq. dielectric constant tensor:
#      x y z
#    x 1.520460 0.000000 0.000000 
#    y 0.000000 1.584040 0.000000 
#    z 0.000000 0.000000 1.556860 
# 
# From -- ./inp_files/28699.got.cif
#   From: 2010.03.12/outbox.cif.g09.slc.cpg/sg47_15_cif.got.tgz:28699.got - 2010.04.14 03:12:58.
