data_PCOD8193285
_publ_section_title
;
Structure prediction by ZEFSAII (Michael W. Deem and Ramdas Pophale) SiO2 
 PCOD8193285
Probable space group: I M A 2
;
_chemical_formula_sum "Si O2"
_cell_formula_units_Z 40
_cell_length_a 13.640583
_cell_length_b 14.418163
_cell_length_c 12.131217
_cell_angle_alpha 90.000000
_cell_angle_beta 90.000000
_cell_angle_gamma 90.000000
_cell_volume 2385.872519
_symmetry_space_group_name_H-M "I M A 2"
_symmetry_group_IT_number 46
_symmetry_cell_setting 'orthorhombic'
loop_
_space_group_symop_operation_xyz
x,y,z
-x,-y,z
1/2-x,y,z
1/2+x,-y,z
1/2+x,1/2+y,1/2+z
1/2-x,1/2-y,1/2+z
-x,1/2+y,1/2+z
x,1/2-y,1/2+z
loop_
_atom_site_type_symbol
_atom_site_label
_atom_site_fract_x
_atom_site_fract_y
_atom_site_fract_z
Si Si1 0.750000 0.620312 0.808250
Si Si2 0.958729 0.908345 0.772661
Si Si3 0.750000 0.700917 0.586429
Si Si4 0.410878 0.256680 0.921223
Si Si5 0.250000 0.968336 0.477455
Si Si6 0.456097 0.903203 0.534910
Si Si7 0.250000 0.399507 0.177993
O O1 0.750000 0.615358 0.673711
O O2 0.653840 0.674921 0.847745
O O3 0.750000 0.514535 0.855185
O O4 0.967518 0.818322 0.847804
O O5 0.845961 0.930632 0.743125
O O6 0.026289 0.893432 0.665216
O O7 0.000000 0.000000 0.834941
O O8 0.846468 0.700717 0.510757
O O9 0.750000 0.789522 0.666514
O O10 0.494549 0.315584 0.978852
O O11 0.342062 0.902502 0.502269
O O12 0.250000 0.058671 0.555880
O O13 0.500000 0.000000 0.490425
#
# Coordination Sequence:
#
# PCOD8193285 Si02
#       7
#     4   8   4   8   4   8   4
#     4  11  17  29  57  84 105 133 174 236 281 299
#     4  11  21  33  56  82 107 141 183 221 271 315
#     4  11  18  30  56  84 111 129 174 237 279 314
#     4  11  19  32  53  83 112 138 176 221 275 318
#     4  12  20  32  55  86 104 134 182 227 264 309
#     4  11  19  34  55  80 111 137 177 226 260 325
#     4  12  15  31  54  86 102 124 178 240 266 296
#
# _framework density 16.765355
#
# number of rings (size 3 to 8) (size 9 to 14) (size 15 to 20)
#    0.000    0.800   12.000    0.600    0.000    0.000 
#    0.000    2.000    8.800    0.000    0.000    0.000 
#    0.000    0.000    0.000    0.000    0.000    0.000 
#
# Total GULP energy -247988.705611 kJ/mol
# GULP energy per Si atom -12399.435281 kJ/mol
# Density = 1.672720 g / cm^3
# Si number density = 16.765355 Si / 1000 Ang^3
#
#
#
# Elastic Constant Matrix: (Units=GPa)
#
#
# Indices 1 2 3 4 5 6 
#
# 1 106.1406 46.1250 41.6758 0.0000 0.0000 0.0000
# 2 46.1250 85.3840 43.5153 0.0000 0.0000 0.0000
# 3 41.6758 43.5153 81.7303 0.0000 0.0000 0.0000
# 4 0.0000 0.0000 0.0000 38.0148 0.0000 0.0000
# 5 0.0000 0.0000 0.0000 0.0000 34.8265 0.0000
# 6 0.0000 0.0000 0.0000 0.0000 0.0000 25.7419
#
#
#
# Elastic Compliance Matrix: (Units=1/GPa)
#
#
# Indices 1 2 3 4 5 6 
#
# 1 0.013213 -0.005084 -0.004031 0.000000 0.000000 0.000000
# 2 -0.005084 0.018029 -0.007007 0.000000 0.000000 0.000000
# 3 -0.004031 -0.007007 0.018022 0.000000 0.000000 0.000000
# 4 0.000000 0.000000 0.000000 0.026306 0.000000 0.000000
# 5 0.000000 0.000000 0.000000 0.000000 0.028714 0.000000
# 6 0.000000 0.000000 0.000000 0.000000 0.000000 0.038847
#
#
# Mechanical properties :
#
#
# Convention : Reuss Voigt Hill
#
# Bulk Modulus (GPa) = 58.75171 59.54302 59.14736
# Shear Modulus (GPa) = 27.61710 29.17922 28.39816
#
# Velocity S-wave (km/s) = 4.06306 4.17639 4.12012
# Velocity P-wave (km/s) = 7.55850 7.67131 7.61511
#
# Compressibility (1/GPa) = 0.01702078
#
# Stress axis : x y z
#
# Youngs Moduli (GPa) = 75.68059 55.46626 55.48898
#
# Poissons Ratio (x) = 0.28196 0.22369
# Poissons Ratio (y) = 0.38472 0.38881
# Poissons Ratio (z) = 0.30508 0.38865
#
# Static dielectric constant tensor:
#      x y z
#    x 3.241530 0.000000 0.000000 
#    y 0.000000 3.052370 0.000000 
#    z 0.000000 0.000000 3.161000 
# 
# 
# High freq. dielectric constant tensor:
#      x y z
#    x 1.645270 0.000000 0.000000 
#    y 0.000000 1.621170 0.000000 
#    z 0.000000 0.000000 1.634650 
# 
# From -- ./inp_files/10181.got.cif
#   From: 2010.03.12/outbox.cif.g09.slc.cpg/sg46_6_cif.got.tgz:10181.got - 2010.04.14 02:56:35.
