data_PCOD8193266
_publ_section_title
;
Structure prediction by ZEFSAII (Michael W. Deem and Ramdas Pophale) SiO2 
 PCOD8193266
Probable space group: I M A 2
;
_chemical_formula_sum "Si O2"
_cell_formula_units_Z 40
_cell_length_a 7.831646
_cell_length_b 25.564949
_cell_length_c 9.772826
_cell_angle_alpha 90.000000
_cell_angle_beta 90.000000
_cell_angle_gamma 90.000000
_cell_volume 1956.672520
_symmetry_space_group_name_H-M "I M A 2"
_symmetry_group_IT_number 46
_symmetry_cell_setting 'orthorhombic'
loop_
_space_group_symop_operation_xyz
x,y,z
-x,-y,z
1/2-x,y,z
1/2+x,-y,z
1/2+x,1/2+y,1/2+z
1/2-x,1/2-y,1/2+z
-x,1/2+y,1/2+z
x,1/2-y,1/2+z
loop_
_atom_site_type_symbol
_atom_site_label
_atom_site_fract_x
_atom_site_fract_y
_atom_site_fract_z
Si Si1 0.054460 0.365119 0.655840
Si Si2 0.060431 0.440566 0.427337
Si Si3 0.450690 0.556293 0.866735
Si Si4 0.750000 0.207700 0.238031
Si Si5 0.250000 0.810322 0.562650
Si Si6 0.563223 0.093733 0.649609
O O1 0.250000 0.344939 0.626643
O O2 0.970875 0.401006 0.534433
O O3 0.060944 0.400570 0.790345
O O4 0.923882 0.317794 0.680419
O O5 0.250000 0.442914 0.483325
O O6 0.000000 0.500000 0.425684
O O7 0.059166 0.413660 0.278275
O O8 0.500000 0.500000 0.805942
O O9 0.250000 0.569405 0.849864
O O10 0.506030 0.558340 0.025475
O O11 0.750000 0.209177 0.404605
O O12 0.750000 0.265250 0.175225
O O13 0.417959 0.846351 0.593684
O O14 0.750000 0.072863 0.697764
#
# Coordination Sequence:
#
# PCOD8193266 Si02
#       6
#     8   8   8   4   4   8
#     4  11  24  42  64  96 134 171 219 273 324 394
#     4  11  24  37  58  96 133 179 223 260 323 389
#     4  11  20  36  60  91 129 173 217 260 325 395
#     4  12  24  48  74  98 130 172 220 288 337 392
#     4  10  24  44  74 100 118 178 224 264 361 382
#     4   9  20  40  59  90 127 163 218 264 320 395
#
# _framework density 20.442868000000001
#
# number of rings (size 3 to 8) (size 9 to 14) (size 15 to 20)
#    0.600    0.800    3.000    2.400    5.600    4.800 
#    0.000    2.000    0.000    0.000    0.000    0.000 
#    0.000    0.000    0.000    0.000    0.000    0.000 
#
# Total GULP energy -247817.567138 kJ/mol
# GULP energy per Si atom -12390.878357 kJ/mol
# Density = 2.039634 g / cm^3
# Si number density = 20.442868 Si / 1000 Ang^3
#
#
#
# Elastic Constant Matrix: (Units=GPa)
#
#
# Indices 1 2 3 4 5 6 
#
# 1 63.6947 20.6837 18.1859 0.0006 0.0016 -0.0003
# 2 20.6837 97.2346 19.1254 -0.0045 0.0009 0.0018
# 3 18.1859 19.1254 96.2989 -0.0169 0.0018 0.0064
# 4 0.0006 -0.0045 -0.0169 40.4157 -0.0005 0.0016
# 5 0.0016 0.0009 0.0018 -0.0005 16.6918 -0.0020
# 6 -0.0003 0.0018 0.0064 0.0016 -0.0020 18.2221
#
#
#
# Elastic Compliance Matrix: (Units=1/GPa)
#
#
# Indices 1 2 3 4 5 6 
#
# 1 0.017501 -0.003198 -0.002670 -0.000002 -0.000001 0.000002
# 2 -0.003198 0.011287 -0.001638 0.000001 0.000000 -0.000001
# 3 -0.002670 -0.001638 0.011214 0.000005 -0.000001 -0.000004
# 4 -0.000002 0.000001 0.000005 0.024743 0.000001 -0.000002
# 5 -0.000001 0.000000 -0.000001 0.000001 0.059910 0.000007
# 6 0.000002 -0.000001 -0.000004 -0.000002 0.000007 0.054878
#
#
# Mechanical properties :
#
#
# Convention : Reuss Voigt Hill
#
# Bulk Modulus (GPa) = 40.01492 41.46869 40.74180
# Shear Modulus (GPa) = 24.64601 28.34814 26.49707
#
# Velocity S-wave (km/s) = 3.47595 3.72788 3.60412
# Velocity P-wave (km/s) = 5.97713 6.23367 6.10675
#
# Compressibility (1/GPa) = 0.02499068
#
# Stress axis : x y z
#
# Youngs Moduli (GPa) = 57.14105 88.59973 89.17578
#
# Poissons Ratio (x) = 0.28330 0.23809
# Poissons Ratio (y) = 0.18271 0.14605
# Poissons Ratio (z) = 0.15256 0.14510
#
# Static dielectric constant tensor:
#      x y z
#    x 3.857420 -0.000030 0.000020 
#    y -0.000030 3.595620 -0.000020 
#    z 0.000020 -0.000020 3.731040 
# 
# 
# High freq. dielectric constant tensor:
#      x y z
#    x 1.782350 0.000000 0.000000 
#    y 0.000000 1.783410 0.000000 
#    z 0.000000 0.000000 1.814000 
# 
# From -- ./inp_files/3688.got.cif
#   From: 2010.03.12/outbox.cif.g09.slc.cpg/sg46_2_cif.got.tgz:3688.got - 2010.04.14 02:56:35.
