data_PCOD8193568
_publ_section_title
;
Structure prediction by ZEFSAII (Michael W. Deem and Ramdas Pophale) SiO2 
 PCOD8193568
Probable space group: P M M M
;
_chemical_formula_sum "Si O2"
_cell_formula_units_Z 52
_cell_length_a 23.320813
_cell_length_b 14.239294
_cell_length_c 9.223231
_cell_angle_alpha 90.000000
_cell_angle_beta 90.000000
_cell_angle_gamma 90.000000
_cell_volume 3062.775959
_symmetry_space_group_name_H-M "P M M M"
_symmetry_group_IT_number 47
_symmetry_cell_setting 'orthorhombic'
loop_
_space_group_symop_operation_xyz
x,y,z
-x,-y,z
x,-y,-z
-x,y,-z
-x,-y,-z
x,y,-z
-x,y,z
x,-y,z
loop_
_atom_site_type_symbol
_atom_site_label
_atom_site_fract_x
_atom_site_fract_y
_atom_site_fract_z
Si Si1 0.175008 0.293756 0.172804
Si Si2 0.723351 0.609017 0.667219
Si Si3 0.390049 0.281103 0.671227
Si Si4 0.936996 0.394561 0.827769
Si Si5 0.775809 0.898290 0.827943
Si Si6 0.354187 0.893809 0.168792
Si Si7 0.500000 0.394547 0.672523
O O1 0.222527 0.362574 0.236784
O O2 0.112539 0.325579 0.230954
O O3 0.184568 0.186861 0.228682
O O4 0.179245 0.300360 0.000000
O O5 0.737370 0.630809 0.500000
O O6 0.709876 0.500000 0.691206
O O7 0.667829 0.666256 0.719895
O O8 0.393088 0.268788 0.500000
O O9 0.393540 0.178238 0.742766
O O10 0.443697 0.340953 0.729354
O O11 0.925244 0.500000 0.770221
O O12 0.000000 0.360232 0.773775
O O13 0.935957 0.395319 0.000000
O O14 0.710969 0.882451 0.774102
O O15 0.798543 0.000000 0.770247
O O16 0.775475 0.900410 0.000000
O O17 0.375762 0.000000 0.197666
O O18 0.358205 0.868931 0.000000
O O19 0.500000 0.500000 0.736213
O O20 0.500000 0.398683 0.500000
#
# Coordination Sequence:
#
# PCOD8193568 Si02
#       7
#     8   8   8   8   8   8   4
#     4  10  17  27  47  69  87 115 157 192 220 265
#     4  10  20  31  43  65  97 122 140 179 238 280
#     4  10  19  32  51  72  92 119 156 194 227 267
#     4   8  14  24  38  60  90 119 149 188 228 263
#     4   8  14  25  42  65  91 117 145 180 225 272
#     4   9  17  31  50  70  95 125 151 181 231 286
#     4   9  18  34  54  71  90 124 165 193 222 277
#
# _framework density 16.978062000000001
#
# number of rings (size 3 to 8) (size 9 to 14) (size 15 to 20)
#    0.000    2.846    1.538    2.308    0.000    3.077 
#    0.000    0.769    0.000    5.538    0.000    5.385 
#    0.000    0.000    0.000    1.385    0.000    1.692 
#
# Total GULP energy -644555.876965 kJ/mol
# GULP energy per Si atom -12395.305326 kJ/mol
# Density = 1.693942 g / cm^3
# Si number density = 16.978062 Si / 1000 Ang^3
#
#
#
# Elastic Constant Matrix: (Units=GPa)
#
#
# Indices 1 2 3 4 5 6 
#
# 1 118.8288 68.6082 22.7056 0.0000 0.0000 0.0000
# 2 68.6082 137.2514 26.0482 0.0000 0.0000 0.0000
# 3 22.7056 26.0482 19.6590 0.0000 0.0000 0.0000
# 4 0.0000 0.0000 0.0000 22.7723 0.0000 0.0000
# 5 0.0000 0.0000 0.0000 0.0000 15.6753 0.0000
# 6 0.0000 0.0000 0.0000 0.0000 0.0000 30.8266
#
#
#
# Elastic Compliance Matrix: (Units=1/GPa)
#
#
# Indices 1 2 3 4 5 6 
#
# 1 0.012794 -0.004797 -0.008420 0.000000 0.000000 0.000000
# 2 -0.004797 0.011532 -0.009740 0.000000 0.000000 0.000000
# 3 -0.008420 -0.009740 0.073497 0.000000 0.000000 0.000000
# 4 0.000000 0.000000 0.000000 0.043913 0.000000 0.000000
# 5 0.000000 0.000000 0.000000 0.000000 0.063795 0.000000
# 6 0.000000 0.000000 0.000000 0.000000 0.000000 0.032440
#
#
# Mechanical properties :
#
#
# Convention : Reuss Voigt Hill
#
# Bulk Modulus (GPa) = 19.26438 56.71813 37.99125
# Shear Modulus (GPa) = 16.60085 24.41330 20.50708
#
# Velocity S-wave (km/s) = 3.13034 3.79612 3.47919
# Velocity P-wave (km/s) = 4.94334 7.25901 6.21007
#
# Compressibility (1/GPa) = 0.05190929
#
# Stress axis : x y z
#
# Youngs Moduli (GPa) = 78.15955 86.71190 13.60593
#
# Poissons Ratio (x) = 0.41600 0.11457
# Poissons Ratio (y) = 0.37497 0.13252
# Poissons Ratio (z) = 0.65813 0.84453
#
# Static dielectric constant tensor:
#      x y z
#    x 3.283820 0.000000 0.000000 
#    y 0.000000 3.511420 0.000000 
#    z 0.000000 0.000000 2.737840 
# 
# 
# High freq. dielectric constant tensor:
#      x y z
#    x 1.642270 0.000000 0.000000 
#    y 0.000000 1.665770 0.000000 
#    z 0.000000 0.000000 1.610070 
# 
# From -- ./inp_files/10978.got.cif
#   From: 2010.03.12/outbox.cif.g09.slc.cpg/sg47_6_cif.got.tgz:10978.got - 2010.04.14 03:12:58.
