data_PCOD8193645
_publ_section_title
;
Structure prediction by ZEFSAII (Michael W. Deem and Ramdas Pophale) SiO2 
 PCOD8193645
Probable space group: P M M M
;
_chemical_formula_sum "Si O2"
_cell_formula_units_Z 64
_cell_length_a 15.562199
_cell_length_b 24.068890
_cell_length_c 9.228640
_cell_angle_alpha 90.000000
_cell_angle_beta 90.000000
_cell_angle_gamma 90.000000
_cell_volume 3456.724212
_symmetry_space_group_name_H-M "P M M M"
_symmetry_group_IT_number 47
_symmetry_cell_setting 'orthorhombic'
loop_
_space_group_symop_operation_xyz
x,y,z
-x,-y,z
x,-y,-z
-x,y,-z
-x,-y,-z
x,y,-z
-x,y,z
x,-y,z
loop_
_atom_site_type_symbol
_atom_site_label
_atom_site_fract_x
_atom_site_fract_y
_atom_site_fract_z
Si Si1 0.402764 0.124837 0.169567
Si Si2 0.747680 0.936385 0.670457
Si Si3 0.595180 0.639413 0.827529
Si Si4 0.094963 0.634652 0.172026
Si Si5 0.904889 0.861262 0.666736
Si Si6 0.343271 0.243244 0.171397
Si Si7 0.148117 0.755628 0.828313
Si Si8 0.747815 0.562553 0.173053
O O1 0.500000 0.105127 0.200936
O O2 0.338181 0.085016 0.253197
O O3 0.393220 0.188423 0.224791
O O4 0.380672 0.121290 0.000000
O O5 0.734741 0.929451 0.500000
O O6 0.831995 0.903282 0.725510
O O7 0.762086 0.000000 0.714549
O O8 0.500000 0.620773 0.777461
O O9 0.614104 0.700925 0.763710
O O10 0.664592 0.595493 0.767270
O O11 0.601463 0.641191 0.000000
O O12 0.112230 0.696856 0.228335
O O13 0.166181 0.592248 0.233927
O O14 0.000000 0.615353 0.222961
O O15 0.101582 0.635009 0.000000
O O16 0.886327 0.846991 0.500000
O O17 0.905674 0.804485 0.756251
O O18 0.000000 0.888372 0.684741
O O19 0.245801 0.238893 0.224762
O O20 0.347071 0.247676 0.000000
O O21 0.138987 0.760964 0.000000
O O22 0.744866 0.500000 0.233997
O O23 0.748147 0.562470 0.000000
#
# Coordination Sequence:
#
# PCOD8193645 Si02
#       8
#     8   8   8   8   8   8   8   8
#     4  10  20  34  54  79 103 128 162 205 249 292
#     4  10  22  39  56  74  99 133 169 201 237 286
#     4   9  15  23  36  54  80 116 155 193 234 282
#     4   9  16  25  38  58  83 113 151 192 235 285
#     4  10  21  36  54  77 103 129 160 201 247 292
#     4   9  15  26  45  68  93 120 152 194 243 290
#     4  10  17  29  51  74  97 126 159 198 244 294
#     4   9  16  24  32  47  77 117 159 197 231 273
#
# _framework density 18.51464
#
# number of rings (size 3 to 8) (size 9 to 14) (size 15 to 20)
#    0.000    2.500    2.500    0.750    0.000    3.750 
#    0.000    5.000    0.000    0.000    0.000    1.750 
#    0.000    0.500    0.000    2.625    0.000    4.375 
#
# Total GULP energy -793405.093688 kJ/mol
# GULP energy per Si atom -12396.954589 kJ/mol
# Density = 1.847250 g / cm^3
# Si number density = 18.514640 Si / 1000 Ang^3
#
#
#
# Elastic Constant Matrix: (Units=GPa)
#
#
# Indices 1 2 3 4 5 6 
#
# 1 154.0492 73.5438 21.1560 0.0000 0.0000 0.0000
# 2 73.5438 142.5601 23.7185 0.0000 0.0000 0.0000
# 3 21.1560 23.7185 14.9282 0.0000 0.0000 0.0000
# 4 0.0000 0.0000 0.0000 6.3602 0.0000 0.0000
# 5 0.0000 0.0000 0.0000 0.0000 16.7060 0.0000
# 6 0.0000 0.0000 0.0000 0.0000 0.0000 18.4221
#
#
#
# Elastic Compliance Matrix: (Units=1/GPa)
#
#
# Indices 1 2 3 4 5 6 
#
# 1 0.009186 -0.003497 -0.007461 0.000000 0.000000 0.000000
# 2 -0.003497 0.010867 -0.012309 0.000000 0.000000 0.000000
# 3 -0.007461 -0.012309 0.097118 0.000000 0.000000 0.000000
# 4 0.000000 0.000000 0.000000 0.157228 0.000000 0.000000
# 5 0.000000 0.000000 0.000000 0.000000 0.059859 0.000000
# 6 0.000000 0.000000 0.000000 0.000000 0.000000 0.054283
#
#
# Mechanical properties :
#
#
# Convention : Reuss Voigt Hill
#
# Bulk Modulus (GPa) = 14.15716 60.93044 37.54380
# Shear Modulus (GPa) = 10.90226 21.17228 16.03727
#
# Velocity S-wave (km/s) = 2.42925 3.38530 2.94631
# Velocity P-wave (km/s) = 3.94099 6.94702 5.64768
#
# Compressibility (1/GPa) = 0.07063565
#
# Stress axis : x y z
#
# Youngs Moduli (GPa) = 108.86424 92.02378 10.29672
#
# Poissons Ratio (x) = 0.32184 0.07682
# Poissons Ratio (y) = 0.38074 0.12674
# Poissons Ratio (z) = 0.81224 1.13273
#
# Static dielectric constant tensor:
#      x y z
#    x 3.661670 0.000000 0.000000 
#    y 0.000000 3.527300 0.000000 
#    z 0.000000 0.000000 2.763380 
# 
# 
# High freq. dielectric constant tensor:
#      x y z
#    x 1.738070 0.000000 0.000000 
#    y 0.000000 1.719730 0.000000 
#    z 0.000000 0.000000 1.645840 
# 
# From -- ./inp_files/7793.got.cif
#   From: 2010.03.12/outbox.cif.g09.slc.cpg/sg47_4_cif.got.tgz:7793.got - 2010.04.14 03:12:58.
