data_PCOD8193768
_publ_section_title
;
Structure prediction by ZEFSAII (Michael W. Deem and Ramdas Pophale) SiO2 
 PCOD8193768
Probable space group: P M M M
;
_chemical_formula_sum "Si O2"
_cell_formula_units_Z 64
_cell_length_a 29.606099
_cell_length_b 9.249390
_cell_length_c 14.238615
_cell_angle_alpha 90.000000
_cell_angle_beta 90.000000
_cell_angle_gamma 90.000000
_cell_volume 3899.078924
_symmetry_space_group_name_H-M "P M M M"
_symmetry_group_IT_number 47
_symmetry_cell_setting 'orthorhombic'
loop_
_space_group_symop_operation_xyz
x,y,z
-x,-y,z
x,-y,-z
-x,y,-z
-x,-y,-z
x,y,-z
-x,y,z
x,-y,z
loop_
_atom_site_type_symbol
_atom_site_label
_atom_site_fract_x
_atom_site_fract_y
_atom_site_fract_z
Si Si1 0.452202 0.338325 0.388524
Si Si2 0.781465 0.667321 0.894481
Si Si3 0.189215 0.164347 0.611058
Si Si4 0.870250 0.831151 0.893070
Si Si5 0.899426 0.332398 0.609388
Si Si6 0.949163 0.166973 0.755960
Si Si7 0.267693 0.331510 0.711286
Si Si8 0.644408 0.672230 0.605863
O O1 0.450454 0.345909 0.500000
O O2 0.500000 0.260058 0.357296
O O3 0.453881 0.500000 0.347028
O O4 0.404462 0.263851 0.357951
O O5 0.794607 0.500000 0.895018
O O6 0.825273 0.751850 0.856116
O O7 0.739972 0.696677 0.822721
O O8 0.767599 0.718457 0.000000
O O9 0.193047 0.170740 0.500000
O O10 0.145002 0.249248 0.645642
O O11 0.232979 0.239688 0.651611
O O12 0.185754 0.000000 0.647651
O O13 0.914324 0.781722 0.835918
O O14 0.861213 0.000000 0.882521
O O15 0.879585 0.785921 0.000000
O O16 0.908210 0.307395 0.500000
O O17 0.893661 0.500000 0.633899
O O18 0.941897 0.264515 0.663688
O O19 0.000000 0.191985 0.793206
O O20 0.941374 0.000000 0.728967
O O21 0.260853 0.500000 0.686363
O O22 0.317486 0.278428 0.680143
O O23 0.656146 0.727748 0.500000
O O24 0.640364 0.500000 0.603302
#
# Coordination Sequence:
#
# PCOD8193768 Si02
#       8
#     8   8   8   8   8   8   8   8
#     4   7   9  14  25  42  68 103 137 169 210 254
#     4   9  18  31  45  62  84 109 138 172 209 249
#     4  10  20  32  46  65  89 115 141 170 206 249
#     4   9  18  33  52  71  89 110 137 168 203 247
#     4  10  21  36  52  68  87 114 148 181 208 237
#     4  10  21  35  51  72  95 116 137 165 205 250
#     4  10  18  27  42  62  85 114 144 175 212 252
#     4   8  13  20  31  51  79 108 139 175 212 251
#
# _framework density 16.414133
#
# number of rings (size 3 to 8) (size 9 to 14) (size 15 to 20)
#    0.000    2.875    0.000    3.000    0.000    5.750 
#    0.000    2.500    0.000    0.000    0.000    2.625 
#    0.000    1.000    0.000   11.625    0.000    4.000 
#
# Total GULP energy -793074.266540 kJ/mol
# GULP energy per Si atom -12391.785415 kJ/mol
# Density = 1.637677 g / cm^3
# Si number density = 16.414133 Si / 1000 Ang^3
#
#
#
# Elastic Constant Matrix: (Units=GPa)
#
#
# Indices 1 2 3 4 5 6 
#
# 1 144.0644 31.7191 64.9513 0.0000 0.0000 0.0000
# 2 31.7191 43.0609 25.3929 0.0000 0.0000 0.0000
# 3 64.9513 25.3929 56.3736 0.0000 0.0000 0.0000
# 4 0.0000 0.0000 0.0000 17.4315 0.0000 0.0000
# 5 0.0000 0.0000 0.0000 0.0000 18.8966 0.0000
# 6 0.0000 0.0000 0.0000 0.0000 0.0000 2.9180
#
#
#
# Elastic Compliance Matrix: (Units=1/GPa)
#
#
# Indices 1 2 3 4 5 6 
#
# 1 0.014485 -0.001128 -0.016181 0.000000 0.000000 0.000000
# 2 -0.001128 0.031710 -0.012984 0.000000 0.000000 0.000000
# 3 -0.016181 -0.012984 0.042230 0.000000 0.000000 0.000000
# 4 0.000000 0.000000 0.000000 0.057367 0.000000 0.000000
# 5 0.000000 0.000000 0.000000 0.000000 0.052920 0.000000
# 6 0.000000 0.000000 0.000000 0.000000 0.000000 0.342701
#
#
# Mechanical properties :
#
#
# Convention : Reuss Voigt Hill
#
# Bulk Modulus (GPa) = 35.91968 54.18060 45.05014
# Shear Modulus (GPa) = 8.17957 15.94492 12.06225
#
# Velocity S-wave (km/s) = 2.23474 3.12013 2.71379
# Velocity P-wave (km/s) = 5.34693 6.78679 6.10942
#
# Compressibility (1/GPa) = 0.02783989
#
# Stress axis : x y z
#
# Youngs Moduli (GPa) = 69.03850 31.53533 23.67989
#
# Poissons Ratio (x) = 0.03557 0.38315
# Poissons Ratio (y) = 0.07787 0.30746
# Poissons Ratio (z) = 1.11708 0.40946
#
# Static dielectric constant tensor:
#      x y z
#    x 3.481390 0.000000 0.000000 
#    y 0.000000 2.903420 0.000000 
#    z 0.000000 0.000000 3.079440 
# 
# 
# High freq. dielectric constant tensor:
#      x y z
#    x 1.629960 0.000000 0.000000 
#    y 0.000000 1.605830 0.000000 
#    z 0.000000 0.000000 1.611310 
# 
# From -- ./inp_files/8302.got.cif
#   From: 2010.03.12/outbox.cif.g09.slc.cpg/sg47_5_cif.got.tgz:8302.got - 2010.04.14 03:12:58.
