data_PCOD8193669
_publ_section_title
;
Structure prediction by ZEFSAII (Michael W. Deem and Ramdas Pophale) SiO2 
 PCOD8193669
Probable space group: P M M M
;
_chemical_formula_sum "Si O2"
_cell_formula_units_Z 52
_cell_length_a 7.958307
_cell_length_b 17.055629
_cell_length_c 19.261517
_cell_angle_alpha 90.000000
_cell_angle_beta 90.000000
_cell_angle_gamma 90.000000
_cell_volume 2614.441432
_symmetry_space_group_name_H-M "P M M M"
_symmetry_group_IT_number 47
_symmetry_cell_setting 'orthorhombic'
loop_
_space_group_symop_operation_xyz
x,y,z
-x,-y,z
x,-y,-z
-x,y,-z
-x,-y,-z
x,y,-z
-x,y,z
x,-y,z
loop_
_atom_site_type_symbol
_atom_site_label
_atom_site_fract_x
_atom_site_fract_y
_atom_site_fract_z
Si Si1 0.500000 0.590035 0.581980
Si Si2 0.309923 0.829072 0.695050
Si Si3 0.804544 0.588273 0.801157
Si Si4 0.808192 0.668917 0.341968
Si Si5 0.309018 0.311243 0.922913
Si Si6 0.193860 0.164136 0.848059
Si Si7 0.697063 0.000000 0.287309
Si Si8 0.186281 0.000000 0.863547
O O1 0.500000 0.500000 0.607569
O O2 0.500000 0.595508 0.500000
O O3 0.327871 0.631250 0.606819
O O4 0.500000 0.810211 0.673864
O O5 0.197879 0.763936 0.655752
O O6 0.294957 0.818831 0.777956
O O7 0.262471 0.918619 0.671243
O O8 0.746261 0.500000 0.784773
O O9 0.758437 0.641697 0.735484
O O10 0.710743 0.616964 0.870039
O O11 0.000000 0.593209 0.817491
O O12 0.000000 0.642532 0.361127
O O13 0.500000 0.283490 0.923689
O O14 0.201038 0.236457 0.900166
O O15 0.251003 0.337861 0.000000
O O16 0.268906 0.084014 0.884959
O O17 0.000000 0.149124 0.827713
O O18 0.814175 0.000000 0.220271
O O19 0.500000 0.000000 0.265710
O O20 0.000000 0.000000 0.894539
#
# Coordination Sequence:
#
# PCOD8193669 Si02
#       8
#     4   8   8   8   8   8   4   4
#     4  11  26  46  68  97 130 166 204 240 290 356
#     4  10  17  30  52  84 122 158 198 245 296 349
#     4  10  22  39  59  83 108 139 186 240 293 347
#     4  11  22  39  64  96 128 161 201 248 298 351
#     4  11  24  38  51  72 104 143 186 235 296 358
#     4  10  18  31  50  74 103 141 188 239 294 350
#     4   8  16  26  44  77 119 157 191 239 294 345
#     4   8  16  28  45  69 100 135 179 235 291 346
#
# _framework density 19.889526
#
# number of rings (size 3 to 8) (size 9 to 14) (size 15 to 20)
#    0.000    1.923    2.308    1.846    1.077    4.308 
#    0.000    2.692    0.000    2.308    0.000    1.077 
#    0.000    1.231    0.000    0.000    0.000    0.000 
#
# Total GULP energy -644335.628943 kJ/mol
# GULP energy per Si atom -12391.069787 kJ/mol
# Density = 1.984426 g / cm^3
# Si number density = 19.889526 Si / 1000 Ang^3
#
#
#
# Elastic Constant Matrix: (Units=GPa)
#
#
# Indices 1 2 3 4 5 6 
#
# 1 68.9614 31.8311 25.1299 0.0000 0.0000 0.0000
# 2 31.8311 151.7320 34.5247 0.0000 0.0000 0.0000
# 3 25.1299 34.5247 58.0846 0.0000 0.0000 0.0000
# 4 0.0000 0.0000 0.0000 20.1407 0.0000 0.0000
# 5 0.0000 0.0000 0.0000 0.0000 17.1635 0.0000
# 6 0.0000 0.0000 0.0000 0.0000 0.0000 25.2342
#
#
#
# Elastic Compliance Matrix: (Units=1/GPa)
#
#
# Indices 1 2 3 4 5 6 
#
# 1 0.017885 -0.002303 -0.006369 0.000000 0.000000 0.000000
# 2 -0.002303 0.007918 -0.003710 0.000000 0.000000 0.000000
# 3 -0.006369 -0.003710 0.022177 0.000000 0.000000 0.000000
# 4 0.000000 0.000000 0.000000 0.049651 0.000000 0.000000
# 5 0.000000 0.000000 0.000000 0.000000 0.058263 0.000000
# 6 0.000000 0.000000 0.000000 0.000000 0.000000 0.039629
#
#
# Mechanical properties :
#
#
# Convention : Reuss Voigt Hill
#
# Bulk Modulus (GPa) = 43.07368 51.30548 47.18958
# Shear Modulus (GPa) = 21.92753 24.99385 23.46069
#
# Velocity S-wave (km/s) = 3.32394 3.54875 3.43818
# Velocity P-wave (km/s) = 6.03614 6.53014 6.28799
#
# Compressibility (1/GPa) = 0.02321603
#
# Stress axis : x y z
#
# Youngs Moduli (GPa) = 55.91395 126.29761 45.09198
#
# Poissons Ratio (x) = 0.29083 0.28719
# Poissons Ratio (y) = 0.12876 0.16729
# Poissons Ratio (z) = 0.35611 0.46856
#
# Static dielectric constant tensor:
#      x y z
#    x 3.578070 0.000000 0.000000 
#    y 0.000000 4.051110 0.000000 
#    z 0.000000 0.000000 3.084830 
# 
# 
# High freq. dielectric constant tensor:
#      x y z
#    x 1.775960 0.000000 0.000000 
#    y 0.000000 1.801360 0.000000 
#    z 0.000000 0.000000 1.709130 
# 
# From -- ./inp_files/26831.got.cif
#   From: 2010.03.12/outbox.cif.g09.slc.cpg/sg47_14_cif.got.tgz:26831.got - 2010.04.14 03:12:58.
