data_PCOD8193345
_publ_section_title
;
Structure prediction by ZEFSAII (Michael W. Deem and Ramdas Pophale) SiO2 
 PCOD8193345
Probable space group: I M A 2
;
_chemical_formula_sum "Si O2"
_cell_formula_units_Z 48
_cell_length_a 8.831332
_cell_length_b 31.210695
_cell_length_c 9.148718
_cell_angle_alpha 90.000000
_cell_angle_beta 90.000000
_cell_angle_gamma 90.000000
_cell_volume 2521.679527
_symmetry_space_group_name_H-M "I M A 2"
_symmetry_group_IT_number 46
_symmetry_cell_setting 'orthorhombic'
loop_
_space_group_symop_operation_xyz
x,y,z
-x,-y,z
1/2-x,y,z
1/2+x,-y,z
1/2+x,1/2+y,1/2+z
1/2-x,1/2-y,1/2+z
-x,1/2+y,1/2+z
x,1/2-y,1/2+z
loop_
_atom_site_type_symbol
_atom_site_label
_atom_site_fract_x
_atom_site_fract_y
_atom_site_fract_z
Si Si1 0.929384 0.133845 0.480490
Si Si2 0.083571 0.541082 0.997606
Si Si3 0.071169 0.212270 0.987953
Si Si4 0.569035 0.364510 0.650689
Si Si5 0.915449 0.459282 0.650822
Si Si6 0.429689 0.713529 0.174655
O O1 0.750000 0.128441 0.475319
O O2 0.996161 0.087315 0.530981
O O3 0.981411 0.146499 0.316860
O O4 0.981039 0.170269 0.592299
O O5 0.250000 0.540440 0.067391
O O6 0.092477 0.536073 0.824263
O O7 0.000000 0.500000 0.067305
O O8 0.250000 0.220068 0.008164
O O9 0.027025 0.216606 0.819951
O O10 0.024034 0.165443 0.042374
O O11 0.972348 0.246358 0.075936
O O12 0.750000 0.358931 0.630242
O O13 0.514715 0.412867 0.611362
O O14 0.750000 0.461028 0.581492
O O15 0.000000 0.500000 0.580723
O O16 0.250000 0.714084 0.206870
#
# Coordination Sequence:
#
# PCOD8193345 Si02
#       6
#     8   8   8   8   8   8
#     4   8  16  31  54  79 103 133 177 221 252 296
#     4   8  13  24  42  70 103 133 165 207 253 298
#     4  12  25  39  55  81 112 137 168 223 279 318
#     4   9  17  33  55  79 106 142 183 219 259 320
#     4   8  14  24  43  71 104 137 173 215 259 307
#     4  11  22  39  61  80 101 140 184 217 258 325
#
# _framework density 19.034932000000001
#
# number of rings (size 3 to 8) (size 9 to 14) (size 15 to 20)
#    0.000    2.667    0.000    5.000    0.000    2.000 
#    0.000    5.000    0.000    1.000    0.000    2.333 
#    0.000    0.000    0.000    0.000    0.000    0.000 
#
# Total GULP energy -297415.547508 kJ/mol
# GULP energy per Si atom -12392.314480 kJ/mol
# Density = 1.899161 g / cm^3
# Si number density = 19.034932 Si / 1000 Ang^3
#
#
#
# Elastic Constant Matrix: (Units=GPa)
#
#
# Indices 1 2 3 4 5 6 
#
# 1 50.9490 27.8461 9.1975 0.0011 -0.0002 -0.0001
# 2 27.8461 142.5354 36.9487 0.0031 0.0008 0.0004
# 3 9.1975 36.9487 63.2919 0.0069 0.0012 0.0004
# 4 0.0011 0.0031 0.0069 25.4404 0.0002 -0.0001
# 5 -0.0002 0.0008 0.0012 0.0002 20.9100 0.0014
# 6 -0.0001 0.0004 0.0004 -0.0001 0.0014 30.6191
#
#
#
# Elastic Compliance Matrix: (Units=1/GPa)
#
#
# Indices 1 2 3 4 5 6 
#
# 1 0.022009 -0.004090 -0.000811 0.000000 0.000000 0.000000
# 2 -0.004090 0.009027 -0.004675 0.000000 0.000000 0.000000
# 3 -0.000811 -0.004675 0.018647 -0.000004 -0.000001 0.000000
# 4 0.000000 0.000000 -0.000004 0.039307 0.000000 0.000000
# 5 0.000000 0.000000 -0.000001 0.000000 0.047824 -0.000002
# 6 0.000000 0.000000 0.000000 0.000000 -0.000002 0.032659
#
#
# Mechanical properties :
#
#
# Convention : Reuss Voigt Hill
#
# Bulk Modulus (GPa) = 32.75342 44.97344 38.86343
# Shear Modulus (GPa) = 25.15061 27.57949 26.36505
#
# Velocity S-wave (km/s) = 3.63889 3.81056 3.72571
# Velocity P-wave (km/s) = 5.90760 6.56038 6.24253
#
# Compressibility (1/GPa) = 0.03053116
#
# Stress axis : x y z
#
# Youngs Moduli (GPa) = 45.43593 110.78221 53.62783
#
# Poissons Ratio (x) = 0.45305 0.04349
# Poissons Ratio (y) = 0.18581 0.25073
# Poissons Ratio (z) = 0.03684 0.51795
#
# Static dielectric constant tensor:
#      x y z
#    x 3.396920 0.000000 0.000000 
#    y 0.000000 3.993580 0.000000 
#    z 0.000000 0.000000 3.140190 
# 
# 
# High freq. dielectric constant tensor:
#      x y z
#    x 1.714530 0.000000 0.000000 
#    y 0.000000 1.766010 0.000000 
#    z 0.000000 0.000000 1.698760 
# 
# From -- ./inp_files/3934.got.cif
#   From: 2010.03.12/outbox.cif.g09.slc.cpg/sg46_2_cif.got.tgz:3934.got - 2010.04.14 02:56:35.
