data_PCOD8193097
_publ_section_title
;
Structure prediction by ZEFSAII (Michael W. Deem and Ramdas Pophale) SiO2 
 PCOD8193097
Probable space group: I M A 2
;
_chemical_formula_sum "Si O2"
_cell_formula_units_Z 64
_cell_length_a 8.748268
_cell_length_b 28.827825
_cell_length_c 12.659804
_cell_angle_alpha 90.000000
_cell_angle_beta 90.000000
_cell_angle_gamma 90.000000
_cell_volume 3192.720773
_symmetry_space_group_name_H-M "I M A 2"
_symmetry_group_IT_number 46
_symmetry_cell_setting 'orthorhombic'
loop_
_space_group_symop_operation_xyz
x,y,z
-x,-y,z
1/2-x,y,z
1/2+x,-y,z
1/2+x,1/2+y,1/2+z
1/2-x,1/2-y,1/2+z
-x,1/2+y,1/2+z
x,1/2-y,1/2+z
loop_
_atom_site_type_symbol
_atom_site_label
_atom_site_fract_x
_atom_site_fract_y
_atom_site_fract_z
Si Si1 0.568342 0.050624 0.924760
Si Si2 0.572548 0.117250 0.539999
Si Si3 0.917372 0.791160 0.593829
Si Si4 0.923439 0.253383 0.778161
Si Si5 0.081306 0.293034 0.452650
Si Si6 0.429092 0.379688 0.588366
Si Si7 0.569101 0.550306 0.206121
Si Si8 0.073685 0.640712 0.806434
O O1 0.750000 0.047842 0.916417
O O2 0.501395 0.071422 0.814675
O O3 0.500000 0.000000 0.944047
O O4 0.520948 0.081835 0.023655
O O5 0.750000 0.105764 0.556358
O O6 0.541771 0.168628 0.584026
O O7 0.471345 0.081145 0.604832
O O8 0.527037 0.115208 0.415877
O O9 0.750000 0.812923 0.617865
O O10 0.907910 0.759776 0.490831
O O11 0.963481 0.754131 0.681901
O O12 0.750000 0.248583 0.740234
O O13 0.956372 0.304623 0.823365
O O14 0.957965 0.211085 0.859375
O O15 0.250000 0.308367 0.411302
O O16 0.025016 0.329605 0.540302
O O17 0.250000 0.390017 0.579575
O O18 0.475463 0.380763 0.711233
O O19 0.500000 0.500000 0.185251
O O20 0.750000 0.546900 0.218999
O O21 0.250000 0.631426 0.779836
#
# Coordination Sequence:
#
# PCOD8193097 Si02
#       8
#     8   8   8   8   8   8   8   8
#     4  11  23  43  69  96 125 158 195 246 304 363
#     4  11  23  41  62  90 123 161 206 253 303 362
#     4  11  22  37  56  83 118 160 204 251 299 356
#     4  11  22  36  55  80 115 159 204 254 304 353
#     4  10  22  37  55  81 117 159 204 248 297 354
#     4  11  23  40  62  90 122 161 206 253 303 363
#     4  11  23  43  69  97 125 157 195 245 304 364
#     4  10  22  39  59  85 121 163 206 254 304 358
#
# _framework density 20.045598999999999
#
# number of rings (size 3 to 8) (size 9 to 14) (size 15 to 20)
#    0.000    1.250    2.500    4.500    1.750    3.000 
#    0.000    0.625    0.000    3.000    0.000    0.000 
#    0.000    0.000    0.000    0.000    0.000    0.000 
#
# Total GULP energy -396762.766588 kJ/mol
# GULP energy per Si atom -12398.836456 kJ/mol
# Density = 1.999997 g / cm^3
# Si number density = 20.045599 Si / 1000 Ang^3
#
#
#
# Elastic Constant Matrix: (Units=GPa)
#
#
# Indices 1 2 3 4 5 6 
#
# 1 123.3041 39.8442 55.3618 -0.0002 0.0000 0.0000
# 2 39.8442 74.5903 43.8008 -0.0011 0.0001 0.0000
# 3 55.3618 43.8008 111.2474 -0.0008 0.0003 0.0001
# 4 -0.0002 -0.0011 -0.0008 35.3053 0.0002 0.0001
# 5 0.0000 0.0001 0.0003 0.0002 34.1446 -0.0002
# 6 0.0000 0.0000 0.0001 0.0001 -0.0002 30.9438
#
#
#
# Elastic Compliance Matrix: (Units=1/GPa)
#
#
# Indices 1 2 3 4 5 6 
#
# 1 0.011102 -0.003494 -0.004149 0.000000 0.000000 0.000000
# 2 -0.003494 0.018538 -0.005560 0.000000 0.000000 0.000000
# 3 -0.004149 -0.005560 0.013243 0.000000 0.000000 0.000000
# 4 0.000000 0.000000 0.000000 0.028324 0.000000 0.000000
# 5 0.000000 0.000000 0.000000 0.000000 0.029287 0.000000
# 6 0.000000 0.000000 0.000000 0.000000 0.000000 0.032317
#
#
# Mechanical properties :
#
#
# Convention : Reuss Voigt Hill
#
# Bulk Modulus (GPa) = 60.69282 65.23950 62.96616
# Shear Modulus (GPa) = 30.35646 31.42108 30.88877
#
# Velocity S-wave (km/s) = 3.89571 3.96344 3.92972
# Velocity P-wave (km/s) = 7.11186 7.31856 7.21595
#
# Compressibility (1/GPa) = 0.01647641
#
# Stress axis : x y z
#
# Youngs Moduli (GPa) = 90.07404 53.94356 75.51178
#
# Poissons Ratio (x) = 0.18847 0.31332
# Poissons Ratio (y) = 0.31471 0.41985
# Poissons Ratio (z) = 0.37374 0.29993
#
# Static dielectric constant tensor:
#      x y z
#    x 3.724650 0.000000 0.000000 
#    y 0.000000 3.441320 0.000000 
#    z 0.000000 0.000000 3.700540 
# 
# 
# High freq. dielectric constant tensor:
#      x y z
#    x 1.792450 0.000000 0.000000 
#    y 0.000000 1.763630 0.000000 
#    z 0.000000 0.000000 1.787170 
# 
# From -- ./inp_files/9733.got.cif
#   From: 2010.03.12/outbox.cif.g09.slc.cpg/sg46_5_cif.got.tgz:9733.got - 2010.04.14 02:56:35.
