data_PCOD8193839
_publ_section_title
;
Structure prediction by ZEFSAII (Michael W. Deem and Ramdas Pophale) SiO2 
 PCOD8193839
Probable space group: P M M M
;
_chemical_formula_sum "Si O2"
_cell_formula_units_Z 64
_cell_length_a 9.132115
_cell_length_b 26.366391
_cell_length_c 18.084001
_cell_angle_alpha 90.000000
_cell_angle_beta 90.000000
_cell_angle_gamma 90.000000
_cell_volume 4354.282303
_symmetry_space_group_name_H-M "P M M M"
_symmetry_group_IT_number 47
_symmetry_cell_setting 'orthorhombic'
loop_
_space_group_symop_operation_xyz
x,y,z
-x,-y,z
x,-y,-z
-x,y,-z
-x,-y,-z
x,y,-z
-x,y,z
x,-y,z
loop_
_atom_site_type_symbol
_atom_site_label
_atom_site_fract_x
_atom_site_fract_y
_atom_site_fract_z
Si Si1 0.335916 0.055837 0.587736
Si Si2 0.672945 0.755766 0.667273
Si Si3 0.838629 0.604150 0.296240
Si Si4 0.171881 0.442782 0.850432
Si Si5 0.168828 0.153572 0.412623
Si Si6 0.668354 0.650764 0.085506
Si Si7 0.835431 0.707449 0.793960
Si Si8 0.328472 0.653851 0.417329
O O1 0.336373 0.055061 0.500000
O O2 0.500000 0.068459 0.616269
O O3 0.222661 0.098418 0.615684
O O4 0.287214 0.000000 0.617016
O O5 0.500000 0.760450 0.678263
O O6 0.733255 0.805369 0.628173
O O7 0.747786 0.750038 0.747767
O O8 0.715070 0.708355 0.615406
O O9 0.782478 0.563003 0.236248
O O10 0.840775 0.657125 0.254066
O O11 0.735318 0.608034 0.367742
O O12 0.000000 0.589740 0.324969
O O13 0.206071 0.500000 0.876117
O O14 0.262293 0.404732 0.901716
O O15 0.000000 0.429577 0.858621
O O16 0.192599 0.159680 0.500000
O O17 0.000000 0.160394 0.390606
O O18 0.500000 0.648964 0.111610
O O19 0.751524 0.695080 0.129935
O O20 0.682171 0.664880 0.000000
O O21 0.000000 0.726779 0.811343
O O22 0.263337 0.650194 0.500000
O O23 0.500000 0.646399 0.418252
#
# Coordination Sequence:
#
# PCOD8193839 Si02
#       8
#     8   8   8   8   8   8   8   8
#     4   8  14  25  39  52  68  96 136 179 221 263
#     4  10  18  28  42  58  79 106 135 168 207 248
#     4   8  15  27  42  59  76  96 124 157 191 229
#     4   9  18  32  48  64  82 105 132 161 194 232
#     4  10  19  27  36  54  80 108 140 180 221 256
#     4  10  20  32  46  66  90 111 132 158 186 222
#     4   9  17  30  46  62  81 105 133 162 193 233
#     4   9  17  27  39  56  76  98 125 158 196 237
#
# _framework density 14.698174
#
# number of rings (size 3 to 8) (size 9 to 14) (size 15 to 20)
#    0.000    2.875    0.000    3.000    0.000    6.750 
#    0.000    2.500    0.000    0.375    0.000    2.625 
#    0.000    0.000    0.000    0.000    0.000    0.625 
#
# Total GULP energy -793318.731082 kJ/mol
# GULP energy per Si atom -12395.605173 kJ/mol
# Density = 1.466472 g / cm^3
# Si number density = 14.698174 Si / 1000 Ang^3
#
#
#
# Elastic Constant Matrix: (Units=GPa)
#
#
# Indices 1 2 3 4 5 6 
#
# 1 77.5933 28.2571 37.5703 0.0000 0.0000 0.0000
# 2 28.2571 40.4769 19.1309 0.0000 0.0000 0.0000
# 3 37.5703 19.1309 66.5205 0.0000 0.0000 0.0000
# 4 0.0000 0.0000 0.0000 10.1107 0.0000 0.0000
# 5 0.0000 0.0000 0.0000 0.0000 22.2692 0.0000
# 6 0.0000 0.0000 0.0000 0.0000 0.0000 22.2547
#
#
#
# Elastic Compliance Matrix: (Units=1/GPa)
#
#
# Indices 1 2 3 4 5 6 
#
# 1 0.020980 -0.010469 -0.008838 0.000000 0.000000 0.000000
# 2 -0.010469 0.033816 -0.003813 0.000000 0.000000 0.000000
# 3 -0.008838 -0.003813 0.021121 0.000000 0.000000 0.000000
# 4 0.000000 0.000000 0.000000 0.098905 0.000000 0.000000
# 5 0.000000 0.000000 0.000000 0.000000 0.044905 0.000000
# 6 0.000000 0.000000 0.000000 0.000000 0.000000 0.044934
#
#
# Mechanical properties :
#
#
# Convention : Reuss Voigt Hill
#
# Bulk Modulus (GPa) = 33.69576 39.38970 36.54273
# Shear Modulus (GPa) = 15.58639 17.56907 16.57773
#
# Velocity S-wave (km/s) = 3.25996 3.46110 3.36203
# Velocity P-wave (km/s) = 6.09464 6.54442 6.32353
#
# Compressibility (1/GPa) = 0.02967732
#
# Stress axis : x y z
#
# Youngs Moduli (GPa) = 47.66551 29.57218 47.34558
#
# Poissons Ratio (x) = 0.30958 0.41846
# Poissons Ratio (y) = 0.49899 0.18051
# Poissons Ratio (z) = 0.42129 0.11275
#
# Static dielectric constant tensor:
#      x y z
#    x 3.005030 0.000000 0.000000 
#    y 0.000000 2.818410 0.000000 
#    z 0.000000 0.000000 2.751800 
# 
# 
# High freq. dielectric constant tensor:
#      x y z
#    x 1.573030 0.000000 0.000000 
#    y 0.000000 1.533610 0.000000 
#    z 0.000000 0.000000 1.532780 
# 
# From -- ./inp_files/10195.got.cif
#   From: 2010.03.12/outbox.cif.g09.slc.cpg/sg47_6_cif.got.tgz:10195.got - 2010.04.14 03:12:58.
