data_PCOD8193477
_publ_section_title
;
Structure prediction by ZEFSAII (Michael W. Deem and Ramdas Pophale) SiO2 
 PCOD8193477
Probable space group: P M M M
;
_chemical_formula_sum "Si O2"
_cell_formula_units_Z 64
_cell_length_a 9.106140
_cell_length_b 23.905000
_cell_length_c 18.697322
_cell_angle_alpha 90.000000
_cell_angle_beta 90.000000
_cell_angle_gamma 90.000000
_cell_volume 4070.075621
_symmetry_space_group_name_H-M "P M M M"
_symmetry_group_IT_number 47
_symmetry_cell_setting 'orthorhombic'
loop_
_space_group_symop_operation_xyz
x,y,z
-x,-y,z
x,-y,-z
-x,y,-z
-x,-y,-z
x,y,-z
-x,y,z
x,-y,z
loop_
_atom_site_type_symbol
_atom_site_label
_atom_site_fract_x
_atom_site_fract_y
_atom_site_fract_z
Si Si1 0.826661 0.662650 0.323983
Si Si2 0.667526 0.786656 0.080027
Si Si3 0.825541 0.562530 0.420017
Si Si4 0.169061 0.767488 0.417691
Si Si5 0.329981 0.936213 0.279344
Si Si6 0.174296 0.161298 0.799947
Si Si7 0.670291 0.121737 0.420809
Si Si8 0.667787 0.730141 0.217519
O O1 0.765262 0.606071 0.360996
O O2 0.778423 0.713474 0.374605
O O3 0.746025 0.674273 0.248219
O O4 0.000000 0.659044 0.311043
O O5 0.500000 0.808791 0.078337
O O6 0.769601 0.834160 0.117257
O O7 0.675822 0.730548 0.130112
O O8 0.724132 0.773227 0.000000
O O9 0.766404 0.576775 0.500000
O O10 0.775404 0.500000 0.397911
O O11 0.000000 0.566790 0.422022
O O12 0.201465 0.753994 0.500000
O O13 0.254639 0.822095 0.391954
O O14 0.000000 0.780033 0.403263
O O15 0.500000 0.922423 0.262795
O O16 0.227109 0.897537 0.231201
O O17 0.296559 0.926945 0.363710
O O18 0.291823 0.000000 0.260751
O O19 0.245765 0.213535 0.755565
O O20 0.000000 0.165437 0.795961
O O21 0.730079 0.104370 0.500000
O O22 0.500000 0.134887 0.425884
O O23 0.500000 0.732767 0.244319
#
# Coordination Sequence:
#
# PCOD8193477 Si02
#       8
#     8   8   8   8   8   8   8   8
#     4  10  17  25  41  65  90 116 152 195 234 267
#     4   8  16  32  52  72  95 123 148 169 205 265
#     4   8  14  25  41  61  87 123 167 209 243 275
#     4   9  17  27  39  57  82 111 141 177 223 271
#     4  10  20  33  48  64  85 117 154 188 226 274
#     4  10  19  31  48  71  96 119 145 181 223 263
#     4   9  18  31  45  61  81 107 144 189 231 270
#     4   9  18  30  45  67  93 120 145 174 218 272
#
# _framework density 15.724523
#
# number of rings (size 3 to 8) (size 9 to 14) (size 15 to 20)
#    0.750    2.125    0.000    2.625    0.000    5.250 
#    0.000    1.250    0.000    1.875    0.000    6.125 
#    0.000    0.500    0.000    6.250    0.000    0.000 
#
# Total GULP energy -792960.216387 kJ/mol
# GULP energy per Si atom -12390.003381 kJ/mol
# Density = 1.568873 g / cm^3
# Si number density = 15.724523 Si / 1000 Ang^3
#
#
#
# Elastic Constant Matrix: (Units=GPa)
#
#
# Indices 1 2 3 4 5 6 
#
# 1 61.0728 35.8622 37.5124 0.0000 0.0000 0.0000
# 2 35.8622 89.3575 51.9332 0.0000 0.0000 0.0000
# 3 37.5124 51.9332 91.9039 0.0000 0.0000 0.0000
# 4 0.0000 0.0000 0.0000 13.6558 0.0000 0.0000
# 5 0.0000 0.0000 0.0000 0.0000 18.2554 0.0000
# 6 0.0000 0.0000 0.0000 0.0000 0.0000 13.0991
#
#
#
# Elastic Compliance Matrix: (Units=1/GPa)
#
#
# Indices 1 2 3 4 5 6 
#
# 1 0.023709 -0.005794 -0.006403 0.000000 0.000000 0.000000
# 2 -0.005794 0.018079 -0.007852 0.000000 0.000000 0.000000
# 3 -0.006403 -0.007852 0.017931 0.000000 0.000000 0.000000
# 4 0.000000 0.000000 0.000000 0.073229 0.000000 0.000000
# 5 0.000000 0.000000 0.000000 0.000000 0.054778 0.000000
# 6 0.000000 0.000000 0.000000 0.000000 0.000000 0.076341
#
#
# Mechanical properties :
#
#
# Convention : Reuss Voigt Hill
#
# Bulk Modulus (GPa) = 50.96171 54.77220 52.86695
# Shear Modulus (GPa) = 16.09234 16.80380 16.44807
#
# Velocity S-wave (km/s) = 3.20252 3.27255 3.23772
# Velocity P-wave (km/s) = 6.79369 7.01337 6.90441
#
# Compressibility (1/GPa) = 0.01962258
#
# Stress axis : x y z
#
# Youngs Moduli (GPa) = 42.17787 55.31157 55.76809
#
# Poissons Ratio (x) = 0.32046 0.35711
# Poissons Ratio (y) = 0.24436 0.43787
# Poissons Ratio (z) = 0.27008 0.43428
#
# Static dielectric constant tensor:
#      x y z
#    x 2.842430 0.000000 0.000000 
#    y 0.000000 2.940630 0.000000 
#    z 0.000000 0.000000 3.032640 
# 
# 
# High freq. dielectric constant tensor:
#      x y z
#    x 1.592200 0.000000 0.000000 
#    y 0.000000 1.573810 0.000000 
#    z 0.000000 0.000000 1.591990 
# 
# From -- ./inp_files/30220.got.cif
#   From: 2010.03.12/outbox.cif.g09.slc.cpg/sg47_16_cif.got.tgz:30220.got - 2010.04.14 03:12:58.
