data_PCOD8193984
_publ_section_title
;
Structure prediction by ZEFSAII (Michael W. Deem and Ramdas Pophale) SiO2 
 PCOD8193984
Probable space group: P M M M
;
_chemical_formula_sum "Si O2"
_cell_formula_units_Z 64
_cell_length_a 25.645537
_cell_length_b 14.571437
_cell_length_c 9.697375
_cell_angle_alpha 90.000000
_cell_angle_beta 90.000000
_cell_angle_gamma 90.000000
_cell_volume 3623.834627
_symmetry_space_group_name_H-M "P M M M"
_symmetry_group_IT_number 47
_symmetry_cell_setting 'orthorhombic'
loop_
_space_group_symop_operation_xyz
x,y,z
-x,-y,z
x,-y,-z
-x,y,-z
-x,-y,-z
x,y,-z
-x,y,z
x,-y,z
loop_
_atom_site_type_symbol
_atom_site_label
_atom_site_fract_x
_atom_site_fract_y
_atom_site_fract_z
Si Si1 0.742497 0.398172 0.163334
Si Si2 0.887657 0.103461 0.342722
Si Si3 0.141544 0.608632 0.158459
Si Si4 0.439656 0.605774 0.342682
Si Si5 0.941347 0.285109 0.341044
Si Si6 0.795887 0.892237 0.848397
Si Si7 0.681470 0.100075 0.836728
Si Si8 0.358335 0.289220 0.837027
O O1 0.733377 0.500000 0.225779
O O2 0.799880 0.360350 0.205799
O O3 0.696077 0.332799 0.216363
O O4 0.741012 0.404878 0.000000
O O5 0.868431 0.101956 0.500000
O O6 0.934701 0.174988 0.321516
O O7 0.840128 0.144658 0.253316
O O8 0.904896 0.000000 0.297881
O O9 0.136469 0.500000 0.178172
O O10 0.098855 0.657878 0.250916
O O11 0.131491 0.635887 0.000000
O O12 0.424184 0.628194 0.500000
O O13 0.500000 0.628286 0.317599
O O14 0.428049 0.500000 0.309379
O O15 0.407084 0.667529 0.239210
O O16 0.932134 0.312062 0.500000
O O17 0.000000 0.309771 0.294672
O O18 0.739040 0.871707 0.783118
O O19 0.802635 0.000000 0.864667
O O20 0.802293 0.845443 0.000000
O O21 0.641507 0.180906 0.797086
O O22 0.663455 0.000000 0.777445
O O23 0.686748 0.092174 0.000000
O O24 0.365349 0.304465 0.000000
#
# Coordination Sequence:
#
# PCOD8193984 Si02
#       8
#     8   8   8   8   8   8   8   8
#     4   8  15  28  46  72 103 127 150 190 245 296
#     4   9  18  32  49  69  94 124 158 198 244 294
#     4   9  19  36  56  75  97 127 160 196 243 300
#     4   9  19  36  54  72 101 139 171 204 253 305
#     4  10  22  37  51  70  95 124 161 205 251 296
#     4   8  14  26  45  68  93 124 161 196 234 285
#     4   8  15  27  43  69 105 138 166 198 240 289
#     4  10  18  28  50  80 104 132 170 209 244 283
#
# _framework density 17.660851000000001
#
# number of rings (size 3 to 8) (size 9 to 14) (size 15 to 20)
#    0.000    3.125    0.000    2.250    1.750    2.500 
#    0.000    4.375    0.000    2.250    0.000    5.250 
#    0.000    0.000    0.000    0.000    0.000    0.000 
#
# Total GULP energy -793103.618480 kJ/mol
# GULP energy per Si atom -12392.244039 kJ/mol
# Density = 1.762065 g / cm^3
# Si number density = 17.660851 Si / 1000 Ang^3
#
#
#
# Elastic Constant Matrix: (Units=GPa)
#
#
# Indices 1 2 3 4 5 6 
#
# 1 105.7349 61.7360 47.5585 0.0000 0.0000 0.0000
# 2 61.7360 84.1606 38.1638 0.0000 0.0000 0.0000
# 3 47.5585 38.1638 54.4643 0.0000 0.0000 0.0000
# 4 0.0000 0.0000 0.0000 19.5367 0.0000 0.0000
# 5 0.0000 0.0000 0.0000 0.0000 -13.0711 0.0000
# 6 0.0000 0.0000 0.0000 0.0000 0.0000 27.8493
#
#
#
# Elastic Compliance Matrix: (Units=1/GPa)
#
#
# Indices 1 2 3 4 5 6 
#
# 1 0.019941 -0.009867 -0.010499 0.000000 0.000000 0.000000
# 2 -0.009867 0.022298 -0.007009 0.000000 0.000000 0.000000
# 3 -0.010499 -0.007009 0.032439 0.000000 0.000000 0.000000
# 4 0.000000 0.000000 0.000000 0.051186 0.000000 0.000000
# 5 0.000000 0.000000 0.000000 0.000000 -0.076505 0.000000
# 6 0.000000 0.000000 0.000000 0.000000 0.000000 0.035908
#
#
# Mechanical properties :
#
#
# Convention : Reuss Voigt Hill
#
# Bulk Modulus (GPa) = 50.17640 59.91961 55.04801
# Shear Modulus (GPa) = 34.09288 13.32307 23.70798
#
# Velocity S-wave (km/s) = 4.39842 2.74959 3.66786
# Velocity P-wave (km/s) = 7.36665 6.63942 7.01247
#
# Compressibility (1/GPa) = 0.01992969
#
# Stress axis : x y z
#
# Youngs Moduli (GPa) = 50.14850 44.84687 30.82690
#
# Poissons Ratio (x) = 0.44250 0.32364
# Poissons Ratio (y) = 0.49481 0.21606
# Poissons Ratio (z) = 0.52649 0.31432
#
# Static dielectric constant tensor:
#      x y z
#    x 3.206200 0.000000 0.000000 
#    y 0.000000 3.453270 0.000000 
#    z 0.000000 0.000000 3.119160 
# 
# 
# High freq. dielectric constant tensor:
#      x y z
#    x 1.667770 0.000000 0.000000 
#    y 0.000000 1.688890 0.000000 
#    z 0.000000 0.000000 1.649610 
# 
# From -- ./inp_files/12762.got.cif
#   From: 2010.03.12/outbox.cif.g09.slc.cpg/sg47_7_cif.got.tgz:12762.got - 2010.04.14 03:12:58.
