data_PCOD8193571
_publ_section_title
;
Structure prediction by ZEFSAII (Michael W. Deem and Ramdas Pophale) SiO2 
 PCOD8193571
Probable space group: P M M M
;
_chemical_formula_sum "Si O2"
_cell_formula_units_Z 64
_cell_length_a 19.911459
_cell_length_b 20.762271
_cell_length_c 9.088365
_cell_angle_alpha 90.000000
_cell_angle_beta 90.000000
_cell_angle_gamma 90.000000
_cell_volume 3757.194689
_symmetry_space_group_name_H-M "P M M M"
_symmetry_group_IT_number 47
_symmetry_cell_setting 'orthorhombic'
loop_
_space_group_symop_operation_xyz
x,y,z
-x,-y,z
x,-y,-z
-x,y,-z
-x,-y,-z
x,y,-z
-x,y,z
x,-y,z
loop_
_atom_site_type_symbol
_atom_site_label
_atom_site_fract_x
_atom_site_fract_y
_atom_site_fract_z
Si Si1 0.571535 0.864686 0.166794
Si Si2 0.163181 0.688975 0.324845
Si Si3 0.924967 0.428568 0.674693
Si Si4 0.714829 0.121447 0.833877
Si Si5 0.924638 0.190343 0.324857
Si Si6 0.426146 0.266176 0.671112
Si Si7 0.160069 0.928588 0.673718
Si Si8 0.704770 0.273395 0.170552
O O1 0.500000 0.903484 0.179729
O O2 0.638987 0.906867 0.193774
O O3 0.569604 0.808181 0.284538
O O4 0.578234 0.835606 0.000000
O O5 0.170681 0.689868 0.500000
O O6 0.126340 0.624827 0.265375
O O7 0.119772 0.749977 0.269202
O O8 0.236105 0.689235 0.253017
O O9 0.926782 0.424974 0.500000
O O10 0.901804 0.500000 0.725980
O O11 0.000000 0.414041 0.734724
O O12 0.764687 0.084952 0.726665
O O13 0.713259 0.197468 0.799839
O O14 0.738811 0.108274 0.000000
O O15 0.927039 0.189534 0.500000
O O16 0.891826 0.124232 0.263021
O O17 0.000000 0.196244 0.261033
O O18 0.407764 0.271020 0.500000
O O19 0.500000 0.297974 0.701985
O O20 0.366213 0.299255 0.764010
O O21 0.161724 0.923948 0.500000
O O22 0.137330 0.000000 0.724982
O O23 0.707539 0.290923 0.000000
#
# Coordination Sequence:
#
# PCOD8193571 Si02
#       8
#     8   8   8   8   8   8   8   8
#     4   8  14  25  41  62  87 114 144 179 222 270
#     4  10  17  27  47  71  94 122 154 190 228 268
#     4   8  14  25  43  70 101 128 156 192 232 274
#     4   9  17  29  45  63  84 113 146 182 224 271
#     4   9  17  29  46  68  89 110 142 185 231 276
#     4   9  16  25  39  62  91 121 153 188 226 270
#     4  10  20  32  46  64  85 111 144 186 234 280
#     4  10  19  29  43  64  92 124 155 190 231 272
#
# _framework density 17.033985999999999
#
# number of rings (size 3 to 8) (size 9 to 14) (size 15 to 20)
#    0.000    2.875    1.250    2.250    0.000    4.750 
#    0.000    1.250    0.000    3.375    0.000    4.375 
#    0.000    0.500    0.000    5.750    0.000    1.750 
#
# Total GULP energy -792977.297905 kJ/mol
# GULP energy per Si atom -12390.270280 kJ/mol
# Density = 1.699522 g / cm^3
# Si number density = 17.033986 Si / 1000 Ang^3
#
#
#
# Elastic Constant Matrix: (Units=GPa)
#
#
# Indices 1 2 3 4 5 6 
#
# 1 148.7824 54.9152 34.3099 0.0000 0.0000 0.0000
# 2 54.9152 84.7012 22.3046 0.0000 0.0000 0.0000
# 3 34.3099 22.3046 34.8288 0.0000 0.0000 0.0000
# 4 0.0000 0.0000 0.0000 7.7646 0.0000 0.0000
# 5 0.0000 0.0000 0.0000 0.0000 15.1105 0.0000
# 6 0.0000 0.0000 0.0000 0.0000 0.0000 16.3901
#
#
#
# Elastic Compliance Matrix: (Units=1/GPa)
#
#
# Indices 1 2 3 4 5 6 
#
# 1 0.010043 -0.004698 -0.006884 0.000000 0.000000 0.000000
# 2 -0.004698 0.016399 -0.005874 0.000000 0.000000 0.000000
# 3 -0.006884 -0.005874 0.039255 0.000000 0.000000 0.000000
# 4 0.000000 0.000000 0.000000 0.128789 0.000000 0.000000
# 5 0.000000 0.000000 0.000000 0.000000 0.066179 0.000000
# 6 0.000000 0.000000 0.000000 0.000000 0.000000 0.061012
#
#
# Mechanical properties :
#
#
# Convention : Reuss Voigt Hill
#
# Bulk Modulus (GPa) = 32.48415 54.59688 43.54052
# Shear Modulus (GPa) = 13.62945 18.30523 15.96734
#
# Velocity S-wave (km/s) = 2.83173 3.28171 3.06499
# Velocity P-wave (km/s) = 5.45923 6.81768 6.17592
#
# Compressibility (1/GPa) = 0.03078424
#
# Stress axis : x y z
#
# Youngs Moduli (GPa) = 99.57217 60.97902 25.47425
#
# Poissons Ratio (x) = 0.28650 0.17538
# Poissons Ratio (y) = 0.46782 0.14963
# Poissons Ratio (z) = 0.68550 0.35817
#
# Static dielectric constant tensor:
#      x y z
#    x 3.643590 0.000000 0.000000 
#    y 0.000000 2.986740 0.000000 
#    z 0.000000 0.000000 2.919680 
# 
# 
# High freq. dielectric constant tensor:
#      x y z
#    x 1.676850 0.000000 0.000000 
#    y 0.000000 1.605090 0.000000 
#    z 0.000000 0.000000 1.631670 
# 
# From -- ./inp_files/11860.got.cif
#   From: 2010.03.12/outbox.cif.g09.slc.cpg/sg47_6_cif.got.tgz:11860.got - 2010.04.14 03:12:58.
