data_PCOD8193724
_publ_section_title
;
Structure prediction by ZEFSAII (Michael W. Deem and Ramdas Pophale) SiO2 
 PCOD8193724
Probable space group: P M M M
;
_chemical_formula_sum "Si O2"
_cell_formula_units_Z 52
_cell_length_a 12.939114
_cell_length_b 13.512272
_cell_length_c 21.614709
_cell_angle_alpha 90.000000
_cell_angle_beta 90.000000
_cell_angle_gamma 90.000000
_cell_volume 3779.047156
_symmetry_space_group_name_H-M "P M M M"
_symmetry_group_IT_number 47
_symmetry_cell_setting 'orthorhombic'
loop_
_space_group_symop_operation_xyz
x,y,z
-x,-y,z
x,-y,-z
-x,y,-z
-x,-y,-z
x,y,-z
-x,y,z
x,-y,z
loop_
_atom_site_type_symbol
_atom_site_label
_atom_site_fract_x
_atom_site_fract_y
_atom_site_fract_z
Si Si1 0.880286 0.294003 0.256273
Si Si2 0.792149 0.386442 0.631751
Si Si3 0.877237 0.611127 0.132069
Si Si4 0.118171 0.113357 0.340236
Si Si5 0.500000 0.890484 0.573316
Si Si6 0.712023 0.205725 0.573614
Si Si7 0.000000 0.617461 0.568322
Si Si8 0.886844 0.382554 0.000000
O O1 0.805389 0.367063 0.295402
O O2 0.844963 0.310196 0.185193
O O3 0.863321 0.181058 0.278997
O O4 0.000000 0.326994 0.263819
O O5 0.766537 0.500000 0.617189
O O6 0.706858 0.319094 0.598125
O O7 0.899378 0.345317 0.603466
O O8 0.838229 0.500000 0.149314
O O9 0.000000 0.608115 0.124344
O O10 0.829966 0.646796 0.065089
O O11 0.194523 0.144870 0.395400
O O12 0.000000 0.125994 0.363772
O O13 0.140253 0.000000 0.321180
O O14 0.500000 0.893960 0.500000
O O15 0.396829 0.837119 0.596706
O O16 0.500000 0.000000 0.601673
O O17 0.725682 0.200862 0.500000
O O18 0.000000 0.500000 0.565880
O O19 0.000000 0.663546 0.500000
O O20 0.898520 0.500000 0.000000
O O21 0.000000 0.332355 0.000000
#
# Coordination Sequence:
#
# PCOD8193724 Si02
#       8
#     8   8   8   8   4   8   4   4
#     4   9  15  23  35  51  70  98 131 157 183 223
#     4  10  18  27  38  55  80 104 127 152 183 227
#     4   8  12  17  28  45  67  93 122 154 185 213
#     4   9  18  30  41  56  78  98 119 154 199 241
#     4   9  18  34  51  61  69  87 122 165 201 234
#     4  10  20  31  45  61  75  94 125 159 196 236
#     4   9  16  24  34  48  71 104 130 148 176 216
#     4   7  10  16  24  40  65  91 119 154 188 211
#
# _framework density 13.760082000000001
#
# number of rings (size 3 to 8) (size 9 to 14) (size 15 to 20)
#    0.000    3.000    0.769    2.308    1.077    2.769 
#    0.000    1.154    0.000    1.385    0.000    0.538 
#    0.000    4.308    0.000    0.000    0.000   12.308 
#
# Total GULP energy -644215.562930 kJ/mol
# GULP energy per Si atom -12388.760826 kJ/mol
# Density = 1.372876 g / cm^3
# Si number density = 13.760082 Si / 1000 Ang^3
#
#
#
# Elastic Constant Matrix: (Units=GPa)
#
#
# Indices 1 2 3 4 5 6 
#
# 1 53.1372 37.7078 27.7748 0.0000 0.0000 0.0000
# 2 37.7078 92.3596 39.9425 0.0000 0.0000 0.0000
# 3 27.7748 39.9425 112.7317 0.0000 0.0000 0.0000
# 4 0.0000 0.0000 0.0000 15.4611 0.0000 0.0000
# 5 0.0000 0.0000 0.0000 0.0000 3.5170 0.0000
# 6 0.0000 0.0000 0.0000 0.0000 0.0000 16.2579
#
#
#
# Elastic Compliance Matrix: (Units=1/GPa)
#
#
# Indices 1 2 3 4 5 6 
#
# 1 0.027499 -0.009799 -0.003304 0.000000 0.000000 0.000000
# 2 -0.009799 0.016278 -0.003353 0.000000 0.000000 0.000000
# 3 -0.003304 -0.003353 0.010873 0.000000 0.000000 0.000000
# 4 0.000000 0.000000 0.000000 0.064679 0.000000 0.000000
# 5 0.000000 0.000000 0.000000 0.000000 0.284331 0.000000
# 6 0.000000 0.000000 0.000000 0.000000 0.000000 0.061509
#
#
# Mechanical properties :
#
#
# Convention : Reuss Voigt Hill
#
# Bulk Modulus (GPa) = 46.00003 52.11986 49.05995
# Shear Modulus (GPa) = 9.89462 17.23409 13.56435
#
# Velocity S-wave (km/s) = 2.68448 3.54286 3.14311
# Velocity P-wave (km/s) = 6.56591 7.39565 6.99310
#
# Compressibility (1/GPa) = 0.02173912
#
# Stress axis : x y z
#
# Youngs Moduli (GPa) = 36.36462 61.43296 91.97364
#
# Poissons Ratio (x) = 0.60195 0.30384
# Poissons Ratio (y) = 0.35632 0.30842
# Poissons Ratio (z) = 0.12013 0.20601
#
# Static dielectric constant tensor:
#      x y z
#    x 2.446020 0.000000 0.000000 
#    y 0.000000 2.724500 0.000000 
#    z 0.000000 0.000000 2.914970 
# 
# 
# High freq. dielectric constant tensor:
#      x y z
#    x 1.474680 0.000000 0.000000 
#    y 0.000000 1.518250 0.000000 
#    z 0.000000 0.000000 1.515670 
# 
# From -- ./inp_files/25326.got.cif
#   From: 2010.03.12/outbox.cif.g09.slc.cpg/sg47_13_cif.got.tgz:25326.got - 2010.04.14 03:12:58.
