data_PCOD8193463
_publ_section_title
;
Structure prediction by ZEFSAII (Michael W. Deem and Ramdas Pophale) SiO2 
 PCOD8193463
Probable space group: P M M M
;
_chemical_formula_sum "Si O2"
_cell_formula_units_Z 56
_cell_length_a 14.459615
_cell_length_b 21.018400
_cell_length_c 14.527852
_cell_angle_alpha 90.000000
_cell_angle_beta 90.000000
_cell_angle_gamma 90.000000
_cell_volume 4415.275316
_symmetry_space_group_name_H-M "P M M M"
_symmetry_group_IT_number 47
_symmetry_cell_setting 'orthorhombic'
loop_
_space_group_symop_operation_xyz
x,y,z
-x,-y,z
x,-y,-z
-x,y,-z
-x,-y,-z
x,y,-z
-x,y,z
x,-y,z
loop_
_atom_site_type_symbol
_atom_site_label
_atom_site_fract_x
_atom_site_fract_y
_atom_site_fract_z
Si Si1 0.771170 0.429161 0.392995
Si Si2 0.393762 0.376556 0.289592
Si Si3 0.790088 0.190193 0.392260
Si Si4 0.104318 0.314305 0.609750
Si Si5 0.390816 0.428732 0.100059
Si Si6 0.602842 0.752409 0.394507
Si Si7 0.895329 0.069959 0.609417
O O1 0.756186 0.416641 0.500000
O O2 0.810675 0.500000 0.374357
O O3 0.670730 0.423490 0.347143
O O4 0.843060 0.377181 0.352986
O O5 0.500000 0.398917 0.302303
O O6 0.362220 0.380856 0.182309
O O7 0.380595 0.305113 0.324883
O O8 0.810459 0.188155 0.500000
O O9 0.842961 0.251872 0.351788
O O10 0.680043 0.194458 0.371994
O O11 0.829136 0.124790 0.348016
O O12 0.103241 0.314527 0.500000
O O13 0.000000 0.314661 0.648641
O O14 0.500000 0.431477 0.093752
O O15 0.353178 0.500000 0.121212
O O16 0.351939 0.405330 0.000000
O O17 0.615580 0.727975 0.500000
O O18 0.500000 0.781668 0.381098
O O19 0.889148 0.069516 0.500000
O O20 0.000000 0.084966 0.640401
O O21 0.865028 0.000000 0.646453
#
# Coordination Sequence:
#
# PCOD8193463 Si02
#       7
#     8   8   8   8   8   8   8
#     4  10  19  27  33  45  66  89 114 144 174 203
#     4  10  17  25  37  50  66  88 112 140 175 208
#     4   9  14  22  35  47  62  86 114 143 172 201
#     4   9  16  25  35  45  58  82 115 143 169 203
#     4   8  14  24  36  49  64  82 106 137 175 218
#     4   9  16  24  34  48  67  92 120 144 164 193
#     4   8  13  20  31  49  68  83 106 144 184 211
#
# _framework density 12.68324
#
# number of rings (size 3 to 8) (size 9 to 14) (size 15 to 20)
#    0.000    3.000    1.429    2.143    0.000    3.714 
#    0.000    2.143    0.000    0.429    0.000    3.000 
#    0.000    0.571    0.000    3.000    0.000    1.000 
#
# Total GULP energy -693822.109274 kJ/mol
# GULP energy per Si atom -12389.680523 kJ/mol
# Density = 1.265437 g / cm^3
# Si number density = 12.683240 Si / 1000 Ang^3
#
#
#
# Elastic Constant Matrix: (Units=GPa)
#
#
# Indices 1 2 3 4 5 6 
#
# 1 84.3974 54.5285 20.3995 0.0000 0.0000 0.0000
# 2 54.5285 98.2464 25.1297 0.0000 0.0000 0.0000
# 3 20.3995 25.1297 33.7540 0.0000 0.0000 0.0000
# 4 0.0000 0.0000 0.0000 4.0767 0.0000 0.0000
# 5 0.0000 0.0000 0.0000 0.0000 3.1335 0.0000
# 6 0.0000 0.0000 0.0000 0.0000 0.0000 21.3281
#
#
#
# Elastic Compliance Matrix: (Units=1/GPa)
#
#
# Indices 1 2 3 4 5 6 
#
# 1 0.019008 -0.009402 -0.004488 0.000000 0.000000 0.000000
# 2 -0.009402 0.017223 -0.007140 0.000000 0.000000 0.000000
# 3 -0.004488 -0.007140 0.037655 0.000000 0.000000 0.000000
# 4 0.000000 0.000000 0.000000 0.245296 0.000000 0.000000
# 5 0.000000 0.000000 0.000000 0.000000 0.319133 0.000000
# 6 0.000000 0.000000 0.000000 0.000000 0.000000 0.046886
#
#
# Mechanical properties :
#
#
# Convention : Reuss Voigt Hill
#
# Bulk Modulus (GPa) = 31.42183 46.27926 38.85055
# Shear Modulus (GPa) = 6.77626 13.46366 10.11996
#
# Velocity S-wave (km/s) = 2.31393 3.26165 2.82778
# Velocity P-wave (km/s) = 5.65395 7.12406 6.43115
#
# Compressibility (1/GPa) = 0.03182501
#
# Stress axis : x y z
#
# Youngs Moduli (GPa) = 52.60963 58.06175 26.55722
#
# Poissons Ratio (x) = 0.54588 0.11919
# Poissons Ratio (y) = 0.49462 0.18963
# Poissons Ratio (z) = 0.23611 0.41459
#
# Static dielectric constant tensor:
#      x y z
#    x 2.649460 0.000000 0.000000 
#    y 0.000000 2.701790 0.000000 
#    z 0.000000 0.000000 2.374670 
# 
# 
# High freq. dielectric constant tensor:
#      x y z
#    x 1.477460 0.000000 0.000000 
#    y 0.000000 1.470840 0.000000 
#    z 0.000000 0.000000 1.422540 
# 
# From -- ./inp_files/23978.got.cif
#   From: 2010.03.12/outbox.cif.g09.slc.cpg/sg47_12_cif.got.tgz:23978.got - 2010.04.14 03:12:58.
