data_PCOD8193760
_publ_section_title
;
Structure prediction by ZEFSAII (Michael W. Deem and Ramdas Pophale) SiO2 
 PCOD8193760
Probable space group: P M M M
;
_chemical_formula_sum "Si O2"
_cell_formula_units_Z 64
_cell_length_a 8.901917
_cell_length_b 19.189132
_cell_length_c 24.013706
_cell_angle_alpha 90.000000
_cell_angle_beta 90.000000
_cell_angle_gamma 90.000000
_cell_volume 4102.022709
_symmetry_space_group_name_H-M "P M M M"
_symmetry_group_IT_number 47
_symmetry_cell_setting 'orthorhombic'
loop_
_space_group_symop_operation_xyz
x,y,z
-x,-y,z
x,-y,-z
-x,y,-z
-x,-y,-z
x,y,-z
-x,y,z
x,-y,z
loop_
_atom_site_type_symbol
_atom_site_label
_atom_site_fract_x
_atom_site_fract_y
_atom_site_fract_z
Si Si1 0.176999 0.286045 0.266748
Si Si2 0.678526 0.575741 0.880841
Si Si3 0.677762 0.796189 0.832861
Si Si4 0.176745 0.845305 0.667801
Si Si5 0.821183 0.078836 0.438725
Si Si6 0.822294 0.920643 0.221964
Si Si7 0.321776 0.287641 0.061498
Si Si8 0.323933 0.577828 0.753997
O O1 0.254594 0.258469 0.210779
O O2 0.219792 0.234710 0.318194
O O3 0.235895 0.363497 0.281550
O O4 0.000000 0.286219 0.256852
O O5 0.500000 0.578307 0.880820
O O6 0.733090 0.500000 0.903483
O O7 0.745002 0.637494 0.918870
O O8 0.732636 0.585041 0.817399
O O9 0.500000 0.796389 0.825117
O O10 0.743036 0.873619 0.824912
O O11 0.725446 0.772111 0.894916
O O12 0.247716 0.870181 0.608880
O O13 0.234498 0.895316 0.717462
O O14 0.000000 0.854283 0.663476
O O15 0.762492 0.102276 0.500000
O O16 0.000000 0.081792 0.438314
O O17 0.768249 0.000000 0.426066
O O18 0.000000 0.910992 0.216434
O O19 0.772440 0.000000 0.212672
O O20 0.500000 0.293553 0.059271
O O21 0.257509 0.269867 0.000000
O O22 0.500000 0.592342 0.748817
O O23 0.285706 0.500000 0.731549
#
# Coordination Sequence:
#
# PCOD8193760 Si02
#       8
#     8   8   8   8   8   8   8   8
#     4  10  18  27  41  60  84 113 142 168 201 245
#     4   8  13  22  37  57  79 101 126 157 193 232
#     4  10  18  29  44  61  83 106 132 168 206 245
#     4   8  14  23  35  55  83 112 138 166 199 237
#     4   8  12  18  31  52  79 112 145 171 196 231
#     4   9  17  29  45  63  83 107 133 165 206 250
#     4   9  16  25  39  59  80 102 130 166 205 242
#     4   9  16  27  43  61  82 108 137 170 209 247
#
# _framework density 15.602058
#
# number of rings (size 3 to 8) (size 9 to 14) (size 15 to 20)
#    0.000    3.125    1.250    3.000    0.000    2.250 
#    0.000    1.250    0.000    1.875    0.000    2.625 
#    0.000   15.000    0.000   46.375    0.000   37.250 
#
# Total GULP energy -793029.993063 kJ/mol
# GULP energy per Si atom -12391.093642 kJ/mol
# Density = 1.556655 g / cm^3
# Si number density = 15.602058 Si / 1000 Ang^3
#
#
#
# Elastic Constant Matrix: (Units=GPa)
#
#
# Indices 1 2 3 4 5 6 
#
# 1 28.7103 31.6603 18.5980 0.0000 0.0000 0.0000
# 2 31.6603 145.2779 73.2654 0.0000 0.0000 0.0000
# 3 18.5980 73.2654 107.5197 0.0000 0.0000 0.0000
# 4 0.0000 0.0000 0.0000 25.6653 0.0000 0.0000
# 5 0.0000 0.0000 0.0000 0.0000 8.5464 0.0000
# 6 0.0000 0.0000 0.0000 0.0000 0.0000 23.5463
#
#
#
# Elastic Compliance Matrix: (Units=1/GPa)
#
#
# Indices 1 2 3 4 5 6 
#
# 1 0.046056 -0.009171 -0.001717 0.000000 0.000000 0.000000
# 2 -0.009171 0.012313 -0.006804 0.000000 0.000000 0.000000
# 3 -0.001717 -0.006804 0.014234 0.000000 0.000000 0.000000
# 4 0.000000 0.000000 0.000000 0.038963 0.000000 0.000000
# 5 0.000000 0.000000 0.000000 0.000000 0.117008 0.000000
# 6 0.000000 0.000000 0.000000 0.000000 0.000000 0.042469
#
#
# Mechanical properties :
#
#
# Convention : Reuss Voigt Hill
#
# Bulk Modulus (GPa) = 26.86795 58.72838 42.79817
# Shear Modulus (GPa) = 15.68203 22.08388 18.88295
#
# Velocity S-wave (km/s) = 3.17381 3.76632 3.48269
# Velocity P-wave (km/s) = 5.53976 7.52574 6.60779
#
# Compressibility (1/GPa) = 0.03721906
#
# Stress axis : x y z
#
# Youngs Moduli (GPa) = 21.71249 81.21220 70.25364
#
# Poissons Ratio (x) = 0.74480 0.12065
# Poissons Ratio (y) = 0.19912 0.47802
# Poissons Ratio (z) = 0.03729 0.55258
#
# Static dielectric constant tensor:
#      x y z
#    x 2.595090 0.000000 0.000000 
#    y 0.000000 3.205470 0.000000 
#    z 0.000000 0.000000 3.106330 
# 
# 
# High freq. dielectric constant tensor:
#      x y z
#    x 1.558980 0.000000 0.000000 
#    y 0.000000 1.602510 0.000000 
#    z 0.000000 0.000000 1.568730 
# 
# From -- ./inp_files/32250.got.cif
#   From: 2010.03.12/outbox.cif.g09.slc.cpg/sg47_17_cif.got.tgz:32250.got - 2010.04.14 03:12:58.
