data_PCOD8193614
_publ_section_title
;
Structure prediction by ZEFSAII (Michael W. Deem and Ramdas Pophale) SiO2 
 PCOD8193614
Probable space group: P M M M
;
_chemical_formula_sum "Si O2"
_cell_formula_units_Z 48
_cell_length_a 20.978331
_cell_length_b 14.454411
_cell_length_c 9.068380
_cell_angle_alpha 90.000000
_cell_angle_beta 90.000000
_cell_angle_gamma 90.000000
_cell_volume 2749.799593
_symmetry_space_group_name_H-M "P M M M"
_symmetry_group_IT_number 47
_symmetry_cell_setting 'orthorhombic'
loop_
_space_group_symop_operation_xyz
x,y,z
-x,-y,z
x,-y,-z
-x,y,-z
-x,-y,-z
x,y,-z
-x,y,z
x,-y,z
loop_
_atom_site_type_symbol
_atom_site_label
_atom_site_fract_x
_atom_site_fract_y
_atom_site_fract_z
Si Si1 0.308994 0.604389 0.175706
Si Si2 0.635847 0.897126 0.831272
Si Si3 0.070528 0.396517 0.175128
Si Si4 0.812336 0.722206 0.824735
Si Si5 0.232734 0.895610 0.328092
Si Si6 0.430330 0.713744 0.826276
O O1 0.302600 0.500000 0.236495
O O2 0.249247 0.664848 0.231134
O O3 0.374534 0.648685 0.239455
O O4 0.310003 0.604306 0.000000
O O5 0.695571 0.881699 0.726491
O O6 0.582946 0.821482 0.789180
O O7 0.606661 0.000000 0.810158
O O8 0.659076 0.882220 0.000000
O O9 0.083429 0.500000 0.235565
O O10 0.124441 0.328143 0.237211
O O11 0.000000 0.362844 0.225418
O O12 0.074536 0.398747 0.000000
O O13 0.813097 0.824617 0.756531
O O14 0.812851 0.730239 0.000000
O O15 0.230698 0.873648 0.500000
O O16 0.209230 0.000000 0.294220
O O17 0.500000 0.688118 0.759027
O O18 0.432476 0.698669 0.000000
#
# Coordination Sequence:
#
# PCOD8193614 Si02
#       6
#     8   8   8   8   8   8
#     4   9  16  25  39  63  92 119 150 188 226 263
#     4   9  16  28  46  66  88 114 148 191 237 281
#     4   8  14  25  44  74 107 131 152 184 228 273
#     4  10  17  28  49  73  95 121 154 190 226 267
#     4  10  20  32  47  68  93 120 151 190 236 280
#     4   9  16  25  38  61  92 121 149 184 228 274
#
# _framework density 17.455818000000001
#
# number of rings (size 3 to 8) (size 9 to 14) (size 15 to 20)
#    0.000    2.833    1.667    1.500    0.000    3.667 
#    0.000    3.333    0.000    3.500    0.000    7.000 
#    0.000    1.333    0.000    0.000    0.000    0.000 
#
# Total GULP energy -594925.171619 kJ/mol
# GULP energy per Si atom -12394.274409 kJ/mol
# Density = 1.741609 g / cm^3
# Si number density = 17.455818 Si / 1000 Ang^3
#
#
#
# Elastic Constant Matrix: (Units=GPa)
#
#
# Indices 1 2 3 4 5 6 
#
# 1 139.2875 75.0650 22.0396 0.0000 0.0000 0.0000
# 2 75.0650 128.5424 26.7801 0.0000 0.0000 0.0000
# 3 22.0396 26.7801 22.5511 0.0000 0.0000 0.0000
# 4 0.0000 0.0000 0.0000 10.3265 0.0000 0.0000
# 5 0.0000 0.0000 0.0000 0.0000 3.5281 0.0000
# 6 0.0000 0.0000 0.0000 0.0000 0.0000 30.1663
#
#
#
# Elastic Compliance Matrix: (Units=1/GPa)
#
#
# Indices 1 2 3 4 5 6 
#
# 1 0.010748 -0.005432 -0.004054 0.000000 0.000000 0.000000
# 2 -0.005432 0.013082 -0.010227 0.000000 0.000000 0.000000
# 3 -0.004054 -0.010227 0.060450 0.000000 0.000000 0.000000
# 4 0.000000 0.000000 0.000000 0.096839 0.000000 0.000000
# 5 0.000000 0.000000 0.000000 0.000000 0.283438 0.000000
# 6 0.000000 0.000000 0.000000 0.000000 0.000000 0.033150
#
#
# Mechanical properties :
#
#
# Convention : Reuss Voigt Hill
#
# Bulk Modulus (GPa) = 22.29375 59.79448 41.04411
# Shear Modulus (GPa) = 9.05660 19.90393 14.48027
#
# Velocity S-wave (km/s) = 2.28025 3.38042 2.88329
# Velocity P-wave (km/s) = 4.44207 7.04027 5.88632
#
# Compressibility (1/GPa) = 0.04485562
#
# Stress axis : x y z
#
# Youngs Moduli (GPa) = 93.03784 76.43871 16.54256
#
# Poissons Ratio (x) = 0.41523 0.06706
# Poissons Ratio (y) = 0.50540 0.16918
# Poissons Ratio (z) = 0.37714 0.78172
#
# Static dielectric constant tensor:
#      x y z
#    x 3.393170 0.000000 0.000000 
#    y 0.000000 3.527610 0.000000 
#    z 0.000000 0.000000 2.717850 
# 
# 
# High freq. dielectric constant tensor:
#      x y z
#    x 1.662870 0.000000 0.000000 
#    y 0.000000 1.684270 0.000000 
#    z 0.000000 0.000000 1.614350 
# 
# From -- ./inp_files/6805.got.cif
#   From: 2010.03.12/outbox.cif.g09.slc.cpg/sg47_4_cif.got.tgz:6805.got - 2010.04.14 03:12:58.
