data_PCOD8193418
_publ_section_title
;
Structure prediction by ZEFSAII (Michael W. Deem and Ramdas Pophale) SiO2 
 PCOD8193418
Probable space group: I M A 2
;
_chemical_formula_sum "Si O2"
_cell_formula_units_Z 32
_cell_length_a 21.154207
_cell_length_b 7.314322
_cell_length_c 9.325208
_cell_angle_alpha 90.000000
_cell_angle_beta 90.000000
_cell_angle_gamma 90.000000
_cell_volume 1442.877140
_symmetry_space_group_name_H-M "I M A 2"
_symmetry_group_IT_number 46
_symmetry_cell_setting 'orthorhombic'
loop_
_space_group_symop_operation_xyz
x,y,z
-x,-y,z
1/2-x,y,z
1/2+x,-y,z
1/2+x,1/2+y,1/2+z
1/2-x,1/2-y,1/2+z
-x,1/2+y,1/2+z
x,1/2-y,1/2+z
loop_
_atom_site_type_symbol
_atom_site_label
_atom_site_fract_x
_atom_site_fract_y
_atom_site_fract_z
Si Si1 0.097891 0.745066 0.698820
Si Si2 0.486877 0.803447 0.951935
Si Si3 0.322753 0.082855 0.245700
Si Si4 0.114639 0.126481 0.542573
O O1 0.161608 0.624810 0.697150
O O2 0.070299 0.720083 0.859076
O O3 0.041990 0.655837 0.606912
O O4 0.112458 0.947845 0.642901
O O5 0.500000 0.000000 0.878210
O O6 0.547025 0.670480 0.968511
O O7 0.250000 0.123740 0.213638
O O8 0.334960 0.109689 0.414878
O O9 0.365990 0.213285 0.149690
#
# Coordination Sequence:
#
# PCOD8193418 Si02
#       4
#     8   8   8   8
#     4  12  26  45  70 109 142 188 232 301 364 422
#     4  12  23  43  72 107 146 178 238 302 366 420
#     4  12  28  49  72 105 148 197 245 287 351 437
#     4  12  26  48  75 107 144 189 245 301 361 422
#
# _framework density 22.177910000000001
#
# number of rings (size 3 to 8) (size 9 to 14) (size 15 to 20)
#    0.000    0.000    5.000    6.000    0.000    2.000 
#    0.000    0.000    0.000    0.000    0.000    0.000 
#    0.000    0.000    0.000    0.000    0.000    0.000 
#
# Total GULP energy -198401.325481 kJ/mol
# GULP energy per Si atom -12400.082843 kJ/mol
# Density = 2.212743 g / cm^3
# Si number density = 22.177910 Si / 1000 Ang^3
#
#
#
# Elastic Constant Matrix: (Units=GPa)
#
#
# Indices 1 2 3 4 5 6 
#
# 1 99.4700 42.1188 21.9826 0.0000 0.0000 0.0000
# 2 42.1188 130.6413 49.3456 0.0000 0.0000 0.0000
# 3 21.9826 49.3456 64.4671 0.0000 0.0000 0.0000
# 4 0.0000 0.0000 0.0000 34.1337 0.0000 0.0000
# 5 0.0000 0.0000 0.0000 0.0000 35.9132 0.0000
# 6 0.0000 0.0000 0.0000 0.0000 0.0000 30.2201
#
#
#
# Elastic Compliance Matrix: (Units=1/GPa)
#
#
# Indices 1 2 3 4 5 6 
#
# 1 0.011753 -0.003201 -0.001558 0.000000 0.000000 0.000000
# 2 -0.003201 0.011639 -0.007818 0.000000 0.000000 0.000000
# 3 -0.001558 -0.007818 0.022027 0.000000 0.000000 0.000000
# 4 0.000000 0.000000 0.000000 0.029297 0.000000 0.000000
# 5 0.000000 0.000000 0.000000 0.000000 0.027845 0.000000
# 6 0.000000 0.000000 0.000000 0.000000 0.000000 0.033091
#
#
# Mechanical properties :
#
#
# Convention : Reuss Voigt Hill
#
# Bulk Modulus (GPa) = 49.34175 57.94140 53.64158
# Shear Modulus (GPa) = 29.84018 32.12881 30.98450
#
# Velocity S-wave (km/s) = 3.67207 3.81029 3.74182
# Velocity P-wave (km/s) = 6.34628 6.74835 6.55040
#
# Compressibility (1/GPa) = 0.02026681
#
# Stress axis : x y z
#
# Youngs Moduli (GPa) = 85.08597 85.91495 45.39887
#
# Poissons Ratio (x) = 0.27499 0.07071
# Poissons Ratio (y) = 0.27234 0.35492
# Poissons Ratio (z) = 0.13253 0.67167
#
# Static dielectric constant tensor:
#      x y z
#    x 3.708530 0.000000 0.000000 
#    y 0.000000 4.019470 0.000000 
#    z 0.000000 0.000000 4.081030 
# 
# 
# High freq. dielectric constant tensor:
#      x y z
#    x 1.856930 0.000000 0.000000 
#    y 0.000000 1.889050 0.000000 
#    z 0.000000 0.000000 1.891540 
# 
# From -- ./inp_files/7103.got.cif
#   From: 2010.03.12/outbox.cif.g09.slc.cpg/sg46_4_cif.got.tgz:7103.got - 2010.04.14 02:56:35.
