data_PCOD8193096
_publ_section_title
;
Structure prediction by ZEFSAII (Michael W. Deem and Ramdas Pophale) SiO2 
 PCOD8193096
Probable space group: I M A 2
;
_chemical_formula_sum "Si O2"
_cell_formula_units_Z 40
_cell_length_a 7.624832
_cell_length_b 25.791338
_cell_length_c 9.726501
_cell_angle_alpha 90.000000
_cell_angle_beta 90.000000
_cell_angle_gamma 90.000000
_cell_volume 1912.761351
_symmetry_space_group_name_H-M "I M A 2"
_symmetry_group_IT_number 46
_symmetry_cell_setting 'orthorhombic'
loop_
_space_group_symop_operation_xyz
x,y,z
-x,-y,z
1/2-x,y,z
1/2+x,-y,z
1/2+x,1/2+y,1/2+z
1/2-x,1/2-y,1/2+z
-x,1/2+y,1/2+z
x,1/2-y,1/2+z
loop_
_atom_site_type_symbol
_atom_site_label
_atom_site_fract_x
_atom_site_fract_y
_atom_site_fract_z
Si Si1 0.250000 0.792610 0.961320
Si Si2 0.948703 0.866693 0.903851
Si Si3 0.953891 0.611466 0.882752
Si Si4 0.250000 0.689399 0.791026
Si Si5 0.049627 0.560486 0.168113
Si Si6 0.447800 0.056340 0.116930
O O1 0.423357 0.817758 0.891900
O O2 0.250000 0.735140 0.901869
O O3 0.250000 0.792938 0.129696
O O4 0.750000 0.846238 0.929966
O O5 0.939177 0.905626 0.774769
O O6 0.040825 0.898705 0.029315
O O7 0.750000 0.629655 0.888444
O O8 0.979236 0.563407 0.778149
O O9 0.073041 0.658009 0.826828
O O10 0.018362 0.587948 0.023727
O O11 0.250000 0.565164 0.210866
O O12 0.000000 0.500000 0.164796
O O13 0.250000 0.064113 0.072083
O O14 0.500000 0.000000 0.067028
#
# Coordination Sequence:
#
# PCOD8193096 Si02
#       6
#     4   8   8   4   8   8
#     4  12  28  48  76 102 134 182 236 296 361 410
#     4  11  24  45  67  98 141 180 227 288 341 414
#     4  11  24  45  67  98 141 180 227 288 341 414
#     4  12  28  48  76 102 134 182 236 296 361 410
#     4  12  24  40  66 104 147 192 232 277 341 414
#     4  10  22  36  64  97 130 178 221 265 338 407
#
# _framework density 20.912177
#
# number of rings (size 3 to 8) (size 9 to 14) (size 15 to 20)
#    0.000    0.800    4.000    3.000    5.600    4.000 
#    0.000    0.000    0.000    0.000    0.000    0.000 
#    0.000    0.000    0.000    0.000    0.000    0.000 
#
# Total GULP energy -247870.446569 kJ/mol
# GULP energy per Si atom -12393.522328 kJ/mol
# Density = 2.086458 g / cm^3
# Si number density = 20.912177 Si / 1000 Ang^3
#
#
#
# Elastic Constant Matrix: (Units=GPa)
#
#
# Indices 1 2 3 4 5 6 
#
# 1 112.4512 35.9320 6.7920 -0.0002 -0.0002 -0.0018
# 2 35.9320 88.0298 7.1318 0.0000 -0.0001 0.0037
# 3 6.7920 7.1318 87.9796 0.0014 -0.0013 0.0018
# 4 -0.0002 0.0000 0.0014 37.4737 0.0001 -0.0036
# 5 -0.0002 -0.0001 -0.0013 0.0001 26.1444 -0.0005
# 6 -0.0018 0.0037 0.0018 -0.0036 -0.0005 -32.1854
#
#
#
# Elastic Compliance Matrix: (Units=1/GPa)
#
#
# Indices 1 2 3 4 5 6 
#
# 1 0.010245 -0.004145 -0.000455 0.000000 0.000000 -0.000001
# 2 -0.004145 0.013112 -0.000743 0.000000 0.000000 0.000002
# 3 -0.000455 -0.000743 0.011462 0.000000 0.000001 0.000001
# 4 0.000000 0.000000 0.000000 0.026685 0.000000 -0.000003
# 5 0.000000 0.000000 0.000001 0.000000 0.038249 -0.000001
# 6 -0.000001 0.000002 0.000001 -0.000003 -0.000001 -0.031070
#
#
# Mechanical properties :
#
#
# Convention : Reuss Voigt Hill
#
# Bulk Modulus (GPa) = 41.43728 43.13025 42.28376
# Shear Modulus (GPa) = 57.20036 22.19352 39.69694
#
# Velocity S-wave (km/s) = 5.23565 3.26125 4.36164
# Velocity P-wave (km/s) = 7.51048 5.90341 6.75491
#
# Compressibility (1/GPa) = 0.02413286
#
# Stress axis : x y z
#
# Youngs Moduli (GPa) = 97.61215 76.26725 87.24777
#
# Poissons Ratio (x) = 0.31611 0.03969
# Poissons Ratio (y) = 0.40458 0.06482
# Poissons Ratio (z) = 0.04440 0.05666
#
# Static dielectric constant tensor:
#      x y z
#    x 4.070790 0.000000 -0.000030 
#    y 0.000000 3.533550 0.000000 
#    z -0.000030 0.000000 3.912560 
# 
# 
# High freq. dielectric constant tensor:
#      x y z
#    x 1.833830 0.000000 0.000000 
#    y 0.000000 1.806100 0.000000 
#    z 0.000000 0.000000 1.835950 
# 
# From -- ./inp_files/3568.got.cif
#   From: 2010.03.12/outbox.cif.g09.slc.cpg/sg46_2_cif.got.tgz:3568.got - 2010.04.14 02:56:35.
