data_PCOD8193360
_publ_section_title
;
Structure prediction by ZEFSAII (Michael W. Deem and Ramdas Pophale) SiO2 
 PCOD8193360
Probable space group: I M A 2
;
_chemical_formula_sum "Si O2"
_cell_formula_units_Z 56
_cell_length_a 20.930589
_cell_length_b 13.757200
_cell_length_c 9.284042
_cell_angle_alpha 90.000000
_cell_angle_beta 90.000000
_cell_angle_gamma 90.000000
_cell_volume 2673.305534
_symmetry_space_group_name_H-M "I M A 2"
_symmetry_group_IT_number 46
_symmetry_cell_setting 'orthorhombic'
loop_
_space_group_symop_operation_xyz
x,y,z
-x,-y,z
1/2-x,y,z
1/2+x,-y,z
1/2+x,1/2+y,1/2+z
1/2-x,1/2-y,1/2+z
-x,1/2+y,1/2+z
x,1/2-y,1/2+z
loop_
_atom_site_type_symbol
_atom_site_label
_atom_site_fract_x
_atom_site_fract_y
_atom_site_fract_z
Si Si1 0.324124 0.665838 0.135060
Si Si2 0.129384 0.352959 0.999380
Si Si3 0.325958 0.045333 0.765932
Si Si4 0.114548 0.670481 0.825752
Si Si5 0.817414 0.981306 0.281320
Si Si6 0.020736 0.389579 0.773097
Si Si7 0.374219 0.365894 0.543614
O O1 0.250000 0.679093 0.091878
O O2 0.335601 0.564400 0.214284
O O3 0.344684 0.749089 0.244801
O O4 0.367876 0.673133 0.993818
O O5 0.132734 0.380760 0.166990
O O6 0.144236 0.239299 0.981866
O O7 0.183032 0.424250 0.932889
O O8 0.064172 0.376888 0.914881
O O9 0.250000 0.071604 0.777625
O O10 0.363732 0.055769 0.916914
O O11 0.129033 0.563011 0.763715
O O12 0.039042 0.683670 0.796282
O O13 0.750000 0.035795 0.266899
O O14 0.824122 0.896772 0.164771
O O15 0.000000 0.500000 0.765698
O O16 0.056002 0.363693 0.621480
#
# Coordination Sequence:
#
# PCOD8193360 Si02
#       7
#     8   8   8   8   8   8   8
#     4  11  25  44  70 105 137 172 228 289 344 409
#     4  11  23  43  68  96 134 176 221 278 334 399
#     4  11  23  43  68 104 139 169 222 282 340 401
#     4  12  25  45  70  98 134 184 226 281 347 408
#     4  11  22  42  70  95 131 178 221 274 346 404
#     4  11  23  47  67  91 136 179 228 270 335 405
#     4  11  25  41  66 102 136 173 221 277 330 401
#
# _framework density 20.947849000000001
#
# number of rings (size 3 to 8) (size 9 to 14) (size 15 to 20)
#    0.000    0.857    4.286    3.857    4.000    3.429 
#    0.000    0.714    0.000    0.000    0.000    0.000 
#    0.000    0.000    0.000    0.000    0.000    0.000 
#
# Total GULP energy -347027.400565 kJ/mol
# GULP energy per Si atom -12393.835734 kJ/mol
# Density = 2.090017 g / cm^3
# Si number density = 20.947849 Si / 1000 Ang^3
#
#
#
# Elastic Constant Matrix: (Units=GPa)
#
#
# Indices 1 2 3 4 5 6 
#
# 1 127.3654 29.7079 57.0390 0.0000 0.0000 0.0000
# 2 29.7079 113.9108 41.2541 0.0000 0.0000 0.0000
# 3 57.0390 41.2541 112.6740 0.0000 0.0000 0.0000
# 4 0.0000 0.0000 0.0000 38.4606 0.0000 0.0000
# 5 0.0000 0.0000 0.0000 0.0000 27.8214 0.0000
# 6 0.0000 0.0000 0.0000 0.0000 0.0000 25.4886
#
#
#
# Elastic Compliance Matrix: (Units=1/GPa)
#
#
# Indices 1 2 3 4 5 6 
#
# 1 0.010235 -0.000914 -0.004847 0.000000 0.000000 0.000000
# 2 -0.000914 0.010202 -0.003273 0.000000 0.000000 0.000000
# 3 -0.004847 -0.003273 0.012527 0.000000 0.000000 0.000000
# 4 0.000000 0.000000 0.000000 0.026001 0.000000 0.000000
# 5 0.000000 0.000000 0.000000 0.000000 0.035944 0.000000
# 6 0.000000 0.000000 0.000000 0.000000 0.000000 0.039233
#
#
# Mechanical properties :
#
#
# Convention : Reuss Voigt Hill
#
# Bulk Modulus (GPa) = 67.12497 67.77247 67.44872
# Shear Modulus (GPa) = 31.81173 33.41742 32.61458
#
# Velocity S-wave (km/s) = 3.90117 3.99841 3.95009
# Velocity P-wave (km/s) = 7.23917 7.33073 7.28509
#
# Compressibility (1/GPa) = 0.01489759
#
# Stress axis : x y z
#
# Youngs Moduli (GPa) = 97.70255 98.01563 79.82772
#
# Poissons Ratio (x) = 0.08959 0.38690
# Poissons Ratio (y) = 0.08930 0.26126
# Poissons Ratio (z) = 0.47353 0.32078
#
# Static dielectric constant tensor:
#      x y z
#    x 3.949230 0.000000 0.000000 
#    y 0.000000 3.784910 0.000000 
#    z 0.000000 0.000000 3.907740 
# 
# 
# High freq. dielectric constant tensor:
#      x y z
#    x 1.819360 0.000000 0.000000 
#    y 0.000000 1.827140 0.000000 
#    z 0.000000 0.000000 1.828750 
# 
# From -- ./inp_files/7431.got.cif
#   From: 2010.03.12/outbox.cif.g09.slc.cpg/sg46_4_cif.got.tgz:7431.got - 2010.04.14 02:56:35.
