data_PCOD8193889
_publ_section_title
;
Structure prediction by ZEFSAII (Michael W. Deem and Ramdas Pophale) SiO2 
 PCOD8193889
Probable space group: P M M M
;
_chemical_formula_sum "Si O2"
_cell_formula_units_Z 52
_cell_length_a 9.063246
_cell_length_b 18.984134
_cell_length_c 18.897762
_cell_angle_alpha 90.000000
_cell_angle_beta 90.000000
_cell_angle_gamma 90.000000
_cell_volume 3251.508801
_symmetry_space_group_name_H-M "P M M M"
_symmetry_group_IT_number 47
_symmetry_cell_setting 'orthorhombic'
loop_
_space_group_symop_operation_xyz
x,y,z
-x,-y,z
x,-y,-z
-x,y,-z
-x,-y,-z
x,y,-z
-x,y,z
x,-y,z
loop_
_atom_site_type_symbol
_atom_site_label
_atom_site_fract_x
_atom_site_fract_y
_atom_site_fract_z
Si Si1 0.675246 0.421262 0.078752
Si Si2 0.827225 0.215858 0.287958
Si Si3 0.334752 0.083539 0.500000
Si Si4 0.169814 0.420160 0.326126
Si Si5 0.170456 0.702069 0.423097
Si Si6 0.172029 0.079036 0.640262
Si Si7 0.674715 0.331254 0.791200
O O1 0.500000 0.422879 0.080290
O O2 0.733206 0.500000 0.098922
O O3 0.732261 0.362206 0.133760
O O4 0.731393 0.400941 0.000000
O O5 0.764148 0.248557 0.361336
O O6 0.795778 0.131690 0.293495
O O7 0.743778 0.253318 0.222533
O O8 0.000000 0.232220 0.278743
O O9 0.500000 0.114162 0.500000
O O10 0.252312 0.109348 0.570622
O O11 0.334613 0.000000 0.500000
O O12 0.218610 0.500000 0.338763
O O13 0.191592 0.379329 0.400195
O O14 0.274344 0.386474 0.267452
O O15 0.000000 0.413995 0.300617
O O16 0.247972 0.714196 0.500000
O O17 0.000000 0.721096 0.431089
O O18 0.000000 0.079049 0.621829
O O19 0.225560 0.000000 0.660836
O O20 0.500000 0.323733 0.789569
#
# Coordination Sequence:
#
# PCOD8193889 Si02
#       7
#     8   8   4   8   8   8   8
#     4   8  14  25  42  65  90 114 141 172 204 241
#     4   9  18  30  44  60  82 111 141 175 215 256
#     4   9  17  27  39  59  87 113 134 167 222 273
#     4   9  17  28  41  57  78 106 139 175 214 250
#     4   8  14  24  38  55  73  97 133 171 205 243
#     4   9  17  29  45  63  82 108 146 185 216 255
#     4  10  18  28  44  64  86 110 139 171 207 253
#
# _framework density 15.992576
#
# number of rings (size 3 to 8) (size 9 to 14) (size 15 to 20)
#    0.000    3.154    0.000    2.538    1.077    2.769 
#    0.000    1.538    0.000    6.000    0.000    9.692 
#    0.000    0.615    0.000    7.692    0.000    0.000 
#
# Total GULP energy -644276.354221 kJ/mol
# GULP energy per Si atom -12389.929889 kJ/mol
# Density = 1.595618 g / cm^3
# Si number density = 15.992576 Si / 1000 Ang^3
#
#
#
# Elastic Constant Matrix: (Units=GPa)
#
#
# Indices 1 2 3 4 5 6 
#
# 1 37.9992 23.7748 23.0233 0.0000 0.0000 0.0000
# 2 23.7748 99.3714 44.3390 0.0000 0.0000 0.0000
# 3 23.0233 44.3390 92.6597 0.0000 0.0000 0.0000
# 4 0.0000 0.0000 0.0000 24.4648 0.0000 0.0000
# 5 0.0000 0.0000 0.0000 0.0000 12.3040 0.0000
# 6 0.0000 0.0000 0.0000 0.0000 0.0000 17.4285
#
#
#
# Elastic Compliance Matrix: (Units=1/GPa)
#
#
# Indices 1 2 3 4 5 6 
#
# 1 0.033117 -0.005406 -0.005642 0.000000 0.000000 0.000000
# 2 -0.005406 0.013678 -0.005202 0.000000 0.000000 0.000000
# 3 -0.005642 -0.005202 0.014683 0.000000 0.000000 0.000000
# 4 0.000000 0.000000 0.000000 0.040875 0.000000 0.000000
# 5 0.000000 0.000000 0.000000 0.000000 0.081274 0.000000
# 6 0.000000 0.000000 0.000000 0.000000 0.000000 0.057377
#
#
# Mechanical properties :
#
#
# Convention : Reuss Voigt Hill
#
# Bulk Modulus (GPa) = 34.50804 45.81161 40.15982
# Shear Modulus (GPa) = 17.65769 20.09902 18.87836
#
# Velocity S-wave (km/s) = 3.32643 3.54894 3.43949
# Velocity P-wave (km/s) = 6.03141 6.74545 6.39840
#
# Compressibility (1/GPa) = 0.02897876
#
# Stress axis : x y z
#
# Youngs Moduli (GPa) = 30.19602 73.11207 68.10557
#
# Poissons Ratio (x) = 0.39524 0.38424
# Poissons Ratio (y) = 0.16324 0.35427
# Poissons Ratio (z) = 0.17036 0.38031
#
# Static dielectric constant tensor:
#      x y z
#    x 2.801100 0.000000 0.000000 
#    y 0.000000 3.220950 0.000000 
#    z 0.000000 0.000000 3.088400 
# 
# 
# High freq. dielectric constant tensor:
#      x y z
#    x 1.587310 0.000000 0.000000 
#    y 0.000000 1.612870 0.000000 
#    z 0.000000 0.000000 1.582130 
# 
# From -- ./inp_files/26941.got.cif
#   From: 2010.03.12/outbox.cif.g09.slc.cpg/sg47_14_cif.got.tgz:26941.got - 2010.04.14 03:12:58.
