data_PCOD8193608
_publ_section_title
;
Structure prediction by ZEFSAII (Michael W. Deem and Ramdas Pophale) SiO2 
 PCOD8193608
Probable space group: P M M M
;
_chemical_formula_sum "Si O2"
_cell_formula_units_Z 52
_cell_length_a 9.107809
_cell_length_b 14.134916
_cell_length_c 23.316532
_cell_angle_alpha 90.000000
_cell_angle_beta 90.000000
_cell_angle_gamma 90.000000
_cell_volume 3001.726382
_symmetry_space_group_name_H-M "P M M M"
_symmetry_group_IT_number 47
_symmetry_cell_setting 'orthorhombic'
loop_
_space_group_symop_operation_xyz
x,y,z
-x,-y,z
x,-y,-z
-x,y,-z
-x,-y,-z
x,y,-z
-x,y,z
x,-y,z
loop_
_atom_site_type_symbol
_atom_site_label
_atom_site_fract_x
_atom_site_fract_y
_atom_site_fract_z
Si Si1 0.825614 0.105835 0.936428
Si Si2 0.673832 0.891195 0.500000
Si Si3 0.173950 0.894510 0.277474
Si Si4 0.170464 0.204176 0.394368
Si Si5 0.168121 0.394129 0.660842
Si Si6 0.825342 0.225761 0.830391
Si Si7 0.670112 0.391766 0.778146
O O1 0.765309 0.178261 0.888865
O O2 0.000000 0.103462 0.933229
O O3 0.766119 0.000000 0.923631
O O4 0.774335 0.138620 0.000000
O O5 0.500000 0.885641 0.500000
O O6 0.732712 0.837563 0.444643
O O7 0.728134 0.000000 0.500000
O O8 0.224399 0.843688 0.335575
O O9 0.232385 0.837105 0.222744
O O10 0.000000 0.899127 0.274641
O O11 0.241016 0.000000 0.276031
O O12 0.198355 0.317449 0.389150
O O13 0.000000 0.182145 0.407061
O O14 0.199036 0.500000 0.636719
O O15 0.268764 0.371023 0.714925
O O16 0.000000 0.383992 0.682012
O O17 0.753731 0.329071 0.825328
O O18 0.000000 0.235879 0.830434
O O19 0.500000 0.365478 0.777904
O O20 0.697782 0.500000 0.795628
#
# Coordination Sequence:
#
# PCOD8193608 Si02
#       7
#     8   4   8   8   8   8   8
#     4   8  14  25  44  73 106 136 166 203 248 296
#     4  11  25  41  54  71  98 134 173 209 246 289
#     4   9  16  26  44  73 102 124 154 199 245 288
#     4  10  19  34  55  77  99 129 166 203 245 295
#     4   9  17  32  55  81 105 127 158 202 248 295
#     4  10  17  28  48  74 101 130 166 206 247 290
#     4  10  20  32  47  70 101 134 165 201 250 304
#
# _framework density 17.323363000000001
#
# number of rings (size 3 to 8) (size 9 to 14) (size 15 to 20)
#    0.000    2.538    1.538    2.077    0.000    4.615 
#    0.000    0.385    0.000    5.077    0.000    4.308 
#    0.000    0.000    0.000    0.000    0.000    0.000 
#
# Total GULP energy -644687.177298 kJ/mol
# GULP energy per Si atom -12397.830333 kJ/mol
# Density = 1.728393 g / cm^3
# Si number density = 17.323363 Si / 1000 Ang^3
#
#
#
# Elastic Constant Matrix: (Units=GPa)
#
#
# Indices 1 2 3 4 5 6 
#
# 1 44.4378 42.3132 37.9544 0.0000 0.0000 0.0000
# 2 42.3132 136.1872 73.9697 0.0000 0.0000 0.0000
# 3 37.9544 73.9697 130.5259 0.0000 0.0000 0.0000
# 4 0.0000 0.0000 0.0000 30.1234 0.0000 0.0000
# 5 0.0000 0.0000 0.0000 0.0000 6.4896 0.0000
# 6 0.0000 0.0000 0.0000 0.0000 0.0000 18.1252
#
#
#
# Elastic Compliance Matrix: (Units=1/GPa)
#
#
# Indices 1 2 3 4 5 6 
#
# 1 0.034710 -0.007660 -0.005752 0.000000 0.000000 0.000000
# 2 -0.007660 0.012299 -0.004742 0.000000 0.000000 0.000000
# 3 -0.005752 -0.004742 0.012021 0.000000 0.000000 0.000000
# 4 0.000000 0.000000 0.000000 0.033197 0.000000 0.000000
# 5 0.000000 0.000000 0.000000 0.000000 0.154092 0.000000
# 6 0.000000 0.000000 0.000000 0.000000 0.000000 0.055172
#
#
# Mechanical properties :
#
#
# Convention : Reuss Voigt Hill
#
# Bulk Modulus (GPa) = 44.01177 68.84727 56.42952
# Shear Modulus (GPa) = 14.47708 21.40855 17.94282
#
# Velocity S-wave (km/s) = 2.89398 3.51924 3.22181
# Velocity P-wave (km/s) = 6.05211 7.50614 6.81799
#
# Compressibility (1/GPa) = 0.02272120
#
# Stress axis : x y z
#
# Youngs Moduli (GPa) = 28.81012 81.31011 83.18562
#
# Poissons Ratio (x) = 0.62285 0.47848
# Poissons Ratio (y) = 0.22069 0.39449
# Poissons Ratio (z) = 0.16571 0.38559
#
# Static dielectric constant tensor:
#      x y z
#    x 2.904770 0.000000 0.000000 
#    y 0.000000 3.546680 0.000000 
#    z 0.000000 0.000000 3.230780 
# 
# 
# High freq. dielectric constant tensor:
#      x y z
#    x 1.633520 0.000000 0.000000 
#    y 0.000000 1.681520 0.000000 
#    z 0.000000 0.000000 1.652910 
# 
# From -- ./inp_files/10958.got.cif
#   From: 2010.03.12/outbox.cif.g09.slc.cpg/sg47_6_cif.got.tgz:10958.got - 2010.04.14 03:12:58.
