data_PCOD8193652
_publ_section_title
;
Structure prediction by ZEFSAII (Michael W. Deem and Ramdas Pophale) SiO2 
 PCOD8193652
Probable space group: P M M M
;
_chemical_formula_sum "Si O2"
_cell_formula_units_Z 44
_cell_length_a 19.365809
_cell_length_b 13.388003
_cell_length_c 9.466663
_cell_angle_alpha 90.000000
_cell_angle_beta 90.000000
_cell_angle_gamma 90.000000
_cell_volume 2454.417068
_symmetry_space_group_name_H-M "P M M M"
_symmetry_group_IT_number 47
_symmetry_cell_setting 'orthorhombic'
loop_
_space_group_symop_operation_xyz
x,y,z
-x,-y,z
x,-y,-z
-x,y,-z
-x,-y,-z
x,y,-z
-x,y,z
x,-y,z
loop_
_atom_site_type_symbol
_atom_site_label
_atom_site_fract_x
_atom_site_fract_y
_atom_site_fract_z
Si Si1 0.678878 0.613135 0.333736
Si Si2 0.837087 0.386018 0.654801
Si Si3 0.922135 0.243961 0.166525
Si Si4 0.578221 0.000000 0.167536
Si Si5 0.199771 0.891255 0.833257
Si Si6 0.657882 0.198763 0.832774
O O1 0.668361 0.631068 0.500000
O O2 0.653670 0.500000 0.294595
O O3 0.758847 0.624349 0.289781
O O4 0.636068 0.698261 0.247180
O O5 0.843782 0.334748 0.500000
O O6 0.857427 0.500000 0.640308
O O7 0.892485 0.342917 0.763179
O O8 0.873249 0.153326 0.216751
O O9 0.000000 0.221679 0.217073
O O10 0.918867 0.259903 0.000000
O O11 0.614319 0.102395 0.221087
O O12 0.500000 0.000000 0.223467
O O13 0.582454 0.000000 0.000000
O O14 0.262960 0.821222 0.787490
O O15 0.207853 0.000000 0.762520
O O16 0.201647 0.902875 0.000000
O O17 0.648091 0.214947 0.000000
#
# Coordination Sequence:
#
# PCOD8193652 Si02
#       6
#     8   8   8   4   8   8
#     4   9  18  32  50  74 103 132 166 212 259 297
#     4   9  18  32  48  65  88 122 161 200 247 300
#     4  10  20  31  44  65  92 122 158 204 252 290
#     4   9  18  32  53  85 118 140 161 198 249 296
#     4   9  16  28  46  68  93 121 158 199 239 290
#     4  10  17  29  53  79 102 133 169 203 242 292
#
# _framework density 17.926863999999998
#
# number of rings (size 3 to 8) (size 9 to 14) (size 15 to 20)
#    0.000    2.636    2.727    1.091    0.000    1.818 
#    0.000    5.909    0.000    3.273    0.000    5.091 
#    0.000    0.000    0.000    0.000    0.000    0.000 
#
# Total GULP energy -545238.338315 kJ/mol
# GULP energy per Si atom -12391.780416 kJ/mol
# Density = 1.788606 g / cm^3
# Si number density = 17.926864 Si / 1000 Ang^3
#
#
#
# Elastic Constant Matrix: (Units=GPa)
#
#
# Indices 1 2 3 4 5 6 
#
# 1 70.7742 46.4721 19.0006 0.0000 0.0000 0.0000
# 2 46.4721 148.7512 45.0623 0.0000 0.0000 0.0000
# 3 19.0006 45.0623 32.5094 0.0000 0.0000 0.0000
# 4 0.0000 0.0000 0.0000 11.6984 0.0000 0.0000
# 5 0.0000 0.0000 0.0000 0.0000 10.2148 0.0000
# 6 0.0000 0.0000 0.0000 0.0000 0.0000 20.0604
#
#
#
# Elastic Compliance Matrix: (Units=1/GPa)
#
#
# Indices 1 2 3 4 5 6 
#
# 1 0.018191 -0.004245 -0.004748 0.000000 0.000000 0.000000
# 2 -0.004245 0.012579 -0.014956 0.000000 0.000000 0.000000
# 3 -0.004748 -0.014956 0.054266 0.000000 0.000000 0.000000
# 4 0.000000 0.000000 0.000000 0.085481 0.000000 0.000000
# 5 0.000000 0.000000 0.000000 0.000000 0.097897 0.000000
# 6 0.000000 0.000000 0.000000 0.000000 0.000000 0.049849
#
#
# Mechanical properties :
#
#
# Convention : Reuss Voigt Hill
#
# Bulk Modulus (GPa) = 26.92576 52.56722 39.74649
# Shear Modulus (GPa) = 13.20854 17.82806 15.51830
#
# Velocity S-wave (km/s) = 2.71735 3.15697 2.94538
# Velocity P-wave (km/s) = 4.98976 6.53264 5.81262
#
# Compressibility (1/GPa) = 0.03713916
#
# Stress axis : x y z
#
# Youngs Moduli (GPa) = 54.97074 79.49459 18.42761
#
# Poissons Ratio (x) = 0.33744 0.08750
# Poissons Ratio (y) = 0.23334 0.27560
# Poissons Ratio (z) = 0.26103 1.18891
#
# Static dielectric constant tensor:
#      x y z
#    x 3.208710 0.000000 0.000000 
#    y 0.000000 3.508660 0.000000 
#    z 0.000000 0.000000 3.032710 
# 
# 
# High freq. dielectric constant tensor:
#      x y z
#    x 1.668270 0.000000 0.000000 
#    y 0.000000 1.704680 0.000000 
#    z 0.000000 0.000000 1.658800 
# 
# From -- ./inp_files/18423.got.cif
#   From: 2010.03.12/outbox.cif.g09.slc.cpg/sg47_10_cif.got.tgz:18423.got - 2010.04.14 03:12:58.
