data_PCOD8193540
_publ_section_title
;
Structure prediction by ZEFSAII (Michael W. Deem and Ramdas Pophale) SiO2 
 PCOD8193540
Probable space group: P M M M
;
_chemical_formula_sum "Si O2"
_cell_formula_units_Z 40
_cell_length_a 19.853001
_cell_length_b 9.779493
_cell_length_c 11.989738
_cell_angle_alpha 90.000000
_cell_angle_beta 90.000000
_cell_angle_gamma 90.000000
_cell_volume 2327.835021
_symmetry_space_group_name_H-M "P M M M"
_symmetry_group_IT_number 47
_symmetry_cell_setting 'orthorhombic'
loop_
_space_group_symop_operation_xyz
x,y,z
-x,-y,z
x,-y,-z
-x,y,-z
-x,-y,-z
x,y,-z
-x,y,z
x,-y,z
loop_
_atom_site_type_symbol
_atom_site_label
_atom_site_fract_x
_atom_site_fract_y
_atom_site_fract_z
Si Si1 0.573454 0.838281 0.375558
Si Si2 0.927395 0.343972 0.258474
Si Si3 0.925220 0.244627 0.500000
Si Si4 0.200960 0.659390 0.130754
Si Si5 0.288101 0.162837 0.721231
Si Si6 0.781941 0.849308 0.500000
O O1 0.586349 0.779173 0.500000
O O2 0.500000 0.786902 0.331161
O O3 0.633684 0.794071 0.293647
O O4 0.573123 0.000000 0.383765
O O5 0.930685 0.500000 0.221524
O O6 0.915960 0.337844 0.391198
O O7 0.866244 0.277703 0.189331
O O8 0.000000 0.274267 0.228286
O O9 0.863343 0.138462 0.500000
O O10 0.000000 0.173647 0.500000
O O11 0.212813 0.500000 0.162093
O O12 0.262949 0.751767 0.172390
O O13 0.193032 0.679125 0.000000
O O14 0.246437 0.218547 0.613184
O O15 0.278408 0.000000 0.741034
O O16 0.750345 0.000000 0.500000
#
# Coordination Sequence:
#
# PCOD8193540 Si02
#       6
#     8   8   4   8   8   4
#     4   8  13  23  44  75 105 128 151 184 231 286
#     4   9  17  29  46  68  92 119 154 199 247 289
#     4  10  17  27  44  66  94 125 155 189 235 293
#     4  10  21  35  50  69  93 125 168 210 242 277
#     4  10  18  31  51  74 101 128 156 193 239 288
#     4  10  18  28  44  70  98 126 158 191 231 289
#
# _framework density 17.183347999999999
#
# number of rings (size 3 to 8) (size 9 to 14) (size 15 to 20)
#    0.000    2.600    3.000    0.900    0.000    2.200 
#    0.000    2.500    0.000    1.800    0.000    7.000 
#    0.000    0.000    0.000    0.000    0.000    0.000 
#
# Total GULP energy -495526.720033 kJ/mol
# GULP energy per Si atom -12388.168001 kJ/mol
# Density = 1.714424 g / cm^3
# Si number density = 17.183348 Si / 1000 Ang^3
#
#
#
# Elastic Constant Matrix: (Units=GPa)
#
#
# Indices 1 2 3 4 5 6 
#
# 1 159.3090 31.1694 60.9328 0.0000 0.0000 0.0000
# 2 31.1694 33.4311 25.3731 0.0000 0.0000 0.0000
# 3 60.9328 25.3731 90.6260 0.0000 0.0000 0.0000
# 4 0.0000 0.0000 0.0000 21.1893 0.0000 0.0000
# 5 0.0000 0.0000 0.0000 0.0000 16.2298 0.0000
# 6 0.0000 0.0000 0.0000 0.0000 0.0000 17.1034
#
#
#
# Elastic Compliance Matrix: (Units=1/GPa)
#
#
# Indices 1 2 3 4 5 6 
#
# 1 0.009027 -0.004838 -0.004715 0.000000 0.000000 0.000000
# 2 -0.004838 0.040576 -0.008108 0.000000 0.000000 0.000000
# 3 -0.004715 -0.008108 0.016474 0.000000 0.000000 0.000000
# 4 0.000000 0.000000 0.000000 0.047194 0.000000 0.000000
# 5 0.000000 0.000000 0.000000 0.000000 0.061615 0.000000
# 6 0.000000 0.000000 0.000000 0.000000 0.000000 0.058468
#
#
# Mechanical properties :
#
#
# Convention : Reuss Voigt Hill
#
# Bulk Modulus (GPa) = 32.51297 57.59074 45.05185
# Shear Modulus (GPa) = 17.92582 21.96389 19.94485
#
# Velocity S-wave (km/s) = 3.23338 3.57908 3.41061
# Velocity P-wave (km/s) = 5.73602 7.11814 6.46413
#
# Compressibility (1/GPa) = 0.03075696
#
# Stress axis : x y z
#
# Youngs Moduli (GPa) = 110.77865 24.64493 60.70040
#
# Poissons Ratio (x) = 0.11923 0.28619
# Poissons Ratio (y) = 0.53594 0.49213
# Poissons Ratio (z) = 0.52231 0.19981
#
# Static dielectric constant tensor:
#      x y z
#    x 3.723280 0.000000 0.000000 
#    y 0.000000 2.713430 0.000000 
#    z 0.000000 0.000000 3.020740 
# 
# 
# High freq. dielectric constant tensor:
#      x y z
#    x 1.680130 0.000000 0.000000 
#    y 0.000000 1.608490 0.000000 
#    z 0.000000 0.000000 1.642560 
# 
# From -- ./inp_files/10642.got.cif
#   From: 2010.03.12/outbox.cif.g09.slc.cpg/sg47_6_cif.got.tgz:10642.got - 2010.04.14 03:12:58.
