data_PCOD8193234
_publ_section_title
;
Structure prediction by ZEFSAII (Michael W. Deem and Ramdas Pophale) SiO2 
 PCOD8193234
Probable space group: I M A 2
;
_chemical_formula_sum "Si O2"
_cell_formula_units_Z 56
_cell_length_a 13.813145
_cell_length_b 8.974860
_cell_length_c 20.329677
_cell_angle_alpha 90.000000
_cell_angle_beta 90.000000
_cell_angle_gamma 90.000000
_cell_volume 2520.291252
_symmetry_space_group_name_H-M "I M A 2"
_symmetry_group_IT_number 46
_symmetry_cell_setting 'orthorhombic'
loop_
_space_group_symop_operation_xyz
x,y,z
-x,-y,z
1/2-x,y,z
1/2+x,-y,z
1/2+x,1/2+y,1/2+z
1/2-x,1/2-y,1/2+z
-x,1/2+y,1/2+z
x,1/2-y,1/2+z
loop_
_atom_site_type_symbol
_atom_site_label
_atom_site_fract_x
_atom_site_fract_y
_atom_site_fract_z
Si Si1 0.861453 0.163936 0.229600
Si Si2 0.522011 0.672687 0.166085
Si Si3 0.361314 0.329781 0.771927
Si Si4 0.053427 0.275220 0.527415
Si Si5 0.364980 0.419234 0.915461
Si Si6 0.361319 0.767032 0.369744
Si Si7 0.360584 0.914467 0.991560
O O1 0.750000 0.197178 0.213943
O O2 0.922951 0.231099 0.169783
O O3 0.902236 0.247707 0.295738
O O4 0.881637 0.988702 0.237582
O O5 0.500000 0.500000 0.160740
O O6 0.584711 0.702472 0.231174
O O7 0.580395 0.723741 0.100936
O O8 0.250000 0.288374 0.768818
O O9 0.394077 0.331454 0.848387
O O10 0.076605 0.145123 0.476684
O O11 0.119618 0.413705 0.505583
O O12 0.938787 0.313142 0.528961
O O13 0.250000 0.408945 0.928547
O O14 0.403041 0.589494 0.908627
O O15 0.250000 0.809658 0.357236
O O16 0.374747 0.617756 0.413028
O O17 0.250000 0.873618 0.012513
#
# Coordination Sequence:
#
# PCOD8193234 Si02
#       7
#     8   8   8   8   8   8   8
#     4   9  20  42  71  96 126 169 218 272 329 392
#     4  12  28  43  58  94 137 173 223 270 322 393
#     4   9  21  43  72  97 123 168 220 269 329 394
#     4  11  26  41  62  93 128 176 214 257 331 381
#     4   9  19  40  68  99 129 163 211 264 320 385
#     4   8  17  37  68 101 123 158 213 267 325 380
#     4  10  23  42  63  92 127 162 213 268 319 386
#
# _framework density 22.219653000000001
#
# number of rings (size 3 to 8) (size 9 to 14) (size 15 to 20)
#    0.000    2.286    0.000    2.571    8.000    3.429 
#    0.000    2.857    0.000    0.000    0.000    0.000 
#    0.000    0.000    0.000    0.000    0.000    0.000 
#
# Total GULP energy -347108.750634 kJ/mol
# GULP energy per Si atom -12396.741094 kJ/mol
# Density = 2.216908 g / cm^3
# Si number density = 22.219653 Si / 1000 Ang^3
#
#
#
# Elastic Constant Matrix: (Units=GPa)
#
#
# Indices 1 2 3 4 5 6 
#
# 1 68.9792 16.3258 34.9527 0.0000 0.0000 0.0000
# 2 16.3258 88.4360 57.0298 0.0000 0.0000 0.0000
# 3 34.9527 57.0298 135.0393 0.0000 0.0000 0.0000
# 4 0.0000 0.0000 0.0000 33.7695 0.0000 0.0000
# 5 0.0000 0.0000 0.0000 0.0000 28.2357 0.0000
# 6 0.0000 0.0000 0.0000 0.0000 0.0000 30.0819
#
#
#
# Elastic Compliance Matrix: (Units=1/GPa)
#
#
# Indices 1 2 3 4 5 6 
#
# 1 0.016696 -0.000406 -0.004150 0.000000 0.000000 0.000000
# 2 -0.000406 0.015550 -0.006462 0.000000 0.000000 0.000000
# 3 -0.004150 -0.006462 0.011208 0.000000 0.000000 0.000000
# 4 0.000000 0.000000 0.000000 0.029612 0.000000 0.000000
# 5 0.000000 0.000000 0.000000 0.000000 0.035416 0.000000
# 6 0.000000 0.000000 0.000000 0.000000 0.000000 0.033243
#
#
# Mechanical properties :
#
#
# Convention : Reuss Voigt Hill
#
# Bulk Modulus (GPa) = 46.68881 56.56346 51.62613
# Shear Modulus (GPa) = 29.25679 30.69384 29.97531
#
# Velocity S-wave (km/s) = 3.63258 3.72073 3.67692
# Velocity P-wave (km/s) = 6.21709 6.63100 6.42738
#
# Compressibility (1/GPa) = 0.02141841
#
# Stress axis : x y z
#
# Youngs Moduli (GPa) = 59.89416 64.31034 89.21883
#
# Poissons Ratio (x) = 0.02611 0.37027
# Poissons Ratio (y) = 0.02431 0.57652
# Poissons Ratio (z) = 0.24857 0.41556
#
# Static dielectric constant tensor:
#      x y z
#    x 4.035500 0.000000 0.000000 
#    y 0.000000 3.734470 0.000000 
#    z 0.000000 0.000000 3.940660 
# 
# 
# High freq. dielectric constant tensor:
#      x y z
#    x 1.884830 0.000000 0.000000 
#    y 0.000000 1.852330 0.000000 
#    z 0.000000 0.000000 1.870430 
# 
# From -- ./inp_files/22001.got.cif
#   From: 2010.03.12/outbox.cif.g09.slc.cpg/sg46_12_cif.got.tgz:22001.got - 2010.04.14 02:56:35.
