data_PCOD8193983
_publ_section_title
;
Structure prediction by ZEFSAII (Michael W. Deem and Ramdas Pophale) SiO2 
 PCOD8193983
Probable space group: P M M M
;
_chemical_formula_sum "Si O2"
_cell_formula_units_Z 48
_cell_length_a 17.223567
_cell_length_b 9.067414
_cell_length_c 15.640939
_cell_angle_alpha 90.000000
_cell_angle_beta 90.000000
_cell_angle_gamma 90.000000
_cell_volume 2442.695691
_symmetry_space_group_name_H-M "P M M M"
_symmetry_group_IT_number 47
_symmetry_cell_setting 'orthorhombic'
loop_
_space_group_symop_operation_xyz
x,y,z
-x,-y,z
x,-y,-z
-x,y,-z
-x,-y,-z
x,y,-z
-x,y,z
x,-y,z
loop_
_atom_site_type_symbol
_atom_site_label
_atom_site_fract_x
_atom_site_fract_y
_atom_site_fract_z
Si Si1 0.686199 0.673561 0.094407
Si Si2 0.694867 0.331009 0.595337
Si Si3 0.000000 0.168768 0.829302
Si Si4 0.167326 0.834369 0.152525
Si Si5 0.845939 0.171089 0.646470
Si Si6 0.413048 0.675598 0.252006
Si Si7 0.000000 0.325853 0.654540
O O1 0.687856 0.500000 0.103809
O O2 0.774397 0.726246 0.105189
O O3 0.629943 0.739855 0.167483
O O4 0.655842 0.720006 0.000000
O O5 0.658864 0.318735 0.500000
O O6 0.716022 0.500000 0.617765
O O7 0.772276 0.235076 0.597382
O O8 0.632128 0.270135 0.663377
O O9 0.920761 0.189725 0.883926
O O10 0.000000 0.288393 0.754628
O O11 0.000000 0.000000 0.790316
O O12 0.166290 0.801573 0.253125
O O13 0.195723 0.000000 0.133936
O O14 0.922662 0.255466 0.612783
O O15 0.854805 0.000000 0.624110
O O16 0.500000 0.741083 0.254311
O O17 0.416317 0.500000 0.248775
O O18 0.000000 0.500000 0.639341
#
# Coordination Sequence:
#
# PCOD8193983 Si02
#       7
#     8   8   4   8   8   8   4
#     4  10  20  33  52  79 109 141 180 223 267 320
#     4  10  20  34  55  83 111 140 178 223 271 326
#     4   8  16  30  47  74 107 142 188 229 267 320
#     4   9  17  31  52  75 103 141 182 224 267 317
#     4  10  19  33  53  77 109 148 188 226 270 322
#     4   9  18  34  56  81 110 141 173 218 275 329
#     4  10  18  28  49  80 111 145 186 231 275 315
#
# _framework density 19.650421000000001
#
# number of rings (size 3 to 8) (size 9 to 14) (size 15 to 20)
#    0.000    2.500    1.667    2.250    0.000    4.000 
#    0.000    4.167    0.000    7.000    0.000    2.333 
#    0.000    0.000    0.000    0.000    0.000    0.000 
#
# Total GULP energy -595001.209777 kJ/mol
# GULP energy per Si atom -12395.858537 kJ/mol
# Density = 1.960570 g / cm^3
# Si number density = 19.650421 Si / 1000 Ang^3
#
#
#
# Elastic Constant Matrix: (Units=GPa)
#
#
# Indices 1 2 3 4 5 6 
#
# 1 162.4864 36.7129 67.7236 0.0000 0.0000 0.0000
# 2 36.7129 56.3093 30.2543 0.0000 0.0000 0.0000
# 3 67.7236 30.2543 111.8275 0.0000 0.0000 0.0000
# 4 0.0000 0.0000 0.0000 14.2458 0.0000 0.0000
# 5 0.0000 0.0000 0.0000 0.0000 8.5010 0.0000
# 6 0.0000 0.0000 0.0000 0.0000 0.0000 13.6048
#
#
#
# Elastic Compliance Matrix: (Units=1/GPa)
#
#
# Indices 1 2 3 4 5 6 
#
# 1 0.008738 -0.003339 -0.004388 0.000000 0.000000 0.000000
# 2 -0.003339 0.022056 -0.003945 0.000000 0.000000 0.000000
# 3 -0.004388 -0.003945 0.012667 0.000000 0.000000 0.000000
# 4 0.000000 0.000000 0.000000 0.070196 0.000000 0.000000
# 5 0.000000 0.000000 0.000000 0.000000 0.117634 0.000000
# 6 0.000000 0.000000 0.000000 0.000000 0.000000 0.073503
#
#
# Mechanical properties :
#
#
# Convention : Reuss Voigt Hill
#
# Bulk Modulus (GPa) = 49.71141 66.66721 58.18931
# Shear Modulus (GPa) = 14.93232 20.33246 17.63239
#
# Velocity S-wave (km/s) = 2.75962 3.22018 2.99875
# Velocity P-wave (km/s) = 5.95876 6.91566 6.45496
#
# Compressibility (1/GPa) = 0.02011611
#
# Stress axis : x y z
#
# Youngs Moduli (GPa) = 114.44445 45.33986 78.94412
#
# Poissons Ratio (x) = 0.15140 0.34643
# Poissons Ratio (y) = 0.38215 0.31142
# Poissons Ratio (z) = 0.50222 0.17886
#
# Static dielectric constant tensor:
#      x y z
#    x 3.856050 0.000000 0.000000 
#    y 0.000000 3.284500 0.000000 
#    z 0.000000 0.000000 3.506190 
# 
# 
# High freq. dielectric constant tensor:
#      x y z
#    x 1.768620 0.000000 0.000000 
#    y 0.000000 1.737700 0.000000 
#    z 0.000000 0.000000 1.749900 
# 
# From -- ./inp_files/24473.got.cif
#   From: 2010.03.12/outbox.cif.g09.slc.cpg/sg47_13_cif.got.tgz:24473.got - 2010.04.14 03:12:58.
