data_PCOD8193468
_publ_section_title
;
Structure prediction by ZEFSAII (Michael W. Deem and Ramdas Pophale) SiO2 
 PCOD8193468
Probable space group: P M M M
;
_chemical_formula_sum "Si O2"
_cell_formula_units_Z 64
_cell_length_a 9.375766
_cell_length_b 31.691539
_cell_length_c 14.214643
_cell_angle_alpha 90.000000
_cell_angle_beta 90.000000
_cell_angle_gamma 90.000000
_cell_volume 4223.631755
_symmetry_space_group_name_H-M "P M M M"
_symmetry_group_IT_number 47
_symmetry_cell_setting 'orthorhombic'
loop_
_space_group_symop_operation_xyz
x,y,z
-x,-y,z
x,-y,-z
-x,y,-z
-x,-y,-z
x,y,-z
-x,y,z
x,-y,z
loop_
_atom_site_type_symbol
_atom_site_label
_atom_site_fract_x
_atom_site_fract_y
_atom_site_fract_z
Si Si1 0.829393 0.135024 0.894136
Si Si2 0.830512 0.624929 0.224139
Si Si3 0.840225 0.044662 0.111749
Si Si4 0.335010 0.245724 0.606918
Si Si5 0.830660 0.453248 0.105166
Si Si6 0.830569 0.785487 0.776759
Si Si7 0.335293 0.657056 0.606970
Si Si8 0.169274 0.705158 0.894433
O O1 0.769034 0.089293 0.856152
O O2 0.775032 0.171684 0.825446
O O3 0.000000 0.133396 0.895280
O O4 0.774288 0.144517 0.000000
O O5 0.772553 0.581901 0.176828
O O6 0.761125 0.627936 0.326789
O O7 0.777066 0.663673 0.159817
O O8 0.000000 0.625160 0.235677
O O9 0.000000 0.042839 0.152418
O O10 0.762896 0.000000 0.142815
O O11 0.846431 0.046727 0.000000
O O12 0.306048 0.231377 0.500000
O O13 0.500000 0.239603 0.632869
O O14 0.239161 0.216801 0.674039
O O15 0.290110 0.294348 0.619857
O O16 0.781494 0.500000 0.138420
O O17 0.000000 0.450729 0.102278
O O18 0.772083 0.444140 0.000000
O O19 0.775995 0.746505 0.840001
O O20 0.000000 0.784859 0.765505
O O21 0.307582 0.642704 0.500000
O O22 0.500000 0.650998 0.633795
O O23 0.000000 0.705445 0.899614
O O24 0.233035 0.705091 0.000000
#
# Coordination Sequence:
#
# PCOD8193468 Si02
#       8
#     8   8   8   8   8   8   8   8
#     4   8  13  20  31  50  78 111 140 162 191 234
#     4  10  17  26  44  68  86 104 136 173 200 226
#     4   7   9  14  25  42  67 101 138 169 192 219
#     4   9  18  32  46  57  74 104 137 167 203 245
#     4   8  14  25  42  65  91 115 137 163 197 235
#     4  10  17  25  39  60  83 107 133 163 198 234
#     4   9  18  32  47  61  80 107 135 165 206 250
#     4   9  16  24  35  56  85 111 132 156 188 228
#
# _framework density 15.152837
#
# number of rings (size 3 to 8) (size 9 to 14) (size 15 to 20)
#    0.000    3.250    1.250    3.000    0.000    3.500 
#    0.000    1.250    0.000    4.500    0.000    3.500 
#    0.000    1.000    0.000    9.375    0.000    3.750 
#
# Total GULP energy -792954.146507 kJ/mol
# GULP energy per Si atom -12389.908539 kJ/mol
# Density = 1.511835 g / cm^3
# Si number density = 15.152837 Si / 1000 Ang^3
#
#
#
# Elastic Constant Matrix: (Units=GPa)
#
#
# Indices 1 2 3 4 5 6 
#
# 1 18.6585 23.2135 26.4043 0.0000 0.0000 0.0000
# 2 23.2135 139.9417 63.1938 0.0000 0.0000 0.0000
# 3 26.4043 63.1938 95.8989 0.0000 0.0000 0.0000
# 4 0.0000 0.0000 0.0000 13.5078 0.0000 0.0000
# 5 0.0000 0.0000 0.0000 0.0000 3.9939 0.0000
# 6 0.0000 0.0000 0.0000 0.0000 0.0000 7.0662
#
#
#
# Elastic Compliance Matrix: (Units=1/GPa)
#
#
# Indices 1 2 3 4 5 6 
#
# 1 0.090541 -0.005355 -0.021400 0.000000 0.000000 0.000000
# 2 -0.005355 0.010490 -0.005438 0.000000 0.000000 0.000000
# 3 -0.021400 -0.005438 0.019903 0.000000 0.000000 0.000000
# 4 0.000000 0.000000 0.000000 0.074032 0.000000 0.000000
# 5 0.000000 0.000000 0.000000 0.000000 0.250383 0.000000
# 6 0.000000 0.000000 0.000000 0.000000 0.000000 0.141518
#
#
# Mechanical properties :
#
#
# Convention : Reuss Voigt Hill
#
# Bulk Modulus (GPa) = 17.68419 53.34690 35.51555
# Shear Modulus (GPa) = 7.46154 14.35942 10.91048
#
# Velocity S-wave (km/s) = 2.22146 3.08171 2.68625
# Velocity P-wave (km/s) = 4.27501 6.92423 5.75416
#
# Compressibility (1/GPa) = 0.05654770
#
# Stress axis : x y z
#
# Youngs Moduli (GPa) = 11.04466 95.33118 50.24310
#
# Poissons Ratio (x) = 0.51052 1.07522
# Poissons Ratio (y) = 0.05915 0.27322
# Poissons Ratio (z) = 0.23636 0.51840
#
# Static dielectric constant tensor:
#      x y z
#    x 2.414940 0.000000 0.000000 
#    y 0.000000 3.269890 0.000000 
#    z 0.000000 0.000000 2.819910 
# 
# 
# High freq. dielectric constant tensor:
#      x y z
#    x 1.528410 0.000000 0.000000 
#    y 0.000000 1.581900 0.000000 
#    z 0.000000 0.000000 1.562590 
# 
# From -- ./inp_files/22174.got.cif
#   From: 2010.03.12/outbox.cif.g09.slc.cpg/sg47_12_cif.got.tgz:22174.got - 2010.04.14 03:12:58.
