data_PCOD8193408
_publ_section_title
;
Structure prediction by ZEFSAII (Michael W. Deem and Ramdas Pophale) SiO2 
 PCOD8193408
Probable space group: I M A 2
;
_chemical_formula_sum "Si O2"
_cell_formula_units_Z 36
_cell_length_a 19.219932
_cell_length_b 10.785680
_cell_length_c 9.177682
_cell_angle_alpha 90.000000
_cell_angle_beta 90.000000
_cell_angle_gamma 90.000000
_cell_volume 1902.533811
_symmetry_space_group_name_H-M "I M A 2"
_symmetry_group_IT_number 46
_symmetry_cell_setting 'orthorhombic'
loop_
_space_group_symop_operation_xyz
x,y,z
-x,-y,z
1/2-x,y,z
1/2+x,-y,z
1/2+x,1/2+y,1/2+z
1/2-x,1/2-y,1/2+z
-x,1/2+y,1/2+z
x,1/2-y,1/2+z
loop_
_atom_site_type_symbol
_atom_site_label
_atom_site_fract_x
_atom_site_fract_y
_atom_site_fract_z
Si Si1 0.500000 0.500000 0.304430
Si Si2 0.901204 0.313606 0.459010
Si Si3 0.169372 0.870605 0.243378
Si Si4 0.465775 0.206250 0.587014
Si Si5 0.431438 0.084065 0.300157
O O1 0.556895 0.433936 0.405535
O O2 0.540735 0.598443 0.205707
O O3 0.866839 0.244358 0.323743
O O4 0.841376 0.355129 0.570602
O O5 0.953588 0.222037 0.543449
O O6 0.250000 0.873437 0.282420
O O7 0.136701 0.999915 0.294874
O O8 0.423179 0.171121 0.442064
O O9 0.435557 0.332695 0.654797
O O10 0.500000 0.000000 0.312609
#
# Coordination Sequence:
#
# PCOD8193408 Si02
#       5
#     4   8   8   8   8
#     4  12  20  34  68  96 122 154 204 266 312 360
#     4  12  21  40  65  95 125 161 205 260 313 368
#     4  12  26  43  62  91 132 170 206 253 318 381
#     4  12  21  36  65 100 121 151 213 262 313 357
#     4  12  22  39  65  93 126 163 207 263 310 369
#
# _framework density 18.922135000000001
#
# number of rings (size 3 to 8) (size 9 to 14) (size 15 to 20)
#    0.000    0.000   10.000    2.000    0.000    0.000 
#    0.000    1.111    0.000    0.000    0.000    0.000 
#    0.000    0.000    0.000    0.000    0.000    0.000 
#
# Total GULP energy -223279.978253 kJ/mol
# GULP energy per Si atom -12404.443236 kJ/mol
# Density = 1.887907 g / cm^3
# Si number density = 18.922135 Si / 1000 Ang^3
#
#
#
# Elastic Constant Matrix: (Units=GPa)
#
#
# Indices 1 2 3 4 5 6 
#
# 1 106.6733 54.5475 41.9839 0.0000 0.0000 0.0000
# 2 54.5475 110.7066 56.3968 0.0000 0.0000 0.0000
# 3 41.9839 56.3968 120.1905 0.0000 0.0000 0.0000
# 4 0.0000 0.0000 0.0000 49.9762 0.0000 0.0000
# 5 0.0000 0.0000 0.0000 0.0000 17.3740 0.0000
# 6 0.0000 0.0000 0.0000 0.0000 0.0000 22.7553
#
#
#
# Elastic Compliance Matrix: (Units=1/GPa)
#
#
# Indices 1 2 3 4 5 6 
#
# 1 0.012888 -0.005331 -0.002000 0.000000 0.000000 0.000000
# 2 -0.005331 0.014076 -0.004742 0.000000 0.000000 0.000000
# 3 -0.002000 -0.004742 0.011244 0.000000 0.000000 0.000000
# 4 0.000000 0.000000 0.000000 0.020010 0.000000 0.000000
# 5 0.000000 0.000000 0.000000 0.000000 0.057557 0.000000
# 6 0.000000 0.000000 0.000000 0.000000 0.000000 0.043946
#
#
# Mechanical properties :
#
#
# Convention : Reuss Voigt Hill
#
# Bulk Modulus (GPa) = 71.12503 71.49188 71.30845
# Shear Modulus (GPa) = 26.51757 30.33058 28.42408
#
# Velocity S-wave (km/s) = 3.74760 4.00799 3.87998
# Velocity P-wave (km/s) = 7.50972 7.69953 7.60522
#
# Compressibility (1/GPa) = 0.01405975
#
# Stress axis : x y z
#
# Youngs Moduli (GPa) = 77.59318 71.04532 88.93500
#
# Poissons Ratio (x) = 0.37874 0.17790
# Poissons Ratio (y) = 0.41365 0.42177
# Poissons Ratio (z) = 0.15521 0.33693
#
# Static dielectric constant tensor:
#      x y z
#    x 3.108940 0.000000 0.000000 
#    y 0.000000 3.748440 0.000000 
#    z 0.000000 0.000000 3.783750 
# 
# 
# High freq. dielectric constant tensor:
#      x y z
#    x 1.687560 0.000000 0.000000 
#    y 0.000000 1.749790 0.000000 
#    z 0.000000 0.000000 1.761900 
# 
# From -- ./inp_files/7211.got.cif
#   From: 2010.03.12/outbox.cif.g09.slc.cpg/sg46_4_cif.got.tgz:7211.got - 2010.04.14 02:56:35.
