data_PCOD8193152
_publ_section_title
;
Structure prediction by ZEFSAII (Michael W. Deem and Ramdas Pophale) SiO2 
 PCOD8193152
Probable space group: I M A 2
;
_chemical_formula_sum "Si O2"
_cell_formula_units_Z 64
_cell_length_a 16.152199
_cell_length_b 10.752047
_cell_length_c 18.001659
_cell_angle_alpha 90.000000
_cell_angle_beta 90.000000
_cell_angle_gamma 90.000000
_cell_volume 3126.333768
_symmetry_space_group_name_H-M "I M A 2"
_symmetry_group_IT_number 46
_symmetry_cell_setting 'orthorhombic'
loop_
_space_group_symop_operation_xyz
x,y,z
-x,-y,z
1/2-x,y,z
1/2+x,-y,z
1/2+x,1/2+y,1/2+z
1/2-x,1/2-y,1/2+z
-x,1/2+y,1/2+z
x,1/2-y,1/2+z
loop_
_atom_site_type_symbol
_atom_site_label
_atom_site_fract_x
_atom_site_fract_y
_atom_site_fract_z
Si Si1 0.153281 0.186165 0.108870
Si Si2 0.157015 0.474393 0.463385
Si Si3 0.023429 0.635201 0.253290
Si Si4 0.068214 0.730121 0.454993
Si Si5 0.003402 0.360134 0.085819
Si Si6 0.845107 0.565905 0.762590
Si Si7 0.846391 0.306747 0.820040
Si Si8 0.594752 0.734054 0.362378
O O1 0.250000 0.227788 0.114236
O O2 0.097256 0.307002 0.089792
O O3 0.119859 0.125140 0.185901
O O4 0.139860 0.088668 0.042651
O O5 0.250000 0.529512 0.461559
O O6 0.090883 0.584329 0.453248
O O7 0.151180 0.375641 0.395616
O O8 0.107950 0.683470 0.290323
O O9 0.000000 0.500000 0.283726
O O10 0.037347 0.639085 0.166326
O O11 0.944611 0.712390 0.280911
O O12 0.135206 0.810685 0.408685
O O13 0.060699 0.776254 0.539137
O O14 0.977706 0.756984 0.421220
O O15 0.000000 0.500000 0.053160
O O16 0.750000 0.542876 0.746693
O O17 0.884084 0.429500 0.779647
O O18 0.852458 0.644672 0.839740
O O19 0.750000 0.291189 0.805211
#
# Coordination Sequence:
#
# PCOD8193152 Si02
#       8
#     8   8   8   8   8   8   8   8
#     4  10  22  43  67  94 130 170 214 263 319 382
#     4  11  23  40  65  96 128 168 214 267 325 382
#     4  10  22  40  62  89 124 164 212 256 312 382
#     4  11  24  38  61  93 128 165 212 262 319 380
#     4  11  24  43  62  93 128 168 218 260 318 385
#     4  10  22  40  65  95 125 166 215 265 320 386
#     4  10  23  43  65  94 130 166 210 268 327 380
#     4  11  20  37  62  91 122 164 208 261 317 370
#
# _framework density 20.471263
#
# number of rings (size 3 to 8) (size 9 to 14) (size 15 to 20)
#    0.000    1.500    2.500    2.625    3.500    1.500 
#    0.000    5.000    0.000    0.000    0.000    0.000 
#    0.000    0.000    0.000    0.000    0.000    0.000 
#
# Total GULP energy -396575.000556 kJ/mol
# GULP energy per Si atom -12392.968767 kJ/mol
# Density = 2.042467 g / cm^3
# Si number density = 20.471263 Si / 1000 Ang^3
#
#
#
# Elastic Constant Matrix: (Units=GPa)
#
#
# Indices 1 2 3 4 5 6 
#
# 1 75.9006 47.3188 33.9846 0.0000 0.0000 0.0000
# 2 47.3188 124.6211 54.4012 0.0000 0.0000 0.0000
# 3 33.9846 54.4012 104.6339 0.0000 0.0000 0.0000
# 4 0.0000 0.0000 0.0000 33.8743 0.0000 0.0000
# 5 0.0000 0.0000 0.0000 0.0000 26.5858 0.0000
# 6 0.0000 0.0000 0.0000 0.0000 0.0000 31.8507
#
#
#
# Elastic Compliance Matrix: (Units=1/GPa)
#
#
# Indices 1 2 3 4 5 6 
#
# 1 0.017941 -0.005522 -0.002956 0.000000 0.000000 0.000000
# 2 -0.005522 0.012080 -0.004487 0.000000 0.000000 0.000000
# 3 -0.002956 -0.004487 0.012850 0.000000 0.000000 0.000000
# 4 0.000000 0.000000 0.000000 0.029521 0.000000 0.000000
# 5 0.000000 0.000000 0.000000 0.000000 0.037614 0.000000
# 6 0.000000 0.000000 0.000000 0.000000 0.000000 0.031396
#
#
# Mechanical properties :
#
#
# Convention : Reuss Voigt Hill
#
# Bulk Modulus (GPa) = 59.02881 64.06277 61.54579
# Shear Modulus (GPa) = 28.90507 29.75887 29.33197
#
# Velocity S-wave (km/s) = 3.76171 3.81687 3.78939
# Velocity P-wave (km/s) = 6.91121 7.12647 7.01967
#
# Compressibility (1/GPa) = 0.01694088
#
# Stress axis : x y z
#
# Youngs Moduli (GPa) = 55.73735 82.78360 77.81959
#
# Poissons Ratio (x) = 0.45711 0.23006
# Poissons Ratio (y) = 0.30777 0.34918
# Poissons Ratio (z) = 0.16478 0.37145
#
# Static dielectric constant tensor:
#      x y z
#    x 3.588630 0.000000 0.000000 
#    y 0.000000 3.864470 0.000000 
#    z 0.000000 0.000000 3.966840 
# 
# 
# High freq. dielectric constant tensor:
#      x y z
#    x 1.789740 0.000000 0.000000 
#    y 0.000000 1.796330 0.000000 
#    z 0.000000 0.000000 1.812550 
# 
# From -- ./inp_files/19661.got.cif
#   From: 2010.03.12/outbox.cif.g09.slc.cpg/sg46_10_cif.got.tgz:19661.got - 2010.04.14 02:56:35.
