data_PCOD8193810
_publ_section_title
;
Structure prediction by ZEFSAII (Michael W. Deem and Ramdas Pophale) SiO2 
 PCOD8193810
Probable space group: P M M M
;
_chemical_formula_sum "Si O2"
_cell_formula_units_Z 52
_cell_length_a 26.300793
_cell_length_b 9.082176
_cell_length_c 13.752216
_cell_angle_alpha 90.000000
_cell_angle_beta 90.000000
_cell_angle_gamma 90.000000
_cell_volume 3284.970258
_symmetry_space_group_name_H-M "P M M M"
_symmetry_group_IT_number 47
_symmetry_cell_setting 'orthorhombic'
loop_
_space_group_symop_operation_xyz
x,y,z
-x,-y,z
x,-y,-z
-x,y,-z
-x,-y,-z
x,y,-z
-x,y,z
x,-y,z
loop_
_atom_site_type_symbol
_atom_site_label
_atom_site_fract_x
_atom_site_fract_y
_atom_site_fract_z
Si Si1 0.000000 0.334148 0.615461
Si Si2 0.654952 0.825360 0.784823
Si Si3 0.192320 0.668509 0.292498
Si Si4 0.298124 0.671101 0.610215
Si Si5 0.899339 0.827171 0.612091
Si Si6 0.555900 0.825192 0.891140
Si Si7 0.255512 0.669576 0.889751
O O1 0.949901 0.250803 0.653087
O O2 0.000000 0.500000 0.656629
O O3 0.000000 0.332661 0.500000
O O4 0.663670 0.763070 0.677124
O O5 0.599833 0.766767 0.819661
O O6 0.696882 0.769275 0.860814
O O7 0.657881 0.000000 0.781638
O O8 0.174529 0.500000 0.306496
O O9 0.240121 0.704068 0.361147
O O10 0.147281 0.776397 0.321772
O O11 0.207576 0.701349 0.180551
O O12 0.306880 0.722067 0.500000
O O13 0.310273 0.500000 0.625082
O O14 0.888897 0.783010 0.500000
O O15 0.907043 0.000000 0.623152
O O16 0.500000 0.772516 0.854413
O O17 0.557653 0.000000 0.894134
O O18 0.565703 0.764250 0.000000
O O19 0.272351 0.500000 0.876803
O O20 0.238944 0.705199 0.000000
#
# Coordination Sequence:
#
# PCOD8193810 Si02
#       7
#     4   8   8   8   8   8   8
#     4   9  17  29  45  63  84 115 152 183 211 250
#     4  10  18  27  44  69  91 111 141 182 224 264
#     4   9  17  29  45  64  84 111 148 181 210 251
#     4   9  18  32  47  62  85 119 153 181 213 258
#     4  10  19  29  42  63  92 120 144 176 218 258
#     4   8  14  25  41  62  88 115 141 172 215 266
#     4   9  18  32  47  63  88 121 151 179 215 261
#
# _framework density 15.829672
#
# number of rings (size 3 to 8) (size 9 to 14) (size 15 to 20)
#    0.000    2.846    0.000    3.462    0.000    6.154 
#    0.000    0.000    0.000    2.308    0.000    9.154 
#    0.000    4.308    0.000    0.000    0.000    0.000 
#
# Total GULP energy -644698.493751 kJ/mol
# GULP energy per Si atom -12398.047957 kJ/mol
# Density = 1.579364 g / cm^3
# Si number density = 15.829672 Si / 1000 Ang^3
#
#
#
# Elastic Constant Matrix: (Units=GPa)
#
#
# Indices 1 2 3 4 5 6 
#
# 1 121.0370 50.8379 62.2852 0.0000 0.0000 0.0000
# 2 50.8379 63.2557 39.2418 0.0000 0.0000 0.0000
# 3 62.2852 39.2418 112.7886 0.0000 0.0000 0.0000
# 4 0.0000 0.0000 0.0000 21.9876 0.0000 0.0000
# 5 0.0000 0.0000 0.0000 0.0000 22.3693 0.0000
# 6 0.0000 0.0000 0.0000 0.0000 0.0000 13.6549
#
#
#
# Elastic Compliance Matrix: (Units=1/GPa)
#
#
# Indices 1 2 3 4 5 6 
#
# 1 0.014391 -0.008462 -0.005003 0.000000 0.000000 0.000000
# 2 -0.008462 0.025136 -0.004072 0.000000 0.000000 0.000000
# 3 -0.005003 -0.004072 0.013046 0.000000 0.000000 0.000000
# 4 0.000000 0.000000 0.000000 0.045480 0.000000 0.000000
# 5 0.000000 0.000000 0.000000 0.000000 0.044704 0.000000
# 6 0.000000 0.000000 0.000000 0.000000 0.000000 0.073234
#
#
# Mechanical properties :
#
#
# Convention : Reuss Voigt Hill
#
# Bulk Modulus (GPa) = 57.14966 66.86790 62.00878
# Shear Modulus (GPa) = 19.46304 21.25013 20.35658
#
# Velocity S-wave (km/s) = 3.51027 3.66789 3.58994
# Velocity P-wave (km/s) = 7.25331 7.76348 7.51273
#
# Compressibility (1/GPa) = 0.01749792
#
# Stress axis : x y z
#
# Youngs Moduli (GPa) = 69.49017 39.78350 76.65338
#
# Poissons Ratio (x) = 0.33665 0.38348
# Poissons Ratio (y) = 0.58802 0.31217
# Poissons Ratio (z) = 0.34764 0.16202
#
# Static dielectric constant tensor:
#      x y z
#    x 3.050660 0.000000 0.000000 
#    y 0.000000 2.908390 0.000000 
#    z 0.000000 0.000000 3.036280 
# 
# 
# High freq. dielectric constant tensor:
#      x y z
#    x 1.600080 0.000000 0.000000 
#    y 0.000000 1.601670 0.000000 
#    z 0.000000 0.000000 1.590420 
# 
# From -- ./inp_files/21805.got.cif
#   From: 2010.03.12/outbox.cif.g09.slc.cpg/sg47_11_cif.got.tgz:21805.got - 2010.04.14 03:12:58.
