data_PCOD8193113
_publ_section_title
;
Structure prediction by ZEFSAII (Michael W. Deem and Ramdas Pophale) SiO2 
 PCOD8193113
Probable space group: I M A 2
;
_chemical_formula_sum "Si O2"
_cell_formula_units_Z 48
_cell_length_a 8.583079
_cell_length_b 20.366806
_cell_length_c 14.271940
_cell_angle_alpha 90.000000
_cell_angle_beta 90.000000
_cell_angle_gamma 90.000000
_cell_volume 2494.876474
_symmetry_space_group_name_H-M "I M A 2"
_symmetry_group_IT_number 46
_symmetry_cell_setting 'orthorhombic'
loop_
_space_group_symop_operation_xyz
x,y,z
-x,-y,z
1/2-x,y,z
1/2+x,-y,z
1/2+x,1/2+y,1/2+z
1/2-x,1/2-y,1/2+z
-x,1/2+y,1/2+z
x,1/2-y,1/2+z
loop_
_atom_site_type_symbol
_atom_site_label
_atom_site_fract_x
_atom_site_fract_y
_atom_site_fract_z
Si Si1 0.931604 0.729939 0.408420
Si Si2 0.932992 0.879957 0.417095
Si Si3 0.567462 0.305346 0.219044
Si Si4 0.430507 0.317229 0.613840
Si Si5 0.567311 0.431485 0.105656
Si Si6 0.432517 0.568461 0.726093
O O1 0.750000 0.728062 0.382334
O O2 0.990549 0.804788 0.416340
O O3 0.966954 0.693329 0.505048
O O4 0.030004 0.692585 0.329246
O O5 0.750000 0.884208 0.433778
O O6 0.015564 0.918941 0.499761
O O7 0.977511 0.913803 0.320537
O O8 0.750000 0.293621 0.201932
O O9 0.470456 0.247332 0.172228
O O10 0.509079 0.373308 0.173539
O O11 0.250000 0.333668 0.631613
O O12 0.535807 0.377482 0.646966
O O13 0.500000 0.500000 0.143399
O O14 0.750000 0.436819 0.108532
O O15 0.500000 0.500000 0.688016
O O16 0.250000 0.563655 0.746355
#
# Coordination Sequence:
#
# PCOD8193113 Si02
#       6
#     8   8   8   8   8   8
#     4  10  22  38  62  91 121 157 199 245 296 355
#     4  11  21  37  61  91 124 160 197 245 301 358
#     4  11  23  38  61  90 121 157 200 250 299 352
#     4  11  22  40  63  89 120 158 201 245 297 357
#     4  11  24  40  59  88 123 162 203 248 302 357
#     4  12  25  41  61  89 123 162 200 248 301 357
#
# _framework density 19.239429000000001
#
# number of rings (size 3 to 8) (size 9 to 14) (size 15 to 20)
#    0.000    1.000    3.333    4.000    0.000    4.000 
#    0.000    0.833    0.000    2.000    0.000    0.000 
#    0.000    0.000    0.000    0.000    0.000    0.000 
#
# Total GULP energy -297774.031895 kJ/mol
# GULP energy per Si atom -12407.251329 kJ/mol
# Density = 1.919564 g / cm^3
# Si number density = 19.239429 Si / 1000 Ang^3
#
#
#
# Elastic Constant Matrix: (Units=GPa)
#
#
# Indices 1 2 3 4 5 6 
#
# 1 35.2649 26.5980 13.3498 0.0000 0.0000 0.0000
# 2 26.5980 142.9767 45.1040 -0.0001 0.0000 0.0000
# 3 13.3498 45.1040 93.7381 0.0000 -0.0001 0.0000
# 4 0.0000 -0.0001 0.0000 24.0360 0.0000 0.0000
# 5 0.0000 0.0000 -0.0001 0.0000 23.2982 0.0000
# 6 0.0000 0.0000 0.0000 0.0000 0.0000 33.3062
#
#
#
# Elastic Compliance Matrix: (Units=1/GPa)
#
#
# Indices 1 2 3 4 5 6 
#
# 1 0.033325 -0.005544 -0.002079 0.000000 0.000000 0.000000
# 2 -0.005544 0.009168 -0.003622 0.000000 0.000000 0.000000
# 3 -0.002079 -0.003622 0.012707 0.000000 0.000000 0.000000
# 4 0.000000 0.000000 0.000000 0.041604 0.000000 0.000000
# 5 0.000000 0.000000 0.000000 0.000000 0.042922 0.000000
# 6 0.000000 0.000000 0.000000 0.000000 0.000000 0.030024
#
#
# Mechanical properties :
#
#
# Convention : Reuss Voigt Hill
#
# Bulk Modulus (GPa) = 30.57035 49.12036 39.84536
# Shear Modulus (GPa) = 24.61331 28.58995 26.60163
#
# Velocity S-wave (km/s) = 3.58063 3.85906 3.72245
# Velocity P-wave (km/s) = 5.74617 6.74114 6.26344
#
# Compressibility (1/GPa) = 0.03271144
#
# Stress axis : x y z
#
# Youngs Moduli (GPa) = 30.00761 109.07489 78.69822
#
# Poissons Ratio (x) = 0.60468 0.16358
# Poissons Ratio (y) = 0.16635 0.28503
# Poissons Ratio (z) = 0.06237 0.39505
#
# Static dielectric constant tensor:
#      x y z
#    x 3.556080 0.000000 0.000000 
#    y 0.000000 3.799290 0.000000 
#    z 0.000000 0.000000 3.571850 
# 
# 
# High freq. dielectric constant tensor:
#      x y z
#    x 1.758180 0.000000 0.000000 
#    y 0.000000 1.751880 0.000000 
#    z 0.000000 0.000000 1.747380 
# 
# From -- ./inp_files/13891.got.cif
#   From: 2010.03.12/outbox.cif.g09.slc.cpg/sg46_7_cif.got.tgz:13891.got - 2010.04.14 02:56:35.
