data_PCOD8193176
_publ_section_title
;
Structure prediction by ZEFSAII (Michael W. Deem and Ramdas Pophale) SiO2 
 PCOD8193176
Probable space group: I M A 2
;
_chemical_formula_sum "Si O2"
_cell_formula_units_Z 64
_cell_length_a 17.307849
_cell_length_b 18.627843
_cell_length_c 9.309153
_cell_angle_alpha 90.000000
_cell_angle_beta 90.000000
_cell_angle_gamma 90.000000
_cell_volume 3001.344412
_symmetry_space_group_name_H-M "I M A 2"
_symmetry_group_IT_number 46
_symmetry_cell_setting 'orthorhombic'
loop_
_space_group_symop_operation_xyz
x,y,z
-x,-y,z
1/2-x,y,z
1/2+x,-y,z
1/2+x,1/2+y,1/2+z
1/2-x,1/2-y,1/2+z
-x,1/2+y,1/2+z
x,1/2-y,1/2+z
loop_
_atom_site_type_symbol
_atom_site_label
_atom_site_fract_x
_atom_site_fract_y
_atom_site_fract_z
Si Si1 0.100869 0.688785 0.073090
Si Si2 0.337350 0.808369 0.881874
Si Si3 0.661137 0.449310 0.545701
Si Si4 0.161609 0.405998 0.397658
Si Si5 0.074873 0.331561 0.154227
Si Si6 0.408441 0.928072 0.352605
Si Si7 0.586958 0.589870 0.875583
Si Si8 0.836368 0.687941 0.659927
O O1 0.155261 0.699909 0.210433
O O2 0.017031 0.672840 0.140236
O O3 0.103031 0.759324 0.972365
O O4 0.131156 0.624247 0.969969
O O5 0.250000 0.786009 0.923767
O O6 0.353840 0.890633 0.922670
O O7 0.750000 0.459706 0.583863
O O8 0.629030 0.524732 0.484246
O O9 0.622120 0.421502 0.691332
O O10 0.250000 0.420259 0.342784
O O11 0.101032 0.390333 0.271058
O O12 0.161413 0.334377 0.494066
O O13 0.107214 0.253553 0.193340
O O14 0.111258 0.359009 0.006140
O O15 0.496945 0.904252 0.340303
O O16 0.393323 0.007719 0.411813
O O17 0.637336 0.616481 0.742797
O O18 0.750000 0.710241 0.706572
#
# Coordination Sequence:
#
# PCOD8193176 Si02
#       8
#     8   8   8   8   8   8   8   8
#     4  11  26  42  70  99 133 170 222 272 341 404
#     4  11  25  45  67  96 131 169 217 275 337 402
#     4  10  22  42  68  94 128 171 220 274 332 395
#     4  10  22  41  63  96 135 177 224 270 324 393
#     4  11  25  39  64  95 137 173 219 272 328 393
#     4  10  22  43  65  95 130 169 219 278 329 395
#     4  10  23  41  64  92 129 173 219 269 328 394
#     4  11  23  41  65  95 131 177 225 266 325 397
#
# _framework density 21.323777
#
# number of rings (size 3 to 8) (size 9 to 14) (size 15 to 20)
#    0.000    1.500    1.250    2.250    8.750    4.000 
#    0.000    0.000    0.000    0.000    0.000    0.000 
#    0.000    0.000    0.000    0.000    0.000    0.000 
#
# Total GULP energy -396825.249602 kJ/mol
# GULP energy per Si atom -12400.789050 kJ/mol
# Density = 2.127524 g / cm^3
# Si number density = 21.323777 Si / 1000 Ang^3
#
#
#
# Elastic Constant Matrix: (Units=GPa)
#
#
# Indices 1 2 3 4 5 6 
#
# 1 61.6217 36.0092 42.5958 0.0000 0.0000 0.0000
# 2 36.0092 115.9094 53.3502 0.0000 0.0000 0.0000
# 3 42.5958 53.3502 126.7385 0.0000 0.0000 0.0000
# 4 0.0000 0.0000 0.0000 47.0933 0.0000 0.0000
# 5 0.0000 0.0000 0.0000 0.0000 31.8886 0.0000
# 6 0.0000 0.0000 0.0000 0.0000 0.0000 31.0606
#
#
#
# Elastic Compliance Matrix: (Units=1/GPa)
#
#
# Indices 1 2 3 4 5 6 
#
# 1 0.022827 -0.004416 -0.005813 0.000000 0.000000 0.000000
# 2 -0.004416 0.011555 -0.003380 0.000000 0.000000 0.000000
# 3 -0.005813 -0.003380 0.011267 0.000000 0.000000 0.000000
# 4 0.000000 0.000000 0.000000 0.021234 0.000000 0.000000
# 5 0.000000 0.000000 0.000000 0.000000 0.031359 0.000000
# 6 0.000000 0.000000 0.000000 0.000000 0.000000 0.032195
#
#
# Mechanical properties :
#
#
# Convention : Reuss Voigt Hill
#
# Bulk Modulus (GPa) = 54.25696 63.13113 58.69405
# Shear Modulus (GPa) = 30.52530 33.49611 32.01071
#
# Velocity S-wave (km/s) = 3.78764 3.96767 3.87870
# Velocity P-wave (km/s) = 6.68041 7.11760 6.90247
#
# Compressibility (1/GPa) = 0.01843081
#
# Stress axis : x y z
#
# Youngs Moduli (GPa) = 43.80818 86.54268 88.75690
#
# Poissons Ratio (x) = 0.38217 0.51595
# Poissons Ratio (y) = 0.19345 0.29999
# Poissons Ratio (z) = 0.25466 0.29250
#
# Static dielectric constant tensor:
#      x y z
#    x 3.718440 0.000000 0.000000 
#    y 0.000000 3.914260 0.000000 
#    z 0.000000 0.000000 3.886860 
# 
# 
# High freq. dielectric constant tensor:
#      x y z
#    x 1.823880 0.000000 0.000000 
#    y 0.000000 1.847420 0.000000 
#    z 0.000000 0.000000 1.842110 
# 
# From -- ./inp_files/7565.got.cif
#   From: 2010.03.12/outbox.cif.g09.slc.cpg/sg46_4_cif.got.tgz:7565.got - 2010.04.14 02:56:35.
