data_PCOD8193956
_publ_section_title
;
Structure prediction by ZEFSAII (Michael W. Deem and Ramdas Pophale) SiO2 
 PCOD8193956
Probable space group: P M M M
;
_chemical_formula_sum "Si O2"
_cell_formula_units_Z 56
_cell_length_a 14.862577
_cell_length_b 21.292843
_cell_length_c 9.314736
_cell_angle_alpha 90.000000
_cell_angle_beta 90.000000
_cell_angle_gamma 90.000000
_cell_volume 2947.802074
_symmetry_space_group_name_H-M "P M M M"
_symmetry_group_IT_number 47
_symmetry_cell_setting 'orthorhombic'
loop_
_space_group_symop_operation_xyz
x,y,z
-x,-y,z
x,-y,-z
-x,y,-z
-x,-y,-z
x,y,-z
-x,y,z
x,-y,z
loop_
_atom_site_type_symbol
_atom_site_label
_atom_site_fract_x
_atom_site_fract_y
_atom_site_fract_z
Si Si1 0.154369 0.500000 0.167218
Si Si2 0.662415 0.500000 0.670176
Si Si3 0.597554 0.270703 0.341938
Si Si4 0.101078 0.239573 0.333511
Si Si5 0.354572 0.617280 0.837473
Si Si6 0.731261 0.161652 0.332956
Si Si7 0.601397 0.073794 0.834598
Si Si8 0.857143 0.363390 0.160206
O O1 0.234716 0.500000 0.280062
O O2 0.100436 0.566233 0.192792
O O3 0.190171 0.500000 0.000000
O O4 0.654376 0.500000 0.500000
O O5 0.613631 0.439498 0.736472
O O6 0.621201 0.298783 0.500000
O O7 0.500000 0.237764 0.345899
O O8 0.593608 0.322779 0.220338
O O9 0.669910 0.220416 0.297296
O O10 0.122464 0.250930 0.500000
O O11 0.169711 0.184963 0.277337
O O12 0.109034 0.308442 0.263252
O O13 0.000000 0.214143 0.308096
O O14 0.248937 0.629379 0.824559
O O15 0.384112 0.603810 0.000000
O O16 0.734023 0.143051 0.500000
O O17 0.685955 0.103971 0.249367
O O18 0.500000 0.093456 0.780690
O O19 0.612627 0.000000 0.814353
O O20 0.610778 0.093336 0.000000
O O21 0.884897 0.342811 0.000000
#
# Coordination Sequence:
#
# PCOD8193956 Si02
#       8
#     4   4   8   8   8   8   8   8
#     4   8  16  30  47  72 101 128 168 221 277 340
#     4  10  18  28  47  70  93 127 170 215 269 323
#     4  10  20  33  50  75 105 135 171 216 264 316
#     4  10  21  36  54  77 107 142 183 231 276 321
#     4  10  19  32  49  70  98 131 171 216 265 322
#     4  10  20  35  56  81 112 146 182 222 266 315
#     4   9  19  36  58  87 122 154 183 217 258 308
#     4   9  17  31  51  73  99 132 172 222 276 333
#
# _framework density 18.997205000000001
#
# number of rings (size 3 to 8) (size 9 to 14) (size 15 to 20)
#    0.000    2.429    1.429    2.786    0.000    5.143 
#    0.000    1.429    0.000    4.714    0.000    3.000 
#    0.000    0.000    0.000    0.000    0.000    0.000 
#
# Total GULP energy -693742.592610 kJ/mol
# GULP energy per Si atom -12388.260582 kJ/mol
# Density = 1.895397 g / cm^3
# Si number density = 18.997205 Si / 1000 Ang^3
#
#
#
# Elastic Constant Matrix: (Units=GPa)
#
#
# Indices 1 2 3 4 5 6 
#
# 1 99.9464 46.0558 29.0475 0.0000 0.0000 0.0000
# 2 46.0558 81.1549 46.0723 0.0000 0.0000 0.0000
# 3 29.0475 46.0723 89.6655 0.0000 0.0000 0.0000
# 4 0.0000 0.0000 0.0000 35.4112 0.0000 0.0000
# 5 0.0000 0.0000 0.0000 0.0000 16.0869 0.0000
# 6 0.0000 0.0000 0.0000 0.0000 0.0000 19.7491
#
#
#
# Elastic Compliance Matrix: (Units=1/GPa)
#
#
# Indices 1 2 3 4 5 6 
#
# 1 0.013573 -0.007351 -0.000620 0.000000 0.000000 0.000000
# 2 -0.007351 0.021378 -0.008603 0.000000 0.000000 0.000000
# 3 -0.000620 -0.008603 0.015774 0.000000 0.000000 0.000000
# 4 0.000000 0.000000 0.000000 0.028240 0.000000 0.000000
# 5 0.000000 0.000000 0.000000 0.000000 0.062162 0.000000
# 6 0.000000 0.000000 0.000000 0.000000 0.000000 0.050635
#
#
# Mechanical properties :
#
#
# Convention : Reuss Voigt Hill
#
# Bulk Modulus (GPa) = 56.89302 57.01311 56.95307
# Shear Modulus (GPa) = 21.66676 24.22218 22.94447
#
# Velocity S-wave (km/s) = 3.38083 3.57464 3.47909
# Velocity P-wave (km/s) = 6.72704 6.86396 6.79584
#
# Compressibility (1/GPa) = 0.01757685
#
# Stress axis : x y z
#
# Youngs Moduli (GPa) = 73.67694 46.77780 63.39589
#
# Poissons Ratio (x) = 0.34385 0.03931
# Poissons Ratio (y) = 0.54157 0.54540
# Poissons Ratio (z) = 0.04568 0.40243
#
# Static dielectric constant tensor:
#      x y z
#    x 3.752240 0.000000 0.000000 
#    y 0.000000 3.478410 0.000000 
#    z 0.000000 0.000000 3.466980 
# 
# 
# High freq. dielectric constant tensor:
#      x y z
#    x 1.727860 0.000000 0.000000 
#    y 0.000000 1.721210 0.000000 
#    z 0.000000 0.000000 1.732720 
# 
# From -- ./inp_files/7419.got.cif
#   From: 2010.03.12/outbox.cif.g09.slc.cpg/sg47_4_cif.got.tgz:7419.got - 2010.04.14 03:12:58.
