data_PCOD8193660
_publ_section_title
;
Structure prediction by ZEFSAII (Michael W. Deem and Ramdas Pophale) SiO2 
 PCOD8193660
Probable space group: P M M M
;
_chemical_formula_sum "Si O2"
_cell_formula_units_Z 48
_cell_length_a 12.384540
_cell_length_b 19.615128
_cell_length_c 11.787947
_cell_angle_alpha 90.000000
_cell_angle_beta 90.000000
_cell_angle_gamma 90.000000
_cell_volume 2863.579213
_symmetry_space_group_name_H-M "P M M M"
_symmetry_group_IT_number 47
_symmetry_cell_setting 'orthorhombic'
loop_
_space_group_symop_operation_xyz
x,y,z
-x,-y,z
x,-y,-z
-x,y,-z
-x,-y,-z
x,y,-z
-x,y,z
x,-y,z
loop_
_atom_site_type_symbol
_atom_site_label
_atom_site_fract_x
_atom_site_fract_y
_atom_site_fract_z
Si Si1 0.296512 0.581995 0.000000
Si Si2 0.123408 0.785569 0.795016
Si Si3 0.126807 0.926434 0.868766
Si Si4 0.000000 0.577698 0.366006
Si Si5 0.624111 0.371332 0.237351
Si Si6 0.372586 0.500000 0.623762
Si Si7 0.187169 0.319128 0.366136
Si Si8 0.127404 0.692792 0.000000
O O1 0.364280 0.609469 0.106513
O O2 0.179131 0.616976 0.000000
O O3 0.286526 0.500000 0.000000
O O4 0.177224 0.861435 0.800516
O O5 0.132806 0.752867 0.669407
O O6 0.000000 0.796640 0.829528
O O7 0.170502 0.733498 0.889617
O O8 0.000000 0.931322 0.848045
O O9 0.177356 0.000000 0.830112
O O10 0.152894 0.913551 0.000000
O O11 0.107333 0.619048 0.327541
O O12 0.000000 0.500000 0.315811
O O13 0.000000 0.574382 0.500000
O O14 0.500000 0.351180 0.261570
O O15 0.667046 0.434785 0.310126
O O16 0.703463 0.314957 0.290024
O O17 0.500000 0.500000 0.612849
O O18 0.316874 0.500000 0.500000
O O19 0.211306 0.320152 0.500000
O O20 0.000000 0.680331 0.000000
#
# Coordination Sequence:
#
# PCOD8193660 Si02
#       8
#     4   8   8   4   8   4   8   4
#     4  12  23  37  54  72  98 132 167 209 263 313
#     4  10  17  30  50  71 101 135 166 206 245 297
#     4   8  13  22  41  71 101 131 167 204 242 287
#     4   9  20  36  50  67  92 123 168 219 256 295
#     4  11  23  37  53  72  94 122 163 213 260 309
#     4   9  18  33  51  68  87 115 154 203 252 293
#     4  11  22  35  52  72  96 133 173 209 255 303
#     4  10  20  34  50  72  98 135 174 204 245 298
#
# _framework density 16.762239000000001
#
# number of rings (size 3 to 8) (size 9 to 14) (size 15 to 20)
#    0.000    2.000    4.167    1.250    1.167    1.500 
#    0.000    0.000    0.000    0.500    0.000    2.333 
#    0.000    0.667    0.000    5.000    0.000    0.333 
#
# Total GULP energy -594630.045080 kJ/mol
# GULP energy per Si atom -12388.125939 kJ/mol
# Density = 1.672409 g / cm^3
# Si number density = 16.762239 Si / 1000 Ang^3
#
#
#
# Elastic Constant Matrix: (Units=GPa)
#
#
# Indices 1 2 3 4 5 6 
#
# 1 65.3459 28.8190 22.2633 0.0000 0.0000 0.0000
# 2 28.8190 119.7574 31.5010 0.0000 0.0000 0.0000
# 3 22.2633 31.5010 88.8077 0.0000 0.0000 0.0000
# 4 0.0000 0.0000 0.0000 23.3995 0.0000 0.0000
# 5 0.0000 0.0000 0.0000 0.0000 17.7997 0.0000
# 6 0.0000 0.0000 0.0000 0.0000 0.0000 6.5315
#
#
#
# Elastic Compliance Matrix: (Units=1/GPa)
#
#
# Indices 1 2 3 4 5 6 
#
# 1 0.017943 -0.003457 -0.003272 0.000000 0.000000 0.000000
# 2 -0.003457 0.009876 -0.002636 0.000000 0.000000 0.000000
# 3 -0.003272 -0.002636 0.013016 0.000000 0.000000 0.000000
# 4 0.000000 0.000000 0.000000 0.042736 0.000000 0.000000
# 5 0.000000 0.000000 0.000000 0.000000 0.056181 0.000000
# 6 0.000000 0.000000 0.000000 0.000000 0.000000 0.153104
#
#
# Mechanical properties :
#
#
# Convention : Reuss Voigt Hill
#
# Bulk Modulus (GPa) = 45.24205 48.78640 47.01422
# Shear Modulus (GPa) = 15.67633 22.30133 18.98883
#
# Velocity S-wave (km/s) = 3.06145 3.65149 3.36941
# Velocity P-wave (km/s) = 6.28854 6.85171 6.57616
#
# Compressibility (1/GPa) = 0.02210333
#
# Stress axis : x y z
#
# Youngs Moduli (GPa) = 55.73348 101.25949 76.83085
#
# Poissons Ratio (x) = 0.35007 0.25137
# Poissons Ratio (y) = 0.19268 0.20255
# Poissons Ratio (z) = 0.18235 0.26695
#
# Static dielectric constant tensor:
#      x y z
#    x 2.818950 0.000000 0.000000 
#    y 0.000000 3.197140 0.000000 
#    z 0.000000 0.000000 3.110360 
# 
# 
# High freq. dielectric constant tensor:
#      x y z
#    x 1.609370 0.000000 0.000000 
#    y 0.000000 1.633980 0.000000 
#    z 0.000000 0.000000 1.639960 
# 
# From -- ./inp_files/16517.got.cif
#   From: 2010.03.12/outbox.cif.g09.slc.cpg/sg47_9_cif.got.tgz:16517.got - 2010.04.14 03:12:58.
