data_PCOD8193159
_publ_section_title
;
Structure prediction by ZEFSAII (Michael W. Deem and Ramdas Pophale) SiO2 
 PCOD8193159
Probable space group: I M A 2
;
_chemical_formula_sum "Si O2"
_cell_formula_units_Z 40
_cell_length_a 10.314578
_cell_length_b 6.403100
_cell_length_c 27.187270
_cell_angle_alpha 90.000000
_cell_angle_beta 90.000000
_cell_angle_gamma 90.000000
_cell_volume 1795.590707
_symmetry_space_group_name_H-M "I M A 2"
_symmetry_group_IT_number 46
_symmetry_cell_setting 'orthorhombic'
loop_
_space_group_symop_operation_xyz
x,y,z
-x,-y,z
1/2-x,y,z
1/2+x,-y,z
1/2+x,1/2+y,1/2+z
1/2-x,1/2-y,1/2+z
-x,1/2+y,1/2+z
x,1/2-y,1/2+z
loop_
_atom_site_type_symbol
_atom_site_label
_atom_site_fract_x
_atom_site_fract_y
_atom_site_fract_z
Si Si1 0.893970 0.332799 0.301010
Si Si2 0.000000 0.500000 0.460774
Si Si3 0.390302 0.648134 0.901496
Si Si4 0.395008 0.674725 0.190511
Si Si5 0.398410 0.307972 0.040490
Si Si6 0.500000 0.500000 0.619929
O O1 0.750000 0.434924 0.302947
O O2 0.902861 0.153132 0.342183
O O3 0.921001 0.244669 0.246286
O O4 0.000000 0.500000 0.316010
O O5 0.099231 0.623190 0.425545
O O6 0.080425 0.335743 0.493010
O O7 0.500000 0.500000 0.924298
O O8 0.250000 0.554951 0.915917
O O9 0.500000 0.500000 0.175585
O O10 0.250000 0.578980 0.185798
O O11 0.402396 0.871374 0.154470
O O12 0.500000 0.500000 0.041456
O O13 0.250000 0.394220 0.040532
O O14 0.417072 0.161582 0.087844
#
# Coordination Sequence:
#
# PCOD8193159 Si02
#       6
#     8   4   8   8   8   4
#     4   9  19  38  61  89 127 171 218 263 309 367
#     4  11  24  44  70  94 128 168 214 265 322 382
#     4  11  24  40  63  95 130 170 215 263 315 375
#     4  10  22  40  63  93 129 171 218 265 314 371
#     4  11  26  46  69  98 128 165 212 268 327 388
#     4  11  24  40  68  96 132 170 212 263 322 384
#
# _framework density 22.276792
#
# number of rings (size 3 to 8) (size 9 to 14) (size 15 to 20)
#    0.000    1.600    1.000    2.400    1.400   12.000 
#    0.000    0.000    0.000    0.000    0.000    0.000 
#    0.000    0.000    0.000    0.000    0.000    0.000 
#
# Total GULP energy -247928.861371 kJ/mol
# GULP energy per Si atom -12396.443069 kJ/mol
# Density = 2.222609 g / cm^3
# Si number density = 22.276792 Si / 1000 Ang^3
#
#
#
# Elastic Constant Matrix: (Units=GPa)
#
#
# Indices 1 2 3 4 5 6 
#
# 1 188.7139 74.0355 39.6607 0.0000 0.0000 0.0000
# 2 74.0355 112.7372 52.4428 0.0000 0.0000 0.0000
# 3 39.6607 52.4428 112.3746 0.0000 0.0000 0.0000
# 4 0.0000 0.0000 0.0000 31.2612 0.0000 0.0000
# 5 0.0000 0.0000 0.0000 0.0000 -1.7365 0.0000
# 6 0.0000 0.0000 0.0000 0.0000 0.0000 37.4005
#
#
#
# Elastic Compliance Matrix: (Units=1/GPa)
#
#
# Indices 1 2 3 4 5 6 
#
# 1 0.007154 -0.004501 -0.000425 0.000000 0.000000 0.000000
# 2 -0.004501 0.014161 -0.005020 0.000000 0.000000 0.000000
# 3 -0.000425 -0.005020 0.011391 0.000000 0.000000 0.000000
# 4 0.000000 0.000000 0.000000 0.031989 0.000000 0.000000
# 5 0.000000 0.000000 0.000000 0.000000 -0.575875 0.000000
# 6 0.000000 0.000000 0.000000 0.000000 0.000000 0.026738
#
#
# Mechanical properties :
#
#
# Convention : Reuss Voigt Hill
#
# Bulk Modulus (GPa) = 78.02906 82.90042 80.46474
# Shear Modulus (GPa) = -10.86297 29.89749 9.51726
#
# Velocity S-wave (km/s) = -2.21064 3.66743 2.06919
# Velocity P-wave (km/s) = 5.34670 7.43155 6.47361
#
# Compressibility (1/GPa) = 0.01281574
#
# Stress axis : x y z
#
# Youngs Moduli (GPa) = 139.78435 70.61632 87.78480
#
# Poissons Ratio (x) = 0.31781 0.03727
# Poissons Ratio (y) = 0.62910 0.44070
# Poissons Ratio (z) = 0.05934 0.35451
#
# Static dielectric constant tensor:
#      x y z
#    x 3.995660 0.000000 0.000000 
#    y 0.000000 3.696310 0.000000 
#    z 0.000000 0.000000 4.332050 
# 
# 
# High freq. dielectric constant tensor:
#      x y z
#    x 1.883270 0.000000 0.000000 
#    y 0.000000 1.848100 0.000000 
#    z 0.000000 0.000000 1.902970 
# 
# From -- ./inp_files/24450.got.cif
#   From: 2010.03.12/outbox.cif.g09.slc.cpg/sg46_13_cif.got.tgz:24450.got - 2010.04.14 02:56:35.
