data_PCOD8193358
_publ_section_title
;
Structure prediction by ZEFSAII (Michael W. Deem and Ramdas Pophale) SiO2 
 PCOD8193358
Probable space group: I M A 2
;
_chemical_formula_sum "Si O2"
_cell_formula_units_Z 40
_cell_length_a 21.924860
_cell_length_b 9.039243
_cell_length_c 7.280295
_cell_angle_alpha 90.000000
_cell_angle_beta 90.000000
_cell_angle_gamma 90.000000
_cell_volume 1442.838984
_symmetry_space_group_name_H-M "I M A 2"
_symmetry_group_IT_number 46
_symmetry_cell_setting 'orthorhombic'
loop_
_space_group_symop_operation_xyz
x,y,z
-x,-y,z
1/2-x,y,z
1/2+x,-y,z
1/2+x,1/2+y,1/2+z
1/2-x,1/2-y,1/2+z
-x,1/2+y,1/2+z
x,1/2-y,1/2+z
loop_
_atom_site_type_symbol
_atom_site_label
_atom_site_fract_x
_atom_site_fract_y
_atom_site_fract_z
Si Si1 0.069074 0.219778 0.598740
Si Si2 0.620241 0.490353 0.344782
Si Si3 0.426418 0.779620 0.536797
Si Si4 0.618059 0.511826 0.786752
Si Si5 0.250000 0.438285 0.848769
Si Si6 0.250000 0.404833 0.273892
O O1 0.095024 0.389465 0.608786
O O2 0.107292 0.123738 0.456529
O O3 0.997611 0.218055 0.571282
O O4 0.079551 0.137878 0.799008
O O5 0.599381 0.390396 0.524940
O O6 0.690637 0.530799 0.374791
O O7 0.612436 0.377864 0.175130
O O8 0.418685 0.858645 0.332854
O O9 0.690058 0.480358 0.769968
O O10 0.250000 0.270896 0.779727
O O11 0.250000 0.455143 0.065647
#
# Coordination Sequence:
#
# PCOD8193358 Si02
#       6
#     8   8   8   8   4   4
#     4  11  23  43  68 100 140 186 239 291 351 432
#     4  11  24  45  67 103 145 189 234 301 361 425
#     4  11  25  44  67 102 148 184 238 297 363 425
#     4  11  22  41  72 101 137 188 234 300 354 421
#     4  12  20  45  73 107 141 187 243 298 354 438
#     4  12  24  45  75 105 149 187 245 296 366 434
#
# _framework density 27.723123000000001
#
# number of rings (size 3 to 8) (size 9 to 14) (size 15 to 20)
#    0.000    0.800    6.000    3.600    0.000    3.200 
#    3.600    4.000    0.000    0.000    0.000    0.000 
#    0.000    0.000    0.000    0.000    0.000    0.000 
#
# Total GULP energy -248167.054547 kJ/mol
# GULP energy per Si atom -12408.352727 kJ/mol
# Density = 2.766002 g / cm^3
# Si number density = 27.723123 Si / 1000 Ang^3
#
#
#
# Elastic Constant Matrix: (Units=GPa)
#
#
# Indices 1 2 3 4 5 6 
#
# 1 282.2523 83.4508 37.1793 0.0000 0.0000 0.0000
# 2 83.4508 207.2286 22.2473 0.0000 0.0000 0.0000
# 3 37.1793 22.2473 89.1621 0.0000 0.0000 0.0000
# 4 0.0000 0.0000 0.0000 42.5133 0.0000 0.0000
# 5 0.0000 0.0000 0.0000 0.0000 29.8594 0.0000
# 6 0.0000 0.0000 0.0000 0.0000 0.0000 23.2077
#
#
#
# Elastic Compliance Matrix: (Units=1/GPa)
#
#
# Indices 1 2 3 4 5 6 
#
# 1 0.004176 -0.001536 -0.001358 0.000000 0.000000 0.000000
# 2 -0.001536 0.005523 -0.000738 0.000000 0.000000 0.000000
# 3 -0.001358 -0.000738 0.011966 0.000000 0.000000 0.000000
# 4 0.000000 0.000000 0.000000 0.023522 0.000000 0.000000
# 5 0.000000 0.000000 0.000000 0.000000 0.033490 0.000000
# 6 0.000000 0.000000 0.000000 0.000000 0.000000 0.043089
#
#
# Mechanical properties :
#
#
# Convention : Reuss Voigt Hill
#
# Bulk Modulus (GPa) = 69.43573 96.04419 82.73996
# Shear Modulus (GPa) = 37.36071 48.16713 42.76392
#
# Velocity S-wave (km/s) = 3.67500 4.17278 3.93177
# Velocity P-wave (km/s) = 6.56567 7.61153 7.10786
#
# Compressibility (1/GPa) = 0.01440181
#
# Stress axis : x y z
#
# Youngs Moduli (GPa) = 239.46903 181.05230 83.57088
#
# Poissons Ratio (x) = 0.27807 0.11350
# Poissons Ratio (y) = 0.36779 0.06165
# Poissons Ratio (z) = 0.32522 0.13357
#
# Static dielectric constant tensor:
#      x y z
#    x 4.789150 0.000000 0.000000 
#    y 0.000000 5.992290 0.000000 
#    z 0.000000 0.000000 6.620590 
# 
# 
# High freq. dielectric constant tensor:
#      x y z
#    x 2.099740 0.000000 0.000000 
#    y 0.000000 2.161990 0.000000 
#    z 0.000000 0.000000 2.200420 
# 
# From -- ./inp_files/12308.got.cif
#   From: 2010.03.12/outbox.cif.g09.slc.cpg/sg46_7_cif.got.tgz:12308.got - 2010.04.14 02:56:35.
