data_PCOD8193154
_publ_section_title
;
Structure prediction by ZEFSAII (Michael W. Deem and Ramdas Pophale) SiO2 
 PCOD8193154
Probable space group: I M A 2
;
_chemical_formula_sum "Si O2"
_cell_formula_units_Z 64
_cell_length_a 17.253643
_cell_length_b 13.787047
_cell_length_c 12.792643
_cell_angle_alpha 90.000000
_cell_angle_beta 90.000000
_cell_angle_gamma 90.000000
_cell_volume 3043.072814
_symmetry_space_group_name_H-M "I M A 2"
_symmetry_group_IT_number 46
_symmetry_cell_setting 'orthorhombic'
loop_
_space_group_symop_operation_xyz
x,y,z
-x,-y,z
1/2-x,y,z
1/2+x,-y,z
1/2+x,1/2+y,1/2+z
1/2-x,1/2-y,1/2+z
-x,1/2+y,1/2+z
x,1/2-y,1/2+z
loop_
_atom_site_type_symbol
_atom_site_label
_atom_site_fract_x
_atom_site_fract_y
_atom_site_fract_z
Si Si1 0.451763 0.726870 0.068820
Si Si2 0.838245 0.200515 0.747656
Si Si3 0.835963 0.364187 0.918413
Si Si4 0.610592 0.643201 0.105997
Si Si5 0.663560 0.656217 0.665301
Si Si6 0.047455 0.407766 0.496417
Si Si7 0.412279 0.494399 0.278376
Si Si8 0.161059 0.080550 0.382408
O O1 0.389498 0.753602 0.158407
O O2 0.522051 0.673790 0.127094
O O3 0.487541 0.816545 0.001550
O O4 0.405803 0.649498 0.998885
O O5 0.750000 0.182405 0.708363
O O6 0.837847 0.274974 0.841252
O O7 0.874399 0.100124 0.792556
O O8 0.750000 0.367748 0.972034
O O9 0.850816 0.466387 0.861094
O O10 0.666798 0.730950 0.136552
O O11 0.634599 0.556834 0.184156
O O12 0.615713 0.614556 0.984945
O O13 0.750000 0.612834 0.663639
O O14 0.615668 0.600196 0.578693
O O15 0.627984 0.637746 0.781176
O O16 0.087051 0.427584 0.383382
O O17 0.000000 0.500000 0.532096
O O18 0.500000 0.500000 0.239800
O O19 0.250000 0.108345 0.401438
#
# Coordination Sequence:
#
# PCOD8193154 Si02
#       8
#     8   8   8   8   8   8   8   8
#     4  11  23  39  64  93 131 168 215 274 321 394
#     4  11  24  41  64  97 132 174 220 271 336 397
#     4  10  22  40  62  90 126 168 207 262 324 383
#     4  11  24  39  67  96 123 173 211 268 329 383
#     4  10  24  44  65  94 132 168 215 272 328 390
#     4  10  24  42  65  98 131 176 223 271 327 396
#     4  11  22  43  66  95 134 171 221 276 324 391
#     4  10  23  43  65  94 128 164 217 269 322 394
#
# _framework density 21.031372999999999
#
# number of rings (size 3 to 8) (size 9 to 14) (size 15 to 20)
#    0.000    1.500    1.250    3.000    5.250    3.500 
#    0.000    0.625    0.000    0.000    0.000    0.000 
#    0.000    0.000    0.000    0.000    0.000    0.000 
#
# Total GULP energy -396625.595447 kJ/mol
# GULP energy per Si atom -12394.549858 kJ/mol
# Density = 2.098350 g / cm^3
# Si number density = 21.031373 Si / 1000 Ang^3
#
#
#
# Elastic Constant Matrix: (Units=GPa)
#
#
# Indices 1 2 3 4 5 6 
#
# 1 88.0862 21.5213 26.3725 0.0000 0.0000 0.0000
# 2 21.5213 114.8547 52.2412 0.0000 0.0000 0.0000
# 3 26.3725 52.2412 121.6500 0.0000 0.0000 0.0000
# 4 0.0000 0.0000 0.0000 37.8801 0.0000 0.0000
# 5 0.0000 0.0000 0.0000 0.0000 33.3099 0.0000
# 6 0.0000 0.0000 0.0000 0.0000 0.0000 22.0380
#
#
#
# Elastic Compliance Matrix: (Units=1/GPa)
#
#
# Indices 1 2 3 4 5 6 
#
# 1 0.012309 -0.001358 -0.002085 0.000000 0.000000 0.000000
# 2 -0.001358 0.010970 -0.004417 0.000000 0.000000 0.000000
# 3 -0.002085 -0.004417 0.010569 0.000000 0.000000 0.000000
# 4 0.000000 0.000000 0.000000 0.026399 0.000000 0.000000
# 5 0.000000 0.000000 0.000000 0.000000 0.030021 0.000000
# 6 0.000000 0.000000 0.000000 0.000000 0.000000 0.045376
#
#
# Mechanical properties :
#
#
# Convention : Reuss Voigt Hill
#
# Bulk Modulus (GPa) = 55.16279 58.31788 56.74034
# Shear Modulus (GPa) = 31.76503 33.60935 32.68719
#
# Velocity S-wave (km/s) = 3.89056 4.00191 3.94663
# Velocity P-wave (km/s) = 6.81672 7.01020 6.91414
#
# Compressibility (1/GPa) = 0.01812816
#
# Stress axis : x y z
#
# Youngs Moduli (GPa) = 81.24409 91.15827 94.61642
#
# Poissons Ratio (x) = 0.12378 0.19730
# Poissons Ratio (y) = 0.11032 0.41788
# Poissons Ratio (z) = 0.16941 0.40260
#
# Static dielectric constant tensor:
#      x y z
#    x 3.908250 0.000000 0.000000 
#    y 0.000000 3.876020 0.000000 
#    z 0.000000 0.000000 3.783080 
# 
# 
# High freq. dielectric constant tensor:
#      x y z
#    x 1.827040 0.000000 0.000000 
#    y 0.000000 1.829050 0.000000 
#    z 0.000000 0.000000 1.825530 
# 
# From -- ./inp_files/11978.got.cif
#   From: 2010.03.12/outbox.cif.g09.slc.cpg/sg46_6_cif.got.tgz:11978.got - 2010.04.14 02:56:35.
