data_PCOD8193189
_publ_section_title
;
Structure prediction by ZEFSAII (Michael W. Deem and Ramdas Pophale) SiO2 
 PCOD8193189
Probable space group: I M A 2
;
_chemical_formula_sum "Si O2"
_cell_formula_units_Z 40
_cell_length_a 15.835222
_cell_length_b 5.134900
_cell_length_c 23.955821
_cell_angle_alpha 90.000000
_cell_angle_beta 90.000000
_cell_angle_gamma 90.000000
_cell_volume 1947.902459
_symmetry_space_group_name_H-M "I M A 2"
_symmetry_group_IT_number 46
_symmetry_cell_setting 'orthorhombic'
loop_
_space_group_symop_operation_xyz
x,y,z
-x,-y,z
1/2-x,y,z
1/2+x,-y,z
1/2+x,1/2+y,1/2+z
1/2-x,1/2-y,1/2+z
-x,1/2+y,1/2+z
x,1/2-y,1/2+z
loop_
_atom_site_type_symbol
_atom_site_label
_atom_site_fract_x
_atom_site_fract_y
_atom_site_fract_z
Si Si1 0.594389 0.536014 0.505720
Si Si2 0.404653 0.503987 0.187456
Si Si3 0.750000 0.040775 0.770671
Si Si4 0.846165 0.996216 0.125973
Si Si5 0.843065 0.462156 0.949467
Si Si6 0.750000 0.540787 0.843584
O O1 0.500000 0.500000 0.527709
O O2 0.654860 0.509365 0.558950
O O3 0.617132 0.319809 0.459783
O O4 0.599754 0.815794 0.476486
O O5 0.500000 0.500000 0.212549
O O6 0.335705 0.501174 0.236188
O O7 0.393581 0.255196 0.148509
O O8 0.394512 0.752226 0.147995
O O9 0.750000 0.333834 0.793755
O O10 0.750000 0.832719 0.820348
O O11 0.750000 0.002287 0.147742
O O12 0.750000 0.477394 0.977610
O O13 0.833505 0.502050 0.882394
#
# Coordination Sequence:
#
# PCOD8193189 Si02
#       6
#     8   8   4   8   8   4
#     4  12  23  38  62  97 137 167 204 260 317 381
#     4  12  25  43  66  99 133 166 218 268 314 385
#     4  12  22  46  67  96 119 176 214 268 342 366
#     4  12  23  42  64  97 132 177 213 249 321 388
#     4  10  22  42  63  91 115 175 211 258 310 381
#     4  10  24  42  71  84 123 164 218 270 322 382
#
# _framework density 20.53491
#
# number of rings (size 3 to 8) (size 9 to 14) (size 15 to 20)
#    0.600    0.000    2.000    7.800    0.000    0.000 
#    0.000    6.000    0.000    0.000    0.000    0.000 
#    0.000    0.000    0.000    0.000    0.000    0.000 
#
# Total GULP energy -248058.931399 kJ/mol
# GULP energy per Si atom -12402.946570 kJ/mol
# Density = 2.048817 g / cm^3
# Si number density = 20.534910 Si / 1000 Ang^3
#
#
#
# Elastic Constant Matrix: (Units=GPa)
#
#
# Indices 1 2 3 4 5 6 
#
# 1 131.2297 19.6057 23.5917 0.0000 0.0000 0.0000
# 2 19.6057 123.6695 21.3049 0.0000 0.0000 0.0000
# 3 23.5917 21.3049 90.4542 0.0000 0.0000 0.0000
# 4 0.0000 0.0000 0.0000 35.2539 0.0000 0.0000
# 5 0.0000 0.0000 0.0000 0.0000 14.3371 0.0000
# 6 0.0000 0.0000 0.0000 0.0000 0.0000 39.6709
#
#
#
# Elastic Compliance Matrix: (Units=1/GPa)
#
#
# Indices 1 2 3 4 5 6 
#
# 1 0.008103 -0.000959 -0.001887 0.000000 0.000000 0.000000
# 2 -0.000959 0.008542 -0.001762 0.000000 0.000000 0.000000
# 3 -0.001887 -0.001762 0.011962 0.000000 0.000000 0.000000
# 4 0.000000 0.000000 0.000000 0.028366 0.000000 0.000000
# 5 0.000000 0.000000 0.000000 0.000000 0.069749 0.000000
# 6 0.000000 0.000000 0.000000 0.000000 0.000000 0.025207
#
#
# Mechanical properties :
#
#
# Convention : Reuss Voigt Hill
#
# Bulk Modulus (GPa) = 51.57243 52.70645 52.13944
# Shear Modulus (GPa) = 29.83131 36.57580 33.20356
#
# Velocity S-wave (km/s) = 3.81558 4.22495 4.02547
# Velocity P-wave (km/s) = 6.67687 7.03724 6.85942
#
# Compressibility (1/GPa) = 0.01939020
#
# Stress axis : x y z
#
# Youngs Moduli (GPa) = 123.41316 117.07341 83.59464
#
# Poissons Ratio (x) = 0.11232 0.15777
# Poissons Ratio (y) = 0.11841 0.14726
# Poissons Ratio (z) = 0.23293 0.20624
#
# Static dielectric constant tensor:
#      x y z
#    x 3.740660 0.000000 0.000000 
#    y 0.000000 3.784730 0.000000 
#    z 0.000000 0.000000 3.500750 
# 
# 
# High freq. dielectric constant tensor:
#      x y z
#    x 1.802940 0.000000 0.000000 
#    y 0.000000 1.824230 0.000000 
#    z 0.000000 0.000000 1.791160 
# 
# From -- ./inp_files/23568.got.cif
#   From: 2010.03.12/outbox.cif.g09.slc.cpg/sg46_12_cif.got.tgz:23568.got - 2010.04.14 02:56:35.
