data_PCOD8193915
_publ_section_title
;
Structure prediction by ZEFSAII (Michael W. Deem and Ramdas Pophale) SiO2 
 PCOD8193915
Probable space group: P M M M
;
_chemical_formula_sum "Si O2"
_cell_formula_units_Z 52
_cell_length_a 12.794164
_cell_length_b 9.282659
_cell_length_c 27.636776
_cell_angle_alpha 90.000000
_cell_angle_beta 90.000000
_cell_angle_gamma 90.000000
_cell_volume 3282.250240
_symmetry_space_group_name_H-M "P M M M"
_symmetry_group_IT_number 47
_symmetry_cell_setting 'orthorhombic'
loop_
_space_group_symop_operation_xyz
x,y,z
-x,-y,z
x,-y,-z
-x,y,-z
-x,-y,-z
x,y,-z
-x,y,z
x,-y,z
loop_
_atom_site_type_symbol
_atom_site_label
_atom_site_fract_x
_atom_site_fract_y
_atom_site_fract_z
Si Si1 0.203961 0.668629 0.876234
Si Si2 0.000000 0.663680 0.226577
Si Si3 0.382522 0.829034 0.303057
Si Si4 0.624888 0.338882 0.500000
Si Si5 0.226808 0.337972 0.763124
Si Si6 0.624022 0.840193 0.589996
Si Si7 0.000000 0.171463 0.870132
Si Si8 0.615816 0.671027 0.945928
O O1 0.183235 0.500000 0.885899
O O2 0.228488 0.697138 0.820017
O O3 0.103394 0.759066 0.894061
O O4 0.301062 0.729765 0.907189
O O5 0.107314 0.681783 0.257086
O O6 0.000000 0.500000 0.203465
O O7 0.000000 0.785585 0.186002
O O8 0.500000 0.773090 0.291965
O O9 0.303592 0.769404 0.263595
O O10 0.346579 0.778802 0.356836
O O11 0.380531 0.000000 0.300894
O O12 0.668795 0.500000 0.500000
O O13 0.500000 0.336712 0.500000
O O14 0.669563 0.261857 0.451937
O O15 0.266071 0.500000 0.753451
O O16 0.500000 0.849241 0.586097
O O17 0.671152 0.000000 0.582487
O O18 0.000000 0.000000 0.876567
O O19 0.500000 0.729598 0.932486
O O20 0.614164 0.500000 0.944097
O O21 0.646673 0.722799 0.000000
#
# Coordination Sequence:
#
# PCOD8193915 Si02
#       8
#     8   4   8   4   8   8   4   8
#     4   9  17  30  47  66  89 114 139 172 217 263
#     4   8  16  32  48  63  85 111 141 179 222 259
#     4   9  18  30  41  57  86 120 148 175 208 247
#     4   9  15  21  33  55  77  98 133 180 217 243
#     4   9  17  28  44  64  85 111 141 174 213 258
#     4   8  14  25  38  50  71 108 145 171 202 246
#     4  10  18  28  45  67  88 111 141 175 210 251
#     4   8  14  26  46  70  90 109 141 184 219 248
#
# _framework density 15.842788000000001
#
# number of rings (size 3 to 8) (size 9 to 14) (size 15 to 20)
#    0.000    3.308    0.000    3.231    0.000    4.923 
#    0.000    3.462    0.000    3.231    0.000    1.077 
#    0.000    0.615    0.000    6.923    0.000    5.231 
#
# Total GULP energy -644338.978101 kJ/mol
# GULP energy per Si atom -12391.134194 kJ/mol
# Density = 1.580673 g / cm^3
# Si number density = 15.842788 Si / 1000 Ang^3
#
#
#
# Elastic Constant Matrix: (Units=GPa)
#
#
# Indices 1 2 3 4 5 6 
#
# 1 103.0733 39.0354 60.1262 0.0000 0.0000 0.0000
# 2 39.0354 57.5084 35.3787 0.0000 0.0000 0.0000
# 3 60.1262 35.3787 81.7326 0.0000 0.0000 0.0000
# 4 0.0000 0.0000 0.0000 16.7681 0.0000 0.0000
# 5 0.0000 0.0000 0.0000 0.0000 1.3272 0.0000
# 6 0.0000 0.0000 0.0000 0.0000 0.0000 19.0070
#
#
#
# Elastic Compliance Matrix: (Units=1/GPa)
#
#
# Indices 1 2 3 4 5 6 
#
# 1 0.018238 -0.005623 -0.010983 0.000000 0.000000 0.000000
# 2 -0.005623 0.025434 -0.006873 0.000000 0.000000 0.000000
# 3 -0.010983 -0.006873 0.023289 0.000000 0.000000 0.000000
# 4 0.000000 0.000000 0.000000 0.059637 0.000000 0.000000
# 5 0.000000 0.000000 0.000000 0.000000 0.753482 0.000000
# 6 0.000000 0.000000 0.000000 0.000000 0.000000 0.052612
#
#
# Mechanical properties :
#
#
# Convention : Reuss Voigt Hill
#
# Bulk Modulus (GPa) = 49.98970 56.82165 53.40567
# Shear Modulus (GPa) = 5.06937 14.60539 9.83738
#
# Velocity S-wave (km/s) = 1.79074 3.03957 2.49456
# Velocity P-wave (km/s) = 5.99147 6.94712 6.48692
#
# Compressibility (1/GPa) = 0.02000412
#
# Stress axis : x y z
#
# Youngs Moduli (GPa) = 54.83071 39.31820 42.93834
#
# Poissons Ratio (x) = 0.22109 0.47158
# Poissons Ratio (y) = 0.30832 0.29509
# Poissons Ratio (z) = 0.60219 0.27022
#
# Static dielectric constant tensor:
#      x y z
#    x 3.070740 0.000000 0.000000 
#    y 0.000000 2.846220 0.000000 
#    z 0.000000 0.000000 3.024200 
# 
# 
# High freq. dielectric constant tensor:
#      x y z
#    x 1.586080 0.000000 0.000000 
#    y 0.000000 1.590620 0.000000 
#    z 0.000000 0.000000 1.592450 
# 
# From -- ./inp_files/34572.got.cif
#   From: 2010.03.12/outbox.cif.g09.slc.cpg/sg47_18_cif.got.tgz:34572.got - 2010.04.14 03:12:58.
