data_PCOD8193743
_publ_section_title
;
Structure prediction by ZEFSAII (Michael W. Deem and Ramdas Pophale) SiO2 
 PCOD8193743
Probable space group: P M M M
;
_chemical_formula_sum "Si O2"
_cell_formula_units_Z 64
_cell_length_a 31.266221
_cell_length_b 9.614549
_cell_length_c 14.292817
_cell_angle_alpha 90.000000
_cell_angle_beta 90.000000
_cell_angle_gamma 90.000000
_cell_volume 4296.572492
_symmetry_space_group_name_H-M "P M M M"
_symmetry_group_IT_number 47
_symmetry_cell_setting 'orthorhombic'
loop_
_space_group_symop_operation_xyz
x,y,z
-x,-y,z
x,-y,-z
-x,y,-z
-x,-y,-z
x,y,-z
-x,y,z
x,-y,z
loop_
_atom_site_type_symbol
_atom_site_label
_atom_site_fract_x
_atom_site_fract_y
_atom_site_fract_z
Si Si1 0.382282 0.660232 0.791940
Si Si2 0.045285 0.844111 0.888810
Si Si3 0.779115 0.837598 0.205228
Si Si4 0.294543 0.660938 0.109740
Si Si5 0.136615 0.165981 0.894745
Si Si6 0.259036 0.840574 0.603662
Si Si7 0.340968 0.341052 0.603970
Si Si8 0.549184 0.839147 0.106736
O O1 0.392112 0.500000 0.814563
O O2 0.339168 0.707743 0.844258
O O3 0.377569 0.687038 0.680543
O O4 0.422210 0.749479 0.824397
O O5 0.090473 0.773813 0.856630
O O6 0.000000 0.768716 0.858116
O O7 0.043312 0.000000 0.848478
O O8 0.047576 0.849895 0.000000
O O9 0.742935 0.754218 0.150964
O O10 0.825469 0.782063 0.172610
O O11 0.776573 0.811758 0.317129
O O12 0.773366 0.000000 0.180218
O O13 0.284836 0.500000 0.132843
O O14 0.297991 0.688032 0.000000
O O15 0.133436 0.000000 0.894958
O O16 0.146282 0.219572 0.000000
O O17 0.240827 0.803008 0.500000
O O18 0.300185 0.750743 0.628483
O O19 0.273934 0.000000 0.606936
O O20 0.358938 0.306886 0.500000
O O21 0.325385 0.500000 0.610821
O O22 0.500000 0.809890 0.131734
O O23 0.560318 0.000000 0.121676
O O24 0.558567 0.795502 0.000000
#
# Coordination Sequence:
#
# PCOD8193743 Si02
#       8
#     8   8   8   8   8   8   8   8
#     4  10  19  31  48  69  90 111 140 174 206 243
#     4   7   9  14  25  41  63  92 123 157 201 245
#     4  10  18  27  40  57  79 108 140 170 201 243
#     4  10  20  31  41  58  87 116 139 167 200 235
#     4   8  13  20  30  47  72 100 130 164 200 240
#     4   9  17  28  41  58  80 105 136 174 210 242
#     4   9  17  30  48  67  86 109 138 172 208 243
#     4   9  19  35  52  70  92 116 142 173 207 242
#
# _framework density 14.895595
#
# number of rings (size 3 to 8) (size 9 to 14) (size 15 to 20)
#    0.000    3.000    1.250    2.250    0.000    2.750 
#    0.000    0.625    0.000    0.375    0.000    2.625 
#    0.000    1.000    0.000   11.625    0.000    4.000 
#
# Total GULP energy -792953.185522 kJ/mol
# GULP energy per Si atom -12389.893524 kJ/mol
# Density = 1.486169 g / cm^3
# Si number density = 14.895595 Si / 1000 Ang^3
#
#
#
# Elastic Constant Matrix: (Units=GPa)
#
#
# Indices 1 2 3 4 5 6 
#
# 1 121.7086 41.0652 61.1632 0.0000 0.0000 0.0000
# 2 41.0652 34.3293 30.3951 0.0000 0.0000 0.0000
# 3 61.1632 30.3951 89.1671 0.0000 0.0000 0.0000
# 4 0.0000 0.0000 0.0000 17.6780 0.0000 0.0000
# 5 0.0000 0.0000 0.0000 0.0000 10.2763 0.0000
# 6 0.0000 0.0000 0.0000 0.0000 0.0000 -4.3840
#
#
#
# Elastic Compliance Matrix: (Units=1/GPa)
#
#
# Indices 1 2 3 4 5 6 
#
# 1 0.015948 -0.013451 -0.006354 0.000000 0.000000 0.000000
# 2 -0.013451 0.053067 -0.008863 0.000000 0.000000 0.000000
# 3 -0.006354 -0.008863 0.018595 0.000000 0.000000 0.000000
# 4 0.000000 0.000000 0.000000 0.056567 0.000000 0.000000
# 5 0.000000 0.000000 0.000000 0.000000 0.097311 0.000000
# 6 0.000000 0.000000 0.000000 0.000000 0.000000 -0.228103
#
#
# Mechanical properties :
#
#
# Convention : Reuss Voigt Hill
#
# Bulk Modulus (GPa) = 33.03202 56.71688 44.87445
# Shear Modulus (GPa) = 61.87107 12.21950 37.04529
#
# Velocity S-wave (km/s) = 6.45187 2.86727 4.99239
# Velocity P-wave (km/s) = 8.81624 7.00861 7.96388
#
# Compressibility (1/GPa) = 0.03027366
#
# Stress axis : x y z
#
# Youngs Moduli (GPa) = 62.70308 18.84393 53.77926
#
# Poissons Ratio (x) = 0.25348 0.34172
# Poissons Ratio (y) = 0.84345 0.47662
# Poissons Ratio (z) = 0.39843 0.16701
#
# Static dielectric constant tensor:
#      x y z
#    x 3.053330 0.000000 0.000000 
#    y 0.000000 2.687290 0.000000 
#    z 0.000000 0.000000 2.973170 
# 
# 
# High freq. dielectric constant tensor:
#      x y z
#    x 1.561960 0.000000 0.000000 
#    y 0.000000 1.546240 0.000000 
#    z 0.000000 0.000000 1.557830 
# 
# From -- ./inp_files/8286.got.cif
#   From: 2010.03.12/outbox.cif.g09.slc.cpg/sg47_5_cif.got.tgz:8286.got - 2010.04.14 03:12:58.
