data_PCOD8193132
_publ_section_title
;
Structure prediction by ZEFSAII (Michael W. Deem and Ramdas Pophale) SiO2 
 PCOD8193132
Probable space group: I M A 2
;
_chemical_formula_sum "Si O2"
_cell_formula_units_Z 44
_cell_length_a 9.480015
_cell_length_b 16.716338
_cell_length_c 13.373210
_cell_angle_alpha 90.000000
_cell_angle_beta 90.000000
_cell_angle_gamma 90.000000
_cell_volume 2119.267767
_symmetry_space_group_name_H-M "I M A 2"
_symmetry_group_IT_number 46
_symmetry_cell_setting 'orthorhombic'
loop_
_space_group_symop_operation_xyz
x,y,z
-x,-y,z
1/2-x,y,z
1/2+x,-y,z
1/2+x,1/2+y,1/2+z
1/2-x,1/2-y,1/2+z
-x,1/2+y,1/2+z
x,1/2-y,1/2+z
loop_
_atom_site_type_symbol
_atom_site_label
_atom_site_fract_x
_atom_site_fract_y
_atom_site_fract_z
Si Si1 0.083480 0.214530 0.292220
Si Si2 0.083149 0.728576 0.975984
Si Si3 0.000000 0.000000 0.784715
Si Si4 0.090812 0.843952 0.690743
Si Si5 0.903949 0.614711 0.453209
Si Si6 0.595074 0.932298 0.169330
O O1 0.250000 0.223393 0.309481
O O2 0.044022 0.155830 0.201438
O O3 0.004294 0.180909 0.390839
O O4 0.018149 0.301448 0.266743
O O5 0.250000 0.729975 0.954431
O O6 0.026440 0.819829 0.968847
O O7 0.048940 0.681614 0.078356
O O8 0.909182 0.943448 0.857425
O O9 0.084886 0.939765 0.710649
O O10 0.250000 0.814513 0.712915
O O11 0.750000 0.658198 0.449133
O O12 0.909040 0.558525 0.550387
O O13 0.750000 0.946565 0.213610
O O14 0.500000 0.000000 0.219792
#
# Coordination Sequence:
#
# PCOD8193132 Si02
#       6
#     8   8   4   8   8   8
#     4  11  23  41  66  94 127 170 220 272 331 400
#     4  11  24  42  65  91 128 172 219 269 323 399
#     4  12  24  40  68 100 136 174 222 282 342 394
#     4  11  25  43  65  98 134 174 222 274 339 400
#     4  11  22  38  63  96 129 162 209 265 327 393
#     4  10  22  39  61  94 128 162 209 268 328 389
#
# _framework density 20.761887999999999
#
# number of rings (size 3 to 8) (size 9 to 14) (size 15 to 20)
#    0.000    1.091    4.545    1.636    0.000    4.364 
#    1.636    0.000    0.000    0.000    0.000    0.000 
#    0.000    0.000    0.000    0.000    0.000    0.000 
#
# Total GULP energy -272593.646495 kJ/mol
# GULP energy per Si atom -12390.620295 kJ/mol
# Density = 2.071463 g / cm^3
# Si number density = 20.761888 Si / 1000 Ang^3
#
#
#
# Elastic Constant Matrix: (Units=GPa)
#
#
# Indices 1 2 3 4 5 6 
#
# 1 125.6466 46.3627 56.3473 0.0000 0.0000 0.0000
# 2 46.3627 125.1407 52.3467 -0.0002 0.0000 0.0000
# 3 56.3473 52.3467 122.9665 -0.0009 -0.0001 0.0001
# 4 0.0000 -0.0002 -0.0009 39.7879 -0.0001 0.0000
# 5 0.0000 0.0000 -0.0001 -0.0001 26.9890 0.0000
# 6 0.0000 0.0000 0.0001 0.0000 0.0000 31.5755
#
#
#
# Elastic Compliance Matrix: (Units=1/GPa)
#
#
# Indices 1 2 3 4 5 6 
#
# 1 0.010531 -0.002291 -0.003850 0.000000 0.000000 0.000000
# 2 -0.002291 0.010221 -0.003301 0.000000 0.000000 0.000000
# 3 -0.003850 -0.003301 0.011302 0.000000 0.000000 0.000000
# 4 0.000000 0.000000 0.000000 0.025133 0.000000 0.000000
# 5 0.000000 0.000000 0.000000 0.000000 0.037052 0.000000
# 6 0.000000 0.000000 0.000000 0.000000 0.000000 0.031670
#
#
# Mechanical properties :
#
#
# Convention : Reuss Voigt Hill
#
# Bulk Modulus (GPa) = 75.93799 75.98525 75.96162
# Shear Modulus (GPa) = 33.51577 34.25026 33.88302
#
# Velocity S-wave (km/s) = 4.02219 4.06602 4.04416
# Velocity P-wave (km/s) = 7.63058 7.66298 7.64679
#
# Compressibility (1/GPa) = 0.01316864
#
# Stress axis : x y z
#
# Youngs Moduli (GPa) = 94.95872 97.84130 88.48032
#
# Poissons Ratio (x) = 0.22415 0.34068
# Poissons Ratio (y) = 0.21754 0.29209
# Poissons Ratio (z) = 0.36563 0.32299
#
# Static dielectric constant tensor:
#      x y z
#    x 3.795950 0.000000 0.000000 
#    y 0.000000 3.622910 0.000000 
#    z 0.000000 0.000000 3.981000 
# 
# 
# High freq. dielectric constant tensor:
#      x y z
#    x 1.817240 0.000000 0.000000 
#    y 0.000000 1.800000 0.000000 
#    z 0.000000 0.000000 1.818840 
# 
# From -- ./inp_files/13840.got.cif
#   From: 2010.03.12/outbox.cif.g09.slc.cpg/sg46_7_cif.got.tgz:13840.got - 2010.04.14 02:56:35.
