data_PCOD8193101
_publ_section_title
;
Structure prediction by ZEFSAII (Michael W. Deem and Ramdas Pophale) SiO2 
 PCOD8193101
Probable space group: I M A 2
;
_chemical_formula_sum "Si O2"
_cell_formula_units_Z 64
_cell_length_a 14.558381
_cell_length_b 17.693237
_cell_length_c 12.750924
_cell_angle_alpha 90.000000
_cell_angle_beta 90.000000
_cell_angle_gamma 90.000000
_cell_volume 3284.445297
_symmetry_space_group_name_H-M "I M A 2"
_symmetry_group_IT_number 46
_symmetry_cell_setting 'orthorhombic'
loop_
_space_group_symop_operation_xyz
x,y,z
-x,-y,z
1/2-x,y,z
1/2+x,-y,z
1/2+x,1/2+y,1/2+z
1/2-x,1/2-y,1/2+z
-x,1/2+y,1/2+z
x,1/2-y,1/2+z
loop_
_atom_site_type_symbol
_atom_site_label
_atom_site_fract_x
_atom_site_fract_y
_atom_site_fract_z
Si Si1 0.522260 0.179901 0.785900
Si Si2 0.648289 0.418683 0.953518
Si Si3 0.907051 0.038779 0.673608
Si Si4 0.147227 0.421817 0.348027
Si Si5 0.149926 0.083689 0.083852
Si Si6 0.360836 0.751091 0.965353
Si Si7 0.594505 0.465769 0.738892
Si Si8 0.975296 0.319976 0.650480
O O1 0.575368 0.124238 0.707962
O O2 0.429389 0.141972 0.829656
O O3 0.598696 0.199615 0.871418
O O4 0.489213 0.255408 0.728411
O O5 0.750000 0.405811 0.912040
O O6 0.603253 0.335524 0.957356
O O7 0.604967 0.473365 0.864752
O O8 0.651699 0.459444 0.066785
O O9 0.861542 0.992255 0.768471
O O10 0.000000 0.000000 0.637778
O O11 0.250000 0.387696 0.332827
O O12 0.133709 0.451557 0.467292
O O13 0.250000 0.125584 0.084920
O O14 0.068230 0.142537 0.106042
O O15 0.163098 0.015751 0.168422
O O16 0.250000 0.757935 0.970614
O O17 0.407554 0.784172 0.067420
O O18 0.500000 0.500000 0.701408
O O19 0.592862 0.377550 0.710147
#
# Coordination Sequence:
#
# PCOD8193101 Si02
#       8
#     8   8   8   8   8   8   8   8
#     4  11  22  40  62  88 121 157 199 247 300 356
#     4  11  21  37  57  83 122 157 194 241 298 358
#     4  10  22  37  60  86 119 160 199 243 297 352
#     4  10  22  40  64  91 120 156 201 249 297 351
#     4  10  22  40  64  91 120 156 201 249 297 351
#     4  11  24  37  57  89 121 155 197 243 300 358
#     4  10  22  37  60  86 119 160 199 243 297 352
#     4  11  22  40  62  88 121 157 199 247 300 356
#
# _framework density 19.485786999999998
#
# number of rings (size 3 to 8) (size 9 to 14) (size 15 to 20)
#    0.000    1.500    3.750    1.125    1.750    4.500 
#    0.000    0.000    0.000    0.000    0.000    0.000 
#    0.000    0.000    0.000    0.000    0.000    0.000 
#
# Total GULP energy -396510.861996 kJ/mol
# GULP energy per Si atom -12390.964437 kJ/mol
# Density = 1.944144 g / cm^3
# Si number density = 19.485787 Si / 1000 Ang^3
#
#
#
# Elastic Constant Matrix: (Units=GPa)
#
#
# Indices 1 2 3 4 5 6 
#
# 1 104.4378 27.1756 32.5001 0.0000 0.0009 0.0000
# 2 27.1756 82.4042 29.5805 0.0000 0.0005 0.0000
# 3 32.5001 29.5805 108.8622 0.0000 -0.0001 0.0000
# 4 0.0000 0.0000 0.0000 6.4169 -0.0016 0.0000
# 5 0.0009 0.0005 -0.0001 -0.0016********** -0.0002
# 6 0.0000 0.0000 0.0000 0.0000 -0.0002 19.0736
#
#
#
# Elastic Compliance Matrix: (Units=1/GPa)
#
#
# Indices 1 2 3 4 5 6 
#
# 1 0.011085 -0.002734 -0.002566 0.000000 0.000000 0.000000
# 2 -0.002734 0.014121 -0.003021 0.000000 0.000000 0.000000
# 3 -0.002566 -0.003021 0.010773 0.000000 0.000000 0.000000
# 4 0.000000 0.000000 0.000000 0.155838 0.000000 0.000000
# 5 0.000000 0.000000 0.000000 0.000000 -0.000056 0.000000
# 6 0.000000 0.000000 0.000000 0.000000 0.000000 0.052428
#
#
# Mechanical properties :
#
#
# Convention : Reuss Voigt Hill
#
# Bulk Modulus (GPa) = 51.71619 52.69073 52.20346
# Shear Modulus (GPa) = 18.70703 -3559.19393 -1770.24345
#
# Velocity S-wave (km/s) = 3.10180 -42.78463 -30.17369
# Velocity P-wave (km/s) = 6.27904 49.12840 34.45412
#
# Compressibility (1/GPa) = 0.01933630
#
# Stress axis : x y z
#
# Youngs Moduli (GPa) = 90.20998 70.81418 92.82526
#
# Poissons Ratio (x) = 0.19364 0.23823
# Poissons Ratio (y) = 0.24668 0.28041
# Poissons Ratio (z) = 0.23151 0.21391
#
# Static dielectric constant tensor:
#      x y z
#    x 3.962010 0.000000 0.000000 
#    y 0.000000 3.587000 0.000000 
#    z 0.000000 0.000000 3.722430 
# 
# 
# High freq. dielectric constant tensor:
#      x y z
#    x 1.762670 0.000000 0.000000 
#    y 0.000000 1.747980 0.000000 
#    z 0.000000 0.000000 1.774810 
# 
# From -- ./inp_files/11300.got.cif
#   From: 2010.03.12/outbox.cif.g09.slc.cpg/sg46_6_cif.got.tgz:11300.got - 2010.04.14 02:56:35.
