data_PCOD8193728
_publ_section_title
;
Structure prediction by ZEFSAII (Michael W. Deem and Ramdas Pophale) SiO2 
 PCOD8193728
Probable space group: P M M M
;
_chemical_formula_sum "Si O2"
_cell_formula_units_Z 44
_cell_length_a 13.886901
_cell_length_b 19.027330
_cell_length_c 10.849426
_cell_angle_alpha 90.000000
_cell_angle_beta 90.000000
_cell_angle_gamma 90.000000
_cell_volume 2866.750862
_symmetry_space_group_name_H-M "P M M M"
_symmetry_group_IT_number 47
_symmetry_cell_setting 'orthorhombic'
loop_
_space_group_symop_operation_xyz
x,y,z
-x,-y,z
x,-y,-z
-x,y,-z
-x,-y,-z
x,y,-z
-x,y,z
x,-y,z
loop_
_atom_site_type_symbol
_atom_site_label
_atom_site_fract_x
_atom_site_fract_y
_atom_site_fract_z
Si Si1 0.113246 0.920617 0.000000
Si Si2 0.108059 0.576933 0.353779
Si Si3 0.795416 0.283067 0.353752
Si Si4 0.605919 0.790435 0.645897
Si Si5 0.887642 0.147901 0.745229
Si Si6 0.285814 0.076195 0.357785
O O1 0.145514 0.875343 0.881900
O O2 0.000000 0.929101 0.000000
O O3 0.158381 0.000000 0.000000
O O4 0.106836 0.576630 0.500000
O O5 0.143656 0.500000 0.306226
O O6 0.178851 0.638500 0.307332
O O7 0.000000 0.591489 0.304858
O O8 0.813936 0.272867 0.500000
O O9 0.683047 0.270128 0.320230
O O10 0.863672 0.229578 0.279122
O O11 0.599197 0.797224 0.500000
O O12 0.500000 0.772768 0.701014
O O13 0.643979 0.864787 0.701484
O O14 0.825447 0.100004 0.652885
O O15 0.000000 0.133790 0.721312
O O16 0.310613 0.069128 0.500000
O O17 0.302242 0.000000 0.293777
#
# Coordination Sequence:
#
# PCOD8193728 Si02
#       6
#     4   8   8   8   8   8
#     4   9  18  30  40  50  68 100 138 163 180 216
#     4   8  13  21  34  54  81 109 129 145 174 220
#     4   9  16  25  39  60  81  98 123 159 193 227
#     4   8  14  24  36  50  71  99 126 153 188 226
#     4  10  18  27  39  54  74 100 127 156 189 223
#     4   9  17  26  36  54  75  93 120 156 193 234
#
# _framework density 15.348386
#
# number of rings (size 3 to 8) (size 9 to 14) (size 15 to 20)
#    0.000    3.182    0.000    3.273    0.000    3.636 
#    0.000    2.727    0.000    0.545    0.000   14.636 
#    0.000   21.091    0.000    0.000    0.000    7.273 
#
# Total GULP energy -545080.063908 kJ/mol
# GULP energy per Si atom -12388.183271 kJ/mol
# Density = 1.531345 g / cm^3
# Si number density = 15.348386 Si / 1000 Ang^3
#
#
#
# Elastic Constant Matrix: (Units=GPa)
#
#
# Indices 1 2 3 4 5 6 
#
# 1 104.1846 62.6001 6.7278 0.0000 0.0000 0.0000
# 2 62.6001 152.4760 18.5996 0.0000 0.0000 0.0000
# 3 6.7278 18.5996 22.2699 0.0000 0.0000 0.0000
# 4 0.0000 0.0000 0.0000 10.5796 0.0000 0.0000
# 5 0.0000 0.0000 0.0000 0.0000 5.1493 0.0000
# 6 0.0000 0.0000 0.0000 0.0000 0.0000 15.4145
#
#
#
# Elastic Compliance Matrix: (Units=1/GPa)
#
#
# Indices 1 2 3 4 5 6 
#
# 1 0.012748 -0.005305 0.000579 0.000000 0.000000 0.000000
# 2 -0.005305 0.009510 -0.006340 0.000000 0.000000 0.000000
# 3 0.000579 -0.006340 0.050024 0.000000 0.000000 0.000000
# 4 0.000000 0.000000 0.000000 0.094521 0.000000 0.000000
# 5 0.000000 0.000000 0.000000 0.000000 0.194200 0.000000
# 6 0.000000 0.000000 0.000000 0.000000 0.000000 0.064874
#
#
# Mechanical properties :
#
#
# Convention : Reuss Voigt Hill
#
# Bulk Modulus (GPa) = 19.93984 50.53171 35.23577
# Shear Modulus (GPa) = 10.75907 18.96223 14.86065
#
# Velocity S-wave (km/s) = 2.65049 3.51872 3.11500
# Velocity P-wave (km/s) = 4.73144 7.03584 5.99540
#
# Compressibility (1/GPa) = 0.05015085
#
# Stress axis : x y z
#
# Youngs Moduli (GPa) = 78.44236 105.15734 19.99055
#
# Poissons Ratio (x) = 0.55781 -0.01157
# Poissons Ratio (y) = 0.41610 0.12674
# Poissons Ratio (z) = -0.04542 0.66667
#
# Static dielectric constant tensor:
#      x y z
#    x 3.053040 0.000000 0.000000 
#    y 0.000000 3.285400 0.000000 
#    z 0.000000 0.000000 2.560130 
# 
# 
# High freq. dielectric constant tensor:
#      x y z
#    x 1.576840 0.000000 0.000000 
#    y 0.000000 1.591200 0.000000 
#    z 0.000000 0.000000 1.526890 
# 
# From -- ./inp_files/17694.got.cif
#   From: 2010.03.12/outbox.cif.g09.slc.cpg/sg47_9_cif.got.tgz:17694.got - 2010.04.14 03:12:58.
