data_PCOD8193843
_publ_section_title
;
Structure prediction by ZEFSAII (Michael W. Deem and Ramdas Pophale) SiO2 
 PCOD8193843
Probable space group: P M M M
;
_chemical_formula_sum "Si O2"
_cell_formula_units_Z 52
_cell_length_a 10.042852
_cell_length_b 12.422506
_cell_length_c 25.804259
_cell_angle_alpha 90.000000
_cell_angle_beta 90.000000
_cell_angle_gamma 90.000000
_cell_volume 3219.271984
_symmetry_space_group_name_H-M "P M M M"
_symmetry_group_IT_number 47
_symmetry_cell_setting 'orthorhombic'
loop_
_space_group_symop_operation_xyz
x,y,z
-x,-y,z
x,-y,-z
-x,y,-z
-x,-y,-z
x,y,-z
-x,y,z
x,-y,z
loop_
_atom_site_type_symbol
_atom_site_label
_atom_site_fract_x
_atom_site_fract_y
_atom_site_fract_z
Si Si1 0.147642 0.376918 0.756366
Si Si2 0.656138 0.203870 0.274948
Si Si3 0.253071 0.875222 0.618217
Si Si4 0.653065 0.876273 0.839159
Si Si5 0.000000 0.128760 0.559459
Si Si6 0.500000 0.870978 0.442086
Si Si7 0.158160 0.500000 0.941505
Si Si8 0.153126 0.304517 0.871790
O O1 0.161470 0.500000 0.740353
O O2 0.266893 0.316800 0.727338
O O3 0.164673 0.365482 0.817653
O O4 0.000000 0.333493 0.740392
O O5 0.500000 0.222526 0.286160
O O6 0.728281 0.138695 0.320474
O O7 0.678326 0.137854 0.222149
O O8 0.374577 0.821606 0.587637
O O9 0.122457 0.823297 0.592638
O O10 0.248227 0.000000 0.605776
O O11 0.500000 0.845990 0.852375
O O12 0.752128 0.800885 0.872412
O O13 0.682939 0.000000 0.853741
O O14 0.000000 0.171605 0.500000
O O15 0.000000 0.000000 0.558561
O O16 0.500000 0.826572 0.500000
O O17 0.500000 0.000000 0.440685
O O18 0.207619 0.390106 0.913999
O O19 0.000000 0.500000 0.939034
O O20 0.213025 0.500000 0.000000
O O21 0.000000 0.269025 0.882985
#
# Coordination Sequence:
#
# PCOD8193843 Si02
#       8
#     8   8   8   8   4   4   4   8
#     4   9  17  30  47  65  90 122 150 182 226 278
#     4  10  19  29  43  66  92 120 153 188 228 272
#     4  10  18  28  42  60  88 119 146 184 224 266
#     4   9  18  31  46  65  95 133 167 195 229 281
#     4   9  18  30  42  58  83 117 153 187 224 265
#     4   9  16  26  42  60  79 113 153 181 216 267
#     4   9  16  28  51  79 103 125 155 201 254 295
#     4   9  16  29  49  72  97 124 158 198 238 283
#
# _framework density 16.152719999999999
#
# number of rings (size 3 to 8) (size 9 to 14) (size 15 to 20)
#    0.000    2.692    1.538    0.923    1.077    3.077 
#    0.000    0.385    0.000    1.385    0.000    3.231 
#    0.000    3.692    0.000    0.000    0.000    0.000 
#
# Total GULP energy -644468.351303 kJ/mol
# GULP energy per Si atom -12393.622140 kJ/mol
# Density = 1.611596 g / cm^3
# Si number density = 16.152720 Si / 1000 Ang^3
#
#
#
# Elastic Constant Matrix: (Units=GPa)
#
#
# Indices 1 2 3 4 5 6 
#
# 1 114.6666 46.7904 44.1458 0.0000 0.0000 0.0000
# 2 46.7904 69.5919 28.0309 0.0000 0.0000 0.0000
# 3 44.1458 28.0309 75.2095 0.0000 0.0000 0.0000
# 4 0.0000 0.0000 0.0000 16.8639 0.0000 0.0000
# 5 0.0000 0.0000 0.0000 0.0000 18.9303 0.0000
# 6 0.0000 0.0000 0.0000 0.0000 0.0000 21.1479
#
#
#
# Elastic Compliance Matrix: (Units=1/GPa)
#
#
# Indices 1 2 3 4 5 6 
#
# 1 0.013662 -0.007008 -0.005408 0.000000 0.000000 0.000000
# 2 -0.007008 0.020502 -0.003528 0.000000 0.000000 0.000000
# 3 -0.005408 -0.003528 0.017785 0.000000 0.000000 0.000000
# 4 0.000000 0.000000 0.000000 0.059298 0.000000 0.000000
# 5 0.000000 0.000000 0.000000 0.000000 0.052825 0.000000
# 6 0.000000 0.000000 0.000000 0.000000 0.000000 0.047286
#
#
# Mechanical properties :
#
#
# Convention : Reuss Voigt Hill
#
# Bulk Modulus (GPa) = 49.84256 55.26691 52.55473
# Shear Modulus (GPa) = 20.00531 20.75516 20.38023
#
# Velocity S-wave (km/s) = 3.52307 3.58848 3.55593
# Velocity P-wave (km/s) = 6.89009 7.17350 7.03323
#
# Compressibility (1/GPa) = 0.02006318
#
# Stress axis : x y z
#
# Youngs Moduli (GPa) = 73.19354 48.77516 56.22675
#
# Poissons Ratio (x) = 0.34181 0.30405
# Poissons Ratio (y) = 0.51293 0.19836
# Poissons Ratio (z) = 0.39580 0.17207
#
# Static dielectric constant tensor:
#      x y z
#    x 3.288820 0.000000 0.000000 
#    y 0.000000 2.772430 0.000000 
#    z 0.000000 0.000000 2.962300 
# 
# 
# High freq. dielectric constant tensor:
#      x y z
#    x 1.628020 0.000000 0.000000 
#    y 0.000000 1.583350 0.000000 
#    z 0.000000 0.000000 1.605570 
# 
# From -- ./inp_files/21844.got.cif
#   From: 2010.03.12/outbox.cif.g09.slc.cpg/sg47_11_cif.got.tgz:21844.got - 2010.04.14 03:12:58.
