data_PCOD8193292
_publ_section_title
;
Structure prediction by ZEFSAII (Michael W. Deem and Ramdas Pophale) SiO2 
 PCOD8193292
Probable space group: I M A 2
;
_chemical_formula_sum "Si O2"
_cell_formula_units_Z 48
_cell_length_a 21.328318
_cell_length_b 15.182590
_cell_length_c 7.690749
_cell_angle_alpha 90.000000
_cell_angle_beta 90.000000
_cell_angle_gamma 90.000000
_cell_volume 2490.411478
_symmetry_space_group_name_H-M "I M A 2"
_symmetry_group_IT_number 46
_symmetry_cell_setting 'orthorhombic'
loop_
_space_group_symop_operation_xyz
x,y,z
-x,-y,z
1/2-x,y,z
1/2+x,-y,z
1/2+x,1/2+y,1/2+z
1/2-x,1/2-y,1/2+z
-x,1/2+y,1/2+z
x,1/2-y,1/2+z
loop_
_atom_site_type_symbol
_atom_site_label
_atom_site_fract_x
_atom_site_fract_y
_atom_site_fract_z
Si Si1 0.571080 0.517098 0.491010
Si Si2 0.879408 0.490841 0.844158
Si Si3 0.949838 0.921085 0.636101
Si Si4 0.250000 0.717412 0.493406
Si Si5 0.119242 0.662843 0.342697
Si Si6 0.440350 0.829477 0.488673
Si Si7 0.750000 0.106193 0.346348
O O1 0.500000 0.500000 0.544053
O O2 0.607428 0.545861 0.666519
O O3 0.576370 0.589660 0.334145
O O4 0.604786 0.428804 0.429988
O O5 0.808408 0.459011 0.850833
O O6 0.893196 0.555895 0.005927
O O7 0.926321 0.406025 0.846834
O O8 0.988893 0.836562 0.567260
O O9 0.000000 0.000000 0.647126
O O10 0.189296 0.690547 0.383934
O O11 0.250000 0.824760 0.507802
O O12 0.250000 0.669874 0.678170
O O13 0.067660 0.734222 0.404801
O O14 0.112629 0.655586 0.135677
#
# Coordination Sequence:
#
# PCOD8193292 Si02
#       7
#     8   8   8   4   8   8   4
#     4  11  19  36  57  74 102 152 187 233 281 319
#     4  11  21  35  52  76 106 148 190 227 269 321
#     4   9  19  37  54  73 103 144 190 235 278 323
#     4  12  24  36  46  76 120 157 186 217 260 328
#     4  12  21  34  55  78 115 154 187 225 270 327
#     4  11  21  36  52  82 111 146 195 233 276 330
#     4  12  24  34  50  78 110 153 196 217 262 338
#
# _framework density 19.273923
#
# number of rings (size 3 to 8) (size 9 to 14) (size 15 to 20)
#    0.000    1.000    8.333    3.500    0.000    0.000 
#    0.000    0.000    0.000    0.000    0.000    0.000 
#    0.000    6.667    0.000    0.000    0.000    0.000 
#
# Total GULP energy -297501.150535 kJ/mol
# GULP energy per Si atom -12395.881272 kJ/mol
# Density = 1.923005 g / cm^3
# Si number density = 19.273923 Si / 1000 Ang^3
#
#
#
# Elastic Constant Matrix: (Units=GPa)
#
#
# Indices 1 2 3 4 5 6 
#
# 1 116.0224 31.9892 42.7424 0.0000 0.0000 0.0000
# 2 31.9892 27.0954 12.4104 0.0000 0.0000 0.0000
# 3 42.7424 12.4104 115.5738 0.0000 0.0000 0.0000
# 4 0.0000 0.0000 0.0000 19.6712 0.0000 0.0000
# 5 0.0000 0.0000 0.0000 0.0000 14.9148 0.0000
# 6 0.0000 0.0000 0.0000 0.0000 0.0000 25.7954
#
#
#
# Elastic Compliance Matrix: (Units=1/GPa)
#
#
# Indices 1 2 3 4 5 6 
#
# 1 0.014070 -0.014964 -0.003597 0.000000 0.000000 0.000000
# 2 -0.014964 0.054730 -0.000343 0.000000 0.000000 0.000000
# 3 -0.003597 -0.000343 0.010019 0.000000 0.000000 0.000000
# 4 0.000000 0.000000 0.000000 0.050836 0.000000 0.000000
# 5 0.000000 0.000000 0.000000 0.000000 0.067048 0.000000
# 6 0.000000 0.000000 0.000000 0.000000 0.000000 0.038767
#
#
# Mechanical properties :
#
#
# Convention : Reuss Voigt Hill
#
# Bulk Modulus (GPa) = 24.38264 48.10841 36.24552
# Shear Modulus (GPa) = 17.42487 23.51291 20.46889
#
# Velocity S-wave (km/s) = 3.01003 3.49654 3.26237
# Velocity P-wave (km/s) = 4.97578 6.42772 5.74778
#
# Compressibility (1/GPa) = 0.04101279
#
# Stress axis : x y z
#
# Youngs Moduli (GPa) = 71.07489 18.27153 99.80619
#
# Poissons Ratio (x) = 0.27341 0.35896
# Poissons Ratio (y) = 1.06353 0.03424
# Poissons Ratio (z) = 0.25562 0.00627
#
# Static dielectric constant tensor:
#      x y z
#    x 3.709250 0.000000 0.000000 
#    y 0.000000 3.299240 0.000000 
#    z 0.000000 0.000000 4.032800 
# 
# 
# High freq. dielectric constant tensor:
#      x y z
#    x 1.732180 0.000000 0.000000 
#    y 0.000000 1.693030 0.000000 
#    z 0.000000 0.000000 1.776670 
# 
# From -- ./inp_files/7479.got.cif
#   From: 2010.03.12/outbox.cif.g09.slc.cpg/sg46_4_cif.got.tgz:7479.got - 2010.04.14 02:56:35.
