data_PCOD8193135
_publ_section_title
;
Structure prediction by ZEFSAII (Michael W. Deem and Ramdas Pophale) SiO2 
 PCOD8193135
Probable space group: I M A 2
;
_chemical_formula_sum "Si O2"
_cell_formula_units_Z 60
_cell_length_a 8.959576
_cell_length_b 26.492800
_cell_length_c 11.941444
_cell_angle_alpha 90.000000
_cell_angle_beta 90.000000
_cell_angle_gamma 90.000000
_cell_volume 2834.471959
_symmetry_space_group_name_H-M "I M A 2"
_symmetry_group_IT_number 46
_symmetry_cell_setting 'orthorhombic'
loop_
_space_group_symop_operation_xyz
x,y,z
-x,-y,z
1/2-x,y,z
1/2+x,-y,z
1/2+x,1/2+y,1/2+z
1/2-x,1/2-y,1/2+z
-x,1/2+y,1/2+z
x,1/2-y,1/2+z
loop_
_atom_site_type_symbol
_atom_site_label
_atom_site_fract_x
_atom_site_fract_y
_atom_site_fract_z
Si Si1 0.500000 0.000000 0.742950
Si Si2 0.085781 0.711035 0.933356
Si Si3 0.571765 0.610094 0.857066
Si Si4 0.912994 0.328298 0.171691
Si Si5 0.585971 0.427580 0.064334
Si Si6 0.071665 0.948285 0.161701
Si Si7 0.421769 0.308843 0.376129
Si Si8 0.920311 0.577422 0.433950
O O1 0.607656 0.025400 0.649268
O O2 0.427852 0.042546 0.822459
O O3 0.250000 0.711239 0.873998
O O4 0.981952 0.667199 0.881517
O O5 0.012478 0.765870 0.937721
O O6 0.109618 0.704327 0.063205
O O7 0.750000 0.608796 0.848233
O O8 0.498765 0.595627 0.738001
O O9 0.519697 0.569774 0.953778
O O10 0.750000 0.333149 0.232411
O O11 0.978640 0.383008 0.140882
O O12 0.037693 0.301475 0.246272
O O13 0.750000 0.413119 0.017089
O O14 0.250000 0.949415 0.172875
O O15 0.000000 0.000000 0.206780
O O16 0.028805 0.942265 0.031076
O O17 0.250000 0.299621 0.399125
O O18 0.471745 0.365403 0.409565
O O19 0.750000 0.576006 0.477017
#
# Coordination Sequence:
#
# PCOD8193135 Si02
#       8
#     4   8   8   8   8   8   8   8
#     4  12  22  40  68  96 134 174 220 266 322 382
#     4  10  22  42  66  93 125 165 214 266 323 387
#     4  11  24  44  69  97 131 171 216 269 330 390
#     4   9  19  38  60  86 121 162 207 264 317 375
#     4  10  22  39  63  95 131 170 216 265 318 381
#     4  12  26  45  69  95 131 176 222 272 324 385
#     4  11  23  39  62  94 130 167 210 265 323 386
#     4  11  25  43  64  97 135 174 221 269 323 387
#
# _framework density 21.167964000000001
#
# number of rings (size 3 to 8) (size 9 to 14) (size 15 to 20)
#    0.000    1.333    2.000    4.400    0.933    6.400 
#    0.000    2.667    0.000    0.000    0.000    0.000 
#    0.000    0.000    0.000    0.000    0.000    0.000 
#
# Total GULP energy -371672.862509 kJ/mol
# GULP energy per Si atom -12389.095417 kJ/mol
# Density = 2.111979 g / cm^3
# Si number density = 21.167964 Si / 1000 Ang^3
#
#
#
# Elastic Constant Matrix: (Units=GPa)
#
#
# Indices 1 2 3 4 5 6 
#
# 1 140.0407 47.3988 38.6149 -0.0003 -0.0001 0.0000
# 2 47.3988 125.2515 40.1743 -0.0001 0.0000 0.0001
# 3 38.6149 40.1743 78.6084 -0.0007 0.0010 -0.0004
# 4 -0.0003 -0.0001 -0.0007 24.7985 0.0001 -0.0001
# 5 -0.0001 0.0000 0.0010 0.0001 25.7530 -0.0002
# 6 0.0000 0.0001 -0.0004 -0.0001 -0.0002 25.0472
#
#
#
# Elastic Compliance Matrix: (Units=1/GPa)
#
#
# Indices 1 2 3 4 5 6 
#
# 1 0.008790 -0.002322 -0.003131 0.000000 0.000000 0.000000
# 2 -0.002322 0.010163 -0.004053 0.000000 0.000000 0.000000
# 3 -0.003131 -0.004053 0.016331 0.000000 -0.000001 0.000000
# 4 0.000000 0.000000 0.000000 0.040325 0.000000 0.000000
# 5 0.000000 0.000000 -0.000001 0.000000 0.038830 0.000000
# 6 0.000000 0.000000 0.000000 0.000000 0.000000 0.039925
#
#
# Mechanical properties :
#
#
# Convention : Reuss Voigt Hill
#
# Bulk Modulus (GPa) = 61.45994 66.25295 63.85644
# Shear Modulus (GPa) = 27.96415 29.63392 28.79904
#
# Velocity S-wave (km/s) = 3.63858 3.74564 3.69250
# Velocity P-wave (km/s) = 6.83738 7.07623 6.95783
#
# Compressibility (1/GPa) = 0.01627076
#
# Stress axis : x y z
#
# Youngs Moduli (GPa) = 113.76386 98.39864 61.23359
#
# Poissons Ratio (x) = 0.22849 0.19174
# Poissons Ratio (y) = 0.26417 0.24819
# Poissons Ratio (z) = 0.35622 0.39883
#
# Static dielectric constant tensor:
#      x y z
#    x 3.967180 0.000000 0.000000 
#    y 0.000000 4.049590 0.000000 
#    z 0.000000 0.000000 3.767440 
# 
# 
# High freq. dielectric constant tensor:
#      x y z
#    x 1.832900 0.000000 0.000000 
#    y 0.000000 1.834670 0.000000 
#    z 0.000000 0.000000 1.825100 
# 
# From -- ./inp_files/9550.got.cif
#   From: 2010.03.12/outbox.cif.g09.slc.cpg/sg46_5_cif.got.tgz:9550.got - 2010.04.14 02:56:35.
