data_PCOD8193879
_publ_section_title
;
Structure prediction by ZEFSAII (Michael W. Deem and Ramdas Pophale) SiO2 
 PCOD8193879
Probable space group: P M M M
;
_chemical_formula_sum "Si O2"
_cell_formula_units_Z 64
_cell_length_a 18.482724
_cell_length_b 22.449146
_cell_length_c 9.710407
_cell_angle_alpha 90.000000
_cell_angle_beta 90.000000
_cell_angle_gamma 90.000000
_cell_volume 4029.055371
_symmetry_space_group_name_H-M "P M M M"
_symmetry_group_IT_number 47
_symmetry_cell_setting 'orthorhombic'
loop_
_space_group_symop_operation_xyz
x,y,z
-x,-y,z
x,-y,-z
-x,y,-z
-x,-y,-z
x,y,-z
-x,y,z
x,-y,z
loop_
_atom_site_type_symbol
_atom_site_label
_atom_site_fract_x
_atom_site_fract_y
_atom_site_fract_z
Si Si1 0.580907 0.678700 0.341995
Si Si2 0.713035 0.241248 0.657519
Si Si3 0.217470 0.566727 0.150438
Si Si4 0.080936 0.067754 0.163496
Si Si5 0.194975 0.837944 0.155705
Si Si6 0.387292 0.433206 0.842497
Si Si7 0.078816 0.264240 0.149598
Si Si8 0.161877 0.337872 0.344401
O O1 0.601026 0.662662 0.500000
O O2 0.500000 0.705861 0.331791
O O3 0.637319 0.729547 0.289174
O O4 0.580704 0.617633 0.255467
O O5 0.706008 0.218838 0.500000
O O6 0.737161 0.183842 0.749867
O O7 0.771194 0.293364 0.670274
O O8 0.187638 0.500000 0.154093
O O9 0.302212 0.567920 0.174972
O O10 0.179767 0.600246 0.274057
O O11 0.200230 0.595307 0.000000
O O12 0.149282 0.106445 0.220354
O O13 0.000000 0.087139 0.217013
O O14 0.095520 0.000000 0.209050
O O15 0.080904 0.074480 0.000000
O O16 0.137055 0.786553 0.153381
O O17 0.223495 0.851278 0.000000
O O18 0.415479 0.500000 0.802324
O O19 0.409968 0.419236 0.000000
O O20 0.091894 0.311803 0.268958
O O21 0.000000 0.235401 0.173400
O O22 0.082496 0.296076 0.000000
O O23 0.140541 0.350668 0.500000
#
# Coordination Sequence:
#
# PCOD8193879 Si02
#       8
#     8   8   8   8   8   8   8   8
#     4  10  20  33  47  62  84 115 148 181 219 267
#     4   9  18  31  43  60  85 112 143 179 220 259
#     4   9  17  29  45  63  81 103 133 168 207 255
#     4   8  13  22  39  66  99 129 155 184 214 244
#     4   9  16  26  44  67  88 116 152 184 209 242
#     4   9  18  31  46  64  86 111 139 174 216 264
#     4   9  17  28  42  61  85 112 141 173 208 248
#     4  10  18  28  44  63  82 105 134 172 215 256
#
# _framework density 15.884615999999999
#
# number of rings (size 3 to 8) (size 9 to 14) (size 15 to 20)
#    0.000    2.875    1.250    1.875    0.000    3.750 
#    0.000    2.500    0.000    1.875    0.000    3.500 
#    0.000    0.500    0.000    6.250    0.000    0.000 
#
# Total GULP energy -792881.510581 kJ/mol
# GULP energy per Si atom -12388.773603 kJ/mol
# Density = 1.584846 g / cm^3
# Si number density = 15.884616 Si / 1000 Ang^3
#
#
#
# Elastic Constant Matrix: (Units=GPa)
#
#
# Indices 1 2 3 4 5 6 
#
# 1 66.1154 35.3976 31.8245 0.0000 0.0000 0.0000
# 2 35.3976 67.0278 35.5704 0.0000 0.0000 0.0000
# 3 31.8245 35.5704 75.9962 0.0000 0.0000 0.0000
# 4 0.0000 0.0000 0.0000 13.4040 0.0000 0.0000
# 5 0.0000 0.0000 0.0000 0.0000 13.7657 0.0000
# 6 0.0000 0.0000 0.0000 0.0000 0.0000 24.8593
#
#
#
# Elastic Compliance Matrix: (Units=1/GPa)
#
#
# Indices 1 2 3 4 5 6 
#
# 1 0.022500 -0.009156 -0.005136 0.000000 0.000000 0.000000
# 2 -0.009156 0.023576 -0.007200 0.000000 0.000000 0.000000
# 3 -0.005136 -0.007200 0.018680 0.000000 0.000000 0.000000
# 4 0.000000 0.000000 0.000000 0.074605 0.000000 0.000000
# 5 0.000000 0.000000 0.000000 0.000000 0.072645 0.000000
# 6 0.000000 0.000000 0.000000 0.000000 0.000000 0.040226
#
#
# Mechanical properties :
#
#
# Convention : Reuss Voigt Hill
#
# Bulk Modulus (GPa) = 45.93723 46.08050 46.00887
# Shear Modulus (GPa) = 16.53037 17.49558 17.01298
#
# Velocity S-wave (km/s) = 3.22942 3.32236 3.27622
# Velocity P-wave (km/s) = 6.54886 6.61740 6.58322
#
# Compressibility (1/GPa) = 0.02176883
#
# Stress axis : x y z
#
# Youngs Moduli (GPa) = 44.44505 42.41638 53.53408
#
# Poissons Ratio (x) = 0.38838 0.27497
# Poissons Ratio (y) = 0.40696 0.38547
# Poissons Ratio (z) = 0.22829 0.30542
#
# Static dielectric constant tensor:
#      x y z
#    x 3.082050 0.000000 0.000000 
#    y 0.000000 3.140840 0.000000 
#    z 0.000000 0.000000 3.141110 
# 
# 
# High freq. dielectric constant tensor:
#      x y z
#    x 1.594420 0.000000 0.000000 
#    y 0.000000 1.581620 0.000000 
#    z 0.000000 0.000000 1.600620 
# 
# From -- ./inp_files/10147.got.cif
#   From: 2010.03.12/outbox.cif.g09.slc.cpg/sg47_6_cif.got.tgz:10147.got - 2010.04.14 03:12:58.
