data_PCOD8193727
_publ_section_title
;
Structure prediction by ZEFSAII (Michael W. Deem and Ramdas Pophale) SiO2 
 PCOD8193727
Probable space group: P M M M
;
_chemical_formula_sum "Si O2"
_cell_formula_units_Z 56
_cell_length_a 15.306106
_cell_length_b 13.694011
_cell_length_c 18.899115
_cell_angle_alpha 90.000000
_cell_angle_beta 90.000000
_cell_angle_gamma 90.000000
_cell_volume 3961.291999
_symmetry_space_group_name_H-M "P M M M"
_symmetry_group_IT_number 47
_symmetry_cell_setting 'orthorhombic'
loop_
_space_group_symop_operation_xyz
x,y,z
-x,-y,z
x,-y,-z
-x,y,-z
-x,-y,-z
x,y,-z
-x,y,z
x,-y,z
loop_
_atom_site_type_symbol
_atom_site_label
_atom_site_fract_x
_atom_site_fract_y
_atom_site_fract_z
Si Si1 0.099970 0.387500 0.306599
Si Si2 0.254174 0.613817 0.921934
Si Si3 0.761565 0.616122 0.578791
Si Si4 0.402824 0.383910 0.820911
Si Si5 0.101634 0.297725 0.842500
Si Si6 0.403533 0.616177 0.662246
Si Si7 0.896655 0.107361 0.920824
O O1 0.122103 0.500000 0.286128
O O2 0.158879 0.349879 0.371388
O O3 0.119600 0.318097 0.239916
O O4 0.000000 0.378196 0.331097
O O5 0.271859 0.500000 0.927816
O O6 0.330145 0.661860 0.873191
O O7 0.158459 0.628591 0.889110
O O8 0.258954 0.661465 0.000000
O O9 0.775479 0.659062 0.500000
O O10 0.758680 0.500000 0.575812
O O11 0.670235 0.657844 0.609609
O O12 0.500000 0.351402 0.845554
O O13 0.396312 0.500000 0.820822
O O14 0.384283 0.345353 0.741536
O O15 0.132613 0.187945 0.863121
O O16 0.000000 0.316185 0.860950
O O17 0.500000 0.651303 0.637215
O O18 0.400392 0.500000 0.662540
O O19 0.000000 0.102776 0.922413
O O20 0.859981 0.000000 0.899031
O O21 0.863034 0.135093 0.000000
#
# Coordination Sequence:
#
# PCOD8193727 Si02
#       7
#     8   8   8   8   8   8   8
#     4   9  17  27  37  49  67  95 129 157 178 205
#     4  10  19  26  33  49  72  98 128 158 183 210
#     4   9  16  24  34  48  67  92 120 151 184 212
#     4   8  14  25  38  48  62  90 126 160 189 212
#     4  10  18  27  39  53  72  98 124 150 183 221
#     4   8  13  21  33  47  61  80 110 147 184 219
#     4   8  14  25  40  56  73  93 117 147 185 225
#
# _framework density 14.136803
#
# number of rings (size 3 to 8) (size 9 to 14) (size 15 to 20)
#    0.000    3.143    0.000    3.000    0.000    4.857 
#    0.000    5.000    0.000    0.000    0.000    0.000 
#    0.000    1.143    0.000    8.571    0.000    1.000 
#
# Total GULP energy -693925.630359 kJ/mol
# GULP energy per Si atom -12391.529114 kJ/mol
# Density = 1.410463 g / cm^3
# Si number density = 14.136803 Si / 1000 Ang^3
#
#
#
# Elastic Constant Matrix: (Units=GPa)
#
#
# Indices 1 2 3 4 5 6 
#
# 1 86.3127 18.2526 67.0124 0.0000 0.0000 0.0000
# 2 18.2526 26.6769 26.3808 0.0000 0.0000 0.0000
# 3 67.0124 26.3808 120.3179 0.0000 0.0000 0.0000
# 4 0.0000 0.0000 0.0000 9.2208 0.0000 0.0000
# 5 0.0000 0.0000 0.0000 0.0000 20.1698 0.0000
# 6 0.0000 0.0000 0.0000 0.0000 0.0000 3.4883
#
#
#
# Elastic Compliance Matrix: (Units=1/GPa)
#
#
# Indices 1 2 3 4 5 6 
#
# 1 0.020668 -0.003521 -0.010739 0.000000 0.000000 0.000000
# 2 -0.003521 0.048464 -0.008665 0.000000 0.000000 0.000000
# 3 -0.010739 -0.008665 0.016193 0.000000 0.000000 0.000000
# 4 0.000000 0.000000 0.000000 0.108450 0.000000 0.000000
# 5 0.000000 0.000000 0.000000 0.000000 0.049579 0.000000
# 6 0.000000 0.000000 0.000000 0.000000 0.000000 0.286670
#
#
# Mechanical properties :
#
#
# Convention : Reuss Voigt Hill
#
# Bulk Modulus (GPa) = 25.33351 50.73323 38.03337
# Shear Modulus (GPa) = 8.48849 14.68658 11.58753
#
# Velocity S-wave (km/s) = 2.45307 3.22668 2.86610
# Velocity P-wave (km/s) = 5.09731 7.06025 6.15751
#
# Compressibility (1/GPa) = 0.03947341
#
# Stress axis : x y z
#
# Youngs Moduli (GPa) = 48.38292 20.63408 61.75652
#
# Poissons Ratio (x) = 0.07266 0.66323
# Poissons Ratio (y) = 0.17037 0.53511
# Poissons Ratio (z) = 0.51961 0.17879
#
# Static dielectric constant tensor:
#      x y z
#    x 2.902110 0.000000 0.000000 
#    y 0.000000 2.417470 0.000000 
#    z 0.000000 0.000000 3.000420 
# 
# 
# High freq. dielectric constant tensor:
#      x y z
#    x 1.542080 0.000000 0.000000 
#    y 0.000000 1.463050 0.000000 
#    z 0.000000 0.000000 1.542370 
# 
# From -- ./inp_files/23984.got.cif
#   From: 2010.03.12/outbox.cif.g09.slc.cpg/sg47_12_cif.got.tgz:23984.got - 2010.04.14 03:12:58.
