data_PCOD8193583
_publ_section_title
;
Structure prediction by ZEFSAII (Michael W. Deem and Ramdas Pophale) SiO2 
 PCOD8193583
Probable space group: P M M M
;
_chemical_formula_sum "Si O2"
_cell_formula_units_Z 52
_cell_length_a 16.472150
_cell_length_b 13.312202
_cell_length_c 15.361675
_cell_angle_alpha 90.000000
_cell_angle_beta 90.000000
_cell_angle_gamma 90.000000
_cell_volume 3368.517129
_symmetry_space_group_name_H-M "P M M M"
_symmetry_group_IT_number 47
_symmetry_cell_setting 'orthorhombic'
loop_
_space_group_symop_operation_xyz
x,y,z
-x,-y,z
x,-y,-z
-x,y,-z
-x,-y,-z
x,y,-z
-x,y,z
x,-y,z
loop_
_atom_site_type_symbol
_atom_site_label
_atom_site_fract_x
_atom_site_fract_y
_atom_site_fract_z
Si Si1 0.408448 0.759908 0.598522
Si Si2 0.164126 0.703079 0.667611
Si Si3 0.745891 0.886029 0.399163
Si Si4 0.258534 0.381774 0.094326
Si Si5 0.909683 0.383774 0.829194
Si Si6 0.325635 0.615739 0.725754
Si Si7 0.905674 0.610159 0.500000
O O1 0.395910 0.716219 0.500000
O O2 0.500000 0.800024 0.609986
O O3 0.347486 0.852290 0.613852
O O4 0.393808 0.674623 0.671490
O O5 0.195632 0.817822 0.660577
O O6 0.101591 0.689400 0.746673
O O7 0.239765 0.627275 0.677572
O O8 0.118060 0.675799 0.581393
O O9 0.771065 0.875503 0.500000
O O10 0.754381 0.000000 0.366550
O O11 0.270843 0.500000 0.094665
O O12 0.162122 0.357600 0.103290
O O13 0.312506 0.339875 0.175202
O O14 0.286669 0.337517 0.000000
O O15 0.902024 0.500000 0.798874
O O16 0.000000 0.364458 0.869087
O O17 0.352016 0.500000 0.728225
O O18 0.863452 0.500000 0.500000
O O19 0.000000 0.593262 0.500000
#
# Coordination Sequence:
#
# PCOD8193583 Si02
#       7
#     8   8   8   8   8   8   4
#     4   9  18  30  43  64  89 110 137 170 207 252
#     4  10  17  28  39  56  80 109 144 181 208 244
#     4   9  17  30  46  60  76 105 143 181 218 252
#     4   8  14  25  40  58  81 112 150 182 206 239
#     4   9  16  25  38  58  85 113 139 172 216 256
#     4   9  17  27  41  60  85 118 145 170 206 245
#     4  11  20  26  37  57  80 111 147 177 205 237
#
# _framework density 15.437060000000001
#
# number of rings (size 3 to 8) (size 9 to 14) (size 15 to 20)
#    0.000    2.846    0.769    2.769    1.077    2.462 
#    0.000    3.846    0.000    2.769    0.000    2.154 
#    0.000   49.846    0.000   24.923    0.000    1.846 
#
# Total GULP energy -644298.268643 kJ/mol
# GULP energy per Si atom -12390.351320 kJ/mol
# Density = 1.540192 g / cm^3
# Si number density = 15.437060 Si / 1000 Ang^3
#
#
#
# Elastic Constant Matrix: (Units=GPa)
#
#
# Indices 1 2 3 4 5 6 
#
# 1 46.1547 19.8224 21.1012 0.0000 0.0000 0.0000
# 2 19.8224 70.6721 28.0073 0.0000 0.0000 0.0000
# 3 21.1012 28.0073 89.6084 0.0000 0.0000 0.0000
# 4 0.0000 0.0000 0.0000 6.4148 0.0000 0.0000
# 5 0.0000 0.0000 0.0000 0.0000 10.0826 0.0000
# 6 0.0000 0.0000 0.0000 0.0000 0.0000 13.4832
#
#
#
# Elastic Compliance Matrix: (Units=1/GPa)
#
#
# Indices 1 2 3 4 5 6 
#
# 1 0.026069 -0.005569 -0.004398 0.000000 0.000000 0.000000
# 2 -0.005569 0.017340 -0.004108 0.000000 0.000000 0.000000
# 3 -0.004398 -0.004108 0.013479 0.000000 0.000000 0.000000
# 4 0.000000 0.000000 0.000000 0.155888 0.000000 0.000000
# 5 0.000000 0.000000 0.000000 0.000000 0.099180 0.000000
# 6 0.000000 0.000000 0.000000 0.000000 0.000000 0.074167
#
#
# Mechanical properties :
#
#
# Convention : Reuss Voigt Hill
#
# Bulk Modulus (GPa) = 34.79776 38.25521 36.52648
# Shear Modulus (GPa) = 11.79653 15.16307 13.47980
#
# Velocity S-wave (km/s) = 2.76736 3.13749 2.95822
# Velocity P-wave (km/s) = 5.72728 6.16120 5.94819
#
# Compressibility (1/GPa) = 0.02873749
#
# Stress axis : x y z
#
# Youngs Moduli (GPa) = 38.36007 57.67034 74.18718
#
# Poissons Ratio (x) = 0.32116 0.32629
# Poissons Ratio (y) = 0.21362 0.30478
# Poissons Ratio (z) = 0.16871 0.23692
#
# Static dielectric constant tensor:
#      x y z
#    x 2.892040 0.000000 0.000000 
#    y 0.000000 2.676940 0.000000 
#    z 0.000000 0.000000 3.143940 
# 
# 
# High freq. dielectric constant tensor:
#      x y z
#    x 1.583650 0.000000 0.000000 
#    y 0.000000 1.548650 0.000000 
#    z 0.000000 0.000000 1.584670 
# 
# From -- ./inp_files/24596.got.cif
#   From: 2010.03.12/outbox.cif.g09.slc.cpg/sg47_13_cif.got.tgz:24596.got - 2010.04.14 03:12:58.
