data_PCOD8193076
_publ_section_title
;
Structure prediction by ZEFSAII (Michael W. Deem and Ramdas Pophale) SiO2 
 PCOD8193076
Probable space group: I M A 2
;
_chemical_formula_sum "Si O2"
_cell_formula_units_Z 64
_cell_length_a 8.396537
_cell_length_b 24.852048
_cell_length_c 15.112428
_cell_angle_alpha 90.000000
_cell_angle_beta 90.000000
_cell_angle_gamma 90.000000
_cell_volume 3153.527587
_symmetry_space_group_name_H-M "I M A 2"
_symmetry_group_IT_number 46
_symmetry_cell_setting 'orthorhombic'
loop_
_space_group_symop_operation_xyz
x,y,z
-x,-y,z
1/2-x,y,z
1/2+x,-y,z
1/2+x,1/2+y,1/2+z
1/2-x,1/2-y,1/2+z
-x,1/2+y,1/2+z
x,1/2-y,1/2+z
loop_
_atom_site_type_symbol
_atom_site_label
_atom_site_fract_x
_atom_site_fract_y
_atom_site_fract_z
Si Si1 0.566731 0.101153 0.794150
Si Si2 0.063276 0.847841 0.501994
Si Si3 0.434401 0.441726 0.119331
Si Si4 0.434518 0.782548 0.846719
Si Si5 0.564970 0.134973 0.120913
Si Si6 0.936839 0.334626 0.806674
Si Si7 0.064986 0.441822 0.475898
Si Si8 0.567253 0.765598 0.033272
O O1 0.750000 0.088549 0.772041
O O2 0.459345 0.070505 0.722934
O O3 0.531499 0.165004 0.787112
O O4 0.530208 0.080355 0.891964
O O5 0.250000 0.836062 0.498901
O O6 0.996160 0.855460 0.401331
O O7 0.029532 0.900141 0.559008
O O8 0.980517 0.796500 0.546910
O O9 0.500000 0.500000 0.095275
O O10 0.250000 0.438403 0.095854
O O11 0.250000 0.781600 0.877571
O O12 0.479086 0.728658 0.792891
O O13 0.544328 0.785079 0.932808
O O14 0.750000 0.118880 0.112238
O O15 0.499886 0.131037 0.222708
O O16 0.459989 0.096204 0.060350
O O17 0.543311 0.197138 0.094009
O O18 0.750000 0.342062 0.806295
O O19 0.250000 0.444339 0.451957
O O20 0.000000 0.500000 0.501972
O O21 0.750000 0.773505 0.060412
#
# Coordination Sequence:
#
# PCOD8193076 Si02
#       8
#     8   8   8   8   8   8   8   8
#     4  11  22  38  63  92 124 164 205 248 304 367
#     4  10  21  42  66  89 119 160 207 258 312 367
#     4  12  26  44  64  91 123 159 207 258 310 370
#     4   9  18  35  58  86 120 162 204 241 296 364
#     4  11  21  37  61  90 123 162 205 252 306 366
#     4   8  18  36  61  90 120 157 202 250 300 361
#     4  12  25  42  62  87 122 162 207 256 307 366
#     4  11  21  34  55  89 126 162 201 248 304 361
#
# _framework density 20.294733000000001
#
# number of rings (size 3 to 8) (size 9 to 14) (size 15 to 20)
#    0.000    1.500    1.250    5.625    1.750    0.500 
#    0.000    6.875    0.000    0.000    0.000    0.000 
#    0.000    0.000    0.000    0.000    0.000    0.000 
#
# Total GULP energy -396821.305037 kJ/mol
# GULP energy per Si atom -12400.665782 kJ/mol
# Density = 2.024854 g / cm^3
# Si number density = 20.294733 Si / 1000 Ang^3
#
#
#
# Elastic Constant Matrix: (Units=GPa)
#
#
# Indices 1 2 3 4 5 6 
#
# 1 61.4796 9.4593 -0.0718 0.0000 0.0001 0.0000
# 2 9.4593 104.2781 42.1700 0.0001 0.0001 0.0000
# 3 -0.0718 42.1700 92.8811 0.0003 0.0003 0.0001
# 4 0.0000 0.0001 0.0003 21.5335 0.0001 0.0000
# 5 0.0001 0.0001 0.0003 0.0001 22.4248 0.0000
# 6 0.0000 0.0000 0.0001 0.0000 0.0000 29.6780
#
#
#
# Elastic Compliance Matrix: (Units=1/GPa)
#
#
# Indices 1 2 3 4 5 6 
#
# 1 0.016550 -0.001845 0.000851 0.000000 0.000000 0.000000
# 2 -0.001845 0.011952 -0.005428 0.000000 0.000000 0.000000
# 3 0.000851 -0.005428 0.013232 0.000000 0.000000 0.000000
# 4 0.000000 0.000000 0.000000 0.046439 0.000000 0.000000
# 5 0.000000 0.000000 0.000000 0.000000 0.044594 0.000000
# 6 0.000000 0.000000 0.000000 0.000000 0.000000 0.033695
#
#
# Mechanical properties :
#
#
# Convention : Reuss Voigt Hill
#
# Bulk Modulus (GPa) = 34.61545 40.19486 37.40516
# Shear Modulus (GPa) = 26.46384 28.53267 27.49825
#
# Velocity S-wave (km/s) = 3.61498 3.75362 3.68495
# Velocity P-wave (km/s) = 5.87516 6.21569 6.04782
#
# Compressibility (1/GPa) = 0.02888884
#
# Stress axis : x y z
#
# Youngs Moduli (GPa) = 60.42119 83.66660 75.57704
#
# Poissons Ratio (x) = 0.15439 -0.06429
# Poissons Ratio (y) = 0.11150 0.41023
# Poissons Ratio (z) = -0.05139 0.45414
#
# Static dielectric constant tensor:
#      x y z
#    x 3.521580 0.000000 0.000000 
#    y 0.000000 3.740820 0.000000 
#    z 0.000000 0.000000 3.853220 
# 
# 
# High freq. dielectric constant tensor:
#      x y z
#    x 1.785900 0.000000 0.000000 
#    y 0.000000 1.788420 0.000000 
#    z 0.000000 0.000000 1.790480 
# 
# From -- ./inp_files/14557.got.cif
#   From: 2010.03.12/outbox.cif.g09.slc.cpg/sg46_8_cif.got.tgz:14557.got - 2010.04.14 02:56:35.
