data_PCOD8193476
_publ_section_title
;
Structure prediction by ZEFSAII (Michael W. Deem and Ramdas Pophale) SiO2 
 PCOD8193476
Probable space group: P M M M
;
_chemical_formula_sum "Si O2"
_cell_formula_units_Z 56
_cell_length_a 21.649541
_cell_length_b 9.119141
_cell_length_c 18.338389
_cell_angle_alpha 90.000000
_cell_angle_beta 90.000000
_cell_angle_gamma 90.000000
_cell_volume 3620.460427
_symmetry_space_group_name_H-M "P M M M"
_symmetry_group_IT_number 47
_symmetry_cell_setting 'orthorhombic'
loop_
_space_group_symop_operation_xyz
x,y,z
-x,-y,z
x,-y,-z
-x,y,-z
-x,-y,-z
x,y,-z
-x,y,z
x,-y,z
loop_
_atom_site_type_symbol
_atom_site_label
_atom_site_fract_x
_atom_site_fract_y
_atom_site_fract_z
Si Si1 0.710178 0.671004 0.416313
Si Si2 0.244039 0.334793 0.202503
Si Si3 0.184593 0.825459 0.670989
Si Si4 0.629207 0.338437 0.290124
Si Si5 0.313063 0.173174 0.083822
Si Si6 0.568073 0.172448 0.829826
Si Si7 0.931564 0.826064 0.418676
O O1 0.697999 0.709013 0.500000
O O2 0.728093 0.500000 0.404332
O O3 0.764685 0.772746 0.386906
O O4 0.646032 0.706293 0.373234
O O5 0.220870 0.500000 0.186524
O O6 0.192762 0.247825 0.249418
O O7 0.306121 0.335759 0.248441
O O8 0.257188 0.252205 0.126242
O O9 0.118516 0.771335 0.639975
O O10 0.189281 0.000000 0.679367
O O11 0.599442 0.500000 0.286841
O O12 0.581480 0.228693 0.252120
O O13 0.380015 0.228283 0.113445
O O14 0.306159 0.000000 0.094998
O O15 0.308612 0.219390 0.000000
O O16 0.500000 0.227126 0.855090
O O17 0.569391 0.000000 0.825566
O O18 0.915945 0.765667 0.500000
O O19 0.000000 0.771518 0.394952
O O20 0.930152 0.000000 0.421633
#
# Coordination Sequence:
#
# PCOD8193476 Si02
#       7
#     8   8   8   8   8   8   8
#     4   9  17  28  41  58  81 106 132 169 217 259
#     4   9  17  29  43  59  82 111 139 168 205 246
#     4  10  17  25  41  63  84 108 143 180 208 240
#     4   8  15  27  41  56  74 100 133 167 203 242
#     4   9  17  29  45  65  88 110 132 163 201 240
#     4   9  17  28  42  60  81 106 134 162 196 239
#     4   8  14  24  37  56  85 118 148 178 211 243
#
# _framework density 15.467646
#
# number of rings (size 3 to 8) (size 9 to 14) (size 15 to 20)
#    0.000    3.143    0.000    2.571    0.000    5.143 
#    0.000    1.429    0.000    2.143    0.000   12.000 
#    0.000    0.571    0.000    6.571    0.000    1.857 
#
# Total GULP energy -694000.049187 kJ/mol
# GULP energy per Si atom -12392.858021 kJ/mol
# Density = 1.543244 g / cm^3
# Si number density = 15.467646 Si / 1000 Ang^3
#
#
#
# Elastic Constant Matrix: (Units=GPa)
#
#
# Indices 1 2 3 4 5 6 
#
# 1 70.8253 29.0785 57.5559 0.0000 0.0000 0.0000
# 2 29.0785 43.8189 37.5282 0.0000 0.0000 0.0000
# 3 57.5559 37.5282 123.4491 0.0000 0.0000 0.0000
# 4 0.0000 0.0000 0.0000 21.4380 0.0000 0.0000
# 5 0.0000 0.0000 0.0000 0.0000 20.4831 0.0000
# 6 0.0000 0.0000 0.0000 0.0000 0.0000 9.8897
#
#
#
# Elastic Compliance Matrix: (Units=1/GPa)
#
#
# Indices 1 2 3 4 5 6 
#
# 1 0.025093 -0.008967 -0.008973 0.000000 0.000000 0.000000
# 2 -0.008967 0.034058 -0.006173 0.000000 0.000000 0.000000
# 3 -0.008973 -0.006173 0.014161 0.000000 0.000000 0.000000
# 4 0.000000 0.000000 0.000000 0.046646 0.000000 0.000000
# 5 0.000000 0.000000 0.000000 0.000000 0.048821 0.000000
# 6 0.000000 0.000000 0.000000 0.000000 0.000000 0.101115
#
#
# Mechanical properties :
#
#
# Convention : Reuss Voigt Hill
#
# Bulk Modulus (GPa) = 39.86309 54.04650 46.95479
# Shear Modulus (GPa) = 15.31480 17.95754 16.63617
#
# Velocity S-wave (km/s) = 3.15003 3.41100 3.28311
# Velocity P-wave (km/s) = 6.24965 7.10850 6.69286
#
# Compressibility (1/GPa) = 0.02508586
#
# Stress axis : x y z
#
# Youngs Moduli (GPa) = 39.85227 29.36132 70.61805
#
# Poissons Ratio (x) = 0.26327 0.63367
# Poissons Ratio (y) = 0.35734 0.43593
# Poissons Ratio (z) = 0.35760 0.18125
#
# Static dielectric constant tensor:
#      x y z
#    x 2.987110 0.000000 0.000000 
#    y 0.000000 2.919790 0.000000 
#    z 0.000000 0.000000 3.090970 
# 
# 
# High freq. dielectric constant tensor:
#      x y z
#    x 1.561720 0.000000 0.000000 
#    y 0.000000 1.585800 0.000000 
#    z 0.000000 0.000000 1.583980 
# 
# From -- ./inp_files/9826.got.cif
#   From: 2010.03.12/outbox.cif.g09.slc.cpg/sg47_5_cif.got.tgz:9826.got - 2010.04.14 03:12:58.
