data_PCOD8193681
_publ_section_title
;
Structure prediction by ZEFSAII (Michael W. Deem and Ramdas Pophale) SiO2 
 PCOD8193681
Probable space group: P M M M
;
_chemical_formula_sum "Si O2"
_cell_formula_units_Z 52
_cell_length_a 14.580255
_cell_length_b 8.931065
_cell_length_c 24.385502
_cell_angle_alpha 90.000000
_cell_angle_beta 90.000000
_cell_angle_gamma 90.000000
_cell_volume 3175.411916
_symmetry_space_group_name_H-M "P M M M"
_symmetry_group_IT_number 47
_symmetry_cell_setting 'orthorhombic'
loop_
_space_group_symop_operation_xyz
x,y,z
-x,-y,z
x,-y,-z
-x,y,-z
-x,-y,-z
x,y,-z
-x,y,z
x,-y,z
loop_
_atom_site_type_symbol
_atom_site_label
_atom_site_fract_x
_atom_site_fract_y
_atom_site_fract_z
Si Si1 0.161462 0.674681 0.500000
Si Si2 0.605439 0.177112 0.780418
Si Si3 0.271124 0.673311 0.689032
Si Si4 0.600298 0.166134 0.383038
Si Si5 0.390446 0.168812 0.000000
Si Si6 0.897428 0.322885 0.618575
Si Si7 0.655921 0.164911 0.500000
Si Si8 0.391498 0.332575 0.892370
O O1 0.140069 0.500000 0.500000
O O2 0.120802 0.744044 0.557099
O O3 0.268817 0.705794 0.500000
O O4 0.500000 0.229219 0.766455
O O5 0.682572 0.232460 0.737802
O O6 0.637355 0.240947 0.838752
O O7 0.609079 0.000000 0.783115
O O8 0.267864 0.500000 0.706211
O O9 0.336336 0.699053 0.636996
O O10 0.171725 0.733048 0.667113
O O11 0.500000 0.184170 0.356434
O O12 0.590577 0.181634 0.447977
O O13 0.638600 0.000000 0.366625
O O14 0.351109 0.251663 0.946196
O O15 0.500000 0.169683 0.000000
O O16 0.352926 0.000000 0.000000
O O17 0.884424 0.500000 0.614569
O O18 0.000000 0.277021 0.636674
O O19 0.703937 0.000000 0.500000
O O20 0.500000 0.339177 0.897533
O O21 0.350591 0.500000 0.888645
#
# Coordination Sequence:
#
# PCOD8193681 Si02
#       8
#     4   8   8   8   4   8   4   8
#     4  10  17  31  53  72  88 108 137 173 219 274
#     4  10  20  33  47  63  88 124 160 190 225 271
#     4  11  21  32  48  68  88 110 143 186 225 263
#     4  10  20  33  47  62  84 116 147 173 210 262
#     4   9  15  23  37  59  89 125 162 197 234 273
#     4   9  18  32  51  72  90 110 138 175 223 279
#     4  10  19  31  47  64  86 112 139 173 213 258
#     4   9  16  26  41  62  88 119 159 203 237 262
#
# _framework density 16.375829
#
# number of rings (size 3 to 8) (size 9 to 14) (size 15 to 20)
#    0.000    2.231    1.538    2.538    0.000    7.692 
#    0.000    0.000    0.000    6.000    0.000    0.000 
#    0.000    0.000    0.000    0.692    0.000   14.385 
#
# Total GULP energy -644243.291126 kJ/mol
# GULP energy per Si atom -12389.294060 kJ/mol
# Density = 1.633856 g / cm^3
# Si number density = 16.375829 Si / 1000 Ang^3
#
#
#
# Elastic Constant Matrix: (Units=GPa)
#
#
# Indices 1 2 3 4 5 6 
#
# 1 82.3450 22.5351 41.8294 0.0000 0.0000 0.0000
# 2 22.5351 60.4174 40.8281 0.0000 0.0000 0.0000
# 3 41.8294 40.8281 125.8300 0.0000 0.0000 0.0000
# 4 0.0000 0.0000 0.0000 28.7007 0.0000 0.0000
# 5 0.0000 0.0000 0.0000 0.0000 5.5130 0.0000
# 6 0.0000 0.0000 0.0000 0.0000 0.0000 11.9483
#
#
#
# Elastic Compliance Matrix: (Units=1/GPa)
#
#
# Indices 1 2 3 4 5 6 
#
# 1 0.014984 -0.002847 -0.004057 0.000000 0.000000 0.000000
# 2 -0.002847 0.021741 -0.006108 0.000000 0.000000 0.000000
# 3 -0.004057 -0.006108 0.011278 0.000000 0.000000 0.000000
# 4 0.000000 0.000000 0.000000 0.034842 0.000000 0.000000
# 5 0.000000 0.000000 0.000000 0.000000 0.181388 0.000000
# 6 0.000000 0.000000 0.000000 0.000000 0.000000 0.083694
#
#
# Mechanical properties :
#
#
# Convention : Reuss Voigt Hill
#
# Bulk Modulus (GPa) = 45.49932 53.21974 49.35953
# Shear Modulus (GPa) = 13.11377 20.12573 16.61975
#
# Velocity S-wave (km/s) = 2.83291 3.50950 3.18920
# Velocity P-wave (km/s) = 6.20848 6.99940 6.61577
#
# Compressibility (1/GPa) = 0.02197835
#
# Stress axis : x y z
#
# Youngs Moduli (GPa) = 66.73673 45.99612 88.66960
#
# Poissons Ratio (x) = 0.13096 0.35977
# Poissons Ratio (y) = 0.19001 0.54158
# Poissons Ratio (z) = 0.27078 0.28094
#
# Static dielectric constant tensor:
#      x y z
#    x 2.823150 0.000000 0.000000 
#    y 0.000000 3.078820 0.000000 
#    z 0.000000 0.000000 3.214860 
# 
# 
# High freq. dielectric constant tensor:
#      x y z
#    x 1.580960 0.000000 0.000000 
#    y 0.000000 1.623890 0.000000 
#    z 0.000000 0.000000 1.628930 
# 
# From -- ./inp_files/32697.got.cif
#   From: 2010.03.12/outbox.cif.g09.slc.cpg/sg47_17_cif.got.tgz:32697.got - 2010.04.14 03:12:58.
