data_PCOD8193312
_publ_section_title
;
Structure prediction by ZEFSAII (Michael W. Deem and Ramdas Pophale) SiO2 
 PCOD8193312
Probable space group: I M A 2
;
_chemical_formula_sum "Si O2"
_cell_formula_units_Z 64
_cell_length_a 8.366082
_cell_length_b 23.047385
_cell_length_c 18.962319
_cell_angle_alpha 90.000000
_cell_angle_beta 90.000000
_cell_angle_gamma 90.000000
_cell_volume 3656.244432
_symmetry_space_group_name_H-M "I M A 2"
_symmetry_group_IT_number 46
_symmetry_cell_setting 'orthorhombic'
loop_
_space_group_symop_operation_xyz
x,y,z
-x,-y,z
1/2-x,y,z
1/2+x,-y,z
1/2+x,1/2+y,1/2+z
1/2-x,1/2-y,1/2+z
-x,1/2+y,1/2+z
x,1/2-y,1/2+z
loop_
_atom_site_type_symbol
_atom_site_label
_atom_site_fract_x
_atom_site_fract_y
_atom_site_fract_z
Si Si1 0.936099 0.159697 0.976930
Si Si2 0.935277 0.564345 0.847523
Si Si3 0.562086 0.252873 0.204808
Si Si4 0.562814 0.728669 0.352178
Si Si5 0.435223 0.881167 0.209257
Si Si6 0.934967 0.165326 0.434570
Si Si7 0.936144 0.937073 0.069947
Si Si8 0.564621 0.767876 0.557499
O O1 0.750000 0.144471 0.975710
O O2 0.996146 0.175694 0.898734
O O3 0.033762 0.103898 0.002777
O O4 0.964087 0.213231 0.029691
O O5 0.750000 0.565708 0.865744
O O6 0.000000 0.500000 0.852009
O O7 0.960346 0.589195 0.769500
O O8 0.027174 0.601569 0.906333
O O9 0.750000 0.261784 0.211110
O O10 0.476850 0.283743 0.270864
O O11 0.512952 0.185472 0.201171
O O12 0.495734 0.284522 0.135220
O O13 0.750000 0.735227 0.365535
O O14 0.478055 0.788763 0.373499
O O15 0.250000 0.886677 0.230372
O O16 0.465079 0.913727 0.136330
O O17 0.750000 0.171039 0.453287
O O18 0.034992 0.177760 0.505678
O O19 0.750000 0.938778 0.089003
O O20 0.000000 0.000000 0.049296
O O21 0.750000 0.751116 0.558312
#
# Coordination Sequence:
#
# PCOD8193312 Si02
#       8
#     8   8   8   8   8   8   8   8
#     4  11  21  36  54  76 105 139 177 220 267 315
#     4  12  24  38  55  76 105 142 184 224 265 313
#     4  11  21  34  54  79 109 144 178 216 267 320
#     4  11  21  34  54  79 106 138 176 219 267 318
#     4  11  22  36  53  75 107 144 183 221 262 311
#     4  11  21  36  54  76 105 139 177 220 267 315
#     4  12  24  38  55  76 105 142 184 224 265 313
#     4  11  21  34  54  79 106 138 176 219 267 318
#
# _framework density 17.504301000000002
#
# number of rings (size 3 to 8) (size 9 to 14) (size 15 to 20)
#    0.000    0.750    2.500    9.375    0.000    1.000 
#    0.000    0.000    0.000    0.000    0.000    0.875 
#    0.000    0.000    0.000    0.000    0.000    0.000 
#
# Total GULP energy -397031.029677 kJ/mol
# GULP energy per Si atom -12407.219677 kJ/mol
# Density = 1.746446 g / cm^3
# Si number density = 17.504301 Si / 1000 Ang^3
#
#
#
# Elastic Constant Matrix: (Units=GPa)
#
#
# Indices 1 2 3 4 5 6 
#
# 1 87.9641 10.2481 11.4486 0.0000 0.0000 0.0000
# 2 10.2481 64.4793 36.1709 0.0000 0.0000 0.0000
# 3 11.4486 36.1709 115.5620 0.0000 0.0000 0.0000
# 4 0.0000 0.0000 0.0000 30.4772 0.0000 0.0000
# 5 0.0000 0.0000 0.0000 0.0000 31.6807 0.0000
# 6 0.0000 0.0000 0.0000 0.0000 0.0000 24.1296
#
#
#
# Elastic Compliance Matrix: (Units=1/GPa)
#
#
# Indices 1 2 3 4 5 6 
#
# 1 0.011629 -0.001458 -0.000696 0.000000 0.000000 0.000000
# 2 -0.001458 0.018995 -0.005801 0.000000 0.000000 0.000000
# 3 -0.000696 -0.005801 0.010538 0.000000 0.000000 0.000000
# 4 0.000000 0.000000 0.000000 0.032811 0.000000 0.000000
# 5 0.000000 0.000000 0.000000 0.000000 0.031565 0.000000
# 6 0.000000 0.000000 0.000000 0.000000 0.000000 0.041443
#
#
# Mechanical properties :
#
#
# Convention : Reuss Voigt Hill
#
# Bulk Modulus (GPa) = 39.60046 42.63785 41.11916
# Shear Modulus (GPa) = 29.18734 31.26668 30.22701
#
# Velocity S-wave (km/s) = 4.08786 4.23096 4.16003
# Velocity P-wave (km/s) = 6.70471 6.94834 6.82761
#
# Compressibility (1/GPa) = 0.02525223
#
# Stress axis : x y z
#
# Youngs Moduli (GPa) = 85.99431 52.64627 94.89502
#
# Poissons Ratio (x) = 0.07676 0.06602
# Poissons Ratio (y) = 0.12538 0.55048
# Poissons Ratio (z) = 0.05983 0.30540
#
# Static dielectric constant tensor:
#      x y z
#    x 3.395720 0.000000 0.000000 
#    y 0.000000 3.114810 0.000000 
#    z 0.000000 0.000000 3.349750 
# 
# 
# High freq. dielectric constant tensor:
#      x y z
#    x 1.699880 0.000000 0.000000 
#    y 0.000000 1.643900 0.000000 
#    z 0.000000 0.000000 1.674600 
# 
# From -- ./inp_files/18587.got.cif
#   From: 2010.03.12/outbox.cif.g09.slc.cpg/sg46_10_cif.got.tgz:18587.got - 2010.04.14 02:56:35.
