data_PCOD8193426
_publ_section_title
;
Structure prediction by ZEFSAII (Michael W. Deem and Ramdas Pophale) SiO2 
 PCOD8193426
Probable space group: I M A 2
;
_chemical_formula_sum "Si O2"
_cell_formula_units_Z 48
_cell_length_a 9.999262
_cell_length_b 31.214951
_cell_length_c 9.351238
_cell_angle_alpha 90.000000
_cell_angle_beta 90.000000
_cell_angle_gamma 90.000000
_cell_volume 2918.768939
_symmetry_space_group_name_H-M "I M A 2"
_symmetry_group_IT_number 46
_symmetry_cell_setting 'orthorhombic'
loop_
_space_group_symop_operation_xyz
x,y,z
-x,-y,z
1/2-x,y,z
1/2+x,-y,z
1/2+x,1/2+y,1/2+z
1/2-x,1/2-y,1/2+z
-x,1/2+y,1/2+z
x,1/2-y,1/2+z
loop_
_atom_site_type_symbol
_atom_site_label
_atom_site_fract_x
_atom_site_fract_y
_atom_site_fract_z
Si Si1 0.908997 0.629968 0.716400
Si Si2 0.399236 0.464624 0.046121
Si Si3 0.909531 0.790600 0.036941
Si Si4 0.899236 0.535375 0.705180
Si Si5 0.591007 0.629974 0.034944
Si Si6 0.409530 0.209393 0.714521
O O1 0.750000 0.632456 0.724337
O O2 0.965798 0.666093 0.609933
O O3 0.949993 0.582757 0.659106
O O4 0.967358 0.638111 0.875674
O O5 0.500000 0.500000 0.110510
O O6 0.250000 0.473593 0.106137
O O7 0.449975 0.417242 0.092213
O O8 0.395978 0.466725 0.875650
O O9 0.750000 0.790832 0.036332
O O10 0.963389 0.749998 0.125735
O O11 0.965219 0.787948 0.875726
O O12 0.750000 0.526409 0.645157
O O13 0.000000 0.500000 0.640785
O O14 0.750000 0.632471 0.026986
O O15 0.534215 0.666090 0.141467
O O16 0.250000 0.209159 0.715101
#
# Coordination Sequence:
#
# PCOD8193426 Si02
#       6
#     8   8   8   8   8   8
#     4   8  13  21  32  46  66  92 120 149 181 216
#     4   8  13  21  34  52  73  97 125 156 187 218
#     4   9  15  21  30  45  66  92 120 148 179 218
#     4   8  13  21  34  52  73  97 125 156 187 218
#     4   8  13  21  32  46  66  92 120 149 181 216
#     4   9  15  21  30  45  66  92 120 148 179 218
#
# _framework density 16.44529
#
# number of rings (size 3 to 8) (size 9 to 14) (size 15 to 20)
#    0.000    3.667    0.000    3.000    0.000    4.000 
#    0.000    0.000    0.000    1.000    0.000    0.000 
#    0.000    1.333    0.000    2.333    0.000    3.333 
#
# Total GULP energy -297391.743722 kJ/mol
# GULP energy per Si atom -12391.322655 kJ/mol
# Density = 1.640786 g / cm^3
# Si number density = 16.445290 Si / 1000 Ang^3
#
#
#
# Elastic Constant Matrix: (Units=GPa)
#
#
# Indices 1 2 3 4 5 6 
#
# 1 25.7699 38.1614 15.6631 -0.0001 0.0023 0.0006
# 2 38.1614 182.6860 71.5408 0.0013 -0.0003 -0.0003
# 3 15.6631 71.5408 88.9739 -0.0135 -0.0008 -0.0009
# 4 -0.0001 0.0013 -0.0135 24.2946 -0.0007 -0.0009
# 5 0.0023 -0.0003 -0.0008 -0.0007 3.7049 -0.0006
# 6 0.0006 -0.0003 -0.0009 -0.0009 -0.0006 16.9580
#
#
#
# Elastic Compliance Matrix: (Units=1/GPa)
#
#
# Indices 1 2 3 4 5 6 
#
# 1 0.056212 -0.011482 -0.000663 0.000000 -0.000036 -0.000002
# 2 -0.011482 0.010335 -0.006289 -0.000004 0.000007 0.000000
# 3 -0.000663 -0.006289 0.016412 0.000009 0.000004 0.000001
# 4 0.000000 -0.000004 0.000009 0.041161 0.000008 0.000002
# 5 -0.000036 0.000007 0.000004 0.000008 0.269914 0.000009
# 6 -0.000002 0.000000 0.000001 0.000002 0.000009 0.058969
#
#
# Mechanical properties :
#
#
# Convention : Reuss Voigt Hill
#
# Bulk Modulus (GPa) = 21.69618 60.90670 41.30144
# Shear Modulus (GPa) = 9.89636 20.46249 15.17943
#
# Velocity S-wave (km/s) = 2.45577 3.53126 3.04143
# Velocity P-wave (km/s) = 4.61115 7.33094 6.12394
#
# Compressibility (1/GPa) = 0.04609106
#
# Stress axis : x y z
#
# Youngs Moduli (GPa) = 17.78990 96.75709 60.92919
#
# Poissons Ratio (x) = 1.11101 0.04039
# Poissons Ratio (y) = 0.20427 0.38317
# Poissons Ratio (z) = 0.01179 0.60848
#
# Static dielectric constant tensor:
#      x y z
#    x 2.567640 0.000000 0.000000 
#    y 0.000000 3.552100 -0.000010 
#    z 0.000000 -0.000010 2.993350 
# 
# 
# High freq. dielectric constant tensor:
#      x y z
#    x 1.547850 0.000000 0.000000 
#    y 0.000000 1.654520 0.000000 
#    z 0.000000 0.000000 1.602900 
# 
# From -- ./inp_files/4804.got.cif
#   From: 2010.03.12/outbox.cif.g09.slc.cpg/sg46_3_cif.got.tgz:4804.got - 2010.04.14 02:56:35.
