data_PCOD8193567
_publ_section_title
;
Structure prediction by ZEFSAII (Michael W. Deem and Ramdas Pophale) SiO2 
 PCOD8193567
Probable space group: P M M M
;
_chemical_formula_sum "Si O2"
_cell_formula_units_Z 64
_cell_length_a 14.181376
_cell_length_b 9.785084
_cell_length_c 31.211774
_cell_angle_alpha 90.000000
_cell_angle_beta 90.000000
_cell_angle_gamma 90.000000
_cell_volume 4331.131639
_symmetry_space_group_name_H-M "P M M M"
_symmetry_group_IT_number 47
_symmetry_cell_setting 'orthorhombic'
loop_
_space_group_symop_operation_xyz
x,y,z
-x,-y,z
x,-y,-z
-x,y,-z
-x,-y,-z
x,y,-z
-x,y,z
x,-y,z
loop_
_atom_site_type_symbol
_atom_site_label
_atom_site_fract_x
_atom_site_fract_y
_atom_site_fract_z
Si Si1 0.271869 0.162385 0.294037
Si Si2 0.107623 0.343521 0.678618
Si Si3 0.892553 0.655925 0.578849
Si Si4 0.394842 0.161853 0.625126
Si Si5 0.733004 0.157020 0.451945
Si Si6 0.387866 0.347009 0.952511
Si Si7 0.604601 0.162316 0.785201
Si Si8 0.387627 0.152093 0.120603
O O1 0.172365 0.239837 0.294729
O O2 0.334964 0.211431 0.334121
O O3 0.323904 0.212963 0.251072
O O4 0.254331 0.000000 0.294726
O O5 0.136884 0.500000 0.687975
O O6 0.119617 0.310139 0.628707
O O7 0.000000 0.318666 0.692904
O O8 0.862965 0.500000 0.569496
O O9 0.828116 0.756102 0.551334
O O10 0.000000 0.680382 0.564541
O O11 0.500000 0.225651 0.627223
O O12 0.344974 0.212431 0.581414
O O13 0.402674 0.000000 0.625659
O O14 0.692011 0.171458 0.500000
O O15 0.758434 0.000000 0.441410
O O16 0.500000 0.345758 0.949525
O O17 0.350210 0.500000 0.944231
O O18 0.343972 0.248581 0.916276
O O19 0.356590 0.297169 0.000000
O O20 0.500000 0.222650 0.775971
O O21 0.641294 0.208639 0.832277
O O22 0.597434 0.000000 0.784546
O O23 0.500000 0.148080 0.117985
O O24 0.346915 0.000000 0.113188
#
# Coordination Sequence:
#
# PCOD8193567 Si02
#       8
#     8   8   8   8   8   8   8   8
#     4  10  17  27  47  69  84 103 135 170 199 234
#     4   9  18  32  48  65  86 109 129 156 199 243
#     4   9  18  33  51  67  84 109 136 159 191 240
#     4   9  17  29  45  65  86 108 135 165 197 233
#     4  10  20  32  46  67  91 110 132 165 201 233
#     4   8  13  20  29  42  62  90 126 169 212 245
#     4   8  14  24  38  58  83 108 134 168 208 243
#     4   8  13  21  32  46  67  96 129 164 201 240
#
# _framework density 14.776738
#
# number of rings (size 3 to 8) (size 9 to 14) (size 15 to 20)
#    0.000    3.125    1.250    2.250    0.000    3.000 
#    0.000    5.625    0.000    3.375    0.000    0.875 
#    0.000    0.000    0.000    0.000    0.000    0.625 
#
# Total GULP energy -793276.472779 kJ/mol
# GULP energy per Si atom -12394.944887 kJ/mol
# Density = 1.474311 g / cm^3
# Si number density = 14.776738 Si / 1000 Ang^3
#
#
#
# Elastic Constant Matrix: (Units=GPa)
#
#
# Indices 1 2 3 4 5 6 
#
# 1 65.0200 31.1066 40.2325 0.0000 0.0000 0.0000
# 2 31.1066 48.3720 42.5072 0.0000 0.0000 0.0000
# 3 40.2325 42.5072 118.3802 0.0000 0.0000 0.0000
# 4 0.0000 0.0000 0.0000 16.6144 0.0000 0.0000
# 5 0.0000 0.0000 0.0000 0.0000 8.5617 0.0000
# 6 0.0000 0.0000 0.0000 0.0000 0.0000 11.7111
#
#
#
# Elastic Compliance Matrix: (Units=1/GPa)
#
#
# Indices 1 2 3 4 5 6 
#
# 1 0.023276 -0.011712 -0.003705 0.000000 0.000000 0.000000
# 2 -0.011712 0.036097 -0.008981 0.000000 0.000000 0.000000
# 3 -0.003705 -0.008981 0.012931 0.000000 0.000000 0.000000
# 4 0.000000 0.000000 0.000000 0.060189 0.000000 0.000000
# 5 0.000000 0.000000 0.000000 0.000000 0.116799 0.000000
# 6 0.000000 0.000000 0.000000 0.000000 0.000000 0.085389
#
#
# Mechanical properties :
#
#
# Convention : Reuss Voigt Hill
#
# Bulk Modulus (GPa) = 42.53903 51.05165 46.79534
# Shear Modulus (GPa) = 12.77752 15.23918 14.00835
#
# Velocity S-wave (km/s) = 2.94378 3.21486 3.08230
# Velocity P-wave (km/s) = 6.35647 6.95731 6.66367
#
# Compressibility (1/GPa) = 0.02350782
#
# Stress axis : x y z
#
# Youngs Moduli (GPa) = 42.96330 27.70312 77.33152
#
# Poissons Ratio (x) = 0.32447 0.28650
# Poissons Ratio (y) = 0.50320 0.69451
# Poissons Ratio (z) = 0.15917 0.24880
#
# Static dielectric constant tensor:
#      x y z
#    x 2.658240 0.000000 0.000000 
#    y 0.000000 2.739940 0.000000 
#    z 0.000000 0.000000 3.052030 
# 
# 
# High freq. dielectric constant tensor:
#      x y z
#    x 1.525550 0.000000 0.000000 
#    y 0.000000 1.545550 0.000000 
#    z 0.000000 0.000000 1.563860 
# 
# From -- ./inp_files/19968.got.cif
#   From: 2010.03.12/outbox.cif.g09.slc.cpg/sg47_10_cif.got.tgz:19968.got - 2010.04.14 03:12:58.
