data_PCOD8193870
_publ_section_title
;
Structure prediction by ZEFSAII (Michael W. Deem and Ramdas Pophale) SiO2 
 PCOD8193870
Probable space group: P M M M
;
_chemical_formula_sum "Si O2"
_cell_formula_units_Z 48
_cell_length_a 25.730643
_cell_length_b 11.863186
_cell_length_c 9.493098
_cell_angle_alpha 90.000000
_cell_angle_beta 90.000000
_cell_angle_gamma 90.000000
_cell_volume 2897.743519
_symmetry_space_group_name_H-M "P M M M"
_symmetry_group_IT_number 47
_symmetry_cell_setting 'orthorhombic'
loop_
_space_group_symop_operation_xyz
x,y,z
-x,-y,z
x,-y,-z
-x,y,-z
-x,-y,-z
x,y,-z
-x,y,z
x,-y,z
loop_
_atom_site_type_symbol
_atom_site_label
_atom_site_fract_x
_atom_site_fract_y
_atom_site_fract_z
Si Si1 0.659963 0.233030 0.839114
Si Si2 0.817087 0.000000 0.665949
Si Si3 0.258829 0.631695 0.664910
Si Si4 0.557445 0.873706 0.832724
Si Si5 0.282077 0.000000 0.845128
Si Si6 0.844680 0.242702 0.667332
Si Si7 0.056969 0.626951 0.667573
O O1 0.690379 0.322665 0.743997
O O2 0.600736 0.217116 0.781679
O O3 0.683298 0.109260 0.826508
O O4 0.661593 0.277077 0.000000
O O5 0.759526 0.000000 0.723222
O O6 0.846518 0.887410 0.717260
O O7 0.811444 0.000000 0.500000
O O8 0.266418 0.654968 0.500000
O O9 0.251889 0.500000 0.696832
O O10 0.207345 0.695469 0.723112
O O11 0.500000 0.831233 0.786350
O O12 0.567120 0.000000 0.771513
O O13 0.561513 0.881624 0.000000
O O14 0.255495 0.000000 0.000000
O O15 0.845568 0.253658 0.500000
O O16 0.896595 0.298444 0.732854
O O17 0.059851 0.629132 0.500000
O O18 0.064754 0.500000 0.722280
O O19 0.000000 0.672181 0.716203
#
# Coordination Sequence:
#
# PCOD8193870 Si02
#       7
#     8   4   8   8   4   8   8
#     4  10  18  29  47  70  95 118 145 183 224 265
#     4  10  18  28  43  63  89 121 150 175 218 272
#     4  10  20  32  46  64  88 121 156 187 222 264
#     4   8  13  23  42  68  94 117 142 175 218 267
#     4  10  18  28  43  67  95 121 146 175 218 268
#     4   9  16  26  40  60  86 114 147 183 218 264
#     4   8  13  22  37  56  80 113 149 182 219 262
#
# _framework density 16.564613999999999
#
# number of rings (size 3 to 8) (size 9 to 14) (size 15 to 20)
#    0.000    2.833    2.500    1.500    0.000    2.333 
#    0.000    0.417    0.000    3.500    0.000    4.667 
#    0.000    3.333    0.000    9.167    0.000    8.333 
#
# Total GULP energy -594800.007791 kJ/mol
# GULP energy per Si atom -12391.666829 kJ/mol
# Density = 1.652691 g / cm^3
# Si number density = 16.564614 Si / 1000 Ang^3
#
#
#
# Elastic Constant Matrix: (Units=GPa)
#
#
# Indices 1 2 3 4 5 6 
#
# 1 157.3246 70.7381 24.4639 0.0000 0.0000 0.0000
# 2 70.7381 105.2813 26.0006 0.0000 0.0000 0.0000
# 3 24.4639 26.0006 18.4528 0.0000 0.0000 0.0000
# 4 0.0000 0.0000 0.0000 27.2362 0.0000 0.0000
# 5 0.0000 0.0000 0.0000 0.0000 10.3139 0.0000
# 6 0.0000 0.0000 0.0000 0.0000 0.0000 43.9261
#
#
#
# Elastic Compliance Matrix: (Units=1/GPa)
#
#
# Indices 1 2 3 4 5 6 
#
# 1 0.009458 -0.004997 -0.005498 0.000000 0.000000 0.000000
# 2 -0.004997 0.017208 -0.017621 0.000000 0.000000 0.000000
# 3 -0.005498 -0.017621 0.086311 0.000000 0.000000 0.000000
# 4 0.000000 0.000000 0.000000 0.036716 0.000000 0.000000
# 5 0.000000 0.000000 0.000000 0.000000 0.096957 0.000000
# 6 0.000000 0.000000 0.000000 0.000000 0.000000 0.022766
#
#
# Mechanical properties :
#
#
# Convention : Reuss Voigt Hill
#
# Bulk Modulus (GPa) = 17.62322 58.16267 37.89294
# Shear Modulus (GPa) = 14.51117 26.95231 20.73174
#
# Velocity S-wave (km/s) = 2.96300 4.03811 3.54159
# Velocity P-wave (km/s) = 4.72948 7.54524 6.29677
#
# Compressibility (1/GPa) = 0.05674332
#
# Stress axis : x y z
#
# Youngs Moduli (GPa) = 105.73012 58.11364 11.58605
#
# Poissons Ratio (x) = 0.29039 0.06370
# Poissons Ratio (y) = 0.52833 0.20416
# Poissons Ratio (z) = 0.58132 1.02404
#
# Static dielectric constant tensor:
#      x y z
#    x 3.511310 0.000000 0.000000 
#    y 0.000000 3.171350 0.000000 
#    z 0.000000 0.000000 2.663090 
# 
# 
# High freq. dielectric constant tensor:
#      x y z
#    x 1.646860 0.000000 0.000000 
#    y 0.000000 1.628460 0.000000 
#    z 0.000000 0.000000 1.579530 
# 
# From -- ./inp_files/16462.got.cif
#   From: 2010.03.12/outbox.cif.g09.slc.cpg/sg47_9_cif.got.tgz:16462.got - 2010.04.14 03:12:58.
