data_PCOD8193114
_publ_section_title
;
Structure prediction by ZEFSAII (Michael W. Deem and Ramdas Pophale) SiO2 
 PCOD8193114
Probable space group: I M A 2
;
_chemical_formula_sum "Si O2"
_cell_formula_units_Z 48
_cell_length_a 9.998441
_cell_length_b 7.550544
_cell_length_c 30.305608
_cell_angle_alpha 90.000000
_cell_angle_beta 90.000000
_cell_angle_gamma 90.000000
_cell_volume 2287.881530
_symmetry_space_group_name_H-M "I M A 2"
_symmetry_group_IT_number 46
_symmetry_cell_setting 'orthorhombic'
loop_
_space_group_symop_operation_xyz
x,y,z
-x,-y,z
1/2-x,y,z
1/2+x,-y,z
1/2+x,1/2+y,1/2+z
1/2-x,1/2-y,1/2+z
-x,1/2+y,1/2+z
x,1/2-y,1/2+z
loop_
_atom_site_type_symbol
_atom_site_label
_atom_site_fract_x
_atom_site_fract_y
_atom_site_fract_z
Si Si1 0.402954 0.658238 0.956960
Si Si2 0.750000 0.308788 0.791134
Si Si3 0.514476 0.209503 0.727588
Si Si4 0.500000 0.500000 0.404836
Si Si5 0.595637 0.165786 0.633607
Si Si6 0.900080 0.150852 0.043328
Si Si7 0.750000 0.804333 0.271640
Si Si8 0.250000 0.479614 0.347010
O O1 0.500000 0.500000 0.941693
O O2 0.250000 0.611878 0.943686
O O3 0.446365 0.840324 0.934252
O O4 0.414538 0.684032 0.009796
O O5 0.618756 0.265305 0.764083
O O6 0.750000 0.518737 0.802049
O O7 0.750000 0.190496 0.835590
O O8 0.562832 0.269794 0.678974
O O9 0.376061 0.305285 0.738913
O O10 0.500000 0.000000 0.728297
O O11 0.380912 0.427680 0.374304
O O12 0.750000 0.102212 0.633465
O O13 0.565123 0.293662 0.592910
O O14 0.500000 0.000000 0.628393
O O15 0.750000 0.073740 0.040564
O O16 0.000000 0.000000 0.027512
O O17 0.750000 0.631054 0.301905
#
# Coordination Sequence:
#
# PCOD8193114 Si02
#       8
#     8   4   8   4   8   8   4   4
#     4  11  25  45  74 106 139 182 228 279 344 413
#     4  12  24  44  68  95 131 173 224 276 337 412
#     4  11  21  42  66  93 135 177 225 276 339 396
#     4  12  26  46  74  98 140 176 230 288 346 414
#     4  10  22  38  62  95 132 175 225 279 328 394
#     4  10  22  41  64  97 140 182 226 273 336 398
#     4  12  26  42  72  97 125 185 226 274 347 404
#     4  12  26  46  70 100 136 172 228 294 346 406
#
# _framework density 20.980107
#
# number of rings (size 3 to 8) (size 9 to 14) (size 15 to 20)
#    0.000    1.000    4.167    2.000    4.667    4.000 
#    0.000    0.000    0.000    0.000    0.000    0.000 
#    0.000    0.000    0.000    0.000    0.000    0.000 
#
# Total GULP energy -297675.785432 kJ/mol
# GULP energy per Si atom -12403.157726 kJ/mol
# Density = 2.093235 g / cm^3
# Si number density = 20.980107 Si / 1000 Ang^3
#
#
#
# Elastic Constant Matrix: (Units=GPa)
#
#
# Indices 1 2 3 4 5 6 
#
# 1 157.0090 34.8763 38.7742 0.0000 0.0000 0.0000
# 2 34.8763 90.8664 16.2968 0.0000 0.0000 0.0000
# 3 38.7742 16.2968 82.4598 0.0000 0.0000 0.0000
# 4 0.0000 0.0000 0.0000 20.6372 0.0000 0.0000
# 5 0.0000 0.0000 0.0000 0.0000 37.4160 0.0000
# 6 0.0000 0.0000 0.0000 0.0000 0.0000 37.5834
#
#
#
# Elastic Compliance Matrix: (Units=1/GPa)
#
#
# Indices 1 2 3 4 5 6 
#
# 1 0.007673 -0.002382 -0.003137 0.000000 0.000000 0.000000
# 2 -0.002382 0.012149 -0.001281 0.000000 0.000000 0.000000
# 3 -0.003137 -0.001281 0.013855 0.000000 0.000000 0.000000
# 4 0.000000 0.000000 0.000000 0.048456 0.000000 0.000000
# 5 0.000000 0.000000 0.000000 0.000000 0.026727 0.000000
# 6 0.000000 0.000000 0.000000 0.000000 0.000000 0.026607
#
#
# Mechanical properties :
#
#
# Convention : Reuss Voigt Hill
#
# Bulk Modulus (GPa) = 49.80849 56.69220 53.25035
# Shear Modulus (GPa) = 32.10045 35.15318 33.62681
#
# Velocity S-wave (km/s) = 3.91582 4.09779 4.00784
# Velocity P-wave (km/s) = 6.65111 7.03347 6.84496
#
# Compressibility (1/GPa) = 0.02007690
#
# Stress axis : x y z
#
# Youngs Moduli (GPa) = 130.32714 82.30931 72.17395
#
# Poissons Ratio (x) = 0.19609 0.22642
# Poissons Ratio (y) = 0.31049 0.09244
# Poissons Ratio (z) = 0.40886 0.10543
#
# Static dielectric constant tensor:
#      x y z
#    x 4.003180 0.000000 0.000000 
#    y 0.000000 3.662120 0.000000 
#    z 0.000000 0.000000 3.992550 
# 
# 
# High freq. dielectric constant tensor:
#      x y z
#    x 1.841520 0.000000 0.000000 
#    y 0.000000 1.806090 0.000000 
#    z 0.000000 0.000000 1.830040 
# 
# From -- ./inp_files/25099.got.cif
#   From: 2010.03.12/outbox.cif.g09.slc.cpg/sg46_13_cif.got.tgz:25099.got - 2010.04.14 02:56:35.
