data_PCOD8193550
_publ_section_title
;
Structure prediction by ZEFSAII (Michael W. Deem and Ramdas Pophale) SiO2 
 PCOD8193550
Probable space group: P M M M
;
_chemical_formula_sum "Si O2"
_cell_formula_units_Z 56
_cell_length_a 26.164649
_cell_length_b 14.379139
_cell_length_c 9.036117
_cell_angle_alpha 90.000000
_cell_angle_beta 90.000000
_cell_angle_gamma 90.000000
_cell_volume 3399.614247
_symmetry_space_group_name_H-M "P M M M"
_symmetry_group_IT_number 47
_symmetry_cell_setting 'orthorhombic'
loop_
_space_group_symop_operation_xyz
x,y,z
-x,-y,z
x,-y,-z
-x,y,-z
-x,-y,-z
x,y,-z
-x,y,z
x,-y,z
loop_
_atom_site_type_symbol
_atom_site_label
_atom_site_fract_x
_atom_site_fract_y
_atom_site_fract_z
Si Si1 0.943339 0.895971 0.675778
Si Si2 0.752440 0.895121 0.323856
Si Si3 0.653032 0.210948 0.325552
Si Si4 0.298091 0.396483 0.670914
Si Si5 0.808155 0.605439 0.172654
Si Si6 0.849385 0.776714 0.324127
Si Si7 0.443733 0.105101 0.323954
O O1 0.940331 0.898214 0.500000
O O2 0.900891 0.825163 0.737177
O O3 0.000000 0.863553 0.727086
O O4 0.932101 0.000000 0.735860
O O5 0.751908 0.896410 0.500000
O O6 0.701192 0.846456 0.261333
O O7 0.801391 0.837531 0.268003
O O8 0.755519 0.000000 0.261459
O O9 0.651368 0.195446 0.500000
O O10 0.658958 0.320428 0.286278
O O11 0.599949 0.172730 0.256426
O O12 0.281558 0.383779 0.500000
O O13 0.320407 0.500000 0.699632
O O14 0.248678 0.377272 0.768350
O O15 0.825678 0.500000 0.206501
O O16 0.847306 0.674160 0.254086
O O17 0.808266 0.626940 0.000000
O O18 0.849676 0.767215 0.500000
O O19 0.443555 0.109743 0.500000
O O20 0.500000 0.135872 0.265666
O O21 0.431790 0.000000 0.272338
#
# Coordination Sequence:
#
# PCOD8193550 Si02
#       7
#     8   8   8   8   8   8   8
#     4   8  14  25  43  69  97 120 144 177 213 248
#     4   9  15  21  33  58  86 108 134 169 206 246
#     4   9  14  21  34  54  79 108 139 173 210 246
#     4   9  16  27  43  62  83 107 140 178 214 257
#     4  10  20  32  45  62  86 115 145 178 218 262
#     4  10  17  27  45  68  90 114 144 176 211 252
#     4   8  13  20  30  47  75 111 145 173 203 243
#
# _framework density 16.472458
#
# number of rings (size 3 to 8) (size 9 to 14) (size 15 to 20)
#    0.000    3.000    1.429    2.143    0.000    4.286 
#    0.000    0.000    0.000    3.000    0.000    7.000 
#    0.000    0.571    0.000    5.143    0.000    5.143 
#
# Total GULP energy -694044.520557 kJ/mol
# GULP energy per Si atom -12393.652153 kJ/mol
# Density = 1.643497 g / cm^3
# Si number density = 16.472458 Si / 1000 Ang^3
#
#
#
# Elastic Constant Matrix: (Units=GPa)
#
#
# Indices 1 2 3 4 5 6 
#
# 1 143.3364 88.0586 19.4259 0.0000 0.0000 0.0000
# 2 88.0586 142.3589 24.5453 0.0000 0.0000 0.0000
# 3 19.4259 24.5453 18.7740 0.0000 0.0000 0.0000
# 4 0.0000 0.0000 0.0000 8.5396 0.0000 0.0000
# 5 0.0000 0.0000 0.0000 0.0000 2.5084 0.0000
# 6 0.0000 0.0000 0.0000 0.0000 0.0000 27.7775
#
#
#
# Elastic Compliance Matrix: (Units=1/GPa)
#
#
# Indices 1 2 3 4 5 6 
#
# 1 0.011412 -0.006485 -0.003330 0.000000 0.000000 0.000000
# 2 -0.006485 0.012754 -0.009964 0.000000 0.000000 0.000000
# 3 -0.003330 -0.009964 0.069738 0.000000 0.000000 0.000000
# 4 0.000000 0.000000 0.000000 0.117101 0.000000 0.000000
# 5 0.000000 0.000000 0.000000 0.000000 0.398664 0.000000
# 6 0.000000 0.000000 0.000000 0.000000 0.000000 0.036000
#
#
# Mechanical properties :
#
#
# Convention : Reuss Voigt Hill
#
# Bulk Modulus (GPa) = 18.40069 63.16988 40.78529
# Shear Modulus (GPa) = 7.10891 19.26107 13.18499
#
# Velocity S-wave (km/s) = 2.07966 3.42320 2.83225
# Velocity P-wave (km/s) = 4.11843 7.35231 5.95894
#
# Compressibility (1/GPa) = 0.05434579
#
# Stress axis : x y z
#
# Youngs Moduli (GPa) = 87.62819 78.40732 14.33934
#
# Poissons Ratio (x) = 0.50846 0.04775
# Poissons Ratio (y) = 0.56826 0.14288
# Poissons Ratio (z) = 0.29177 0.78129
#
# Static dielectric constant tensor:
#      x y z
#    x 3.310180 0.000000 0.000000 
#    y 0.000000 3.342960 0.000000 
#    z 0.000000 0.000000 2.555090 
# 
# 
# High freq. dielectric constant tensor:
#      x y z
#    x 1.622360 0.000000 0.000000 
#    y 0.000000 1.640620 0.000000 
#    z 0.000000 0.000000 1.573150 
# 
# From -- ./inp_files/14208.got.cif
#   From: 2010.03.12/outbox.cif.g09.slc.cpg/sg47_8_cif.got.tgz:14208.got - 2010.04.14 03:12:58.
