data_PCOD8193359
_publ_section_title
;
Structure prediction by ZEFSAII (Michael W. Deem and Ramdas Pophale) SiO2 
 PCOD8193359
Probable space group: I M A 2
;
_chemical_formula_sum "Si O2"
_cell_formula_units_Z 48
_cell_length_a 27.451248
_cell_length_b 9.360114
_cell_length_c 8.732499
_cell_angle_alpha 90.000000
_cell_angle_beta 90.000000
_cell_angle_gamma 90.000000
_cell_volume 2243.787768
_symmetry_space_group_name_H-M "I M A 2"
_symmetry_group_IT_number 46
_symmetry_cell_setting 'orthorhombic'
loop_
_space_group_symop_operation_xyz
x,y,z
-x,-y,z
1/2-x,y,z
1/2+x,-y,z
1/2+x,1/2+y,1/2+z
1/2-x,1/2-y,1/2+z
-x,1/2+y,1/2+z
x,1/2-y,1/2+z
loop_
_atom_site_type_symbol
_atom_site_label
_atom_site_fract_x
_atom_site_fract_y
_atom_site_fract_z
Si Si1 0.865135 0.938406 0.939460
Si Si2 0.640635 0.117048 0.425877
Si Si3 0.306989 0.657629 0.614906
Si Si4 0.504161 0.849131 0.590095
Si Si5 0.115202 0.344089 0.110688
Si Si6 0.556954 0.165491 0.887227
O O1 0.856986 0.888260 0.765290
O O2 0.915513 0.027823 0.956046
O O3 0.864143 0.805684 0.053554
O O4 0.820202 0.039186 0.987265
O O5 0.666235 0.194722 0.569913
O O6 0.677111 0.105397 0.282845
O O7 0.593291 0.201659 0.368629
O O8 0.624079 0.960464 0.478472
O O9 0.250000 0.685002 0.613963
O O10 0.558404 0.821124 0.649071
O O11 0.464904 0.874820 0.724173
O O12 0.488291 0.711897 0.492826
O O13 0.500000 0.000000 0.496600
#
# Coordination Sequence:
#
# PCOD8193359 Si02
#       6
#     8   8   8   8   8   8
#     4  11  24  43  65  91 133 169 214 265 331 376
#     4  11  22  42  69  95 131 163 211 264 326 376
#     4  11  24  44  70  98 122 163 213 264 325 400
#     4  12  23  39  61  94 131 168 229 254 297 370
#     4  12  24  42  63  97 133 174 212 266 317 373
#     4  11  22  42  61  91 129 177 210 263 303 371
#
# _framework density 21.392398
#
# number of rings (size 3 to 8) (size 9 to 14) (size 15 to 20)
#    0.000    0.667    3.333    6.500    0.000    0.000 
#    3.000    5.000    0.000    0.000    0.000    0.000 
#    0.000    0.000    0.000    0.000    0.000    0.000 
#
# Total GULP energy -297674.779357 kJ/mol
# GULP energy per Si atom -12403.115807 kJ/mol
# Density = 2.134371 g / cm^3
# Si number density = 21.392398 Si / 1000 Ang^3
#
#
#
# Elastic Constant Matrix: (Units=GPa)
#
#
# Indices 1 2 3 4 5 6 
#
# 1 81.9846 12.4298 8.5918 0.0000 0.0000 0.0000
# 2 12.4298 108.0201 22.7453 0.0000 0.0000 0.0000
# 3 8.5918 22.7453 86.3104 0.0000 0.0000 0.0000
# 4 0.0000 0.0000 0.0000 40.7245 0.0000 0.0000
# 5 0.0000 0.0000 0.0000 0.0000 22.0109 0.0000
# 6 0.0000 0.0000 0.0000 0.0000 0.0000 16.8686
#
#
#
# Elastic Compliance Matrix: (Units=1/GPa)
#
#
# Indices 1 2 3 4 5 6 
#
# 1 0.012482 -0.001244 -0.000915 0.000000 0.000000 0.000000
# 2 -0.001244 0.009925 -0.002492 0.000000 0.000000 0.000000
# 3 -0.000915 -0.002492 0.012334 0.000000 0.000000 0.000000
# 4 0.000000 0.000000 0.000000 0.024555 0.000000 0.000000
# 5 0.000000 0.000000 0.000000 0.000000 0.045432 0.000000
# 6 0.000000 0.000000 0.000000 0.000000 0.000000 0.059282
#
#
# Mechanical properties :
#
#
# Convention : Reuss Voigt Hill
#
# Bulk Modulus (GPa) = 39.30741 40.42766 39.86754
# Shear Modulus (GPa) = 27.50415 31.42400 29.46407
#
# Velocity S-wave (km/s) = 3.58955 3.83682 3.71525
# Velocity P-wave (km/s) = 5.96609 6.21027 6.08940
#
# Compressibility (1/GPa) = 0.02544050
#
# Stress axis : x y z
#
# Youngs Moduli (GPa) = 80.11642 100.75222 81.07786
#
# Poissons Ratio (x) = 0.12530 0.07417
# Poissons Ratio (y) = 0.09964 0.20203
# Poissons Ratio (z) = 0.07329 0.25106
#
# Static dielectric constant tensor:
#      x y z
#    x 3.684610 0.000000 0.000000 
#    y 0.000000 4.036640 0.000000 
#    z 0.000000 0.000000 3.922360 
# 
# 
# High freq. dielectric constant tensor:
#      x y z
#    x 1.822410 0.000000 0.000000 
#    y 0.000000 1.851700 0.000000 
#    z 0.000000 0.000000 1.837560 
# 
# From -- ./inp_files/8371.got.cif
#   From: 2010.03.12/outbox.cif.g09.slc.cpg/sg46_5_cif.got.tgz:8371.got - 2010.04.14 02:56:35.
