data_PCOD8193676
_publ_section_title
;
Structure prediction by ZEFSAII (Michael W. Deem and Ramdas Pophale) SiO2 
 PCOD8193676
Probable space group: P M M M
;
_chemical_formula_sum "Si O2"
_cell_formula_units_Z 44
_cell_length_a 14.685277
_cell_length_b 17.203974
_cell_length_c 9.079264
_cell_angle_alpha 90.000000
_cell_angle_beta 90.000000
_cell_angle_gamma 90.000000
_cell_volume 2293.831776
_symmetry_space_group_name_H-M "P M M M"
_symmetry_group_IT_number 47
_symmetry_cell_setting 'orthorhombic'
loop_
_space_group_symop_operation_xyz
x,y,z
-x,-y,z
x,-y,-z
-x,y,-z
-x,-y,-z
x,y,-z
-x,y,z
x,-y,z
loop_
_atom_site_type_symbol
_atom_site_label
_atom_site_fract_x
_atom_site_fract_y
_atom_site_fract_z
Si Si1 0.393436 0.154027 0.826960
Si Si2 0.101378 0.000000 0.240173
Si Si3 0.500000 0.590913 0.663824
Si Si4 0.699028 0.000000 0.161066
Si Si5 0.317160 0.589212 0.825972
Si Si6 0.736105 0.733558 0.323843
Si Si7 0.902668 0.169301 0.665875
O O1 0.500000 0.144720 0.793552
O O2 0.339840 0.078130 0.762412
O O3 0.356492 0.228536 0.738235
O O4 0.374294 0.166689 0.000000
O O5 0.111273 0.076585 0.338894
O O6 0.190995 0.000000 0.137747
O O7 0.000000 0.000000 0.160702
O O8 0.500000 0.500000 0.640636
O O9 0.500000 0.630122 0.500000
O O10 0.413472 0.615314 0.758991
O O11 0.653877 0.000000 0.000000
O O12 0.291857 0.500000 0.787778
O O13 0.247235 0.647636 0.745410
O O14 0.318705 0.602383 0.000000
O O15 0.731961 0.729040 0.500000
O O16 0.819471 0.785387 0.259002
O O17 0.906995 0.199274 0.500000
O O18 0.000000 0.189084 0.744291
#
# Coordination Sequence:
#
# PCOD8193676 Si02
#       7
#     8   4   4   4   8   8   8
#     4  10  21  37  55  74 104 150 195 229 266 319
#     4  10  17  30  53  78 106 139 177 224 275 326
#     4   9  17  31  53  81 109 136 173 222 269 313
#     4  10  19  34  53  73 103 144 191 232 267 322
#     4  10  21  37  56  77 106 145 184 220 268 332
#     4  11  22  35  56  83 111 140 177 231 280 323
#     4   9  18  33  54  80 109 142 178 218 272 332
#
# _framework density 19.18188
#
# number of rings (size 3 to 8) (size 9 to 14) (size 15 to 20)
#    0.000    2.091    1.818    1.909    1.273    4.909 
#    0.000    0.455    0.000    3.818    0.000    3.818 
#    0.000    0.000    0.000    0.000    0.000    0.000 
#
# Total GULP energy -545139.596595 kJ/mol
# GULP energy per Si atom -12389.536286 kJ/mol
# Density = 1.913822 g / cm^3
# Si number density = 19.181880 Si / 1000 Ang^3
#
#
#
# Elastic Constant Matrix: (Units=GPa)
#
#
# Indices 1 2 3 4 5 6 
#
# 1 124.2174 63.8748 32.0471 0.0000 0.0000 0.0000
# 2 63.8748 136.4328 43.5073 0.0000 0.0000 0.0000
# 3 32.0471 43.5073 76.5870 0.0000 0.0000 0.0000
# 4 0.0000 0.0000 0.0000 25.9288 0.0000 0.0000
# 5 0.0000 0.0000 0.0000 0.0000 14.6494 0.0000
# 6 0.0000 0.0000 0.0000 0.0000 0.0000 22.5842
#
#
#
# Elastic Compliance Matrix: (Units=1/GPa)
#
#
# Indices 1 2 3 4 5 6 
#
# 1 0.010853 -0.004437 -0.002021 0.000000 0.000000 0.000000
# 2 -0.004437 0.010765 -0.004259 0.000000 0.000000 0.000000
# 3 -0.002021 -0.004259 0.016322 0.000000 0.000000 0.000000
# 4 0.000000 0.000000 0.000000 0.038567 0.000000 0.000000
# 5 0.000000 0.000000 0.000000 0.000000 0.068262 0.000000
# 6 0.000000 0.000000 0.000000 0.000000 0.000000 0.044279
#
#
# Mechanical properties :
#
#
# Convention : Reuss Voigt Hill
#
# Bulk Modulus (GPa) = 60.58007 68.45508 64.51758
# Shear Modulus (GPa) = 23.14989 25.81968 24.48478
#
# Velocity S-wave (km/s) = 3.47776 3.67283 3.57663
# Velocity P-wave (km/s) = 6.91209 7.33151 7.12489
#
# Compressibility (1/GPa) = 0.01650708
#
# Stress axis : x y z
#
# Youngs Moduli (GPa) = 92.13802 92.89445 61.26688
#
# Poissons Ratio (x) = 0.41215 0.12382
# Poissons Ratio (y) = 0.40880 0.26092
# Poissons Ratio (z) = 0.18621 0.39562
#
# Static dielectric constant tensor:
#      x y z
#    x 3.727370 0.000000 0.000000 
#    y 0.000000 3.627030 0.000000 
#    z 0.000000 0.000000 3.220790 
# 
# 
# High freq. dielectric constant tensor:
#      x y z
#    x 1.737860 0.000000 0.000000 
#    y 0.000000 1.748800 0.000000 
#    z 0.000000 0.000000 1.722210 
# 
# From -- ./inp_files/6289.got.cif
#   From: 2010.03.12/outbox.cif.g09.slc.cpg/sg47_4_cif.got.tgz:6289.got - 2010.04.14 03:12:58.
