data_PCOD8193094
_publ_section_title
;
Structure prediction by ZEFSAII (Michael W. Deem and Ramdas Pophale) SiO2 
 PCOD8193094
Probable space group: I M A 2
;
_chemical_formula_sum "Si O2"
_cell_formula_units_Z 56
_cell_length_a 25.708203
_cell_length_b 12.816839
_cell_length_c 9.610062
_cell_angle_alpha 90.000000
_cell_angle_beta 90.000000
_cell_angle_gamma 90.000000
_cell_volume 3166.495237
_symmetry_space_group_name_H-M "I M A 2"
_symmetry_group_IT_number 46
_symmetry_cell_setting 'orthorhombic'
loop_
_space_group_symop_operation_xyz
x,y,z
-x,-y,z
1/2-x,y,z
1/2+x,-y,z
1/2+x,1/2+y,1/2+z
1/2-x,1/2-y,1/2+z
-x,1/2+y,1/2+z
x,1/2-y,1/2+z
loop_
_atom_site_type_symbol
_atom_site_label
_atom_site_fract_x
_atom_site_fract_y
_atom_site_fract_z
Si Si1 0.417090 0.556309 0.958920
Si Si2 0.024740 0.154939 0.403345
Si Si3 0.750000 0.379429 0.287515
Si Si4 0.032320 0.348955 0.580736
Si Si5 0.137536 0.593772 0.244742
Si Si6 0.426219 0.943931 0.005557
Si Si7 0.357540 0.661058 0.719554
Si Si8 0.750000 0.181329 0.106078
O O1 0.466641 0.633790 0.961035
O O2 0.437266 0.442001 0.922147
O O3 0.374552 0.590704 0.847614
O O4 0.385585 0.555264 0.100713
O O5 0.050073 0.248554 0.492281
O O6 0.020107 0.182598 0.239775
O O7 0.803074 0.447687 0.271014
O O8 0.750000 0.300869 0.156279
O O9 0.750000 0.321423 0.437900
O O10 0.075455 0.441166 0.577549
O O11 0.983791 0.397647 0.498342
O O12 0.098077 0.543943 0.354077
O O13 0.139656 0.718285 0.260910
O O14 0.394684 0.857943 0.090091
O O15 0.300333 0.624947 0.670745
#
# Coordination Sequence:
#
# PCOD8193094 Si02
#       8
#     8   8   4   8   8   8   8   4
#     4  11  23  37  56  81 114 147 186 221 272 329
#     4  11  23  39  55  81 113 144 183 233 269 318
#     4  10  22  36  48  82 113 144 183 229 271 324
#     4  11  23  37  57  80 114 143 186 230 267 322
#     4  11  23  33  58  82 114 147 183 224 270 332
#     4  11  21  37  55  80 110 149 184 217 273 326
#     4  11  19  37  54  80 111 150 180 220 276 320
#     4  10  22  32  54  78 113 144 187 223 273 330
#
# _framework density 17.685167
#
# number of rings (size 3 to 8) (size 9 to 14) (size 15 to 20)
#    0.000    1.143    4.286    3.429   10.000    1.143 
#    0.000    0.000    0.000    0.000    0.000    6.000 
#    0.000    0.000    0.000    0.000    0.000    0.000 
#
# Total GULP energy -347150.904682 kJ/mol
# GULP energy per Si atom -12398.246596 kJ/mol
# Density = 1.764492 g / cm^3
# Si number density = 17.685167 Si / 1000 Ang^3
#
#
#
# Elastic Constant Matrix: (Units=GPa)
#
#
# Indices 1 2 3 4 5 6 
#
# 1 78.3388 13.0795 39.3756 0.0000 0.0000 0.0000
# 2 13.0795 60.2743 15.7686 0.0000 0.0000 0.0000
# 3 39.3756 15.7686 118.1583 0.0000 0.0000 0.0000
# 4 0.0000 0.0000 0.0000 29.7709 0.0000 0.0000
# 5 0.0000 0.0000 0.0000 0.0000 48.1022 0.0000
# 6 0.0000 0.0000 0.0000 0.0000 0.0000 16.7664
#
#
#
# Elastic Compliance Matrix: (Units=1/GPa)
#
#
# Indices 1 2 3 4 5 6 
#
# 1 0.015585 -0.002096 -0.004914 0.000000 0.000000 0.000000
# 2 -0.002096 0.017473 -0.001633 0.000000 0.000000 0.000000
# 3 -0.004914 -0.001633 0.010319 0.000000 0.000000 0.000000
# 4 0.000000 0.000000 0.000000 0.033590 0.000000 0.000000
# 5 0.000000 0.000000 0.000000 0.000000 0.020789 0.000000
# 6 0.000000 0.000000 0.000000 0.000000 0.000000 0.059643
#
#
# Mechanical properties :
#
#
# Convention : Reuss Voigt Hill
#
# Bulk Modulus (GPa) = 38.32925 43.69099 41.01012
# Shear Modulus (GPa) = 27.26548 31.49775 29.38161
#
# Velocity S-wave (km/s) = 3.93073 4.22480 4.08041
# Velocity P-wave (km/s) = 6.50546 6.96829 6.74085
#
# Compressibility (1/GPa) = 0.02608974
#
# Stress axis : x y z
#
# Youngs Moduli (GPa) = 64.16457 57.23112 96.91160
#
# Poissons Ratio (x) = 0.11998 0.47621
# Poissons Ratio (y) = 0.13452 0.15828
# Poissons Ratio (z) = 0.31529 0.09347
#
# Static dielectric constant tensor:
#      x y z
#    x 3.336800 0.000000 0.000000 
#    y 0.000000 3.198610 0.000000 
#    z 0.000000 0.000000 3.644090 
# 
# 
# High freq. dielectric constant tensor:
#      x y z
#    x 1.679720 0.000000 0.000000 
#    y 0.000000 1.651120 0.000000 
#    z 0.000000 0.000000 1.702920 
# 
# From -- ./inp_files/8205.got.cif
#   From: 2010.03.12/outbox.cif.g09.slc.cpg/sg46_5_cif.got.tgz:8205.got - 2010.04.14 02:56:35.
