data_PCOD8193178
_publ_section_title
;
Structure prediction by ZEFSAII (Michael W. Deem and Ramdas Pophale) SiO2 
 PCOD8193178
Probable space group: I M A 2
;
_chemical_formula_sum "Si O2"
_cell_formula_units_Z 48
_cell_length_a 16.872816
_cell_length_b 10.410091
_cell_length_c 12.918313
_cell_angle_alpha 90.000000
_cell_angle_beta 90.000000
_cell_angle_gamma 90.000000
_cell_volume 2269.070028
_symmetry_space_group_name_H-M "I M A 2"
_symmetry_group_IT_number 46
_symmetry_cell_setting 'orthorhombic'
loop_
_space_group_symop_operation_xyz
x,y,z
-x,-y,z
1/2-x,y,z
1/2+x,-y,z
1/2+x,1/2+y,1/2+z
1/2-x,1/2-y,1/2+z
-x,1/2+y,1/2+z
x,1/2-y,1/2+z
loop_
_atom_site_type_symbol
_atom_site_label
_atom_site_fract_x
_atom_site_fract_y
_atom_site_fract_z
Si Si1 0.426676 0.217420 0.963320
Si Si2 0.659235 0.454230 0.712632
Si Si3 0.659507 0.734089 0.776244
Si Si4 0.080926 0.762706 0.831905
Si Si5 0.972279 0.862744 0.664707
Si Si6 0.340965 0.544806 0.479793
O O1 0.356068 0.288032 0.899241
O O2 0.509163 0.248741 0.909893
O O3 0.405470 0.066977 0.965709
O O4 0.437186 0.272251 0.076754
O O5 0.750000 0.442394 0.744440
O O6 0.634605 0.604457 0.715803
O O7 0.613458 0.377183 0.801896
O O8 0.644683 0.400031 0.596255
O O9 0.750000 0.772815 0.754203
O O10 0.601980 0.854640 0.745380
O O11 0.146819 0.848382 0.890753
O O12 0.052265 0.819540 0.722390
O O13 0.000000 0.000000 0.620964
O O14 0.250000 0.494178 0.471140
#
# Coordination Sequence:
#
# PCOD8193178 Si02
#       6
#     8   8   8   8   8   8
#     4  11  23  38  64  92 127 173 216 264 335 394
#     4  10  22  41  65  94 128 172 221 273 335 395
#     4  10  22  42  66  93 127 171 224 275 328 395
#     4  11  23  39  62  94 129 168 215 271 325 394
#     4  11  24  40  61  93 132 165 216 273 333 392
#     4  11  22  42  70  96 127 174 226 273 330 398
#
# _framework density 21.154039999999998
#
# number of rings (size 3 to 8) (size 9 to 14) (size 15 to 20)
#    0.000    1.333    1.667    4.500    2.333    2.667 
#    0.000    0.833    0.000    0.000    0.000    0.000 
#    0.000    0.000    0.000    0.000    0.000    0.000 
#
# Total GULP energy -297371.127684 kJ/mol
# GULP energy per Si atom -12390.463653 kJ/mol
# Density = 2.110589 g / cm^3
# Si number density = 21.154040 Si / 1000 Ang^3
#
#
#
# Elastic Constant Matrix: (Units=GPa)
#
#
# Indices 1 2 3 4 5 6 
#
# 1 103.2335 55.2274 36.2650 0.0000 0.0000 0.0000
# 2 55.2274 92.7166 33.5461 0.0000 0.0000 0.0000
# 3 36.2650 33.5461 98.2612 0.0000 0.0000 0.0000
# 4 0.0000 0.0000 0.0000 36.7578 0.0000 0.0000
# 5 0.0000 0.0000 0.0000 0.0000 39.2515 0.0000
# 6 0.0000 0.0000 0.0000 0.0000 0.0000 31.2455
#
#
#
# Elastic Compliance Matrix: (Units=1/GPa)
#
#
# Indices 1 2 3 4 5 6 
#
# 1 0.014868 -0.007839 -0.002811 0.000000 0.000000 0.000000
# 2 -0.007839 0.016439 -0.002719 0.000000 0.000000 0.000000
# 3 -0.002811 -0.002719 0.012143 0.000000 0.000000 0.000000
# 4 0.000000 0.000000 0.000000 0.027205 0.000000 0.000000
# 5 0.000000 0.000000 0.000000 0.000000 0.025477 0.000000
# 6 0.000000 0.000000 0.000000 0.000000 0.000000 0.032005
#
#
# Mechanical properties :
#
#
# Convention : Reuss Voigt Hill
#
# Bulk Modulus (GPa) = 59.84043 60.47648 60.15845
# Shear Modulus (GPa) = 31.16337 32.72914 31.94626
#
# Velocity S-wave (km/s) = 3.84235 3.93769 3.89031
# Velocity P-wave (km/s) = 6.93067 7.02314 6.97706
#
# Compressibility (1/GPa) = 0.01671111
#
# Stress axis : x y z
#
# Youngs Moduli (GPa) = 67.25830 60.83166 82.35425
#
# Poissons Ratio (x) = 0.47687 0.23150
# Poissons Ratio (y) = 0.52725 0.22392
# Poissons Ratio (z) = 0.18906 0.16540
#
# Static dielectric constant tensor:
#      x y z
#    x 3.843920 0.000000 0.000000 
#    y 0.000000 3.578860 0.000000 
#    z 0.000000 0.000000 4.109510 
# 
# 
# High freq. dielectric constant tensor:
#      x y z
#    x 1.834210 0.000000 0.000000 
#    y 0.000000 1.804960 0.000000 
#    z 0.000000 0.000000 1.844870 
# 
# From -- ./inp_files/11802.got.cif
#   From: 2010.03.12/outbox.cif.g09.slc.cpg/sg46_6_cif.got.tgz:11802.got - 2010.04.14 02:56:35.
