data_PCOD8193255
_publ_section_title
;
Structure prediction by ZEFSAII (Michael W. Deem and Ramdas Pophale) SiO2 
 PCOD8193255
Probable space group: I M A 2
;
_chemical_formula_sum "Si O2"
_cell_formula_units_Z 48
_cell_length_a 25.550315
_cell_length_b 10.535005
_cell_length_c 8.616798
_cell_angle_alpha 90.000000
_cell_angle_beta 90.000000
_cell_angle_gamma 90.000000
_cell_volume 2319.406751
_symmetry_space_group_name_H-M "I M A 2"
_symmetry_group_IT_number 46
_symmetry_cell_setting 'orthorhombic'
loop_
_space_group_symop_operation_xyz
x,y,z
-x,-y,z
1/2-x,y,z
1/2+x,-y,z
1/2+x,1/2+y,1/2+z
1/2-x,1/2-y,1/2+z
-x,1/2+y,1/2+z
x,1/2-y,1/2+z
loop_
_atom_site_type_symbol
_atom_site_label
_atom_site_fract_x
_atom_site_fract_y
_atom_site_fract_z
Si Si1 0.750000 0.068604 0.319310
Si Si2 0.842118 0.895915 0.264898
Si Si3 0.151708 0.617301 0.288650
Si Si4 0.188435 0.143460 0.916544
Si Si5 0.590828 0.230460 0.525347
Si Si6 0.250000 0.779180 0.614010
Si Si7 0.055325 0.934588 0.251658
O O1 0.750000 0.190761 0.432467
O O2 0.750000 0.125688 0.142542
O O3 0.802327 0.989970 0.353401
O O4 0.843542 0.766987 0.362512
O O5 0.898972 0.959659 0.256854
O O6 0.816932 0.866208 0.099747
O O7 0.158377 0.472302 0.336265
O O8 0.141451 0.708358 0.437835
O O9 0.201487 0.662233 0.199222
O O10 0.104880 0.633670 0.164342
O O11 0.250000 0.149868 0.870629
O O12 0.555774 0.153244 0.404243
O O13 0.559710 0.349675 0.597038
O O14 0.000000 0.000000 0.243914
#
# Coordination Sequence:
#
# PCOD8193255 Si02
#       7
#     4   8   8   8   8   4   8
#     4  12  26  41  63  98 138 175 229 277 351 416
#     4  12  27  44  67  95 143 182 228 286 347 421
#     4  11  22  40  66  97 135 177 225 278 344 408
#     4  12  25  43  64 100 143 187 229 278 348 428
#     4  10  23  46  69  98 134 176 227 297 346 408
#     4  12  24  33  65  96 130 177 223 271 335 412
#     4  11  25  48  74 102 137 178 239 295 354 413
#
# _framework density 20.694948
#
# number of rings (size 3 to 8) (size 9 to 14) (size 15 to 20)
#    0.000    0.667    4.167    4.000    7.000    1.333 
#    0.000    1.667    0.000    0.000    0.000    0.000 
#    0.000    0.000    0.000    0.000    0.000    0.000 
#
# Total GULP energy -297611.035329 kJ/mol
# GULP energy per Si atom -12400.459805 kJ/mol
# Density = 2.064785 g / cm^3
# Si number density = 20.694948 Si / 1000 Ang^3
#
#
#
# Elastic Constant Matrix: (Units=GPa)
#
#
# Indices 1 2 3 4 5 6 
#
# 1 116.3869 45.0015 27.6707 0.0000 0.0000 0.0000
# 2 45.0015 128.3396 48.2210 0.0000 0.0000 0.0000
# 3 27.6707 48.2210 102.3114 0.0000 0.0000 0.0000
# 4 0.0000 0.0000 0.0000 41.6628 0.0000 0.0000
# 5 0.0000 0.0000 0.0000 0.0000 19.3400 0.0000
# 6 0.0000 0.0000 0.0000 0.0000 0.0000 58.9635
#
#
#
# Elastic Compliance Matrix: (Units=1/GPa)
#
#
# Indices 1 2 3 4 5 6 
#
# 1 0.010077 -0.003050 -0.001288 0.000000 0.000000 0.000000
# 2 -0.003050 0.010391 -0.004073 0.000000 0.000000 0.000000
# 3 -0.001288 -0.004073 0.012042 0.000000 0.000000 0.000000
# 4 0.000000 0.000000 0.000000 0.024002 0.000000 0.000000
# 5 0.000000 0.000000 0.000000 0.000000 0.051706 0.000000
# 6 0.000000 0.000000 0.000000 0.000000 0.000000 0.016960
#
#
# Mechanical properties :
#
#
# Convention : Reuss Voigt Hill
#
# Bulk Modulus (GPa) = 63.73614 65.42492 64.58053
# Shear Modulus (GPa) = 33.96043 39.06959 36.51501
#
# Velocity S-wave (km/s) = 4.05532 4.34969 4.20508
# Velocity P-wave (km/s) = 7.26583 7.54380 7.40612
#
# Compressibility (1/GPa) = 0.01568968
#
# Stress axis : x y z
#
# Youngs Moduli (GPa) = 99.23172 96.23303 83.04211
#
# Poissons Ratio (x) = 0.29347 0.10697
# Poissons Ratio (y) = 0.30262 0.33822
# Poissons Ratio (z) = 0.12783 0.39195
#
# Static dielectric constant tensor:
#      x y z
#    x 3.505120 0.000000 0.000000 
#    y 0.000000 4.091220 0.000000 
#    z 0.000000 0.000000 4.097480 
# 
# 
# High freq. dielectric constant tensor:
#      x y z
#    x 1.784760 0.000000 0.000000 
#    y 0.000000 1.820810 0.000000 
#    z 0.000000 0.000000 1.827600 
# 
# From -- ./inp_files/7849.got.cif
#   From: 2010.03.12/outbox.cif.g09.slc.cpg/sg46_4_cif.got.tgz:7849.got - 2010.04.14 02:56:35.
