data_PCOD8193427
_publ_section_title
;
Structure prediction by ZEFSAII (Michael W. Deem and Ramdas Pophale) SiO2 
 PCOD8193427
Probable space group: I M A 2
;
_chemical_formula_sum "Si O2"
_cell_formula_units_Z 56
_cell_length_a 9.443675
_cell_length_b 24.155966
_cell_length_c 13.943589
_cell_angle_alpha 90.000000
_cell_angle_beta 90.000000
_cell_angle_gamma 90.000000
_cell_volume 3180.826752
_symmetry_space_group_name_H-M "I M A 2"
_symmetry_group_IT_number 46
_symmetry_cell_setting 'orthorhombic'
loop_
_space_group_symop_operation_xyz
x,y,z
-x,-y,z
1/2-x,y,z
1/2+x,-y,z
1/2+x,1/2+y,1/2+z
1/2-x,1/2-y,1/2+z
-x,1/2+y,1/2+z
x,1/2-y,1/2+z
loop_
_atom_site_type_symbol
_atom_site_label
_atom_site_fract_x
_atom_site_fract_y
_atom_site_fract_z
Si Si1 0.580811 0.226502 0.964450
Si Si2 0.414545 0.946082 0.247155
Si Si3 0.083981 0.554306 0.387549
Si Si4 0.580971 0.165340 0.567278
Si Si5 0.916971 0.120256 0.069171
Si Si6 0.917142 0.164616 0.780762
Si Si7 0.084578 0.554758 0.966121
O O1 0.750000 0.227080 0.964621
O O2 0.525398 0.210149 0.857579
O O3 0.521914 0.286160 0.997767
O O4 0.522329 0.180437 0.039820
O O5 0.250000 0.959538 0.231817
O O6 0.464104 0.896366 0.176730
O O7 0.446792 0.928795 0.355980
O O8 0.500000 0.000000 0.216960
O O9 0.250000 0.541080 0.383850
O O10 0.034120 0.573346 0.493587
O O11 0.042796 0.602780 0.313368
O O12 0.000000 0.500000 0.356027
O O13 0.750000 0.166103 0.566900
O O14 0.520232 0.175211 0.674578
O O15 0.528296 0.105934 0.529094
O O16 0.750000 0.124912 0.061114
O O17 0.750000 0.170563 0.776847
O O18 0.250000 0.542967 0.982666
O O19 0.000000 0.500000 0.996876
#
# Coordination Sequence:
#
# PCOD8193427 Si02
#       7
#     8   8   8   8   8   8   8
#     4   8  14  24  38  58  83 108 134 167 209 250
#     4   9  16  26  40  59  84 111 139 171 205 242
#     4   9  16  26  40  59  84 112 140 169 204 244
#     4   9  16  26  41  60  82 108 137 169 205 245
#     4   8  14  24  38  58  84 110 135 169 211 247
#     4   8  15  26  38  56  83 109 134 170 210 243
#     4   9  18  30  43  62  86 110 138 171 204 241
#
# _framework density 17.605487
#
# number of rings (size 3 to 8) (size 9 to 14) (size 15 to 20)
#    0.000    3.429    0.000    2.143    0.000    1.714 
#    0.000    5.714    0.000    0.000    0.000    5.000 
#    0.000    0.000    0.000    0.000    0.000    0.000 
#
# Total GULP energy -346969.675811 kJ/mol
# GULP energy per Si atom -12391.774136 kJ/mol
# Density = 1.756542 g / cm^3
# Si number density = 17.605487 Si / 1000 Ang^3
#
#
#
# Elastic Constant Matrix: (Units=GPa)
#
#
# Indices 1 2 3 4 5 6 
#
# 1 16.1556 24.9693 16.8451 0.0000 0.0000 0.0000
# 2 24.9693 148.7544 86.4909 -0.0001 0.0000 0.0000
# 3 16.8451 86.4909 131.7424 -0.0006 0.0000 0.0000
# 4 0.0000 -0.0001 -0.0006 26.2961 0.0000 0.0000
# 5 0.0000 0.0000 0.0000 0.0000 9.9900 0.0000
# 6 0.0000 0.0000 0.0000 0.0000 0.0000 19.1777
#
#
#
# Elastic Compliance Matrix: (Units=1/GPa)
#
#
# Indices 1 2 3 4 5 6 
#
# 1 0.084049 -0.012712 -0.002401 0.000000 0.000000 0.000000
# 2 -0.012712 0.012796 -0.006775 0.000000 0.000000 0.000000
# 3 -0.002401 -0.006775 0.012346 0.000000 0.000000 0.000000
# 4 0.000000 0.000000 0.000000 0.038028 0.000000 0.000000
# 5 0.000000 0.000000 0.000000 0.000000 0.100101 0.000000
# 6 0.000000 0.000000 0.000000 0.000000 0.000000 0.052144
#
#
# Mechanical properties :
#
#
# Convention : Reuss Voigt Hill
#
# Bulk Modulus (GPa) = 15.28738 61.47365 38.38052
# Shear Modulus (GPa) = 13.69700 22.31591 18.00645
#
# Velocity S-wave (km/s) = 2.79228 3.56413 3.20155
# Velocity P-wave (km/s) = 4.37012 7.20628 5.95938
#
# Compressibility (1/GPa) = 0.06541343
#
# Stress axis : x y z
#
# Youngs Moduli (GPa) = 11.89785 78.15234 81.00105
#
# Poissons Ratio (x) = 0.99347 0.19450
# Poissons Ratio (y) = 0.15125 0.54879
# Poissons Ratio (z) = 0.02857 0.52949
#
# Static dielectric constant tensor:
#      x y z
#    x 2.651480 0.000000 0.000000 
#    y 0.000000 3.424150 0.000000 
#    z 0.000000 0.000000 3.638910 
# 
# 
# High freq. dielectric constant tensor:
#      x y z
#    x 1.607250 0.000000 0.000000 
#    y 0.000000 1.681800 0.000000 
#    z 0.000000 0.000000 1.689250 
# 
# From -- ./inp_files/10497.got.cif
#   From: 2010.03.12/outbox.cif.g09.slc.cpg/sg46_6_cif.got.tgz:10497.got - 2010.04.14 02:56:35.
