data_PCOD8193291
_publ_section_title
;
Structure prediction by ZEFSAII (Michael W. Deem and Ramdas Pophale) SiO2 
 PCOD8193291
Probable space group: I M A 2
;
_chemical_formula_sum "Si O2"
_cell_formula_units_Z 56
_cell_length_a 19.560358
_cell_length_b 16.999054
_cell_length_c 9.367356
_cell_angle_alpha 90.000000
_cell_angle_beta 90.000000
_cell_angle_gamma 90.000000
_cell_volume 3114.716892
_symmetry_space_group_name_H-M "I M A 2"
_symmetry_group_IT_number 46
_symmetry_cell_setting 'orthorhombic'
loop_
_space_group_symop_operation_xyz
x,y,z
-x,-y,z
1/2-x,y,z
1/2+x,-y,z
1/2+x,1/2+y,1/2+z
1/2-x,1/2-y,1/2+z
-x,1/2+y,1/2+z
x,1/2-y,1/2+z
loop_
_atom_site_type_symbol
_atom_site_label
_atom_site_fract_x
_atom_site_fract_y
_atom_site_fract_z
Si Si1 0.605723 0.700480 0.271590
Si Si2 0.670654 0.631300 0.825407
Si Si3 0.996451 0.313445 0.024477
Si Si4 0.674266 0.563732 0.138917
Si Si5 0.437387 0.558482 0.210076
Si Si6 0.486123 0.648045 0.469911
Si Si7 0.533137 0.580794 0.760530
O O1 0.649027 0.777916 0.307567
O O2 0.559983 0.707703 0.128362
O O3 0.660722 0.631400 0.253954
O O4 0.559020 0.671542 0.401896
O O5 0.750000 0.620007 0.775403
O O6 0.615989 0.577282 0.736548
O O7 0.660300 0.602112 0.986043
O O8 0.943913 0.373303 0.094400
O O9 0.952659 0.233519 0.000089
O O10 0.022800 0.347989 0.873515
O O11 0.750000 0.531891 0.153389
O O12 0.630787 0.486870 0.173354
O O13 0.500000 0.500000 0.193975
O O14 0.437666 0.595983 0.368353
O O15 0.495371 0.598524 0.613194
O O16 0.500000 0.500000 0.820672
#
# Coordination Sequence:
#
# PCOD8193291 Si02
#       7
#     8   8   8   8   8   8   8
#     4  11  19  36  55  84 121 153 190 225 282 361
#     4  11  22  36  55  86 122 159 195 230 281 357
#     4  11  19  35  59  81 113 149 193 236 287 348
#     4  11  22  37  58  84 116 159 199 237 290 350
#     4  11  20  37  59  81 111 150 196 245 285 345
#     4  11  21  34  57  82 116 144 193 244 292 339
#     4  12  22  34  54  83 115 153 194 240 288 334
#
# _framework density 17.979161000000001
#
# number of rings (size 3 to 8) (size 9 to 14) (size 15 to 20)
#    0.000    0.857    7.143    3.000    0.000    0.000 
#    0.000    0.714    0.000    0.857    0.000    2.000 
#    0.000    0.000    0.000    0.000    0.000    0.000 
#
# Total GULP energy -347027.593712 kJ/mol
# GULP energy per Si atom -12393.842633 kJ/mol
# Density = 1.793824 g / cm^3
# Si number density = 17.979161 Si / 1000 Ang^3
#
#
#
# Elastic Constant Matrix: (Units=GPa)
#
#
# Indices 1 2 3 4 5 6 
#
# 1 95.9559 73.3804 28.6642 0.0000 0.0000 0.0000
# 2 73.3804 118.7068 37.5319 0.0000 0.0000 0.0000
# 3 28.6642 37.5319 85.7116 0.0000 0.0000 0.0000
# 4 0.0000 0.0000 0.0000 39.8054 0.0000 0.0000
# 5 0.0000 0.0000 0.0000 0.0000 18.7874 0.0000
# 6 0.0000 0.0000 0.0000 0.0000 0.0000 27.0347
#
#
#
# Elastic Compliance Matrix: (Units=1/GPa)
#
#
# Indices 1 2 3 4 5 6 
#
# 1 0.019924 -0.011850 -0.001474 0.000000 0.000000 0.000000
# 2 -0.011850 0.016826 -0.003405 0.000000 0.000000 0.000000
# 3 -0.001474 -0.003405 0.013651 0.000000 0.000000 0.000000
# 4 0.000000 0.000000 0.000000 0.025122 0.000000 0.000000
# 5 0.000000 0.000000 0.000000 0.000000 0.053227 0.000000
# 6 0.000000 0.000000 0.000000 0.000000 0.000000 0.036990
#
#
# Mechanical properties :
#
#
# Convention : Reuss Voigt Hill
#
# Bulk Modulus (GPa) = 59.02259 64.39193 61.70726
# Shear Modulus (GPa) = 24.40859 27.84536 26.12697
#
# Velocity S-wave (km/s) = 3.68857 3.93969 3.81620
# Velocity P-wave (km/s) = 7.14425 7.52246 7.33579
#
# Compressibility (1/GPa) = 0.01694266
#
# Stress axis : x y z
#
# Youngs Moduli (GPa) = 50.19054 59.43157 73.25512
#
# Poissons Ratio (x) = 0.70428 0.10798
# Poissons Ratio (y) = 0.59477 0.24942
# Poissons Ratio (z) = 0.07398 0.20236
#
# Static dielectric constant tensor:
#      x y z
#    x 3.331570 0.000000 0.000000 
#    y 0.000000 3.009070 0.000000 
#    z 0.000000 0.000000 3.476990 
# 
# 
# High freq. dielectric constant tensor:
#      x y z
#    x 1.656480 0.000000 0.000000 
#    y 0.000000 1.707800 0.000000 
#    z 0.000000 0.000000 1.705150 
# 
# From -- ./inp_files/7407.got.cif
#   From: 2010.03.12/outbox.cif.g09.slc.cpg/sg46_4_cif.got.tgz:7407.got - 2010.04.14 02:56:35.
