data_PCOD8193518
_publ_section_title
;
Structure prediction by ZEFSAII (Michael W. Deem and Ramdas Pophale) SiO2 
 PCOD8193518
Probable space group: P M M M
;
_chemical_formula_sum "Si O2"
_cell_formula_units_Z 64
_cell_length_a 28.605209
_cell_length_b 8.813190
_cell_length_c 14.491812
_cell_angle_alpha 90.000000
_cell_angle_beta 90.000000
_cell_angle_gamma 90.000000
_cell_volume 3653.431337
_symmetry_space_group_name_H-M "P M M M"
_symmetry_group_IT_number 47
_symmetry_cell_setting 'orthorhombic'
loop_
_space_group_symop_operation_xyz
x,y,z
-x,-y,z
x,-y,-z
-x,y,-z
-x,-y,-z
x,y,-z
-x,y,z
x,-y,z
loop_
_atom_site_type_symbol
_atom_site_label
_atom_site_fract_x
_atom_site_fract_y
_atom_site_fract_z
Si Si1 0.448327 0.680437 0.603707
Si Si2 0.724493 0.827126 0.608584
Si Si3 0.821530 0.320986 0.395134
Si Si4 0.639576 0.680434 0.286444
Si Si5 0.786560 0.325929 0.107032
Si Si6 0.947971 0.819715 0.103164
Si Si7 0.135782 0.821215 0.227284
Si Si8 0.680967 0.319930 0.100383
O O1 0.437147 0.738102 0.500000
O O2 0.500000 0.737807 0.634058
O O3 0.447403 0.500000 0.604704
O O4 0.409475 0.745423 0.674213
O O5 0.717854 0.816163 0.500000
O O6 0.772373 0.747127 0.639003
O O7 0.681553 0.740379 0.652660
O O8 0.725812 0.000000 0.643070
O O9 0.833018 0.270383 0.500000
O O10 0.818549 0.500000 0.386848
O O11 0.861641 0.256888 0.327842
O O12 0.640492 0.500000 0.291981
O O13 0.645842 0.736901 0.180518
O O14 0.792647 0.500000 0.139832
O O15 0.819273 0.217805 0.166308
O O16 0.733663 0.268024 0.123792
O O17 0.799921 0.310053 0.000000
O O18 0.910303 0.755821 0.175909
O O19 0.000000 0.766334 0.132979
O O20 0.945365 0.000000 0.101497
O O21 0.936618 0.758441 0.000000
O O22 0.132817 0.000000 0.241567
O O23 0.681102 0.500000 0.094688
O O24 0.665236 0.254397 0.000000
#
# Coordination Sequence:
#
# PCOD8193518 Si02
#       8
#     8   8   8   8   8   8   8   8
#     4   8  14  24  38  60  89 115 144 188 234 273
#     4  10  20  32  46  68  98 123 144 182 234 277
#     4  10  21  36  51  66  90 127 165 194 224 274
#     4  10  17  26  46  68  85 116 159 192 222 272
#     4   9  17  29  44  63  92 128 159 187 226 281
#     4   8  15  29  48  71 100 130 157 187 228 280
#     4  11  20  29  48  75  98 121 154 199 245 281
#     4   8  15  27  41  59  84 114 148 185 223 261
#
# _framework density 17.517778
#
# number of rings (size 3 to 8) (size 9 to 14) (size 15 to 20)
#    0.000    2.750    0.000    4.125    0.000    3.750 
#    0.000    0.000    0.000    3.750    0.000   11.375 
#    0.000    0.000    0.000    1.125    0.000    1.375 
#
# Total GULP energy -793326.223797 kJ/mol
# GULP energy per Si atom -12395.722247 kJ/mol
# Density = 1.747791 g / cm^3
# Si number density = 17.517778 Si / 1000 Ang^3
#
#
#
# Elastic Constant Matrix: (Units=GPa)
#
#
# Indices 1 2 3 4 5 6 
#
# 1 122.5867 12.6930 87.1617 0.0000 0.0000 0.0000
# 2 12.6930 18.3816 15.0119 0.0000 0.0000 0.0000
# 3 87.1617 15.0119 103.8291 0.0000 0.0000 0.0000
# 4 0.0000 0.0000 0.0000 19.9089 0.0000 0.0000
# 5 0.0000 0.0000 0.0000 0.0000 33.1631 0.0000
# 6 0.0000 0.0000 0.0000 0.0000 0.0000 -4.3842
#
#
#
# Elastic Compliance Matrix: (Units=1/GPa)
#
#
# Indices 1 2 3 4 5 6 
#
# 1 0.020236 -0.000114 -0.016971 0.000000 0.000000 0.000000
# 2 -0.000114 0.061687 -0.008824 0.000000 0.000000 0.000000
# 3 -0.016971 -0.008824 0.025154 0.000000 0.000000 0.000000
# 4 0.000000 0.000000 0.000000 0.050229 0.000000 0.000000
# 5 0.000000 0.000000 0.000000 0.000000 0.030154 0.000000
# 6 0.000000 0.000000 0.000000 0.000000 0.000000 -0.228092
#
#
# Mechanical properties :
#
#
# Convention : Reuss Voigt Hill
#
# Bulk Modulus (GPa) = 18.09624 52.72562 35.41093
# Shear Modulus (GPa) = 168.88996 18.39960 93.64478
#
# Velocity S-wave (km/s) = 9.82954 3.24441 7.31936
# Velocity P-wave (km/s) = 11.79742 6.64820 9.57543
#
# Compressibility (1/GPa) = 0.05526010
#
# Stress axis : x y z
#
# Youngs Moduli (GPa) = 49.41623 16.21094 39.75518
#
# Poissons Ratio (x) = 0.00184 0.67470
# Poissons Ratio (y) = 0.00561 0.35078
# Poissons Ratio (z) = 0.83866 0.14304
#
# Static dielectric constant tensor:
#      x y z
#    x 3.404100 0.000000 0.000000 
#    y 0.000000 2.923090 0.000000 
#    z 0.000000 0.000000 3.737800 
# 
# 
# High freq. dielectric constant tensor:
#      x y z
#    x 1.660970 0.000000 0.000000 
#    y 0.000000 1.643730 0.000000 
#    z 0.000000 0.000000 1.682370 
# 
# From -- ./inp_files/25870.got.cif
#   From: 2010.03.12/outbox.cif.g09.slc.cpg/sg47_13_cif.got.tgz:25870.got - 2010.04.14 03:12:58.
