data_PCOD8193826
_publ_section_title
;
Structure prediction by ZEFSAII (Michael W. Deem and Ramdas Pophale) SiO2 
 PCOD8193826
Probable space group: P M M M
;
_chemical_formula_sum "Si O2"
_cell_formula_units_Z 44
_cell_length_a 18.165910
_cell_length_b 19.338493
_cell_length_c 9.404503
_cell_angle_alpha 90.000000
_cell_angle_beta 90.000000
_cell_angle_gamma 90.000000
_cell_volume 3303.814350
_symmetry_space_group_name_H-M "P M M M"
_symmetry_group_IT_number 47
_symmetry_cell_setting 'orthorhombic'
loop_
_space_group_symop_operation_xyz
x,y,z
-x,-y,z
x,-y,-z
-x,y,-z
-x,-y,-z
x,y,-z
-x,y,z
x,-y,z
loop_
_atom_site_type_symbol
_atom_site_label
_atom_site_fract_x
_atom_site_fract_y
_atom_site_fract_z
Si Si1 0.500000 0.923331 0.831524
Si Si2 0.080731 0.082136 0.660006
Si Si3 0.586474 0.293539 0.333560
Si Si4 0.361631 0.164744 0.168007
Si Si5 0.412707 0.423686 0.159080
Si Si6 0.218260 0.920836 0.166002
O O1 0.427880 0.883637 0.778647
O O2 0.500000 0.000000 0.764324
O O3 0.500000 0.928883 0.000000
O O4 0.095390 0.107971 0.500000
O O5 0.145757 0.110798 0.759297
O O6 0.000000 0.108771 0.711625
O O7 0.081058 0.000000 0.666048
O O8 0.603623 0.291383 0.500000
O O9 0.500000 0.282039 0.301976
O O10 0.634071 0.235870 0.253591
O O11 0.614652 0.366983 0.272224
O O12 0.286835 0.126199 0.210220
O O13 0.366939 0.179845 0.000000
O O14 0.500000 0.425538 0.159470
O O15 0.382749 0.500000 0.202624
O O16 0.384975 0.404492 0.000000
O O17 0.234336 0.000000 0.213106
O O18 0.203358 0.917328 0.000000
#
# Coordination Sequence:
#
# PCOD8193826 Si02
#       6
#     4   8   8   8   8   8
#     4   9  16  26  41  55  64  85 126 169 201 228
#     4   8  14  25  40  56  73  94 118 142 177 231
#     4  10  19  28  38  53  74  97 123 156 191 227
#     4  10  18  28  41  54  70  96 128 161 196 233
#     4   8  14  25  41  58  73  90 115 147 183 225
#     4   9  17  27  39  57  76  92 119 161 201 232
#
# _framework density 13.31794
#
# number of rings (size 3 to 8) (size 9 to 14) (size 15 to 20)
#    0.000    3.000    0.909    2.182    0.000    4.364 
#    0.000    3.636    0.000    2.182    0.000    0.000 
#    0.000    0.000    0.000    0.000    0.000    0.909 
#
# Total GULP energy -545367.154924 kJ/mol
# GULP energy per Si atom -12394.708066 kJ/mol
# Density = 1.328763 g / cm^3
# Si number density = 13.317940 Si / 1000 Ang^3
#
#
#
# Elastic Constant Matrix: (Units=GPa)
#
#
# Indices 1 2 3 4 5 6 
#
# 1 91.9264 39.5677 41.2821 0.0000 0.0000 0.0000
# 2 39.5677 88.2644 44.4199 0.0000 0.0000 0.0000
# 3 41.2821 44.4199 57.5372 0.0000 0.0000 0.0000
# 4 0.0000 0.0000 0.0000 13.6784 0.0000 0.0000
# 5 0.0000 0.0000 0.0000 0.0000 18.2275 0.0000
# 6 0.0000 0.0000 0.0000 0.0000 0.0000 3.3255
#
#
#
# Elastic Compliance Matrix: (Units=1/GPa)
#
#
# Indices 1 2 3 4 5 6 
#
# 1 0.016337 -0.002330 -0.009923 0.000000 0.000000 0.000000
# 2 -0.002330 0.018861 -0.012889 0.000000 0.000000 0.000000
# 3 -0.009923 -0.012889 0.034450 0.000000 0.000000 0.000000
# 4 0.000000 0.000000 0.000000 0.073108 0.000000 0.000000
# 5 0.000000 0.000000 0.000000 0.000000 0.054862 0.000000
# 6 0.000000 0.000000 0.000000 0.000000 0.000000 0.300706
#
#
# Mechanical properties :
#
#
# Convention : Reuss Voigt Hill
#
# Bulk Modulus (GPa) = 51.64180 54.25194 52.94687
# Shear Modulus (GPa) = 9.00798 14.54350 11.77574
#
# Velocity S-wave (km/s) = 2.60355 3.30816 2.97678
# Velocity P-wave (km/s) = 6.92086 7.44422 7.18730
#
# Compressibility (1/GPa) = 0.01936416
#
# Stress axis : x y z
#
# Youngs Moduli (GPa) = 61.20939 53.02039 29.02720
#
# Poissons Ratio (x) = 0.12353 0.28804
# Poissons Ratio (y) = 0.14261 0.37414
# Poissons Ratio (z) = 0.60739 0.68339
#
# Static dielectric constant tensor:
#      x y z
#    x 2.614090 0.000000 0.000000 
#    y 0.000000 2.669310 0.000000 
#    z 0.000000 0.000000 2.642720 
# 
# 
# High freq. dielectric constant tensor:
#      x y z
#    x 1.475060 0.000000 0.000000 
#    y 0.000000 1.485370 0.000000 
#    z 0.000000 0.000000 1.503780 
# 
# From -- ./inp_files/9426.got.cif
#   From: 2010.03.12/outbox.cif.g09.slc.cpg/sg47_5_cif.got.tgz:9426.got - 2010.04.14 03:12:58.
