data_PCOD8193356
_publ_section_title
;
Structure prediction by ZEFSAII (Michael W. Deem and Ramdas Pophale) SiO2 
 PCOD8193356
Probable space group: I M A 2
;
_chemical_formula_sum "Si O2"
_cell_formula_units_Z 48
_cell_length_a 19.199222
_cell_length_b 8.071463
_cell_length_c 14.712854
_cell_angle_alpha 90.000000
_cell_angle_beta 90.000000
_cell_angle_gamma 90.000000
_cell_volume 2279.989338
_symmetry_space_group_name_H-M "I M A 2"
_symmetry_group_IT_number 46
_symmetry_cell_setting 'orthorhombic'
loop_
_space_group_symop_operation_xyz
x,y,z
-x,-y,z
1/2-x,y,z
1/2+x,-y,z
1/2+x,1/2+y,1/2+z
1/2-x,1/2-y,1/2+z
-x,1/2+y,1/2+z
x,1/2-y,1/2+z
loop_
_atom_site_type_symbol
_atom_site_label
_atom_site_fract_x
_atom_site_fract_y
_atom_site_fract_z
Si Si1 0.928810 0.399050 0.405320
Si Si2 0.170874 0.366472 0.119029
Si Si3 0.328220 0.188271 0.932213
Si Si4 0.937387 0.374326 0.054648
Si Si5 0.400154 0.354437 0.771713
Si Si6 0.556488 0.296751 0.738455
O O1 0.864107 0.510802 0.431842
O O2 0.925939 0.230605 0.463604
O O3 0.914338 0.353734 0.299482
O O4 0.000000 0.500000 0.420388
O O5 0.250000 0.412551 0.146820
O O6 0.132195 0.533848 0.088361
O O7 0.133076 0.276002 0.202271
O O8 0.170132 0.241684 0.035833
O O9 0.250000 0.169535 0.895632
O O10 0.367011 0.324916 0.870599
O O11 0.957860 0.248309 0.134434
O O12 0.000000 0.500000 0.036052
O O13 0.481984 0.329631 0.783850
O O14 0.390676 0.546161 0.741782
#
# Coordination Sequence:
#
# PCOD8193356 Si02
#       6
#     8   8   8   8   8   8
#     4  12  24  40  65  96 127 166 211 266 314 373
#     4  11  24  43  64  90 129 171 210 255 316 378
#     4  11  24  43  64  90 129 171 210 255 316 378
#     4  12  24  40  65  96 127 166 211 266 314 373
#     4  11  22  41  65  94 122 168 204 257 313 377
#     4  11  24  38  66  95 130 153 211 266 309 364
#
# _framework density 21.052728999999999
#
# number of rings (size 3 to 8) (size 9 to 14) (size 15 to 20)
#    0.000    0.667    3.333    5.000    4.667    0.667 
#    0.000    3.333    0.000    0.000    0.000    0.000 
#    0.000    0.000    0.000    0.000    0.000    0.000 
#
# Total GULP energy -297661.640223 kJ/mol
# GULP energy per Si atom -12402.568343 kJ/mol
# Density = 2.100481 g / cm^3
# Si number density = 21.052729 Si / 1000 Ang^3
#
#
#
# Elastic Constant Matrix: (Units=GPa)
#
#
# Indices 1 2 3 4 5 6 
#
# 1 86.6691 34.5431 -2.8717 0.0000 0.0000 0.0000
# 2 34.5431 100.7926 6.5523 0.0000 0.0000 0.0000
# 3 -2.8717 6.5523 62.5939 0.0000 0.0000 0.0000
# 4 0.0000 0.0000 0.0000 38.6283 0.0000 0.0000
# 5 0.0000 0.0000 0.0000 0.0000 26.1565 0.0000
# 6 0.0000 0.0000 0.0000 0.0000 0.0000 33.0296
#
#
#
# Elastic Compliance Matrix: (Units=1/GPa)
#
#
# Indices 1 2 3 4 5 6 
#
# 1 0.013439 -0.004678 0.001106 0.000000 0.000000 0.000000
# 2 -0.004678 0.011617 -0.001431 0.000000 0.000000 0.000000
# 3 0.001106 -0.001431 0.016177 0.000000 0.000000 0.000000
# 4 0.000000 0.000000 0.000000 0.025888 0.000000 0.000000
# 5 0.000000 0.000000 0.000000 0.000000 0.038231 0.000000
# 6 0.000000 0.000000 0.000000 0.000000 0.000000 0.030276
#
#
# Mechanical properties :
#
#
# Convention : Reuss Voigt Hill
#
# Bulk Modulus (GPa) = 32.02179 36.27812 34.14996
# Shear Modulus (GPa) = 32.04261 33.68500 32.86380
#
# Velocity S-wave (km/s) = 3.90554 4.00438 3.95527
# Velocity P-wave (km/s) = 5.96497 6.21687 6.09222
#
# Compressibility (1/GPa) = 0.03122873
#
# Stress axis : x y z
#
# Youngs Moduli (GPa) = 74.40950 86.07712 61.81803
#
# Poissons Ratio (x) = 0.40264 -0.06838
# Poissons Ratio (y) = 0.34807 0.08844
# Poissons Ratio (z) = -0.08231 0.12315
#
# Static dielectric constant tensor:
#      x y z
#    x 3.882120 0.000000 0.000000 
#    y 0.000000 3.993260 0.000000 
#    z 0.000000 0.000000 3.863020 
# 
# 
# High freq. dielectric constant tensor:
#      x y z
#    x 1.814760 0.000000 0.000000 
#    y 0.000000 1.831730 0.000000 
#    z 0.000000 0.000000 1.842210 
# 
# From -- ./inp_files/16506.got.cif
#   From: 2010.03.12/outbox.cif.g09.slc.cpg/sg46_9_cif.got.tgz:16506.got - 2010.04.14 02:56:35.
