data_PCOD8193976
_publ_section_title
;
Structure prediction by ZEFSAII (Michael W. Deem and Ramdas Pophale) SiO2 
 PCOD8193976
Probable space group: P M M M
;
_chemical_formula_sum "Si O2"
_cell_formula_units_Z 56
_cell_length_a 14.529166
_cell_length_b 9.532227
_cell_length_c 23.056247
_cell_angle_alpha 90.000000
_cell_angle_beta 90.000000
_cell_angle_gamma 90.000000
_cell_volume 3193.182040
_symmetry_space_group_name_H-M "P M M M"
_symmetry_group_IT_number 47
_symmetry_cell_setting 'orthorhombic'
loop_
_space_group_symop_operation_xyz
x,y,z
-x,-y,z
x,-y,-z
-x,y,-z
-x,-y,-z
x,y,-z
-x,y,z
x,-y,z
loop_
_atom_site_type_symbol
_atom_site_label
_atom_site_fract_x
_atom_site_fract_y
_atom_site_fract_z
Si Si1 0.736472 0.838793 0.564554
Si Si2 0.106435 0.336895 0.389556
Si Si3 0.395777 0.337701 0.779684
Si Si4 0.100939 0.333613 0.260358
Si Si5 0.104105 0.838020 0.067762
Si Si6 0.220718 0.663641 0.154260
Si Si7 0.605827 0.836835 0.667743
O O1 0.694408 0.819298 0.500000
O O2 0.830424 0.750926 0.567260
O O3 0.662960 0.785066 0.611882
O O4 0.761282 0.000000 0.576344
O O5 0.130032 0.500000 0.396822
O O6 0.129507 0.282617 0.324405
O O7 0.000000 0.309051 0.404623
O O8 0.500000 0.298857 0.798328
O O9 0.387095 0.500000 0.761465
O O10 0.329430 0.307496 0.834974
O O11 0.362828 0.248851 0.724367
O O12 0.097482 0.500000 0.261664
O O13 0.171418 0.279269 0.212306
O O14 0.000000 0.274268 0.244359
O O15 0.181810 0.747629 0.099733
O O16 0.000000 0.791114 0.084980
O O17 0.118351 0.000000 0.084010
O O18 0.119380 0.813489 0.000000
O O19 0.200674 0.500000 0.143225
O O20 0.500000 0.804830 0.653321
O O21 0.622049 0.000000 0.681063
#
# Coordination Sequence:
#
# PCOD8193976 Si02
#       7
#     8   8   8   8   8   8   8
#     4  10  21  34  47  66  92 121 154 195 242 286
#     4   9  18  33  51  68  89 121 158 193 232 283
#     4   9  18  32  50  74 103 130 155 190 240 290
#     4   8  14  25  42  66  93 116 142 183 233 278
#     4   9  19  35  51  69  99 136 167 197 237 280
#     4  10  18  28  48  75  99 126 161 198 234 277
#     4   9  18  33  52  72  94 122 157 195 236 287
#
# _framework density 17.537365000000001
#
# number of rings (size 3 to 8) (size 9 to 14) (size 15 to 20)
#    0.000    2.857    0.000    2.571    0.000    4.571 
#    0.000    4.286    0.000    1.286    0.000    6.000 
#    0.000    0.000    0.000    0.000    0.000    0.000 
#
# Total GULP energy -694226.906094 kJ/mol
# GULP energy per Si atom -12396.909037 kJ/mol
# Density = 1.749745 g / cm^3
# Si number density = 17.537365 Si / 1000 Ang^3
#
#
#
# Elastic Constant Matrix: (Units=GPa)
#
#
# Indices 1 2 3 4 5 6 
#
# 1 97.9827 44.7337 56.5159 0.0000 0.0000 0.0000
# 2 44.7337 53.4509 42.1719 0.0000 0.0000 0.0000
# 3 56.5159 42.1719 82.9047 0.0000 0.0000 0.0000
# 4 0.0000 0.0000 0.0000 28.2178 0.0000 0.0000
# 5 0.0000 0.0000 0.0000 0.0000 27.1752 0.0000
# 6 0.0000 0.0000 0.0000 0.0000 0.0000 24.4547
#
#
#
# Elastic Compliance Matrix: (Units=1/GPa)
#
#
# Indices 1 2 3 4 5 6 
#
# 1 0.019429 -0.009706 -0.008307 0.000000 0.000000 0.000000
# 2 -0.009706 0.036100 -0.011747 0.000000 0.000000 0.000000
# 3 -0.008307 -0.011747 0.023701 0.000000 0.000000 0.000000
# 4 0.000000 0.000000 0.000000 0.035439 0.000000 0.000000
# 5 0.000000 0.000000 0.000000 0.000000 0.036798 0.000000
# 6 0.000000 0.000000 0.000000 0.000000 0.000000 0.040892
#
#
# Mechanical properties :
#
#
# Convention : Reuss Voigt Hill
#
# Bulk Modulus (GPa) = 50.73806 57.90904 54.32355
# Shear Modulus (GPa) = 19.34633 22.03066 20.68850
#
# Velocity S-wave (km/s) = 3.32497 3.54815 3.43837
# Velocity P-wave (km/s) = 6.61323 7.06243 6.84152
#
# Compressibility (1/GPa) = 0.01970907
#
# Stress axis : x y z
#
# Youngs Moduli (GPa) = 51.47035 27.70115 42.19320
#
# Poissons Ratio (x) = 0.26886 0.35052
# Poissons Ratio (y) = 0.49956 0.49563
# Poissons Ratio (z) = 0.42758 0.32540
#
# Static dielectric constant tensor:
#      x y z
#    x 3.353410 0.000000 0.000000 
#    y 0.000000 3.050300 0.000000 
#    z 0.000000 0.000000 3.164180 
# 
# 
# High freq. dielectric constant tensor:
#      x y z
#    x 1.679410 0.000000 0.000000 
#    y 0.000000 1.659120 0.000000 
#    z 0.000000 0.000000 1.663890 
# 
# From -- ./inp_files/7254.got.cif
#   From: 2010.03.12/outbox.cif.g09.slc.cpg/sg47_4_cif.got.tgz:7254.got - 2010.04.14 03:12:58.
