data_PCOD8193596
_publ_section_title
;
Structure prediction by ZEFSAII (Michael W. Deem and Ramdas Pophale) SiO2 
 PCOD8193596
Probable space group: P M M M
;
_chemical_formula_sum "Si O2"
_cell_formula_units_Z 52
_cell_length_a 11.911456
_cell_length_b 28.119747
_cell_length_c 9.017285
_cell_angle_alpha 90.000000
_cell_angle_beta 90.000000
_cell_angle_gamma 90.000000
_cell_volume 3020.313723
_symmetry_space_group_name_H-M "P M M M"
_symmetry_group_IT_number 47
_symmetry_cell_setting 'orthorhombic'
loop_
_space_group_symop_operation_xyz
x,y,z
-x,-y,z
x,-y,-z
-x,y,-z
-x,-y,-z
x,y,-z
-x,y,z
x,-y,z
loop_
_atom_site_type_symbol
_atom_site_label
_atom_site_fract_x
_atom_site_fract_y
_atom_site_fract_z
Si Si1 0.500000 0.757004 0.165784
Si Si2 0.869330 0.445401 0.168777
Si Si3 0.500000 0.644888 0.166833
Si Si4 0.633613 0.000000 0.337001
Si Si5 0.124983 0.721199 0.675458
Si Si6 0.373603 0.898599 0.676489
Si Si7 0.730185 0.632252 0.675048
Si Si8 0.709862 0.800288 0.325538
O O1 0.500000 0.700975 0.164258
O O2 0.609239 0.773238 0.250232
O O3 0.500000 0.778042 0.000000
O O4 0.835797 0.500000 0.195307
O O5 0.801760 0.413983 0.285265
O O6 0.000000 0.437664 0.200428
O O7 0.840529 0.430442 0.000000
O O8 0.390303 0.626311 0.250344
O O9 0.500000 0.624229 0.000000
O O10 0.668131 0.050049 0.256149
O O11 0.500000 0.000000 0.351074
O O12 0.689046 0.000000 0.500000
O O13 0.116921 0.716317 0.500000
O O14 0.204268 0.679005 0.736716
O O15 0.175724 0.773038 0.719272
O O16 0.000000 0.717446 0.745290
O O17 0.375958 0.904235 0.500000
O O18 0.500000 0.886182 0.732285
O O19 0.289877 0.855888 0.725397
O O20 0.713408 0.635763 0.500000
O O21 0.688663 0.797253 0.500000
#
# Coordination Sequence:
#
# PCOD8193596 Si02
#       8
#     4   8   4   4   8   8   8   8
#     4  11  21  31  45  67  97 125 156 196 236 279
#     4   9  19  37  59  81 107 140 174 206 244 290
#     4  11  23  37  52  72 102 136 169 197 238 303
#     4   7  10  16  26  50  85 111 139 190 239 270
#     4   9  18  30  45  69  98 124 153 193 239 283
#     4   8  12  18  33  57  84 113 149 191 233 277
#     4  11  21  34  55  79 104 131 164 207 251 288
#     4  10  17  28  47  66  89 123 161 193 230 284
#
# _framework density 17.216754000000002
#
# number of rings (size 3 to 8) (size 9 to 14) (size 15 to 20)
#    0.000    2.538    2.308    2.769    0.000    1.846 
#    0.000    1.154    0.000    3.692    0.000    1.615 
#    0.000    4.308    0.000    0.000    0.000    1.538 
#
# Total GULP energy -644353.709420 kJ/mol
# GULP energy per Si atom -12391.417489 kJ/mol
# Density = 1.717757 g / cm^3
# Si number density = 17.216754 Si / 1000 Ang^3
#
#
#
# Elastic Constant Matrix: (Units=GPa)
#
#
# Indices 1 2 3 4 5 6 
#
# 1 95.9705 51.7688 27.7210 0.0000 0.0000 0.0000
# 2 51.7688 118.7125 25.8218 0.0000 0.0000 0.0000
# 3 27.7210 25.8218 41.5404 0.0000 0.0000 0.0000
# 4 0.0000 0.0000 0.0000 11.3784 0.0000 0.0000
# 5 0.0000 0.0000 0.0000 0.0000 16.4818 0.0000
# 6 0.0000 0.0000 0.0000 0.0000 0.0000 30.8368
#
#
#
# Elastic Compliance Matrix: (Units=1/GPa)
#
#
# Indices 1 2 3 4 5 6 
#
# 1 0.015185 -0.005109 -0.006958 0.000000 0.000000 0.000000
# 2 -0.005109 0.011459 -0.003714 0.000000 0.000000 0.000000
# 3 -0.006958 -0.003714 0.031025 0.000000 0.000000 0.000000
# 4 0.000000 0.000000 0.000000 0.087886 0.000000 0.000000
# 5 0.000000 0.000000 0.000000 0.000000 0.060673 0.000000
# 6 0.000000 0.000000 0.000000 0.000000 0.000000 0.032429
#
#
# Mechanical properties :
#
#
# Convention : Reuss Voigt Hill
#
# Bulk Modulus (GPa) = 38.30222 51.87187 45.08705
# Shear Modulus (GPa) = 17.92615 21.80017 19.86316
#
# Velocity S-wave (km/s) = 3.23027 3.56226 3.40032
# Velocity P-wave (km/s) = 6.01733 6.86394 6.45453
#
# Compressibility (1/GPa) = 0.02610815
#
# Stress axis : x y z
#
# Youngs Moduli (GPa) = 65.85259 87.26460 32.23210
#
# Poissons Ratio (x) = 0.44581 0.22427
# Poissons Ratio (y) = 0.33642 0.11971
# Poissons Ratio (z) = 0.45821 0.32411
#
# Static dielectric constant tensor:
#      x y z
#    x 3.056310 0.000000 0.000000 
#    y 0.000000 3.597990 0.000000 
#    z 0.000000 0.000000 2.936250 
# 
# 
# High freq. dielectric constant tensor:
#      x y z
#    x 1.638280 0.000000 0.000000 
#    y 0.000000 1.677330 0.000000 
#    z 0.000000 0.000000 1.627350 
# 
# From -- ./inp_files/4595.got.cif
#   From: 2010.03.12/outbox.cif.g09.slc.cpg/sg47_3_cif.got.tgz:4595.got - 2010.04.14 03:12:58.
