data_PCOD8193566
_publ_section_title
;
Structure prediction by ZEFSAII (Michael W. Deem and Ramdas Pophale) SiO2 
 PCOD8193566
Probable space group: P M M M
;
_chemical_formula_sum "Si O2"
_cell_formula_units_Z 64
_cell_length_a 31.039165
_cell_length_b 9.129890
_cell_length_c 14.218722
_cell_angle_alpha 90.000000
_cell_angle_beta 90.000000
_cell_angle_gamma 90.000000
_cell_volume 4029.360621
_symmetry_space_group_name_H-M "P M M M"
_symmetry_group_IT_number 47
_symmetry_cell_setting 'orthorhombic'
loop_
_space_group_symop_operation_xyz
x,y,z
-x,-y,z
x,-y,-z
-x,y,-z
-x,-y,-z
x,y,-z
-x,y,z
x,-y,z
loop_
_atom_site_type_symbol
_atom_site_label
_atom_site_fract_x
_atom_site_fract_y
_atom_site_fract_z
Si Si1 0.708337 0.169055 0.391236
Si Si2 0.233350 0.670362 0.106577
Si Si3 0.952567 0.835618 0.388301
Si Si4 0.869883 0.332676 0.611549
Si Si5 0.547346 0.325956 0.394350
Si Si6 0.631387 0.674532 0.293429
Si Si7 0.331170 0.673859 0.101840
Si Si8 0.794143 0.172972 0.716825
O O1 0.718965 0.196675 0.500000
O O2 0.667347 0.264748 0.363165
O O3 0.749518 0.221191 0.331855
O O4 0.697617 0.000000 0.371217
O O5 0.229890 0.500000 0.132993
O O6 0.282363 0.727191 0.117506
O O7 0.203953 0.762953 0.177642
O O8 0.217209 0.697546 0.000000
O O9 0.952398 0.834954 0.500000
O O10 0.915947 0.725925 0.350533
O O11 0.000000 0.784705 0.352337
O O12 0.942792 0.000000 0.351908
O O13 0.866459 0.315922 0.500000
O O14 0.865055 0.500000 0.643667
O O15 0.832738 0.236713 0.656549
O O16 0.556013 0.267943 0.500000
O O17 0.500000 0.271850 0.359794
O O18 0.548338 0.500000 0.394923
O O19 0.584585 0.265689 0.325560
O O20 0.633753 0.500000 0.298368
O O21 0.639123 0.732468 0.186862
O O22 0.331276 0.500000 0.100126
O O23 0.348170 0.732215 0.000000
O O24 0.799277 0.000000 0.720341
#
# Coordination Sequence:
#
# PCOD8193566 Si02
#       8
#     8   8   8   8   8   8   8   8
#     4  10  21  33  42  58  88 120 144 175 221 262
#     4   9  17  31  49  66  87 114 144 183 230 272
#     4   8  14  26  44  64  87 118 156 196 237 279
#     4  10  20  31  44  64  91 125 163 199 232 270
#     4   8  14  24  38  60  88 111 135 175 223 261
#     4  10  17  27  47  67  81 106 148 184 209 255
#     4   8  14  25  42  64  87 108 133 173 222 263
#     4  11  21  32  46  63  89 123 154 185 224 274
#
# _framework density 15.883414
#
# number of rings (size 3 to 8) (size 9 to 14) (size 15 to 20)
#    0.000    2.750    1.250    3.000    0.000    3.000 
#    0.000    1.250    0.000    1.125    0.000    4.375 
#    0.000    0.500    0.000    6.375    0.000    3.875 
#
# Total GULP energy -793288.533991 kJ/mol
# GULP energy per Si atom -12395.133344 kJ/mol
# Density = 1.584726 g / cm^3
# Si number density = 15.883414 Si / 1000 Ang^3
#
#
#
# Elastic Constant Matrix: (Units=GPa)
#
#
# Indices 1 2 3 4 5 6 
#
# 1 102.8741 39.4893 35.4727 0.0000 0.0000 0.0000
# 2 39.4893 50.5944 29.4980 0.0000 0.0000 0.0000
# 3 35.4727 29.4980 70.6063 0.0000 0.0000 0.0000
# 4 0.0000 0.0000 0.0000 17.5907 0.0000 0.0000
# 5 0.0000 0.0000 0.0000 0.0000 6.8859 0.0000
# 6 0.0000 0.0000 0.0000 0.0000 0.0000 17.8414
#
#
#
# Elastic Compliance Matrix: (Units=1/GPa)
#
#
# Indices 1 2 3 4 5 6 
#
# 1 0.014461 -0.009322 -0.003371 0.000000 0.000000 0.000000
# 2 -0.009322 0.032139 -0.008744 0.000000 0.000000 0.000000
# 3 -0.003371 -0.008744 0.019509 0.000000 0.000000 0.000000
# 4 0.000000 0.000000 0.000000 0.056848 0.000000 0.000000
# 5 0.000000 0.000000 0.000000 0.000000 0.145225 0.000000
# 6 0.000000 0.000000 0.000000 0.000000 0.000000 0.056049
#
#
# Mechanical properties :
#
#
# Convention : Reuss Voigt Hill
#
# Bulk Modulus (GPa) = 43.03533 48.11053 45.57293
# Shear Modulus (GPa) = 13.33867 16.43791 14.88829
#
# Velocity S-wave (km/s) = 2.90105 3.22049 3.06494
# Velocity P-wave (km/s) = 6.19474 6.64713 6.42492
#
# Compressibility (1/GPa) = 0.02323672
#
# Stress axis : x y z
#
# Youngs Moduli (GPa) = 69.15045 31.11528 51.25711
#
# Poissons Ratio (x) = 0.29005 0.17278
# Poissons Ratio (y) = 0.64461 0.44817
# Poissons Ratio (z) = 0.23310 0.27206
#
# Static dielectric constant tensor:
#      x y z
#    x 3.177050 0.000000 0.000000 
#    y 0.000000 2.824820 0.000000 
#    z 0.000000 0.000000 3.101250 
# 
# 
# High freq. dielectric constant tensor:
#      x y z
#    x 1.600760 0.000000 0.000000 
#    y 0.000000 1.589890 0.000000 
#    z 0.000000 0.000000 1.592660 
# 
# From -- ./inp_files/8217.got.cif
#   From: 2010.03.12/outbox.cif.g09.slc.cpg/sg47_5_cif.got.tgz:8217.got - 2010.04.14 03:12:58.
