data_PCOD8193921
_publ_section_title
;
Structure prediction by ZEFSAII (Michael W. Deem and Ramdas Pophale) SiO2 
 PCOD8193921
Probable space group: P M M M
;
_chemical_formula_sum "Si O2"
_cell_formula_units_Z 56
_cell_length_a 9.619906
_cell_length_b 19.898143
_cell_length_c 16.043454
_cell_angle_alpha 90.000000
_cell_angle_beta 90.000000
_cell_angle_gamma 90.000000
_cell_volume 3071.010133
_symmetry_space_group_name_H-M "P M M M"
_symmetry_group_IT_number 47
_symmetry_cell_setting 'orthorhombic'
loop_
_space_group_symop_operation_xyz
x,y,z
-x,-y,z
x,-y,-z
-x,y,-z
-x,-y,-z
x,y,-z
-x,y,z
x,-y,z
loop_
_atom_site_type_symbol
_atom_site_label
_atom_site_fract_x
_atom_site_fract_y
_atom_site_fract_z
Si Si1 0.342334 0.791535 0.342588
Si Si2 0.342965 0.803966 0.847390
Si Si3 0.340170 0.071823 0.402228
Si Si4 0.839918 0.924250 0.902651
Si Si5 0.665124 0.663945 0.908145
Si Si6 0.665792 0.346658 0.407227
Si Si7 0.334193 0.575935 0.245321
O O1 0.500000 0.798927 0.375249
O O2 0.338422 0.775219 0.245589
O O3 0.265525 0.862988 0.361035
O O4 0.274027 0.728524 0.390969
O O5 0.500000 0.823215 0.873747
O O6 0.251564 0.870631 0.853565
O O7 0.284152 0.741632 0.901470
O O8 0.327346 0.080225 0.500000
O O9 0.500000 0.069170 0.373616
O O10 0.271076 0.000000 0.374659
O O11 0.000000 0.911664 0.880202
O O12 0.796527 0.000000 0.876413
O O13 0.813777 0.914044 0.000000
O O14 0.500000 0.663748 0.899531
O O15 0.726804 0.617445 0.834061
O O16 0.710790 0.636956 0.000000
O O17 0.713425 0.370847 0.500000
O O18 0.500000 0.344924 0.401780
O O19 0.722191 0.395309 0.333928
O O20 0.500000 0.578417 0.244208
O O21 0.279539 0.500000 0.236903
#
# Coordination Sequence:
#
# PCOD8193921 Si02
#       7
#     8   8   8   8   8   8   8
#     4   9  15  23  35  53  80 110 140 178 225 271
#     4  10  18  28  45  68  92 117 151 195 234 270
#     4   8  13  20  29  43  67 101 137 168 203 255
#     4   9  19  35  50  64  88 122 156 191 232 277
#     4   9  16  26  39  56  81 112 145 184 232 279
#     4   9  15  23  35  50  74 113 154 186 223 274
#     4   9  16  25  35  50  76 111 153 193 226 271
#
# _framework density 18.235042
#
# number of rings (size 3 to 8) (size 9 to 14) (size 15 to 20)
#    0.000    3.000    1.429    1.714    0.000    4.000 
#    0.000    5.000    0.000    0.000    0.000    0.000 
#    0.000    2.857    0.000   10.857    0.000   10.571 
#
# Total GULP energy -693757.223012 kJ/mol
# GULP energy per Si atom -12388.521839 kJ/mol
# Density = 1.819354 g / cm^3
# Si number density = 18.235042 Si / 1000 Ang^3
#
#
#
# Elastic Constant Matrix: (Units=GPa)
#
#
# Indices 1 2 3 4 5 6 
#
# 1 16.4916 18.5537 10.0116 0.0000 0.0000 0.0000
# 2 18.5537 144.1063 65.3942 0.0000 0.0000 0.0000
# 3 10.0116 65.3942 110.1706 0.0000 0.0000 0.0000
# 4 0.0000 0.0000 0.0000 30.1957 0.0000 0.0000
# 5 0.0000 0.0000 0.0000 0.0000 2.2430 0.0000
# 6 0.0000 0.0000 0.0000 0.0000 0.0000 5.6402
#
#
#
# Elastic Compliance Matrix: (Units=1/GPa)
#
#
# Indices 1 2 3 4 5 6 
#
# 1 0.071067 -0.008512 -0.001406 0.000000 0.000000 0.000000
# 2 -0.008512 0.010517 -0.005469 0.000000 0.000000 0.000000
# 3 -0.001406 -0.005469 0.012451 0.000000 0.000000 0.000000
# 4 0.000000 0.000000 0.000000 0.033117 0.000000 0.000000
# 5 0.000000 0.000000 0.000000 0.000000 0.445827 0.000000
# 6 0.000000 0.000000 0.000000 0.000000 0.000000 0.177298
#
#
# Mechanical properties :
#
#
# Convention : Reuss Voigt Hill
#
# Bulk Modulus (GPa) = 15.80748 50.96528 33.38638
# Shear Modulus (GPa) = 6.23335 19.40305 12.81820
#
# Velocity S-wave (km/s) = 1.85088 3.26552 2.65418
# Velocity P-wave (km/s) = 3.64077 6.49830 5.26703
#
# Compressibility (1/GPa) = 0.06326117
#
# Stress axis : x y z
#
# Youngs Moduli (GPa) = 14.07131 95.08328 80.31551
#
# Poissons Ratio (x) = 0.80935 0.11289
# Poissons Ratio (y) = 0.11978 0.43926
# Poissons Ratio (z) = 0.01978 0.52002
#
# Static dielectric constant tensor:
#      x y z
#    x 2.506620 0.000000 0.000000 
#    y 0.000000 3.672980 0.000000 
#    z 0.000000 0.000000 3.435890 
# 
# 
# High freq. dielectric constant tensor:
#      x y z
#    x 1.598200 0.000000 0.000000 
#    y 0.000000 1.723300 0.000000 
#    z 0.000000 0.000000 1.715220 
# 
# From -- ./inp_files/21572.got.cif
#   From: 2010.03.12/outbox.cif.g09.slc.cpg/sg47_11_cif.got.tgz:21572.got - 2010.04.14 03:12:58.
