data_PCOD8193643
_publ_section_title
;
Structure prediction by ZEFSAII (Michael W. Deem and Ramdas Pophale) SiO2 
 PCOD8193643
Probable space group: P M M M
;
_chemical_formula_sum "Si O2"
_cell_formula_units_Z 52
_cell_length_a 28.325509
_cell_length_b 11.775879
_cell_length_c 8.993861
_cell_angle_alpha 90.000000
_cell_angle_beta 90.000000
_cell_angle_gamma 90.000000
_cell_volume 2999.972188
_symmetry_space_group_name_H-M "P M M M"
_symmetry_group_IT_number 47
_symmetry_cell_setting 'orthorhombic'
loop_
_space_group_symop_operation_xyz
x,y,z
-x,-y,z
x,-y,-z
-x,y,-z
-x,-y,-z
x,y,-z
-x,y,z
x,-y,z
loop_
_atom_site_type_symbol
_atom_site_label
_atom_site_fract_x
_atom_site_fract_y
_atom_site_fract_z
Si Si1 0.146319 0.231521 0.175951
Si Si2 0.224752 0.631770 0.674705
Si Si3 0.052062 0.127557 0.823537
Si Si4 0.703392 0.000000 0.824736
Si Si5 0.500000 0.635206 0.667934
Si Si6 0.407303 0.632735 0.171860
Si Si7 0.313467 0.247645 0.176532
Si Si8 0.807036 0.000000 0.176169
O O1 0.173659 0.331926 0.260618
O O2 0.091103 0.221500 0.225335
O O3 0.167473 0.112622 0.231652
O O4 0.152152 0.251468 0.000000
O O5 0.225459 0.654312 0.500000
O O6 0.232663 0.500000 0.712594
O O7 0.266401 0.703775 0.749610
O O8 0.000000 0.166783 0.768143
O O9 0.063237 0.000000 0.762547
O O10 0.053288 0.119822 0.000000
O O11 0.677568 0.883785 0.776180
O O12 0.755164 0.000000 0.752674
O O13 0.709008 0.000000 0.000000
O O14 0.500000 0.500000 0.681230
O O15 0.500000 0.677982 0.500000
O O16 0.547021 0.683947 0.745559
O O17 0.402930 0.500000 0.200983
O O18 0.359540 0.687275 0.236153
O O19 0.413698 0.662526 0.000000
O O20 0.307226 0.262114 0.000000
O O21 0.805907 0.000000 0.000000
#
# Coordination Sequence:
#
# PCOD8193643 Si02
#       8
#     8   8   8   4   4   8   8   4
#     4  10  17  29  51  73  97 128 160 193 234 289
#     4  11  24  37  47  65  96 130 164 204 245 283
#     4   8  13  22  42  75 106 125 147 188 242 291
#     4   9  16  28  48  74 101 124 154 196 234 278
#     4   9  17  29  47  70  95 126 162 199 242 287
#     4   9  17  29  47  72  99 125 157 199 240 279
#     4  10  19  33  54  76  99 128 161 196 239 292
#     4   9  14  24  45  74  98 121 154 193 233 275
#
# _framework density 17.333493000000001
#
# number of rings (size 3 to 8) (size 9 to 14) (size 15 to 20)
#    0.000    2.538    2.308    1.615    0.000    3.385 
#    0.000    3.077    0.000    1.385    0.000    7.538 
#    0.000    0.000    0.000    0.000    0.000    0.000 
#
# Total GULP energy -644418.762319 kJ/mol
# GULP energy per Si atom -12392.668506 kJ/mol
# Density = 1.729404 g / cm^3
# Si number density = 17.333493 Si / 1000 Ang^3
#
#
#
# Elastic Constant Matrix: (Units=GPa)
#
#
# Indices 1 2 3 4 5 6 
#
# 1 145.9790 41.0116 40.6608 0.0000 0.0000 0.0000
# 2 41.0116 66.1394 33.7818 0.0000 0.0000 0.0000
# 3 40.6608 33.7818 43.2696 0.0000 0.0000 0.0000
# 4 0.0000 0.0000 0.0000 12.6889 0.0000 0.0000
# 5 0.0000 0.0000 0.0000 0.0000 8.9386 0.0000
# 6 0.0000 0.0000 0.0000 0.0000 0.0000 25.6231
#
#
#
# Elastic Compliance Matrix: (Units=1/GPa)
#
#
# Indices 1 2 3 4 5 6 
#
# 1 0.009469 -0.002207 -0.007175 0.000000 0.000000 0.000000
# 2 -0.002207 0.025662 -0.017962 0.000000 0.000000 0.000000
# 3 -0.007175 -0.017962 0.043877 0.000000 0.000000 0.000000
# 4 0.000000 0.000000 0.000000 0.078809 0.000000 0.000000
# 5 0.000000 0.000000 0.000000 0.000000 0.111875 0.000000
# 6 0.000000 0.000000 0.000000 0.000000 0.000000 0.039027
#
#
# Mechanical properties :
#
#
# Convention : Reuss Voigt Hill
#
# Bulk Modulus (GPa) = 41.11704 54.03293 47.57498
# Shear Modulus (GPa) = 13.45852 18.77904 16.11878
#
# Velocity S-wave (km/s) = 2.78950 3.29507 3.05277
# Velocity P-wave (km/s) = 5.84361 6.76143 6.31920
#
# Compressibility (1/GPa) = 0.02432082
#
# Stress axis : x y z
#
# Youngs Moduli (GPa) = 105.61032 38.96823 22.79121
#
# Poissons Ratio (x) = 0.08598 0.16353
# Poissons Ratio (y) = 0.23303 0.40936
# Poissons Ratio (z) = 0.75777 0.69993
#
# Static dielectric constant tensor:
#      x y z
#    x 3.615320 0.000000 0.000000 
#    y 0.000000 3.202310 0.000000 
#    z 0.000000 0.000000 2.891520 
# 
# 
# High freq. dielectric constant tensor:
#      x y z
#    x 1.680220 0.000000 0.000000 
#    y 0.000000 1.644630 0.000000 
#    z 0.000000 0.000000 1.632420 
# 
# From -- ./inp_files/13308.got.cif
#   From: 2010.03.12/outbox.cif.g09.slc.cpg/sg47_7_cif.got.tgz:13308.got - 2010.04.14 03:12:58.
