data_PCOD8193025
_publ_section_title
;
Structure prediction by ZEFSAII (Michael W. Deem and Ramdas Pophale) SiO2 
 PCOD8193025
Probable space group: I M A 2
;
_chemical_formula_sum "Si O2"
_cell_formula_units_Z 56
_cell_length_a 8.620694
_cell_length_b 15.482850
_cell_length_c 19.705891
_cell_angle_alpha 90.000000
_cell_angle_beta 90.000000
_cell_angle_gamma 90.000000
_cell_volume 2630.202657
_symmetry_space_group_name_H-M "I M A 2"
_symmetry_group_IT_number 46
_symmetry_cell_setting 'orthorhombic'
loop_
_space_group_symop_operation_xyz
x,y,z
-x,-y,z
1/2-x,y,z
1/2+x,-y,z
1/2+x,1/2+y,1/2+z
1/2-x,1/2-y,1/2+z
-x,1/2+y,1/2+z
x,1/2-y,1/2+z
loop_
_atom_site_type_symbol
_atom_site_label
_atom_site_fract_x
_atom_site_fract_y
_atom_site_fract_z
Si Si1 0.428113 0.584823 0.795930
Si Si2 0.922887 0.583992 0.075058
Si Si3 0.070900 0.310052 0.413321
Si Si4 0.434885 0.405219 0.544775
Si Si5 0.579416 0.614288 0.926062
Si Si6 0.931769 0.735464 0.267743
Si Si7 0.930281 0.251588 0.126402
O O1 0.500000 0.500000 0.759940
O O2 0.250000 0.598673 0.774434
O O3 0.445528 0.575028 0.877677
O O4 0.535858 0.663298 0.774719
O O5 0.750000 0.599616 0.105303
O O6 0.000000 0.500000 0.111080
O O7 0.028302 0.668933 0.078271
O O8 0.913436 0.562110 0.995580
O O9 0.250000 0.332759 0.407558
O O10 0.999325 0.375261 0.470063
O O11 0.042377 0.214517 0.441747
O O12 0.003729 0.315415 0.335359
O O13 0.500000 0.500000 0.561924
O O14 0.250000 0.407682 0.544786
O O15 0.485797 0.336778 0.602896
O O16 0.750000 0.608908 0.889875
O O17 0.750000 0.719065 0.259016
O O18 0.019486 0.709195 0.199508
O O19 0.750000 0.231028 0.125714
#
# Coordination Sequence:
#
# PCOD8193025 Si02
#       7
#     8   8   8   8   8   8   8
#     4  11  21  33  51  81 117 153 194 243 296 363
#     4  11  22  38  60  88 121 159 200 250 306 368
#     4   8  16  35  62  88 117 155 202 250 307 369
#     4  11  22  41  66  97 130 170 216 270 325 388
#     4   9  17  33  56  83 115 153 192 236 294 355
#     4  10  21  40  63  85 114 162 208 258 319 379
#     4  12  25  42  62  92 127 167 213 264 321 388
#
# _framework density 21.291135000000001
#
# number of rings (size 3 to 8) (size 9 to 14) (size 15 to 20)
#    0.000    1.714    1.429    5.143    0.000    2.857 
#    0.000    5.714    0.000    1.714    0.000    0.000 
#    0.000    0.000    0.000    0.000    0.000    0.000 
#
# Total GULP energy -346913.386962 kJ/mol
# GULP energy per Si atom -12389.763820 kJ/mol
# Density = 2.124268 g / cm^3
# Si number density = 21.291135 Si / 1000 Ang^3
#
#
#
# Elastic Constant Matrix: (Units=GPa)
#
#
# Indices 1 2 3 4 5 6 
#
# 1 95.8070 29.5194 24.6587 0.0000 0.0000 0.0000
# 2 29.5194 89.7571 9.0982 0.0000 0.0000 0.0000
# 3 24.6587 9.0982 83.2616 0.0000 0.0000 0.0000
# 4 0.0000 0.0000 0.0000 8.6267 0.0000 0.0000
# 5 0.0000 0.0000 0.0000 0.0000 18.8782 0.0000
# 6 0.0000 0.0000 0.0000 0.0000 0.0000 30.8721
#
#
#
# Elastic Compliance Matrix: (Units=1/GPa)
#
#
# Indices 1 2 3 4 5 6 
#
# 1 0.012438 -0.003759 -0.003273 0.000000 0.000000 0.000000
# 2 -0.003759 0.012402 -0.000242 0.000000 0.000000 0.000000
# 3 -0.003273 -0.000242 0.013006 0.000000 0.000000 0.000000
# 4 0.000000 0.000000 0.000000 0.115919 0.000000 0.000000
# 5 0.000000 0.000000 0.000000 0.000000 0.052971 0.000000
# 6 0.000000 0.000000 0.000000 0.000000 0.000000 0.032392
#
#
# Mechanical properties :
#
#
# Convention : Reuss Voigt Hill
#
# Bulk Modulus (GPa) = 42.92102 43.93091 43.42596
# Shear Modulus (GPa) = 19.12472 25.37871 22.25172
#
# Velocity S-wave (km/s) = 3.00033 3.45626 3.23633
# Velocity P-wave (km/s) = 5.67499 6.05028 5.86564
#
# Compressibility (1/GPa) = 0.02329861
#
# Stress axis : x y z
#
# Youngs Moduli (GPa) = 80.39745 80.63251 76.88702
#
# Poissons Ratio (x) = 0.30309 0.25165
# Poissons Ratio (y) = 0.30221 0.01860
# Poissons Ratio (z) = 0.26314 0.01951
#
# Static dielectric constant tensor:
#      x y z
#    x 3.751480 0.000000 0.000000 
#    y 0.000000 3.780260 0.000000 
#    z 0.000000 0.000000 4.160810 
# 
# 
# High freq. dielectric constant tensor:
#      x y z
#    x 1.820570 0.000000 0.000000 
#    y 0.000000 1.823040 0.000000 
#    z 0.000000 0.000000 1.829290 
# 
# From -- ./inp_files/21079.got.cif
#   From: 2010.03.12/outbox.cif.g09.slc.cpg/sg46_11_cif.got.tgz:21079.got - 2010.04.14 02:56:35.
