data_PCOD8193108
_publ_section_title
;
Structure prediction by ZEFSAII (Michael W. Deem and Ramdas Pophale) SiO2 
 PCOD8193108
Probable space group: I M A 2
;
_chemical_formula_sum "Si O2"
_cell_formula_units_Z 48
_cell_length_a 8.896837
_cell_length_b 27.540495
_cell_length_c 9.633654
_cell_angle_alpha 90.000000
_cell_angle_beta 90.000000
_cell_angle_gamma 90.000000
_cell_volume 2360.469645
_symmetry_space_group_name_H-M "I M A 2"
_symmetry_group_IT_number 46
_symmetry_cell_setting 'orthorhombic'
loop_
_space_group_symop_operation_xyz
x,y,z
-x,-y,z
1/2-x,y,z
1/2+x,-y,z
1/2+x,1/2+y,1/2+z
1/2-x,1/2-y,1/2+z
-x,1/2+y,1/2+z
x,1/2-y,1/2+z
loop_
_atom_site_type_symbol
_atom_site_label
_atom_site_fract_x
_atom_site_fract_y
_atom_site_fract_z
Si Si1 0.428512 0.107178 0.353610
Si Si2 0.424684 0.798941 0.230029
Si Si3 0.921806 0.608032 0.333459
Si Si4 0.919189 0.952405 0.098024
Si Si5 0.924111 0.296076 0.408383
Si Si6 0.571805 0.447962 0.096766
O O1 0.250000 0.106717 0.376337
O O2 0.475313 0.159475 0.297947
O O3 0.482992 0.066539 0.243962
O O4 0.513614 0.094114 0.494544
O O5 0.250000 0.813489 0.239018
O O6 0.459434 0.752067 0.322426
O O7 0.472020 0.789515 0.069678
O O8 0.750000 0.606650 0.279594
O O9 0.935137 0.591711 0.492043
O O10 0.982915 0.662521 0.328819
O O11 0.021830 0.570050 0.247751
O O12 0.750000 0.968772 0.117911
O O13 0.000000 0.000000 0.042539
O O14 0.750000 0.310332 0.399113
O O15 0.500000 0.500000 0.061021
O O16 0.750000 0.453032 0.088917
#
# Coordination Sequence:
#
# PCOD8193108 Si02
#       6
#     8   8   8   8   8   8
#     4  11  23  42  64  93 128 167 212 262 316 377
#     4  10  22  40  63  93 128 168 213 260 315 379
#     4  11  23  42  64  93 128 167 212 262 316 377
#     4  10  22  38  61  90 123 158 203 252 306 370
#     4  10  22  40  63  93 128 168 213 260 315 379
#     4  12  26  44  65  94 129 170 215 262 318 380
#
# _framework density 20.334937
#
# number of rings (size 3 to 8) (size 9 to 14) (size 15 to 20)
#    0.000    1.333    1.667    3.500    2.333    6.000 
#    0.000    0.000    0.000    0.000    0.000    0.000 
#    0.000    0.000    0.000    0.000    0.000    0.000 
#
# Total GULP energy -297675.029069 kJ/mol
# GULP energy per Si atom -12403.126211 kJ/mol
# Density = 2.028865 g / cm^3
# Si number density = 20.334937 Si / 1000 Ang^3
#
#
#
# Elastic Constant Matrix: (Units=GPa)
#
#
# Indices 1 2 3 4 5 6 
#
# 1 108.5950 55.3174 34.1010 -0.0010 -0.0013 -0.0001
# 2 55.3174 115.5025 33.1967 -0.0001 0.0004 0.0000
# 3 34.1010 33.1967 77.3562 -0.0012 0.0044 -0.0008
# 4 -0.0010 -0.0001 -0.0012 36.5778 0.0001 -0.0002
# 5 -0.0013 0.0004 0.0044 0.0001 28.8184 0.0000
# 6 -0.0001 0.0000 -0.0008 -0.0002 0.0000 41.3431
#
#
#
# Elastic Compliance Matrix: (Units=1/GPa)
#
#
# Indices 1 2 3 4 5 6 
#
# 1 0.012951 -0.005203 -0.003476 0.000000 0.000001 0.000000
# 2 -0.005203 0.011967 -0.002842 0.000000 0.000000 0.000000
# 3 -0.003476 -0.002842 0.015679 0.000000 -0.000002 0.000000
# 4 0.000000 0.000000 0.000000 0.027339 0.000000 0.000000
# 5 0.000001 0.000000 -0.000002 0.000000 0.034700 0.000000
# 6 0.000000 0.000000 0.000000 0.000000 0.000000 0.024188
#
#
# Mechanical properties :
#
#
# Convention : Reuss Voigt Hill
#
# Bulk Modulus (GPa) = 56.96629 60.74269 58.85449
# Shear Modulus (GPa) = 32.10965 33.27042 32.69003
#
# Velocity S-wave (km/s) = 3.97802 4.04929 4.01381
# Velocity P-wave (km/s) = 7.01244 7.19710 7.10537
#
# Compressibility (1/GPa) = 0.01755424
#
# Stress axis : x y z
#
# Youngs Moduli (GPa) = 77.21626 83.56630 63.77966
#
# Poissons Ratio (x) = 0.43483 0.22170
# Poissons Ratio (y) = 0.40178 0.18123
# Poissons Ratio (z) = 0.26841 0.23746
#
# Static dielectric constant tensor:
#      x y z
#    x 3.684220 0.000000 0.000000 
#    y 0.000000 3.658590 -0.000010 
#    z 0.000000 -0.000010 3.781790 
# 
# 
# High freq. dielectric constant tensor:
#      x y z
#    x 1.794110 0.000000 0.000000 
#    y 0.000000 1.801280 0.000000 
#    z 0.000000 0.000000 1.806110 
# 
# From -- ./inp_files/3891.got.cif
#   From: 2010.03.12/outbox.cif.g09.slc.cpg/sg46_2_cif.got.tgz:3891.got - 2010.04.14 02:56:35.
