data_PCOD8193831
_publ_section_title
;
Structure prediction by ZEFSAII (Michael W. Deem and Ramdas Pophale) SiO2 
 PCOD8193831
Probable space group: P M M M
;
_chemical_formula_sum "Si O2"
_cell_formula_units_Z 60
_cell_length_a 23.291012
_cell_length_b 9.330853
_cell_length_c 25.067013
_cell_angle_alpha 90.000000
_cell_angle_beta 90.000000
_cell_angle_gamma 90.000000
_cell_volume 5447.688831
_symmetry_space_group_name_H-M "P M M M"
_symmetry_group_IT_number 47
_symmetry_cell_setting 'orthorhombic'
loop_
_space_group_symop_operation_xyz
x,y,z
-x,-y,z
x,-y,-z
-x,y,-z
-x,-y,-z
x,y,-z
-x,y,z
x,-y,z
loop_
_atom_site_type_symbol
_atom_site_label
_atom_site_fract_x
_atom_site_fract_y
_atom_site_fract_z
Si Si1 0.563417 0.160914 0.563440
Si Si2 0.935777 0.829796 0.056469
Si Si3 0.892386 0.168612 0.627284
Si Si4 0.220144 0.833839 0.438750
Si Si5 0.330471 0.660823 0.436468
Si Si6 0.067129 0.331932 0.727041
Si Si7 0.000000 0.169959 0.440788
Si Si8 0.931539 0.838818 0.829461
O O1 0.566764 0.161106 0.500000
O O2 0.500000 0.214179 0.581672
O O3 0.612367 0.264386 0.587333
O O4 0.574353 0.000000 0.584553
O O5 0.906515 0.781941 0.112839
O O6 0.000000 0.766766 0.054288
O O7 0.938721 0.000000 0.058882
O O8 0.904682 0.782375 0.000000
O O9 0.833607 0.206814 0.597700
O O10 0.894998 0.255276 0.682129
O O11 0.943725 0.223878 0.589786
O O12 0.898060 0.000000 0.639348
O O13 0.205142 0.794977 0.500000
O O14 0.274183 0.744847 0.416988
O O15 0.236177 0.000000 0.433891
O O16 0.332906 0.662261 0.500000
O O17 0.327887 0.500000 0.413974
O O18 0.079329 0.500000 0.726197
O O19 0.088754 0.269259 0.783484
O O20 0.000000 0.296983 0.717706
O O21 0.000000 0.237231 0.500000
O O22 0.000000 0.000000 0.444841
O O23 0.000000 0.840566 0.833757
O O24 0.909497 0.000000 0.816392
#
# Coordination Sequence:
#
# PCOD8193831 Si02
#       8
#     8   8   8   8   8   8   4   8
#     4   8  13  21  33  48  65  84 103 121 139 157
#     4   7   9  14  26  45  64  77  91 113 136 155
#     4  10  18  28  42  54  61  72  92 119 149 185
#     4   9  17  28  40  52  63  75  93 117 147 183
#     4   9  16  24  34  48  65  84 101 116 136 164
#     4  10  19  28  36  46  62  79  94 115 145 179
#     4   9  16  26  41  57  65  67  80 113 152 187
#     4   8  13  21  34  48  60  76  97 116 134 161
#
# _framework density 11.013845
#
# number of rings (size 3 to 8) (size 9 to 14) (size 15 to 20)
#    0.000    3.267    0.667    2.800    0.000    4.533 
#    0.000    1.333    0.000    2.000    0.000    2.800 
#    0.000    0.000    0.000    0.000    0.000    0.000 
#
# Total GULP energy -743346.675893 kJ/mol
# GULP energy per Si atom -12389.111265 kJ/mol
# Density = 1.098878 g / cm^3
# Si number density = 11.013845 Si / 1000 Ang^3
#
#
#
# Elastic Constant Matrix: (Units=GPa)
#
#
# Indices 1 2 3 4 5 6 
#
# 1 67.7075 36.0884 28.0000 0.0000 0.0000 0.0000
# 2 36.0884 52.4614 31.4023 0.0000 0.0000 0.0000
# 3 28.0000 31.4023 78.3290 0.0000 0.0000 0.0000
# 4 0.0000 0.0000 0.0000 5.4052 0.0000 0.0000
# 5 0.0000 0.0000 0.0000 0.0000 1.2944 0.0000
# 6 0.0000 0.0000 0.0000 0.0000 0.0000 9.8928
#
#
#
# Elastic Compliance Matrix: (Units=1/GPa)
#
#
# Indices 1 2 3 4 5 6 
#
# 1 0.023700 -0.014778 -0.002547 0.000000 0.000000 0.000000
# 2 -0.014778 0.034296 -0.008466 0.000000 0.000000 0.000000
# 3 -0.002547 -0.008466 0.017071 0.000000 0.000000 0.000000
# 4 0.000000 0.000000 0.000000 0.185008 0.000000 0.000000
# 5 0.000000 0.000000 0.000000 0.000000 0.772588 0.000000
# 6 0.000000 0.000000 0.000000 0.000000 0.000000 0.101084
#
#
# Mechanical properties :
#
#
# Convention : Reuss Voigt Hill
#
# Bulk Modulus (GPa) = 42.58450 43.27547 42.92999
# Shear Modulus (GPa) = 4.19056 10.18561 7.18808
#
# Velocity S-wave (km/s) = 1.95271 3.04435 2.55745
# Velocity P-wave (km/s) = 6.62062 7.19268 6.91257
#
# Compressibility (1/GPa) = 0.02348272
#
# Stress axis : x y z
#
# Youngs Moduli (GPa) = 42.19452 29.15826 58.57756
#
# Poissons Ratio (x) = 0.43091 0.14920
# Poissons Ratio (y) = 0.62357 0.49594
# Poissons Ratio (z) = 0.10747 0.24687
#
# Static dielectric constant tensor:
#      x y z
#    x 2.190470 0.000000 0.000000 
#    y 0.000000 2.312620 0.000000 
#    z 0.000000 0.000000 2.409410 
# 
# 
# High freq. dielectric constant tensor:
#      x y z
#    x 1.378450 0.000000 0.000000 
#    y 0.000000 1.410220 0.000000 
#    z 0.000000 0.000000 1.391090 
# 
# From -- ./inp_files/33863.got.cif
#   From: 2010.03.12/outbox.cif.g09.slc.cpg/sg47_17_cif.got.tgz:33863.got - 2010.04.14 03:12:58.
