data_PCOD8193375
_publ_section_title
;
Structure prediction by ZEFSAII (Michael W. Deem and Ramdas Pophale) SiO2 
 PCOD8193375
Probable space group: I M A 2
;
_chemical_formula_sum "Si O2"
_cell_formula_units_Z 48
_cell_length_a 21.627397
_cell_length_b 4.955150
_cell_length_c 22.001346
_cell_angle_alpha 90.000000
_cell_angle_beta 90.000000
_cell_angle_gamma 90.000000
_cell_volume 2357.818164
_symmetry_space_group_name_H-M "I M A 2"
_symmetry_group_IT_number 46
_symmetry_cell_setting 'orthorhombic'
loop_
_space_group_symop_operation_xyz
x,y,z
-x,-y,z
1/2-x,y,z
1/2+x,-y,z
1/2+x,1/2+y,1/2+z
1/2-x,1/2-y,1/2+z
-x,1/2+y,1/2+z
x,1/2-y,1/2+z
loop_
_atom_site_type_symbol
_atom_site_label
_atom_site_fract_x
_atom_site_fract_y
_atom_site_fract_z
Si Si1 0.379361 0.579915 0.739290
Si Si2 0.118753 0.123114 0.549158
Si Si3 0.067447 0.883869 0.112336
Si Si4 0.250000 0.078390 0.593998
Si Si5 0.429686 0.064326 0.803230
Si Si6 0.750000 0.078649 0.179059
Si Si7 0.042606 0.256851 0.434464
O O1 0.418494 0.688417 0.681880
O O2 0.406025 0.294241 0.758774
O O3 0.308084 0.542000 0.723141
O O4 0.388049 0.798068 0.792948
O O5 0.115548 0.387840 0.591243
O O6 0.190230 0.030806 0.551091
O O7 0.097224 0.190903 0.481206
O O8 0.074120 0.887820 0.573484
O O9 0.000000 0.000000 0.101612
O O10 0.250000 0.373800 0.623015
O O11 0.250000 0.875426 0.650513
O O12 0.423387 0.150735 0.873156
O O13 0.500000 0.000000 0.786244
O O14 0.000000 0.500000 0.460393
O O15 0.000000 0.000000 0.420149
#
# Coordination Sequence:
#
# PCOD8193375 Si02
#       7
#     8   8   8   4   8   4   8
#     4  12  23  41  63  92 126 167 213 250 314 375
#     4  12  23  40  63  93 125 167 212 252 314 372
#     4  12  23  37  61  95 129 157 203 269 318 372
#     4  12  22  44  62  88 130 172 208 250 312 374
#     4  11  23  41  65  93 126 165 206 259 317 373
#     4  12  24  44  62  88 128 176 206 252 312 372
#     4  11  23  42  66  92 127 166 206 257 319 375
#
# _framework density 20.357803000000001
#
# number of rings (size 3 to 8) (size 9 to 14) (size 15 to 20)
#    0.000    0.333    3.333    8.500    0.000    0.000 
#    0.000    1.667    0.000    0.000    0.000    0.000 
#    0.000    0.000    0.000    0.000    0.000    0.000 
#
# Total GULP energy -297775.137988 kJ/mol
# GULP energy per Si atom -12407.297416 kJ/mol
# Density = 2.031147 g / cm^3
# Si number density = 20.357803 Si / 1000 Ang^3
#
#
#
# Elastic Constant Matrix: (Units=GPa)
#
#
# Indices 1 2 3 4 5 6 
#
# 1 126.9700 28.1127 72.2685 0.0000 0.0000 0.0000
# 2 28.1127 104.5940 26.8819 0.0000 0.0000 0.0000
# 3 72.2685 26.8819 96.0945 0.0000 0.0000 0.0000
# 4 0.0000 0.0000 0.0000 34.4151 0.0000 0.0000
# 5 0.0000 0.0000 0.0000 0.0000 22.9181 0.0000
# 6 0.0000 0.0000 0.0000 0.0000 0.0000 26.3899
#
#
#
# Elastic Compliance Matrix: (Units=1/GPa)
#
#
# Indices 1 2 3 4 5 6 
#
# 1 0.013893 -0.001130 -0.010132 0.000000 0.000000 0.000000
# 2 -0.001130 0.010393 -0.002058 0.000000 0.000000 0.000000
# 3 -0.010132 -0.002058 0.018602 0.000000 0.000000 0.000000
# 4 0.000000 0.000000 0.000000 0.029057 0.000000 0.000000
# 5 0.000000 0.000000 0.000000 0.000000 0.043634 0.000000
# 6 0.000000 0.000000 0.000000 0.000000 0.000000 0.037893
#
#
# Mechanical properties :
#
#
# Convention : Reuss Voigt Hill
#
# Bulk Modulus (GPa) = 61.54364 64.68719 63.11541
# Shear Modulus (GPa) = 26.95000 30.10432 28.52716
#
# Velocity S-wave (km/s) = 3.64238 3.84964 3.74744
# Velocity P-wave (km/s) = 6.92718 7.18357 7.05654
#
# Compressibility (1/GPa) = 0.01624863
#
# Stress axis : x y z
#
# Youngs Moduli (GPa) = 71.97764 96.21535 53.75727
#
# Poissons Ratio (x) = 0.10873 0.54469
# Poissons Ratio (y) = 0.08134 0.11061
# Poissons Ratio (z) = 0.72930 0.19797
#
# Static dielectric constant tensor:
#      x y z
#    x 3.813550 0.000000 0.000000 
#    y 0.000000 3.945940 0.000000 
#    z 0.000000 0.000000 3.561960 
# 
# 
# High freq. dielectric constant tensor:
#      x y z
#    x 1.790320 0.000000 0.000000 
#    y 0.000000 1.819920 0.000000 
#    z 0.000000 0.000000 1.787850 
# 
# From -- ./inp_files/22378.got.cif
#   From: 2010.03.12/outbox.cif.g09.slc.cpg/sg46_12_cif.got.tgz:22378.got - 2010.04.14 02:56:35.
