data_PCOD8193084
_publ_section_title
;
Structure prediction by ZEFSAII (Michael W. Deem and Ramdas Pophale) SiO2 
 PCOD8193084
Probable space group: I M A 2
;
_chemical_formula_sum "Si O2"
_cell_formula_units_Z 48
_cell_length_a 16.835234
_cell_length_b 9.726989
_cell_length_c 13.851021
_cell_angle_alpha 90.000000
_cell_angle_beta 90.000000
_cell_angle_gamma 90.000000
_cell_volume 2268.189678
_symmetry_space_group_name_H-M "I M A 2"
_symmetry_group_IT_number 46
_symmetry_cell_setting 'orthorhombic'
loop_
_space_group_symop_operation_xyz
x,y,z
-x,-y,z
1/2-x,y,z
1/2+x,-y,z
1/2+x,1/2+y,1/2+z
1/2-x,1/2-y,1/2+z
-x,1/2+y,1/2+z
x,1/2-y,1/2+z
loop_
_atom_site_type_symbol
_atom_site_label
_atom_site_fract_x
_atom_site_fract_y
_atom_site_fract_z
Si Si1 0.407697 0.021619 0.816840
Si Si2 0.340684 0.717884 0.828917
Si Si3 0.413535 0.931721 0.505085
Si Si4 0.341030 0.150675 0.626122
Si Si5 0.841473 0.309835 0.612017
Si Si6 0.842881 0.591844 0.511517
O O1 0.361243 0.878394 0.824406
O O2 0.500000 0.000000 0.821300
O O3 0.390184 0.101647 0.718353
O O4 0.383749 0.116063 0.907945
O O5 0.250000 0.706306 0.865023
O O6 0.352232 0.652185 0.723779
O O7 0.396062 0.629438 0.899565
O O8 0.403259 0.809245 0.583041
O O9 0.500000 0.000000 0.509697
O O10 0.350529 0.047763 0.535492
O O11 0.250000 0.158710 0.657965
O O12 0.373998 0.297981 0.589955
O O13 0.750000 0.263927 0.592259
O O14 0.864441 0.441075 0.549037
O O15 0.750000 0.614208 0.497433
#
# Coordination Sequence:
#
# PCOD8193084 Si02
#       6
#     8   8   8   8   8   8
#     4  12  25  42  67 100 139 180 230 286 353 410
#     4  11  23  43  73  99 132 187 241 280 335 427
#     4  12  25  41  66 101 141 171 228 293 351 403
#     4  11  24  43  69  98 135 181 228 286 347 414
#     4  10  21  42  70  99 128 179 236 277 330 418
#     4  10  23  43  69  98 134 177 230 279 340 416
#
# _framework density 21.162251000000001
#
# number of rings (size 3 to 8) (size 9 to 14) (size 15 to 20)
#    0.000    1.000    3.333    3.500    2.333    1.333 
#    0.000    3.333    0.000    0.000    0.000    0.000 
#    0.000    0.000    0.000    0.000    0.000    0.000 
#
# Total GULP energy -297648.854819 kJ/mol
# GULP energy per Si atom -12402.035617 kJ/mol
# Density = 2.111408 g / cm^3
# Si number density = 21.162251 Si / 1000 Ang^3
#
#
#
# Elastic Constant Matrix: (Units=GPa)
#
#
# Indices 1 2 3 4 5 6 
#
# 1 77.1961 56.8374 52.6221 0.0000 0.0000 0.0000
# 2 56.8374 107.7818 47.7202 0.0000 0.0000 0.0000
# 3 52.6221 47.7202 139.7475 0.0000 0.0000 0.0000
# 4 0.0000 0.0000 0.0000 44.5919 0.0000 0.0000
# 5 0.0000 0.0000 0.0000 0.0000 56.8214 0.0000
# 6 0.0000 0.0000 0.0000 0.0000 0.0000 6.6837
#
#
#
# Elastic Compliance Matrix: (Units=1/GPa)
#
#
# Indices 1 2 3 4 5 6 
#
# 1 0.024469 -0.010396 -0.005664 0.000000 0.000000 0.000000
# 2 -0.010396 0.015347 -0.001326 0.000000 0.000000 0.000000
# 3 -0.005664 -0.001326 0.009741 0.000000 0.000000 0.000000
# 4 0.000000 0.000000 0.000000 0.022426 0.000000 0.000000
# 5 0.000000 0.000000 0.000000 0.000000 0.017599 0.000000
# 6 0.000000 0.000000 0.000000 0.000000 0.000000 0.149619
#
#
# Mechanical properties :
#
#
# Convention : Reuss Voigt Hill
#
# Bulk Modulus (GPa) = 67.63184 71.00941 69.32063
# Shear Modulus (GPa) = 17.92749 32.78911 25.35830
#
# Velocity S-wave (km/s) = 2.91373 3.94053 3.46537
# Velocity P-wave (km/s) = 6.58391 7.37098 6.98853
#
# Compressibility (1/GPa) = 0.01478593
#
# Stress axis : x y z
#
# Youngs Moduli (GPa) = 40.86787 65.15844 102.65466
#
# Poissons Ratio (x) = 0.67737 0.58144
# Poissons Ratio (y) = 0.42485 0.13613
# Poissons Ratio (z) = 0.23148 0.08641
#
# Static dielectric constant tensor:
#      x y z
#    x 3.580530 0.000000 0.000000 
#    y 0.000000 4.049040 0.000000 
#    z 0.000000 0.000000 4.053660 
# 
# 
# High freq. dielectric constant tensor:
#      x y z
#    x 1.822180 0.000000 0.000000 
#    y 0.000000 1.828820 0.000000 
#    z 0.000000 0.000000 1.846050 
# 
# From -- ./inp_files/16518.got.cif
#   From: 2010.03.12/outbox.cif.g09.slc.cpg/sg46_9_cif.got.tgz:16518.got - 2010.04.14 02:56:35.
