data_PCOD8193236
_publ_section_title
;
Structure prediction by ZEFSAII (Michael W. Deem and Ramdas Pophale) SiO2 
 PCOD8193236
Probable space group: I M A 2
;
_chemical_formula_sum "Si O2"
_cell_formula_units_Z 56
_cell_length_a 19.907672
_cell_length_b 11.687486
_cell_length_c 11.131367
_cell_angle_alpha 90.000000
_cell_angle_beta 90.000000
_cell_angle_gamma 90.000000
_cell_volume 2589.942259
_symmetry_space_group_name_H-M "I M A 2"
_symmetry_group_IT_number 46
_symmetry_cell_setting 'orthorhombic'
loop_
_space_group_symop_operation_xyz
x,y,z
-x,-y,z
1/2-x,y,z
1/2+x,-y,z
1/2+x,1/2+y,1/2+z
1/2-x,1/2-y,1/2+z
-x,1/2+y,1/2+z
x,1/2-y,1/2+z
loop_
_atom_site_type_symbol
_atom_site_label
_atom_site_fract_x
_atom_site_fract_y
_atom_site_fract_z
Si Si1 0.931629 0.058384 0.813220
Si Si2 0.822988 0.566532 0.452853
Si Si3 0.441667 0.167535 0.258456
Si Si4 0.172772 0.982507 0.209163
Si Si5 0.897895 0.776981 0.512899
Si Si6 0.085632 0.680586 0.830021
Si Si7 0.074584 0.974912 0.539818
O O1 0.920342 0.185800 0.861405
O O2 0.873554 0.971878 0.850819
O O3 0.930605 0.073958 0.671841
O O4 0.000000 0.000000 0.860736
O O5 0.750000 0.560296 0.393674
O O6 0.830105 0.482542 0.565656
O O7 0.833094 0.696073 0.501894
O O8 0.383052 0.071232 0.263538
O O9 0.435962 0.240650 0.383895
O O10 0.519184 0.126552 0.264899
O O11 0.438210 0.240633 0.134498
O O12 0.250000 0.009697 0.251723
O O13 0.149477 0.854890 0.247274
O O14 0.879960 0.910297 0.531114
O O15 0.104238 0.623582 0.957292
O O16 0.000000 0.000000 0.490276
#
# Coordination Sequence:
#
# PCOD8193236 Si02
#       7
#     8   8   8   8   8   8   8
#     4  11  26  42  68 104 139 173 226 287 342 419
#     4  10  24  45  67  95 137 181 224 281 343 407
#     4  11  22  39  67 102 137 178 223 284 345 401
#     4  10  23  42  64  96 133 179 234 276 329 405
#     4  11  21  40  68  99 137 173 225 283 340 410
#     4  12  23  40  70  96 135 181 221 283 342 408
#     4  11  21  40  64 100 138 169 221 282 344 404
#
# _framework density 21.622104
#
# number of rings (size 3 to 8) (size 9 to 14) (size 15 to 20)
#    0.000    1.143    2.857    3.857    2.000    3.429 
#    0.000    4.286    0.000    0.000    0.000    0.000 
#    0.000    0.000    0.000    0.000    0.000    0.000 
#
# Total GULP energy -346890.934214 kJ/mol
# GULP energy per Si atom -12388.961936 kJ/mol
# Density = 2.157289 g / cm^3
# Si number density = 21.622104 Si / 1000 Ang^3
#
#
#
# Elastic Constant Matrix: (Units=GPa)
#
#
# Indices 1 2 3 4 5 6 
#
# 1 118.5542 39.9019 18.8848 0.0000 0.0000 0.0000
# 2 39.9019 141.5523 21.8667 0.0000 0.0000 0.0000
# 3 18.8848 21.8667 88.2572 0.0000 0.0000 0.0000
# 4 0.0000 0.0000 0.0000 34.1421 0.0000 0.0000
# 5 0.0000 0.0000 0.0000 0.0000 13.5536 0.0000
# 6 0.0000 0.0000 0.0000 0.0000 0.0000 19.5166
#
#
#
# Elastic Compliance Matrix: (Units=1/GPa)
#
#
# Indices 1 2 3 4 5 6 
#
# 1 0.009488 -0.002455 -0.001422 0.000000 0.000000 0.000000
# 2 -0.002455 0.007981 -0.001452 0.000000 0.000000 0.000000
# 3 -0.001422 -0.001452 0.011995 0.000000 0.000000 0.000000
# 4 0.000000 0.000000 0.000000 0.029289 0.000000 0.000000
# 5 0.000000 0.000000 0.000000 0.000000 0.073781 0.000000
# 6 0.000000 0.000000 0.000000 0.000000 0.000000 0.051238
#
#
# Mechanical properties :
#
#
# Convention : Reuss Voigt Hill
#
# Bulk Modulus (GPa) = 53.17608 56.63006 54.90307
# Shear Modulus (GPa) = 24.91305 31.28982 28.10144
#
# Velocity S-wave (km/s) = 3.39809 3.80823 3.60899
# Velocity P-wave (km/s) = 6.32794 6.75163 6.54322
#
# Compressibility (1/GPa) = 0.01880545
#
# Stress axis : x y z
#
# Youngs Moduli (GPa) = 105.39980 125.30042 83.37131
#
# Poissons Ratio (x) = 0.30759 0.11855
# Poissons Ratio (y) = 0.25874 0.12106
# Poissons Ratio (z) = 0.14987 0.18194
#
# Static dielectric constant tensor:
#      x y z
#    x 3.815230 0.000000 0.000000 
#    y 0.000000 3.867740 0.000000 
#    z 0.000000 0.000000 4.008980 
# 
# 
# High freq. dielectric constant tensor:
#      x y z
#    x 1.820600 0.000000 0.000000 
#    y 0.000000 1.846770 0.000000 
#    z 0.000000 0.000000 1.861600 
# 
# From -- ./inp_files/12409.got.cif
#   From: 2010.03.12/outbox.cif.g09.slc.cpg/sg46_7_cif.got.tgz:12409.got - 2010.04.14 02:56:35.
