data_PCOD8193155
_publ_section_title
;
Structure prediction by ZEFSAII (Michael W. Deem and Ramdas Pophale) SiO2 
 PCOD8193155
Probable space group: I M A 2
;
_chemical_formula_sum "Si O2"
_cell_formula_units_Z 48
_cell_length_a 8.883553
_cell_length_b 27.329049
_cell_length_c 9.763902
_cell_angle_alpha 90.000000
_cell_angle_beta 90.000000
_cell_angle_gamma 90.000000
_cell_volume 2370.470903
_symmetry_space_group_name_H-M "I M A 2"
_symmetry_group_IT_number 46
_symmetry_cell_setting 'orthorhombic'
loop_
_space_group_symop_operation_xyz
x,y,z
-x,-y,z
1/2-x,y,z
1/2+x,-y,z
1/2+x,1/2+y,1/2+z
1/2-x,1/2-y,1/2+z
-x,1/2+y,1/2+z
x,1/2-y,1/2+z
loop_
_atom_site_type_symbol
_atom_site_label
_atom_site_fract_x
_atom_site_fract_y
_atom_site_fract_z
Si Si1 0.925608 0.052734 0.146590
Si Si2 0.574082 0.096161 0.858143
Si Si3 0.072845 0.450943 0.116841
Si Si4 0.924219 0.696278 0.280347
Si Si5 0.576052 0.787895 0.466973
Si Si6 0.927538 0.384381 0.903416
O O1 0.750000 0.043344 0.158597
O O2 0.984616 0.084559 0.273940
O O3 0.966373 0.085000 0.014710
O O4 0.000000 0.000000 0.143679
O O5 0.750000 0.089204 0.827177
O O6 0.480784 0.056076 0.772450
O O7 0.527362 0.150715 0.818860
O O8 0.250000 0.455248 0.106893
O O9 0.000000 0.500000 0.053894
O O10 0.014273 0.403879 0.036147
O O11 0.750000 0.680112 0.287045
O O12 0.961525 0.737055 0.393303
O O13 0.964143 0.716011 0.128287
O O14 0.750000 0.801962 0.446056
O O15 0.474705 0.828035 0.389327
O O16 0.750000 0.388877 0.924521
#
# Coordination Sequence:
#
# PCOD8193155 Si02
#       6
#     8   8   8   8   8   8
#     4  10  24  42  61  90 125 162 207 252 302 364
#     4  11  23  41  63  91 126 163 206 256 308 368
#     4  12  24  40  63  92 123 160 205 254 310 372
#     4  10  22  40  62  91 125 162 207 254 307 370
#     4  10  22  40  62  91 125 162 207 254 307 370
#     4  11  23  41  63  91 126 163 206 256 308 368
#
# _framework density 20.249140000000001
#
# number of rings (size 3 to 8) (size 9 to 14) (size 15 to 20)
#    0.000    1.333    1.667    3.500    2.333    6.000 
#    0.000    0.000    0.000    0.000    0.000    0.000 
#    0.000    0.000    0.000    0.000    0.000    0.000 
#
# Total GULP energy -297726.212106 kJ/mol
# GULP energy per Si atom -12405.258838 kJ/mol
# Density = 2.020305 g / cm^3
# Si number density = 20.249140 Si / 1000 Ang^3
#
#
#
# Elastic Constant Matrix: (Units=GPa)
#
#
# Indices 1 2 3 4 5 6 
#
# 1 91.2070 34.2997 36.4786 -0.0013 -0.0006 0.0001
# 2 34.2997 88.5687 38.3396 -0.0031 0.0001 0.0007
# 3 36.4786 38.3396 108.9559 0.0069 0.0004 -0.0009
# 4 -0.0013 -0.0031 0.0069 41.1411 0.0002 -0.0004
# 5 -0.0006 0.0001 0.0004 0.0002 24.3604 0.0005
# 6 0.0001 0.0007 -0.0009 -0.0004 0.0005 39.7665
#
#
#
# Elastic Compliance Matrix: (Units=1/GPa)
#
#
# Indices 1 2 3 4 5 6 
#
# 1 0.013725 -0.003924 -0.003215 0.000001 0.000000 0.000000
# 2 -0.003924 0.014441 -0.003768 0.000002 0.000000 0.000000
# 3 -0.003215 -0.003768 0.011580 -0.000002 0.000000 0.000000
# 4 0.000001 0.000002 -0.000002 0.024307 0.000000 0.000000
# 5 0.000000 0.000000 0.000000 0.000000 0.041050 -0.000001
# 6 0.000000 0.000000 0.000000 0.000000 -0.000001 0.025147
#
#
# Mechanical properties :
#
#
# Convention : Reuss Voigt Hill
#
# Bulk Modulus (GPa) = 55.75954 56.32971 56.04462
# Shear Modulus (GPa) = 31.63735 33.02786 32.33261
#
# Velocity S-wave (km/s) = 3.95701 4.04304 4.00026
# Velocity P-wave (km/s) = 6.96231 7.04795 7.00526
#
# Compressibility (1/GPa) = 0.01793415
#
# Stress axis : x y z
#
# Youngs Moduli (GPa) = 72.85783 69.24587 86.35498
#
# Poissons Ratio (x) = 0.27171 0.27759
# Poissons Ratio (y) = 0.28588 0.32538
# Poissons Ratio (z) = 0.23420 0.26091
#
# Static dielectric constant tensor:
#      x y z
#    x 3.600520 0.000000 0.000000 
#    y 0.000000 3.656800 -0.000010 
#    z 0.000000 -0.000010 3.908160 
# 
# 
# High freq. dielectric constant tensor:
#      x y z
#    x 1.788860 0.000000 0.000000 
#    y 0.000000 1.799770 0.000000 
#    z 0.000000 0.000000 1.802110 
# 
# From -- ./inp_files/3951.got.cif
#   From: 2010.03.12/outbox.cif.g09.slc.cpg/sg46_2_cif.got.tgz:3951.got - 2010.04.14 02:56:35.
