data_PCOD8193593
_publ_section_title
;
Structure prediction by ZEFSAII (Michael W. Deem and Ramdas Pophale) SiO2 
 PCOD8193593
Probable space group: P M M M
;
_chemical_formula_sum "Si O2"
_cell_formula_units_Z 40
_cell_length_a 13.021321
_cell_length_b 9.185041
_cell_length_c 22.463181
_cell_angle_alpha 90.000000
_cell_angle_beta 90.000000
_cell_angle_gamma 90.000000
_cell_volume 2686.627161
_symmetry_space_group_name_H-M "P M M M"
_symmetry_group_IT_number 47
_symmetry_cell_setting 'orthorhombic'
loop_
_space_group_symop_operation_xyz
x,y,z
-x,-y,z
x,-y,-z
-x,y,-z
-x,-y,-z
x,y,-z
-x,y,z
x,-y,z
loop_
_atom_site_type_symbol
_atom_site_label
_atom_site_fract_x
_atom_site_fract_y
_atom_site_fract_z
Si Si1 0.613739 0.827606 0.241358
Si Si2 0.500000 0.329811 0.429694
Si Si3 0.622658 0.837255 0.112666
Si Si4 0.887226 0.827195 0.433300
Si Si5 0.377412 0.336930 0.000000
Si Si6 0.312079 0.826795 0.366710
O O1 0.500000 0.762501 0.253128
O O2 0.658220 0.772936 0.177368
O O3 0.684710 0.782356 0.296934
O O4 0.604845 0.000000 0.236235
O O5 0.500000 0.500000 0.413135
O O6 0.500000 0.305120 0.500000
O O7 0.600357 0.254125 0.403209
O O8 0.500000 0.838998 0.112046
O O9 0.665293 0.000000 0.102623
O O10 0.666712 0.739323 0.059308
O O11 0.865746 0.768970 0.500000
O O12 0.798161 0.769946 0.389794
O O13 0.000000 0.772319 0.411637
O O14 0.886154 0.000000 0.433878
O O15 0.335688 0.500000 0.000000
O O16 0.500000 0.330552 0.000000
O O17 0.327270 0.000000 0.375233
#
# Coordination Sequence:
#
# PCOD8193593 Si02
#       6
#     8   4   8   8   4   8
#     4   8  13  22  36  55  74  93 125 165 192 223
#     4  11  23  33  39  55  85 110 129 164 209 245
#     4   8  13  21  33  45  63  92 122 152 188 222
#     4   8  14  24  39  62  86 102 124 165 210 243
#     4   9  15  21  29  45  67  89 122 161 184 208
#     4  10  17  28  47  63  77 103 139 170 197 238
#
# _framework density 14.888555999999999
#
# number of rings (size 3 to 8) (size 9 to 14) (size 15 to 20)
#    0.000    3.200    1.000    3.000    0.000    2.800 
#    0.000    1.000    0.000    0.600    0.000    2.800 
#    0.000    0.000    0.000    0.900    0.000   24.500 
#
# Total GULP energy -495578.980341 kJ/mol
# GULP energy per Si atom -12389.474509 kJ/mol
# Density = 1.485467 g / cm^3
# Si number density = 14.888556 Si / 1000 Ang^3
#
#
#
# Elastic Constant Matrix: (Units=GPa)
#
#
# Indices 1 2 3 4 5 6 
#
# 1 82.2149 21.8108 62.1155 0.0000 0.0000 0.0000
# 2 21.8108 47.4456 42.0874 0.0000 0.0000 0.0000
# 3 62.1155 42.0874 155.2082 0.0000 0.0000 0.0000
# 4 0.0000 0.0000 0.0000 10.0894 0.0000 0.0000
# 5 0.0000 0.0000 0.0000 0.0000 11.3551 0.0000
# 6 0.0000 0.0000 0.0000 0.0000 0.0000 3.2122
#
#
#
# Elastic Compliance Matrix: (Units=1/GPa)
#
#
# Indices 1 2 3 4 5 6 
#
# 1 0.017646 -0.002432 -0.006402 0.000000 0.000000 0.000000
# 2 -0.002432 0.028088 -0.006643 0.000000 0.000000 0.000000
# 3 -0.006402 -0.006643 0.010807 0.000000 0.000000 0.000000
# 4 0.000000 0.000000 0.000000 0.099114 0.000000 0.000000
# 5 0.000000 0.000000 0.000000 0.000000 0.088066 0.000000
# 6 0.000000 0.000000 0.000000 0.000000 0.000000 0.311314
#
#
# Mechanical properties :
#
#
# Convention : Reuss Voigt Hill
#
# Bulk Modulus (GPa) = 39.08622 59.65514 49.37068
# Shear Modulus (GPa) = 8.41017 15.52166 11.96592
#
# Velocity S-wave (km/s) = 2.37929 3.23232 2.83803
# Velocity P-wave (km/s) = 5.81872 7.35427 6.63109
#
# Compressibility (1/GPa) = 0.02558446
#
# Stress axis : x y z
#
# Youngs Moduli (GPa) = 56.67106 35.60267 92.53618
#
# Poissons Ratio (x) = 0.08660 0.59245
# Poissons Ratio (y) = 0.13785 0.61472
# Poissons Ratio (z) = 0.36283 0.23651
#
# Static dielectric constant tensor:
#      x y z
#    x 2.719690 0.000000 0.000000 
#    y 0.000000 2.626870 0.000000 
#    z 0.000000 0.000000 3.303780 
# 
# 
# High freq. dielectric constant tensor:
#      x y z
#    x 1.515010 0.000000 0.000000 
#    y 0.000000 1.535900 0.000000 
#    z 0.000000 0.000000 1.585170 
# 
# From -- ./inp_files/30726.got.cif
#   From: 2010.03.12/outbox.cif.g09.slc.cpg/sg47_16_cif.got.tgz:30726.got - 2010.04.14 03:12:58.
