data_PCOD8193509
_publ_section_title
;
Structure prediction by ZEFSAII (Michael W. Deem and Ramdas Pophale) SiO2 
 PCOD8193509
Probable space group: P M M M
;
_chemical_formula_sum "Si O2"
_cell_formula_units_Z 64
_cell_length_a 14.519179
_cell_length_b 30.786412
_cell_length_c 9.623971
_cell_angle_alpha 90.000000
_cell_angle_beta 90.000000
_cell_angle_gamma 90.000000
_cell_volume 4301.851775
_symmetry_space_group_name_H-M "P M M M"
_symmetry_group_IT_number 47
_symmetry_cell_setting 'orthorhombic'
loop_
_space_group_symop_operation_xyz
x,y,z
-x,-y,z
x,-y,-z
-x,y,-z
-x,-y,-z
x,y,-z
-x,y,z
x,-y,z
loop_
_atom_site_type_symbol
_atom_site_label
_atom_site_fract_x
_atom_site_fract_y
_atom_site_fract_z
Si Si1 0.390620 0.452075 0.344105
Si Si2 0.607587 0.626995 0.838051
Si Si3 0.605301 0.949455 0.659241
Si Si4 0.288392 0.118363 0.835245
Si Si5 0.603374 0.203661 0.165142
Si Si6 0.100664 0.843404 0.164655
Si Si7 0.290404 0.712277 0.834540
Si Si8 0.899447 0.254190 0.834803
O O1 0.356388 0.441589 0.500000
O O2 0.500000 0.452100 0.339496
O O3 0.354730 0.500000 0.298453
O O4 0.352967 0.415446 0.239927
O O5 0.500000 0.635095 0.807901
O O6 0.663373 0.668250 0.778386
O O7 0.625874 0.619611 0.000000
O O8 0.624197 0.936357 0.500000
O O9 0.500000 0.938556 0.699078
O O10 0.673474 0.923879 0.759686
O O11 0.625213 0.000000 0.681996
O O12 0.345065 0.160393 0.785026
O O13 0.182378 0.124887 0.785685
O O14 0.296732 0.111353 0.000000
O O15 0.500000 0.202859 0.224895
O O16 0.654567 0.246174 0.224825
O O17 0.602906 0.205568 0.000000
O O18 0.116093 0.794646 0.222684
O O19 0.000000 0.861031 0.213625
O O20 0.104295 0.840516 0.000000
O O21 0.184035 0.715163 0.782104
O O22 0.296254 0.712564 0.000000
O O23 0.000000 0.271739 0.784320
O O24 0.897300 0.252697 0.000000
#
# Coordination Sequence:
#
# PCOD8193509 Si02
#       8
#     8   8   8   8   8   8   8   8
#     4   8  14  25  39  52  68  95 131 167 200 233
#     4   9  16  23  33  52  77 105 133 159 190 229
#     4   9  19  35  50  62  81 111 139 162 199 251
#     4  10  17  26  44  69  88 104 135 176 208 233
#     4   9  15  21  31  52  82 110 132 158 193 230
#     4   8  13  22  37  60  89 113 133 164 207 245
#     4   9  14  21  31  48  78 110 134 156 187 231
#     4   8  12  19  32  50  75 107 138 164 191 227
#
# _framework density 14.877314
#
# number of rings (size 3 to 8) (size 9 to 14) (size 15 to 20)
#    0.000    3.250    1.250    2.250    0.000    2.750 
#    0.000    1.875    0.000    1.500    0.000    4.375 
#    0.000    1.000    0.000    6.250    0.000    1.250 
#
# Total GULP energy -793053.284152 kJ/mol
# GULP energy per Si atom -12391.457565 kJ/mol
# Density = 1.484345 g / cm^3
# Si number density = 14.877314 Si / 1000 Ang^3
#
#
#
# Elastic Constant Matrix: (Units=GPa)
#
#
# Indices 1 2 3 4 5 6 
#
# 1 114.7537 59.2532 26.3804 0.0000 0.0000 0.0000
# 2 59.2532 100.6707 34.6112 0.0000 0.0000 0.0000
# 3 26.3804 34.6112 27.5908 0.0000 0.0000 0.0000
# 4 0.0000 0.0000 0.0000 2.7520 0.0000 0.0000
# 5 0.0000 0.0000 0.0000 0.0000 7.3141 0.0000
# 6 0.0000 0.0000 0.0000 0.0000 0.0000 12.8644
#
#
#
# Elastic Compliance Matrix: (Units=1/GPa)
#
#
# Indices 1 2 3 4 5 6 
#
# 1 0.012890 -0.005890 -0.004936 0.000000 0.000000 0.000000
# 2 -0.005890 0.020158 -0.019655 0.000000 0.000000 0.000000
# 3 -0.004936 -0.019655 0.065620 0.000000 0.000000 0.000000
# 4 0.000000 0.000000 0.000000 0.363376 0.000000 0.000000
# 5 0.000000 0.000000 0.000000 0.000000 0.136722 0.000000
# 6 0.000000 0.000000 0.000000 0.000000 0.000000 0.077734
#
#
# Mechanical properties :
#
#
# Convention : Reuss Voigt Hill
#
# Bulk Modulus (GPa) = 26.52145 53.72275 40.12210
# Shear Modulus (GPa) = 6.66640 12.77080 9.71860
#
# Velocity S-wave (km/s) = 2.11911 2.93304 2.55865
# Velocity P-wave (km/s) = 4.88395 6.90356 5.97964
#
# Compressibility (1/GPa) = 0.03770534
#
# Stress axis : x y z
#
# Youngs Moduli (GPa) = 77.57724 49.60888 15.23927
#
# Poissons Ratio (x) = 0.29220 0.07522
# Poissons Ratio (y) = 0.45693 0.29953
# Poissons Ratio (z) = 0.38294 0.97507
#
# Static dielectric constant tensor:
#      x y z
#    x 3.094130 0.000000 0.000000 
#    y 0.000000 2.934420 0.000000 
#    z 0.000000 0.000000 2.448550 
# 
# 
# High freq. dielectric constant tensor:
#      x y z
#    x 1.560130 0.000000 0.000000 
#    y 0.000000 1.560010 0.000000 
#    z 0.000000 0.000000 1.518600 
# 
# From -- ./inp_files/8247.got.cif
#   From: 2010.03.12/outbox.cif.g09.slc.cpg/sg47_5_cif.got.tgz:8247.got - 2010.04.14 03:12:58.
