data_PCOD8193314
_publ_section_title
;
Structure prediction by ZEFSAII (Michael W. Deem and Ramdas Pophale) SiO2 
 PCOD8193314
Probable space group: I M A 2
;
_chemical_formula_sum "Si O2"
_cell_formula_units_Z 64
_cell_length_a 9.084562
_cell_length_b 28.428486
_cell_length_c 12.570013
_cell_angle_alpha 90.000000
_cell_angle_beta 90.000000
_cell_angle_gamma 90.000000
_cell_volume 3246.335877
_symmetry_space_group_name_H-M "I M A 2"
_symmetry_group_IT_number 46
_symmetry_cell_setting 'orthorhombic'
loop_
_space_group_symop_operation_xyz
x,y,z
-x,-y,z
1/2-x,y,z
1/2+x,-y,z
1/2+x,1/2+y,1/2+z
1/2-x,1/2-y,1/2+z
-x,1/2+y,1/2+z
x,1/2-y,1/2+z
loop_
_atom_site_type_symbol
_atom_site_label
_atom_site_fract_x
_atom_site_fract_y
_atom_site_fract_z
Si Si1 0.923850 0.385117 0.654750
Si Si2 0.578176 0.044756 0.331401
Si Si3 0.577123 0.903074 0.760831
Si Si4 0.087707 0.179491 0.464072
Si Si5 0.573438 0.449222 0.460670
Si Si6 0.088703 0.427685 0.028748
Si Si7 0.078005 0.299199 0.195507
Si Si8 0.576886 0.206774 0.260948
O O1 0.750000 0.386254 0.647960
O O2 0.976283 0.410844 0.762885
O O3 0.984206 0.412282 0.550892
O O4 0.976696 0.330657 0.669237
O O5 0.750000 0.037524 0.323354
O O6 0.532322 0.047883 0.455046
O O7 0.500000 0.000000 0.278295
O O8 0.750000 0.905530 0.790409
O O9 0.478449 0.927725 0.849510
O O10 0.545829 0.932258 0.652633
O O11 0.525496 0.848975 0.745106
O O12 0.250000 0.196160 0.423734
O O13 0.098728 0.126329 0.499753
O O14 0.040687 0.207097 0.570817
O O15 0.964014 0.186441 0.376085
O O16 0.500000 0.500000 0.480981
O O17 0.750000 0.454913 0.461654
O O18 0.250000 0.450676 0.008343
O O19 0.250000 0.293933 0.215562
O O20 0.995580 0.257372 0.253952
O O21 0.750000 0.212900 0.255163
#
# Coordination Sequence:
#
# PCOD8193314 Si02
#       8
#     8   8   8   8   8   8   8   8
#     4   9  21  39  56  80 116 153 191 243 294 345
#     4  11  21  35  55  81 113 145 182 230 284 343
#     4   9  20  40  62  84 116 152 194 245 296 346
#     4   9  18  35  57  79 109 147 188 236 288 343
#     4  11  23  41  63  86 118 159 205 251 303 360
#     4   9  18  35  58  82 108 142 183 232 286 342
#     4   9  20  38  58  84 117 155 198 246 295 351
#     4  11  21  35  57  86 119 154 195 244 300 357
#
# _framework density 19.714534
#
# number of rings (size 3 to 8) (size 9 to 14) (size 15 to 20)
#    0.000    2.250    1.250    3.000    0.000    3.000 
#    0.000    9.375    0.000    0.000    0.000    0.000 
#    0.000    0.000    0.000    0.000    0.000    0.000 
#
# Total GULP energy -396611.855457 kJ/mol
# GULP energy per Si atom -12394.120483 kJ/mol
# Density = 1.966966 g / cm^3
# Si number density = 19.714534 Si / 1000 Ang^3
#
#
#
# Elastic Constant Matrix: (Units=GPa)
#
#
# Indices 1 2 3 4 5 6 
#
# 1 53.3498 21.6083 27.0799 -0.0011 0.0000 0.0000
# 2 21.6083 66.3482 19.5208 -0.0018 0.0002 0.0000
# 3 27.0799 19.5208 91.7072 -0.0005 0.0003 0.0000
# 4 -0.0011 -0.0018 -0.0005 23.2342 -0.0002 0.0000
# 5 0.0000 0.0002 0.0003 -0.0002 29.9434 0.0001
# 6 0.0000 0.0000 0.0000 0.0000 0.0001 29.7386
#
#
#
# Elastic Compliance Matrix: (Units=1/GPa)
#
#
# Indices 1 2 3 4 5 6 
#
# 1 0.024203 -0.006166 -0.005834 0.000001 0.000000 0.000000
# 2 -0.006166 0.017650 -0.001936 0.000001 0.000000 0.000000
# 3 -0.005834 -0.001936 0.013039 0.000000 0.000000 0.000000
# 4 0.000001 0.000001 0.000000 0.043040 0.000000 0.000000
# 5 0.000000 0.000000 0.000000 0.000000 0.033396 0.000000
# 6 0.000000 0.000000 0.000000 0.000000 0.000000 0.033626
#
#
# Mechanical properties :
#
#
# Convention : Reuss Voigt Hill
#
# Bulk Modulus (GPa) = 37.01086 38.64702 37.82894
# Shear Modulus (GPa) = 24.77283 26.12966 25.45125
#
# Velocity S-wave (km/s) = 3.54867 3.64456 3.59693
# Velocity P-wave (km/s) = 5.96698 6.11198 6.03991
#
# Compressibility (1/GPa) = 0.02701910
#
# Stress axis : x y z
#
# Youngs Moduli (GPa) = 41.31713 56.65794 76.69165
#
# Poissons Ratio (x) = 0.34935 0.44745
# Poissons Ratio (y) = 0.25476 0.14849
# Poissons Ratio (z) = 0.24106 0.10970
#
# Static dielectric constant tensor:
#      x y z
#    x 3.525420 0.000000 0.000000 
#    y 0.000000 3.782500 0.000000 
#    z 0.000000 0.000000 3.773020 
# 
# 
# High freq. dielectric constant tensor:
#      x y z
#    x 1.753770 0.000000 0.000000 
#    y 0.000000 1.772960 0.000000 
#    z 0.000000 0.000000 1.768440 
# 
# From -- ./inp_files/9761.got.cif
#   From: 2010.03.12/outbox.cif.g09.slc.cpg/sg46_5_cif.got.tgz:9761.got - 2010.04.14 02:56:35.
