data_PCOD8193002
_publ_section_title
;
Structure prediction by ZEFSAII (Michael W. Deem and Ramdas Pophale) SiO2 
 PCOD8193002
Probable space group: I M A 2
;
_chemical_formula_sum "Si O2"
_cell_formula_units_Z 48
_cell_length_a 8.758919
_cell_length_b 22.850491
_cell_length_c 11.702476
_cell_angle_alpha 90.000000
_cell_angle_beta 90.000000
_cell_angle_gamma 90.000000
_cell_volume 2342.199078
_symmetry_space_group_name_H-M "I M A 2"
_symmetry_group_IT_number 46
_symmetry_cell_setting 'orthorhombic'
loop_
_space_group_symop_operation_xyz
x,y,z
-x,-y,z
1/2-x,y,z
1/2+x,-y,z
1/2+x,1/2+y,1/2+z
1/2-x,1/2-y,1/2+z
-x,1/2+y,1/2+z
x,1/2-y,1/2+z
loop_
_atom_site_type_symbol
_atom_site_label
_atom_site_fract_x
_atom_site_fract_y
_atom_site_fract_z
Si Si1 0.076879 0.766877 0.113060
Si Si2 0.429790 0.623315 0.765116
Si Si3 0.073365 0.441899 0.564665
Si Si4 0.578046 0.352491 0.414261
Si Si5 0.428270 0.064722 0.479444
Si Si6 0.574205 0.846840 0.676300
O O1 0.250000 0.747032 0.141167
O O2 0.022776 0.814198 0.209317
O O3 0.962419 0.712346 0.107401
O O4 0.069811 0.792402 0.984974
O O5 0.250000 0.619785 0.780098
O O6 0.483379 0.572579 0.680209
O O7 0.505868 0.610213 0.886667
O O8 0.250000 0.448645 0.593214
O O9 0.000000 0.500000 0.513588
O O10 0.048642 0.394932 0.465924
O O11 0.750000 0.378354 0.425324
O O12 0.538602 0.343481 0.283090
O O13 0.250000 0.057492 0.456365
O O14 0.460713 0.095280 0.601530
O O15 0.500000 0.000000 0.475763
O O16 0.750000 0.846501 0.714658
#
# Coordination Sequence:
#
# PCOD8193002 Si02
#       6
#     8   8   8   8   8   8
#     4   9  21  40  63  91 121 158 204 252 310 373
#     4  10  21  39  63  92 124 162 205 256 309 367
#     4  11  21  36  60  89 122 159 200 250 305 361
#     4  10  22  41  62  88 120 157 204 252 304 369
#     4  11  25  43  62  90 125 168 214 260 313 375
#     4  11  25  41  61  90 124 162 205 256 314 372
#
# _framework density 20.493561
#
# number of rings (size 3 to 8) (size 9 to 14) (size 15 to 20)
#    0.000    1.667    0.000    5.000    2.333    7.333 
#    0.000    1.667    0.000    0.000    0.000    0.000 
#    0.000    0.000    0.000    0.000    0.000    0.000 
#
# Total GULP energy -297596.566104 kJ/mol
# GULP energy per Si atom -12399.856921 kJ/mol
# Density = 2.044692 g / cm^3
# Si number density = 20.493561 Si / 1000 Ang^3
#
#
#
# Elastic Constant Matrix: (Units=GPa)
#
#
# Indices 1 2 3 4 5 6 
#
# 1 96.5268 41.0328 39.8618 -0.0001 0.0000 0.0000
# 2 41.0328 84.8157 26.3651 -0.0003 0.0000 0.0000
# 3 39.8618 26.3651 105.3715 -0.0010 0.0001 -0.0002
# 4 -0.0001 -0.0003 -0.0010 19.2845 0.0000 0.0000
# 5 0.0000 0.0000 0.0001 0.0000 32.0126 0.0000
# 6 0.0000 0.0000 -0.0002 0.0000 0.0000 31.9477
#
#
#
# Elastic Compliance Matrix: (Units=1/GPa)
#
#
# Indices 1 2 3 4 5 6 
#
# 1 0.014469 -0.005745 -0.004036 0.000000 0.000000 0.000000
# 2 -0.005745 0.015066 -0.001596 0.000000 0.000000 0.000000
# 3 -0.004036 -0.001596 0.011416 0.000001 0.000000 0.000000
# 4 0.000000 0.000000 0.000001 0.051855 0.000000 0.000000
# 5 0.000000 0.000000 0.000000 0.000000 0.031238 0.000000
# 6 0.000000 0.000000 0.000000 0.000000 0.000000 0.031301
#
#
# Mechanical properties :
#
#
# Convention : Reuss Voigt Hill
#
# Bulk Modulus (GPa) = 54.95648 55.69259 55.32453
# Shear Modulus (GPa) = 27.14950 28.61258 27.88104
#
# Velocity S-wave (km/s) = 3.64370 3.74060 3.69247
# Velocity P-wave (km/s) = 6.67658 6.77427 6.72560
#
# Compressibility (1/GPa) = 0.01819622
#
# Stress axis : x y z
#
# Youngs Moduli (GPa) = 69.11439 66.37486 87.59303
#
# Poissons Ratio (x) = 0.38134 0.35352
# Poissons Ratio (y) = 0.39708 0.13982
# Poissons Ratio (z) = 0.27894 0.10595
#
# Static dielectric constant tensor:
#      x y z
#    x 3.720370 0.000000 0.000000 
#    y 0.000000 3.678530 0.000000 
#    z 0.000000 0.000000 3.670100 
# 
# 
# High freq. dielectric constant tensor:
#      x y z
#    x 1.809840 0.000000 0.000000 
#    y 0.000000 1.799960 0.000000 
#    z 0.000000 0.000000 1.800480 
# 
# From -- ./inp_files/9315.got.cif
#   From: 2010.03.12/outbox.cif.g09.slc.cpg/sg46_5_cif.got.tgz:9315.got - 2010.04.14 02:56:35.
