data_PCOD8193893
_publ_section_title
;
Structure prediction by ZEFSAII (Michael W. Deem and Ramdas Pophale) SiO2 
 PCOD8193893
Probable space group: P M M M
;
_chemical_formula_sum "Si O2"
_cell_formula_units_Z 64
_cell_length_a 19.085705
_cell_length_b 8.896509
_cell_length_c 23.808822
_cell_angle_alpha 90.000000
_cell_angle_beta 90.000000
_cell_angle_gamma 90.000000
_cell_volume 4042.646224
_symmetry_space_group_name_H-M "P M M M"
_symmetry_group_IT_number 47
_symmetry_cell_setting 'orthorhombic'
loop_
_space_group_symop_operation_xyz
x,y,z
-x,-y,z
x,-y,-z
-x,y,-z
-x,-y,-z
x,y,-z
-x,y,z
x,-y,z
loop_
_atom_site_type_symbol
_atom_site_label
_atom_site_fract_x
_atom_site_fract_y
_atom_site_fract_z
Si Si1 0.922999 0.676702 0.775173
Si Si2 0.710969 0.173083 0.064280
Si Si3 0.162324 0.321482 0.667910
Si Si4 0.577082 0.828647 0.772457
Si Si5 0.789317 0.677242 0.162048
Si Si6 0.078563 0.321333 0.562188
Si Si7 0.278260 0.173884 0.731269
Si Si8 0.420839 0.674915 0.889158
O O1 0.931650 0.500000 0.769457
O O2 0.889244 0.736508 0.717176
O O3 0.871422 0.716214 0.827027
O O4 0.000000 0.750221 0.784662
O O5 0.767297 0.263688 0.101194
O O6 0.632316 0.234141 0.071800
O O7 0.712576 0.000000 0.082547
O O8 0.733653 0.194413 0.000000
O O9 0.168718 0.500000 0.667913
O O10 0.132384 0.258885 0.608841
O O11 0.239579 0.254392 0.679141
O O12 0.500000 0.798490 0.745655
O O13 0.637543 0.801513 0.725769
O O14 0.589795 0.718991 0.824546
O O15 0.582194 0.000000 0.794835
O O16 0.776052 0.500000 0.166149
O O17 0.742873 0.756319 0.209174
O O18 0.102822 0.268186 0.500000
O O19 0.077310 0.500000 0.565146
O O20 0.000000 0.261360 0.574606
O O21 0.257512 0.000000 0.730538
O O22 0.500000 0.711475 0.908949
O O23 0.403649 0.500000 0.895234
#
# Coordination Sequence:
#
# PCOD8193893 Si02
#       8
#     8   8   8   8   8   8   8   8
#     4   8  14  25  43  67  90 111 137 173 218 264
#     4  11  23  36  49  64  85 116 149 179 214 263
#     4   9  16  25  41  65  92 121 152 187 221 257
#     4   9  17  29  45  63  85 116 148 175 212 265
#     4  10  19  31  49  69  88 110 140 180 223 265
#     4   8  13  22  39  64  92 123 161 200 230 257
#     4  10  18  28  44  64  89 118 145 178 219 265
#     4  10  20  32  48  69  90 112 141 180 220 257
#
# _framework density 15.831215
#
# number of rings (size 3 to 8) (size 9 to 14) (size 15 to 20)
#    0.000    2.625    1.250    3.000    0.000    4.000 
#    0.000    1.250    0.000   13.500    0.000    3.500 
#    0.000    0.500    0.000    6.250    0.000    0.000 
#
# Total GULP energy -793227.840823 kJ/mol
# GULP energy per Si atom -12394.185013 kJ/mol
# Density = 1.579518 g / cm^3
# Si number density = 15.831215 Si / 1000 Ang^3
#
#
#
# Elastic Constant Matrix: (Units=GPa)
#
#
# Indices 1 2 3 4 5 6 
#
# 1 112.7257 27.1574 55.5398 0.0000 0.0000 0.0000
# 2 27.1574 45.3085 25.7566 0.0000 0.0000 0.0000
# 3 55.5398 25.7566 89.8823 0.0000 0.0000 0.0000
# 4 0.0000 0.0000 0.0000 12.7094 0.0000 0.0000
# 5 0.0000 0.0000 0.0000 0.0000 27.4872 0.0000
# 6 0.0000 0.0000 0.0000 0.0000 0.0000 15.4184
#
#
#
# Elastic Compliance Matrix: (Units=1/GPa)
#
#
# Indices 1 2 3 4 5 6 
#
# 1 0.013320 -0.003948 -0.007099 0.000000 0.000000 0.000000
# 2 -0.003948 0.027536 -0.005451 0.000000 0.000000 0.000000
# 3 -0.007099 -0.005451 0.017075 0.000000 0.000000 0.000000
# 4 0.000000 0.000000 0.000000 0.078682 0.000000 0.000000
# 5 0.000000 0.000000 0.000000 0.000000 0.036381 0.000000
# 6 0.000000 0.000000 0.000000 0.000000 0.000000 0.064858
#
#
# Mechanical properties :
#
#
# Convention : Reuss Voigt Hill
#
# Bulk Modulus (GPa) = 40.10651 51.64713 45.87682
# Shear Modulus (GPa) = 17.91094 20.42052 19.16573
#
# Velocity S-wave (km/s) = 3.36723 3.59540 3.48318
# Velocity P-wave (km/s) = 6.36447 7.06614 6.72446
#
# Compressibility (1/GPa) = 0.02493361
#
# Stress axis : x y z
#
# Youngs Moduli (GPa) = 75.07453 36.31586 58.56675
#
# Poissons Ratio (x) = 0.14338 0.41579
# Poissons Ratio (y) = 0.29641 0.31925
# Poissons Ratio (z) = 0.53298 0.19796
#
# Static dielectric constant tensor:
#      x y z
#    x 3.331740 0.000000 0.000000 
#    y 0.000000 2.897060 0.000000 
#    z 0.000000 0.000000 2.881730 
# 
# 
# High freq. dielectric constant tensor:
#      x y z
#    x 1.610130 0.000000 0.000000 
#    y 0.000000 1.597000 0.000000 
#    z 0.000000 0.000000 1.571750 
# 
# From -- ./inp_files/32951.got.cif
#   From: 2010.03.12/outbox.cif.g09.slc.cpg/sg47_17_cif.got.tgz:32951.got - 2010.04.14 03:12:58.
