data_PCOD8193897
_publ_section_title
;
Structure prediction by ZEFSAII (Michael W. Deem and Ramdas Pophale) SiO2 
 PCOD8193897
Probable space group: P M M M
;
_chemical_formula_sum "Si O2"
_cell_formula_units_Z 56
_cell_length_a 18.516646
_cell_length_b 8.740353
_cell_length_c 21.379367
_cell_angle_alpha 90.000000
_cell_angle_beta 90.000000
_cell_angle_gamma 90.000000
_cell_volume 3460.079993
_symmetry_space_group_name_H-M "P M M M"
_symmetry_group_IT_number 47
_symmetry_cell_setting 'orthorhombic'
loop_
_space_group_symop_operation_xyz
x,y,z
-x,-y,z
x,-y,-z
-x,y,-z
-x,-y,-z
x,y,-z
-x,y,z
x,-y,z
loop_
_atom_site_type_symbol
_atom_site_label
_atom_site_fract_x
_atom_site_fract_y
_atom_site_fract_z
Si Si1 0.082779 0.180391 0.315473
Si Si2 0.833384 0.322033 0.570460
Si Si3 0.582106 0.322565 0.927759
Si Si4 0.285096 0.820280 0.637299
Si Si5 0.204877 0.679984 0.754072
Si Si6 0.420867 0.820581 0.704963
Si Si7 0.671450 0.820026 0.821670
O O1 0.111248 0.244933 0.381613
O O2 0.124829 0.249170 0.255099
O O3 0.000000 0.228950 0.308078
O O4 0.093394 0.000000 0.316438
O O5 0.861672 0.295651 0.500000
O O6 0.827132 0.500000 0.586628
O O7 0.752750 0.245440 0.575020
O O8 0.500000 0.272831 0.912105
O O9 0.592900 0.500000 0.911775
O O10 0.638242 0.223290 0.888287
O O11 0.598998 0.290195 0.000000
O O12 0.247691 0.727871 0.692606
O O13 0.371236 0.787380 0.643349
O O14 0.269352 0.000000 0.644841
O O15 0.198225 0.500000 0.761311
O O16 0.248795 0.745834 0.813788
O O17 0.500000 0.743538 0.696395
O O18 0.382019 0.756370 0.767327
O O19 0.430645 0.000000 0.713701
O O20 0.681091 0.000000 0.816285
#
# Coordination Sequence:
#
# PCOD8193897 Si02
#       7
#     8   8   8   8   8   8   8
#     4  10  20  33  49  69  93 117 140 172 215 261
#     4  10  20  32  46  63  84 113 147 179 211 255
#     4   9  18  31  44  61  91 129 164 198 236 274
#     4   9  16  27  44  63  83 108 139 178 221 263
#     4  10  18  29  46  65  88 117 146 178 218 263
#     4   8  14  24  39  61  85 106 133 176 226 266
#     4  10  18  28  44  65  89 118 155 193 225 263
#
# _framework density 16.184595999999999
#
# number of rings (size 3 to 8) (size 9 to 14) (size 15 to 20)
#    0.000    2.571    0.000    6.429    0.000    3.714 
#    0.000    2.143    0.000    9.000    0.000    3.000 
#    0.000    0.571    0.000    6.000    0.000    2.571 
#
# Total GULP energy -693935.937697 kJ/mol
# GULP energy per Si atom -12391.713173 kJ/mol
# Density = 1.614776 g / cm^3
# Si number density = 16.184596 Si / 1000 Ang^3
#
#
#
# Elastic Constant Matrix: (Units=GPa)
#
#
# Indices 1 2 3 4 5 6 
#
# 1 132.4567 55.6307 48.0710 0.0000 0.0000 0.0000
# 2 55.6307 77.3091 34.9597 0.0000 0.0000 0.0000
# 3 48.0710 34.9597 55.3501 0.0000 0.0000 0.0000
# 4 0.0000 0.0000 0.0000 22.2728 0.0000 0.0000
# 5 0.0000 0.0000 0.0000 0.0000 19.0386 0.0000
# 6 0.0000 0.0000 0.0000 0.0000 0.0000 16.9812
#
#
#
# Elastic Compliance Matrix: (Units=1/GPa)
#
#
# Indices 1 2 3 4 5 6 
#
# 1 0.012635 -0.005781 -0.007322 0.000000 0.000000 0.000000
# 2 -0.005781 0.020752 -0.008086 0.000000 0.000000 0.000000
# 3 -0.007322 -0.008086 0.029533 0.000000 0.000000 0.000000
# 4 0.000000 0.000000 0.000000 0.044898 0.000000 0.000000
# 5 0.000000 0.000000 0.000000 0.000000 0.052525 0.000000
# 6 0.000000 0.000000 0.000000 0.000000 0.000000 0.058889
#
#
# Mechanical properties :
#
#
# Convention : Reuss Voigt Hill
#
# Bulk Modulus (GPa) = 48.68212 60.27099 54.47655
# Shear Modulus (GPa) = 18.62499 20.08882 19.35691
#
# Velocity S-wave (km/s) = 3.39600 3.52693 3.46209
# Velocity P-wave (km/s) = 6.74698 7.34209 7.05081
#
# Compressibility (1/GPa) = 0.02054142
#
# Stress axis : x y z
#
# Youngs Moduli (GPa) = 79.14631 48.18904 33.86006
#
# Poissons Ratio (x) = 0.27857 0.24792
# Poissons Ratio (y) = 0.45753 0.27380
# Poissons Ratio (z) = 0.57951 0.38967
#
# Static dielectric constant tensor:
#      x y z
#    x 3.470970 0.000000 0.000000 
#    y 0.000000 3.034840 0.000000 
#    z 0.000000 0.000000 2.967340 
# 
# 
# High freq. dielectric constant tensor:
#      x y z
#    x 1.617830 0.000000 0.000000 
#    y 0.000000 1.626310 0.000000 
#    z 0.000000 0.000000 1.584610 
# 
# From -- ./inp_files/28717.got.cif
#   From: 2010.03.12/outbox.cif.g09.slc.cpg/sg47_15_cif.got.tgz:28717.got - 2010.04.14 03:12:58.
