data_PCOD8193241
_publ_section_title
;
Structure prediction by ZEFSAII (Michael W. Deem and Ramdas Pophale) SiO2 
 PCOD8193241
Probable space group: I M A 2
;
_chemical_formula_sum "Si O2"
_cell_formula_units_Z 48
_cell_length_a 16.819075
_cell_length_b 11.521978
_cell_length_c 11.814827
_cell_angle_alpha 90.000000
_cell_angle_beta 90.000000
_cell_angle_gamma 90.000000
_cell_volume 2289.583653
_symmetry_space_group_name_H-M "I M A 2"
_symmetry_group_IT_number 46
_symmetry_cell_setting 'orthorhombic'
loop_
_space_group_symop_operation_xyz
x,y,z
-x,-y,z
1/2-x,y,z
1/2+x,-y,z
1/2+x,1/2+y,1/2+z
1/2-x,1/2-y,1/2+z
-x,1/2+y,1/2+z
x,1/2-y,1/2+z
loop_
_atom_site_type_symbol
_atom_site_label
_atom_site_fract_x
_atom_site_fract_y
_atom_site_fract_z
Si Si1 0.657696 0.042153 0.928610
Si Si2 0.342042 0.011280 0.579735
Si Si3 0.417738 0.566084 0.668179
Si Si4 0.398915 0.156405 0.778544
Si Si5 0.922256 0.167953 0.731332
Si Si6 0.841388 0.596359 0.836755
O O1 0.750000 0.051158 0.959557
O O2 0.637174 0.913417 0.884465
O O3 0.637440 0.137753 0.833588
O O4 0.605476 0.067052 0.037875
O O5 0.250000 0.974517 0.574680
O O6 0.352367 0.119806 0.664783
O O7 0.373505 0.049204 0.456655
O O8 0.392922 0.900026 0.619419
O O9 0.500000 0.500000 0.687149
O O10 0.424199 0.696510 0.710457
O O11 0.350743 0.502364 0.742185
O O12 0.490715 0.122420 0.764032
O O13 0.391650 0.292221 0.800365
O O14 0.750000 0.633165 0.846781
#
# Coordination Sequence:
#
# PCOD8193241 Si02
#       6
#     8   8   8   8   8   8
#     4  11  25  44  70  98 132 177 224 271 331 399
#     4  10  23  42  67  99 132 175 224 267 331 400
#     4  12  26  45  65  99 133 172 225 277 333 393
#     4  11  22  44  68  98 132 171 221 273 334 395
#     4  11  24  44  69  95 133 175 221 276 330 395
#     4  11  25  42  67  98 134 173 220 278 334 394
#
# _framework density 20.964511999999999
#
# number of rings (size 3 to 8) (size 9 to 14) (size 15 to 20)
#    0.000    1.000    1.667    6.500    4.667    5.333 
#    0.000    0.000    0.000    0.000    0.000    0.000 
#    0.000    0.000    0.000    0.000    0.000    0.000 
#
# Total GULP energy -297749.783013 kJ/mol
# GULP energy per Si atom -12406.240959 kJ/mol
# Density = 2.091680 g / cm^3
# Si number density = 20.964512 Si / 1000 Ang^3
#
#
#
# Elastic Constant Matrix: (Units=GPa)
#
#
# Indices 1 2 3 4 5 6 
#
# 1 84.8442 31.7932 8.4708 0.0000 0.0000 0.0000
# 2 31.7932 153.9397 55.2808 0.0000 0.0000 0.0000
# 3 8.4708 55.2808 96.1964 0.0000 0.0000 0.0000
# 4 0.0000 0.0000 0.0000 24.0928 0.0000 0.0000
# 5 0.0000 0.0000 0.0000 0.0000 29.5680 0.0000
# 6 0.0000 0.0000 0.0000 0.0000 0.0000 31.5954
#
#
#
# Elastic Compliance Matrix: (Units=1/GPa)
#
#
# Indices 1 2 3 4 5 6 
#
# 1 0.012794 -0.002820 0.000494 0.000000 0.000000 0.000000
# 2 -0.002820 0.008807 -0.004813 0.000000 0.000000 0.000000
# 3 0.000494 -0.004813 0.013118 0.000000 0.000000 0.000000
# 4 0.000000 0.000000 0.000000 0.041506 0.000000 0.000000
# 5 0.000000 0.000000 0.000000 0.000000 0.033820 0.000000
# 6 0.000000 0.000000 0.000000 0.000000 0.000000 0.031650
#
#
# Mechanical properties :
#
#
# Convention : Reuss Voigt Hill
#
# Bulk Modulus (GPa) = 48.92149 58.45224 53.68686
# Shear Modulus (GPa) = 30.71537 33.01359 31.86448
#
# Velocity S-wave (km/s) = 3.83183 3.97260 3.90285
# Velocity P-wave (km/s) = 6.55464 6.99887 6.78039
#
# Compressibility (1/GPa) = 0.02044092
#
# Stress axis : x y z
#
# Youngs Moduli (GPa) = 78.16427 113.55110 76.23373
#
# Poissons Ratio (x) = 0.32016 -0.03764
# Poissons Ratio (y) = 0.22039 0.36688
# Poissons Ratio (z) = -0.03859 0.54647
#
# Static dielectric constant tensor:
#      x y z
#    x 3.801430 0.000000 0.000000 
#    y 0.000000 3.702430 0.000000 
#    z 0.000000 0.000000 3.865340 
# 
# 
# High freq. dielectric constant tensor:
#      x y z
#    x 1.832090 0.000000 0.000000 
#    y 0.000000 1.825080 0.000000 
#    z 0.000000 0.000000 1.827480 
# 
# From -- ./inp_files/11804.got.cif
#   From: 2010.03.12/outbox.cif.g09.slc.cpg/sg46_6_cif.got.tgz:11804.got - 2010.04.14 02:56:35.
