data_PCOD8193542
_publ_section_title
;
Structure prediction by ZEFSAII (Michael W. Deem and Ramdas Pophale) SiO2 
 PCOD8193542
Probable space group: P M M M
;
_chemical_formula_sum "Si O2"
_cell_formula_units_Z 48
_cell_length_a 17.392387
_cell_length_b 20.888434
_cell_length_c 7.858745
_cell_angle_alpha 90.000000
_cell_angle_beta 90.000000
_cell_angle_gamma 90.000000
_cell_volume 2855.079921
_symmetry_space_group_name_H-M "P M M M"
_symmetry_group_IT_number 47
_symmetry_cell_setting 'orthorhombic'
loop_
_space_group_symop_operation_xyz
x,y,z
-x,-y,z
x,-y,-z
-x,y,-z
-x,-y,-z
x,y,-z
-x,y,z
x,-y,z
loop_
_atom_site_type_symbol
_atom_site_label
_atom_site_fract_x
_atom_site_fract_y
_atom_site_fract_z
Si Si1 0.913528 0.427452 0.799535
Si Si2 0.688878 0.930096 0.500000
Si Si3 0.409983 0.802414 0.500000
Si Si4 0.677319 0.244789 0.187939
Si Si5 0.913719 0.192566 0.297763
Si Si6 0.183190 0.688549 0.694443
Si Si7 0.223889 0.117629 0.810783
O O1 0.893756 0.500000 0.746191
O O2 0.851183 0.382186 0.711721
O O3 0.000000 0.410280 0.737645
O O4 0.907946 0.418968 0.000000
O O5 0.627054 0.873218 0.500000
O O6 0.742594 0.929144 0.667723
O O7 0.647600 0.000000 0.500000
O O8 0.500000 0.813358 0.500000
O O9 0.387665 0.761102 0.332841
O O10 0.733981 0.305834 0.212221
O O11 0.731253 0.183746 0.205868
O O12 0.638769 0.248856 0.000000
O O13 0.912402 0.188979 0.500000
O O14 0.878160 0.260030 0.233195
O O15 0.865713 0.132876 0.223010
O O16 0.000000 0.187694 0.226182
O O17 0.200441 0.704795 0.500000
O O18 0.233829 0.087599 0.000000
#
# Coordination Sequence:
#
# PCOD8193542 Si02
#       7
#     8   4   4   8   8   8   8
#     4   9  18  30  40  55  89 137 181 217 252 287
#     4  10  20  35  53  72  96 126 155 184 219 264
#     4  10  20  35  54  79 106 125 147 180 221 282
#     4   9  17  31  50  72  98 127 156 191 236 281
#     4   9  16  26  42  65  92 119 151 200 255 292
#     4  10  17  27  44  67  93 123 165 209 244 286
#     4   9  17  30  48  68  91 122 159 196 234 275
#
# _framework density 16.812139999999999
#
# number of rings (size 3 to 8) (size 9 to 14) (size 15 to 20)
#    0.000    2.667    1.667    1.500    0.000    3.167 
#    0.000    0.833    0.000    1.000    0.000    5.833 
#    0.000    1.333    0.000    3.500    0.000    0.000 
#
# Total GULP energy -594943.237152 kJ/mol
# GULP energy per Si atom -12394.650774 kJ/mol
# Density = 1.677387 g / cm^3
# Si number density = 16.812140 Si / 1000 Ang^3
#
#
#
# Elastic Constant Matrix: (Units=GPa)
#
#
# Indices 1 2 3 4 5 6 
#
# 1 94.5629 33.8311 43.0081 0.0000 0.0000 0.0000
# 2 33.8311 62.0980 23.5667 0.0000 0.0000 0.0000
# 3 43.0081 23.5667 97.8821 0.0000 0.0000 0.0000
# 4 0.0000 0.0000 0.0000 7.3395 0.0000 0.0000
# 5 0.0000 0.0000 0.0000 0.0000 15.1225 0.0000
# 6 0.0000 0.0000 0.0000 0.0000 0.0000 15.4005
#
#
#
# Elastic Compliance Matrix: (Units=1/GPa)
#
#
# Indices 1 2 3 4 5 6 
#
# 1 0.015175 -0.006314 -0.005148 0.000000 0.000000 0.000000
# 2 -0.006314 0.020350 -0.002125 0.000000 0.000000 0.000000
# 3 -0.005148 -0.002125 0.012990 0.000000 0.000000 0.000000
# 4 0.000000 0.000000 0.000000 0.136249 0.000000 0.000000
# 5 0.000000 0.000000 0.000000 0.000000 0.066127 0.000000
# 6 0.000000 0.000000 0.000000 0.000000 0.000000 0.064933
#
#
# Mechanical properties :
#
#
# Convention : Reuss Voigt Hill
#
# Bulk Modulus (GPa) = 46.85742 50.59497 48.72619
# Shear Modulus (GPa) = 14.28121 17.84830 16.06475
#
# Velocity S-wave (km/s) = 2.91771 3.26180 3.09454
# Velocity P-wave (km/s) = 6.26757 6.65924 6.46637
#
# Compressibility (1/GPa) = 0.02134134
#
# Stress axis : x y z
#
# Youngs Moduli (GPa) = 65.89791 49.14011 76.98322
#
# Poissons Ratio (x) = 0.31026 0.39627
# Poissons Ratio (y) = 0.41607 0.16362
# Poissons Ratio (z) = 0.33921 0.10444
#
# Static dielectric constant tensor:
#      x y z
#    x 2.919790 0.000000 0.000000 
#    y 0.000000 2.916660 0.000000 
#    z 0.000000 0.000000 3.281520 
# 
# 
# High freq. dielectric constant tensor:
#      x y z
#    x 1.615130 0.000000 0.000000 
#    y 0.000000 1.614390 0.000000 
#    z 0.000000 0.000000 1.661170 
# 
# From -- ./inp_files/9728.got.cif
#   From: 2010.03.12/outbox.cif.g09.slc.cpg/sg47_5_cif.got.tgz:9728.got - 2010.04.14 03:12:58.
