data_PCOD8193507
_publ_section_title
;
Structure prediction by ZEFSAII (Michael W. Deem and Ramdas Pophale) SiO2 
 PCOD8193507
Probable space group: P M M M
;
_chemical_formula_sum "Si O2"
_cell_formula_units_Z 64
_cell_length_a 20.602231
_cell_length_b 9.185332
_cell_length_c 19.927495
_cell_angle_alpha 90.000000
_cell_angle_beta 90.000000
_cell_angle_gamma 90.000000
_cell_volume 3771.045908
_symmetry_space_group_name_H-M "P M M M"
_symmetry_group_IT_number 47
_symmetry_cell_setting 'orthorhombic'
loop_
_space_group_symop_operation_xyz
x,y,z
-x,-y,z
x,-y,-z
-x,y,-z
-x,-y,-z
x,y,-z
-x,y,z
x,-y,z
loop_
_atom_site_type_symbol
_atom_site_label
_atom_site_fract_x
_atom_site_fract_y
_atom_site_fract_z
Si Si1 0.776514 0.163375 0.929300
Si Si2 0.812528 0.829856 0.355251
Si Si3 0.629238 0.331361 0.201174
Si Si4 0.429426 0.330459 0.341062
Si Si5 0.237401 0.828289 0.212288
Si Si6 0.074657 0.667090 0.422455
Si Si7 0.378070 0.836507 0.073509
Si Si8 0.692862 0.329974 0.578348
O O1 0.798821 0.229128 0.856881
O O2 0.699226 0.164941 0.925612
O O3 0.803106 0.000000 0.934640
O O4 0.798399 0.243624 0.000000
O O5 0.807627 0.796148 0.275939
O O6 0.882437 0.772342 0.377147
O O7 0.756583 0.751417 0.396847
O O8 0.807288 0.000000 0.370361
O O9 0.644223 0.500000 0.188967
O O10 0.579632 0.305432 0.261791
O O11 0.695387 0.253845 0.223029
O O12 0.596780 0.266654 0.133404
O O13 0.500000 0.262638 0.360739
O O14 0.430506 0.500000 0.358166
O O15 0.370482 0.262364 0.384361
O O16 0.252574 0.000000 0.204704
O O17 0.089421 0.699768 0.500000
O O18 0.091622 0.500000 0.406067
O O19 0.000000 0.700221 0.405683
O O20 0.403704 0.000000 0.086119
O O21 0.402645 0.781804 0.000000
O O22 0.683563 0.302568 0.500000
O O23 0.701822 0.500000 0.595320
#
# Coordination Sequence:
#
# PCOD8193507 Si02
#       8
#     8   8   8   8   8   8   8   8
#     4   7  10  19  36  56  79 111 149 182 213 256
#     4  11  21  31  48  74 104 132 157 192 235 283
#     4  10  17  26  44  66  88 114 148 195 241 282
#     4   9  18  32  48  67  90 116 152 200 251 296
#     4   9  17  28  42  63  93 126 156 186 228 282
#     4   9  19  36  55  73  96 129 166 200 234 277
#     4   8  14  25  41  60  85 117 148 181 226 281
#     4  10  20  34  52  71  91 119 157 199 242 291
#
# _framework density 16.971419000000001
#
# number of rings (size 3 to 8) (size 9 to 14) (size 15 to 20)
#    0.000    2.875    1.250    3.000    0.000    3.250 
#    0.000    1.875    0.000    3.750    0.000    3.500 
#    0.000    0.500    0.000    6.250    0.000    1.125 
#
# Total GULP energy -792863.063571 kJ/mol
# GULP energy per Si atom -12388.485368 kJ/mol
# Density = 1.693279 g / cm^3
# Si number density = 16.971419 Si / 1000 Ang^3
#
#
#
# Elastic Constant Matrix: (Units=GPa)
#
#
# Indices 1 2 3 4 5 6 
#
# 1 73.5491 28.2480 47.2196 0.0000 0.0000 0.0000
# 2 28.2480 52.3166 42.1608 0.0000 0.0000 0.0000
# 3 47.2196 42.1608 115.6963 0.0000 0.0000 0.0000
# 4 0.0000 0.0000 0.0000 25.6452 0.0000 0.0000
# 5 0.0000 0.0000 0.0000 0.0000 10.2878 0.0000
# 6 0.0000 0.0000 0.0000 0.0000 0.0000 5.1472
#
#
#
# Elastic Compliance Matrix: (Units=1/GPa)
#
#
# Indices 1 2 3 4 5 6 
#
# 1 0.019616 -0.005861 -0.005870 0.000000 0.000000 0.000000
# 2 -0.005861 0.028813 -0.008108 0.000000 0.000000 0.000000
# 3 -0.005870 -0.008108 0.013994 0.000000 0.000000 0.000000
# 4 0.000000 0.000000 0.000000 0.038994 0.000000 0.000000
# 5 0.000000 0.000000 0.000000 0.000000 0.097202 0.000000
# 6 0.000000 0.000000 0.000000 0.000000 0.000000 0.194280
#
#
# Mechanical properties :
#
#
# Convention : Reuss Voigt Hill
#
# Bulk Modulus (GPa) = 43.96570 52.97986 48.47278
# Shear Modulus (GPa) = 11.35956 16.47829 13.91892
#
# Velocity S-wave (km/s) = 2.58996 3.11938 2.86691
# Velocity P-wave (km/s) = 5.90811 6.65274 6.29145
#
# Compressibility (1/GPa) = 0.02274500
#
# Stress axis : x y z
#
# Youngs Moduli (GPa) = 50.97843 34.70700 71.46098
#
# Poissons Ratio (x) = 0.20341 0.41949
# Poissons Ratio (y) = 0.29878 0.57938
# Poissons Ratio (z) = 0.29926 0.28139
#
# Static dielectric constant tensor:
#      x y z
#    x 2.855620 0.000000 0.000000 
#    y 0.000000 3.009400 0.000000 
#    z 0.000000 0.000000 3.775300 
# 
# 
# High freq. dielectric constant tensor:
#      x y z
#    x 1.608870 0.000000 0.000000 
#    y 0.000000 1.628140 0.000000 
#    z 0.000000 0.000000 1.676930 
# 
# From -- ./inp_files/31513.got.cif
#   From: 2010.03.12/outbox.cif.g09.slc.cpg/sg47_16_cif.got.tgz:31513.got - 2010.04.14 03:12:58.
