data_PCOD8193603
_publ_section_title
;
Structure prediction by ZEFSAII (Michael W. Deem and Ramdas Pophale) SiO2 
 PCOD8193603
Probable space group: P M M M
;
_chemical_formula_sum "Si O2"
_cell_formula_units_Z 64
_cell_length_a 9.471420
_cell_length_b 19.899437
_cell_length_c 20.908098
_cell_angle_alpha 90.000000
_cell_angle_beta 90.000000
_cell_angle_gamma 90.000000
_cell_volume 3940.673123
_symmetry_space_group_name_H-M "P M M M"
_symmetry_group_IT_number 47
_symmetry_cell_setting 'orthorhombic'
loop_
_space_group_symop_operation_xyz
x,y,z
-x,-y,z
x,-y,-z
-x,y,-z
-x,-y,-z
x,y,-z
-x,y,z
x,-y,z
loop_
_atom_site_type_symbol
_atom_site_label
_atom_site_fract_x
_atom_site_fract_y
_atom_site_fract_z
Si Si1 0.834004 0.211677 0.809326
Si Si2 0.835795 0.925916 0.757464
Si Si3 0.336868 0.211802 0.427669
Si Si4 0.338736 0.925785 0.368739
Si Si5 0.168544 0.291222 0.929694
Si Si6 0.832285 0.426875 0.128319
Si Si7 0.832649 0.426728 0.271968
Si Si8 0.832208 0.714227 0.681132
O O1 0.794611 0.132315 0.807909
O O2 0.768443 0.242420 0.874525
O O3 0.777265 0.248553 0.745460
O O4 0.000000 0.223691 0.811413
O O5 0.756110 0.911213 0.692319
O O6 0.000000 0.920945 0.740533
O O7 0.797789 0.000000 0.785480
O O8 0.297781 0.231776 0.500000
O O9 0.500000 0.227801 0.412668
O O10 0.307303 0.131854 0.420510
O O11 0.240475 0.254704 0.380713
O O12 0.500000 0.922514 0.345442
O O13 0.305218 0.000000 0.397843
O O14 0.224142 0.366990 0.916469
O O15 0.000000 0.289161 0.928602
O O16 0.223772 0.268963 0.000000
O O17 0.782147 0.500000 0.102054
O O18 0.773947 0.416217 0.200196
O O19 0.000000 0.424355 0.130128
O O20 0.780789 0.500000 0.298734
O O21 0.783781 0.364146 0.315657
O O22 0.000000 0.426349 0.268630
O O23 0.000000 0.722098 0.673560
#
# Coordination Sequence:
#
# PCOD8193603 Si02
#       8
#     8   8   8   8   8   8   8   8
#     4   9  15  24  38  58  81 108 145 183 214 248
#     4   9  16  26  42  62  84 111 142 178 219 256
#     4  10  21  34  46  64  92 120 143 173 216 262
#     4   9  17  29  45  65  88 113 142 173 207 254
#     4   9  15  21  30  48  79 117 148 173 208 255
#     4   8  12  18  28  46  76 111 142 169 203 252
#     4   8  13  22  39  63  87 109 138 180 224 258
#     4  10  17  28  48  68  86 113 149 185 216 254
#
# _framework density 16.240879
#
# number of rings (size 3 to 8) (size 9 to 14) (size 15 to 20)
#    0.000    3.000    2.500    0.750    0.000    0.750 
#    0.000    2.500    0.000    1.125    0.000    7.875 
#    0.000    2.000    0.000    3.125    0.000    7.500 
#
# Total GULP energy -792876.389010 kJ/mol
# GULP energy per Si atom -12388.693578 kJ/mol
# Density = 1.620391 g / cm^3
# Si number density = 16.240879 Si / 1000 Ang^3
#
#
#
# Elastic Constant Matrix: (Units=GPa)
#
#
# Indices 1 2 3 4 5 6 
#
# 1 18.2457 23.9639 23.3269 0.0000 0.0000 0.0000
# 2 23.9639 132.1083 73.0982 0.0000 0.0000 0.0000
# 3 23.3269 73.0982 112.3278 0.0000 0.0000 0.0000
# 4 0.0000 0.0000 0.0000 23.4910 0.0000 0.0000
# 5 0.0000 0.0000 0.0000 0.0000 -2.4320 0.0000
# 6 0.0000 0.0000 0.0000 0.0000 0.0000 11.5214
#
#
#
# Elastic Compliance Matrix: (Units=1/GPa)
#
#
# Indices 1 2 3 4 5 6 
#
# 1 0.080071 -0.008320 -0.011214 0.000000 0.000000 0.000000
# 2 -0.008320 0.012693 -0.006533 0.000000 0.000000 0.000000
# 3 -0.011214 -0.006533 0.015482 0.000000 0.000000 0.000000
# 4 0.000000 0.000000 0.000000 0.042569 0.000000 0.000000
# 5 0.000000 0.000000 0.000000 0.000000 -0.411185 0.000000
# 6 0.000000 0.000000 0.000000 0.000000 0.000000 0.086795
#
#
# Mechanical properties :
#
#
# Convention : Reuss Voigt Hill
#
# Bulk Modulus (GPa) = 17.82072 55.94001 36.88036
# Shear Modulus (GPa) = -48.66877 16.00227 -16.33325
#
# Velocity S-wave (km/s) = -5.48014 3.14237 -3.17470
# Velocity P-wave (km/s) = 5.38943 6.90541 3.05276
#
# Compressibility (1/GPa) = 0.05611446
#
# Stress axis : x y z
#
# Youngs Moduli (GPa) = 12.48884 78.78193 64.58916
#
# Poissons Ratio (x) = 0.65543 0.72432
# Poissons Ratio (y) = 0.10390 0.42193
# Poissons Ratio (z) = 0.14005 0.51465
#
# Static dielectric constant tensor:
#      x y z
#    x 2.585440 0.000000 0.000000 
#    y 0.000000 3.556030 0.000000 
#    z 0.000000 0.000000 3.001830 
# 
# 
# High freq. dielectric constant tensor:
#      x y z
#    x 1.566470 0.000000 0.000000 
#    y 0.000000 1.641540 0.000000 
#    z 0.000000 0.000000 1.598700 
# 
# From -- ./inp_files/11807.got.cif
#   From: 2010.03.12/outbox.cif.g09.slc.cpg/sg47_6_cif.got.tgz:11807.got - 2010.04.14 03:12:58.
