data_PCOD8193591
_publ_section_title
;
Structure prediction by ZEFSAII (Michael W. Deem and Ramdas Pophale) SiO2 
 PCOD8193591
Probable space group: P M M M
;
_chemical_formula_sum "Si O2"
_cell_formula_units_Z 40
_cell_length_a 14.615021
_cell_length_b 7.800765
_cell_length_c 22.611395
_cell_angle_alpha 90.000000
_cell_angle_beta 90.000000
_cell_angle_gamma 90.000000
_cell_volume 2577.887706
_symmetry_space_group_name_H-M "P M M M"
_symmetry_group_IT_number 47
_symmetry_cell_setting 'orthorhombic'
loop_
_space_group_symop_operation_xyz
x,y,z
-x,-y,z
x,-y,-z
-x,y,-z
-x,-y,-z
x,y,-z
-x,y,z
x,-y,z
loop_
_atom_site_type_symbol
_atom_site_label
_atom_site_fract_x
_atom_site_fract_y
_atom_site_fract_z
Si Si1 0.400351 0.204053 0.566712
Si Si2 0.105357 0.701908 0.500000
Si Si3 0.898373 0.203107 0.722913
Si Si4 0.890943 0.190888 0.853925
Si Si5 0.890794 0.500000 0.933286
Si Si6 0.214727 0.198894 0.385017
O O1 0.389658 0.273547 0.500000
O O2 0.500000 0.262173 0.592173
O O3 0.316114 0.280540 0.605067
O O4 0.394459 0.000000 0.565658
O O5 0.116510 0.500000 0.500000
O O6 0.152045 0.778469 0.557849
O O7 0.000000 0.759387 0.500000
O O8 0.858910 0.247027 0.788089
O O9 0.832564 0.284665 0.672615
O O10 0.000000 0.282319 0.714753
O O11 0.905124 0.000000 0.715758
O O12 0.853164 0.329367 0.900757
O O13 0.000000 0.186411 0.854317
O O14 0.853852 0.000000 0.870215
O O15 0.000000 0.500000 0.932511
O O16 0.852942 0.500000 0.000000
O O17 0.226960 0.000000 0.372004
#
# Coordination Sequence:
#
# PCOD8193591 Si02
#       6
#     8   4   8   8   4   8
#     4   8  13  22  38  60  79  91 113 157 205 240
#     4  11  23  33  36  49  80 102 117 159 214 249
#     4   8  14  24  38  55  72  92 125 164 193 225
#     4   8  14  25  37  50  73 100 126 162 199 227
#     4   9  16  24  36  56  76  97 132 165 188 225
#     4  10  17  28  46  60  69  94 134 165 193 238
#
# _framework density 15.516581
#
# number of rings (size 3 to 8) (size 9 to 14) (size 15 to 20)
#    0.000    3.200    1.000    2.700    0.000    2.000 
#    1.800    2.000    0.000    1.200    0.000    0.000 
#    0.000    0.000    0.000    0.000    0.000    2.000 
#
# Total GULP energy -495588.358113 kJ/mol
# GULP energy per Si atom -12389.708953 kJ/mol
# Density = 1.548126 g / cm^3
# Si number density = 15.516581 Si / 1000 Ang^3
#
#
#
# Elastic Constant Matrix: (Units=GPa)
#
#
# Indices 1 2 3 4 5 6 
#
# 1 91.0891 14.5361 47.4293 0.0000 0.0000 0.0000
# 2 14.5361 43.1965 36.0223 0.0000 0.0000 0.0000
# 3 47.4293 36.0223 130.7629 0.0000 0.0000 0.0000
# 4 0.0000 0.0000 0.0000 5.5022 0.0000 0.0000
# 5 0.0000 0.0000 0.0000 0.0000 5.2438 0.0000
# 6 0.0000 0.0000 0.0000 0.0000 0.0000 2.3764
#
#
#
# Elastic Compliance Matrix: (Units=1/GPa)
#
#
# Indices 1 2 3 4 5 6 
#
# 1 0.013546 -0.000599 -0.004748 0.000000 0.000000 0.000000
# 2 -0.000599 0.030081 -0.008069 0.000000 0.000000 0.000000
# 3 -0.004748 -0.008069 0.011593 0.000000 0.000000 0.000000
# 4 0.000000 0.000000 0.000000 0.181744 0.000000 0.000000
# 5 0.000000 0.000000 0.000000 0.000000 0.190700 0.000000
# 6 0.000000 0.000000 0.000000 0.000000 0.000000 0.420801
#
#
# Mechanical properties :
#
#
# Convention : Reuss Voigt Hill
#
# Bulk Modulus (GPa) = 35.22789 51.22487 43.22638
# Shear Modulus (GPa) = 5.65125 13.76189 9.70657
#
# Velocity S-wave (km/s) = 1.91049 2.98134 2.50384
# Velocity P-wave (km/s) = 5.25541 6.70342 6.02309
#
# Compressibility (1/GPa) = 0.02838660
#
# Stress axis : x y z
#
# Youngs Moduli (GPa) = 73.82092 33.24390 86.26106
#
# Poissons Ratio (x) = 0.01990 0.40961
# Poissons Ratio (y) = 0.04419 0.69608
# Poissons Ratio (z) = 0.35054 0.26826
#
# Static dielectric constant tensor:
#      x y z
#    x 3.059570 0.000000 0.000000 
#    y 0.000000 2.851700 0.000000 
#    z 0.000000 0.000000 3.090980 
# 
# 
# High freq. dielectric constant tensor:
#      x y z
#    x 1.550000 0.000000 0.000000 
#    y 0.000000 1.582610 0.000000 
#    z 0.000000 0.000000 1.577780 
# 
# From -- ./inp_files/30734.got.cif
#   From: 2010.03.12/outbox.cif.g09.slc.cpg/sg47_16_cif.got.tgz:30734.got - 2010.04.14 03:12:58.
