data_PCOD8193390
_publ_section_title
;
Structure prediction by ZEFSAII (Michael W. Deem and Ramdas Pophale) SiO2 
 PCOD8193390
Probable space group: I M A 2
;
_chemical_formula_sum "Si O2"
_cell_formula_units_Z 40
_cell_length_a 8.388592
_cell_length_b 28.415788
_cell_length_c 7.786041
_cell_angle_alpha 90.000000
_cell_angle_beta 90.000000
_cell_angle_gamma 90.000000
_cell_volume 1855.946540
_symmetry_space_group_name_H-M "I M A 2"
_symmetry_group_IT_number 46
_symmetry_cell_setting 'orthorhombic'
loop_
_space_group_symop_operation_xyz
x,y,z
-x,-y,z
1/2-x,y,z
1/2+x,-y,z
1/2+x,1/2+y,1/2+z
1/2-x,1/2-y,1/2+z
-x,1/2+y,1/2+z
x,1/2-y,1/2+z
loop_
_atom_site_type_symbol
_atom_site_label
_atom_site_fract_x
_atom_site_fract_y
_atom_site_fract_z
Si Si1 0.932008 0.703707 0.388630
Si Si2 0.066167 0.702266 0.754904
Si Si3 0.435712 0.608222 0.263923
Si Si4 0.561712 0.551726 0.579676
Si Si5 0.061702 0.387702 0.908284
O O1 0.750000 0.718632 0.356269
O O2 0.959064 0.693460 0.588328
O O3 0.046413 0.745443 0.327880
O O4 0.967278 0.656430 0.285502
O O5 0.250000 0.693958 0.708525
O O6 0.007411 0.665188 0.896815
O O7 0.250000 0.619156 0.275078
O O8 0.480653 0.570149 0.406590
O O9 0.484023 0.588103 0.076658
O O10 0.500000 0.500000 0.619051
O O11 0.750000 0.552473 0.554199
O O12 0.508224 0.583527 0.740338
O O13 0.250000 0.386732 0.928798
#
# Coordination Sequence:
#
# PCOD8193390 Si02
#       5
#     8   8   8   8   8
#     4  12  24  41  63  92 133 179 225 274 336 401
#     4  12  24  40  63  95 133 175 226 278 335 397
#     4  12  25  43  69 100 137 177 225 281 338 401
#     4  11  25  46  73 101 135 177 227 282 344 406
#     4  11  24  44  69  98 136 180 225 276 339 404
#
# _framework density 21.552344000000002
#
# number of rings (size 3 to 8) (size 9 to 14) (size 15 to 20)
#    0.000    0.400    2.000    7.800    0.000    3.200 
#    0.000    2.000    0.000    0.000    0.000    0.000 
#    0.000    0.000    0.000    0.000    0.000    0.000 
#
# Total GULP energy -248190.237924 kJ/mol
# GULP energy per Si atom -12409.511896 kJ/mol
# Density = 2.150329 g / cm^3
# Si number density = 21.552344 Si / 1000 Ang^3
#
#
#
# Elastic Constant Matrix: (Units=GPa)
#
#
# Indices 1 2 3 4 5 6 
#
# 1 103.9127 12.7491 30.1333 0.0009 -0.0038 0.0001
# 2 12.7491 88.7848 21.0256 0.0024 -0.0017 -0.0009
# 3 30.1333 21.0256 128.6563 0.0089 -0.0110 -0.0007
# 4 0.0009 0.0024 0.0089 36.9910 -0.0052 0.0001
# 5 -0.0038 -0.0017 -0.0110 -0.0052 26.8106 0.0016
# 6 0.0001 -0.0009 -0.0007 0.0001 0.0016 34.0466
#
#
#
# Elastic Compliance Matrix: (Units=1/GPa)
#
#
# Indices 1 2 3 4 5 6 
#
# 1 0.010402 -0.000954 -0.002280 0.000000 0.000000 0.000000
# 2 -0.000954 0.011804 -0.001706 0.000000 0.000000 0.000000
# 3 -0.002280 -0.001706 0.008586 -0.000002 0.000003 0.000000
# 4 0.000000 0.000000 -0.000002 0.027034 0.000005 0.000000
# 5 0.000000 0.000000 0.000003 0.000005 0.037299 -0.000002
# 6 0.000000 0.000000 0.000000 0.000000 -0.000002 0.029372
#
#
# Mechanical properties :
#
#
# Convention : Reuss Voigt Hill
#
# Bulk Modulus (GPa) = 47.81977 49.90774 48.86376
# Shear Modulus (GPa) = 35.37438 36.73269 36.05354
#
# Velocity S-wave (km/s) = 4.05572 4.13285 4.09447
# Velocity P-wave (km/s) = 6.64588 6.78091 6.71374
#
# Compressibility (1/GPa) = 0.02091185
#
# Stress axis : x y z
#
# Youngs Moduli (GPa) = 96.13765 84.71656 116.47528
#
# Poissons Ratio (x) = 0.08079 0.26561
# Poissons Ratio (y) = 0.09168 0.19868
# Poissons Ratio (z) = 0.21923 0.14450
#
# Static dielectric constant tensor:
#      x y z
#    x 3.895030 0.000000 0.000010 
#    y 0.000000 3.812130 -0.000010 
#    z 0.000010 -0.000010 4.108240 
# 
# 
# High freq. dielectric constant tensor:
#      x y z
#    x 1.859630 0.000000 0.000000 
#    y 0.000000 1.838400 0.000000 
#    z 0.000000 0.000000 1.862710 
# 
# From -- ./inp_files/3535.got.cif
#   From: 2010.03.12/outbox.cif.g09.slc.cpg/sg46_2_cif.got.tgz:3535.got - 2010.04.14 02:56:35.
