data_PCOD8193784
_publ_section_title
;
Structure prediction by ZEFSAII (Michael W. Deem and Ramdas Pophale) SiO2 
 PCOD8193784
Probable space group: P M M M
;
_chemical_formula_sum "Si O2"
_cell_formula_units_Z 36
_cell_length_a 12.888867
_cell_length_b 7.613737
_cell_length_c 22.668097
_cell_angle_alpha 90.000000
_cell_angle_beta 90.000000
_cell_angle_gamma 90.000000
_cell_volume 2224.475750
_symmetry_space_group_name_H-M "P M M M"
_symmetry_group_IT_number 47
_symmetry_cell_setting 'orthorhombic'
loop_
_space_group_symop_operation_xyz
x,y,z
-x,-y,z
x,-y,-z
-x,y,-z
-x,-y,-z
x,y,-z
-x,y,z
x,-y,z
loop_
_atom_site_type_symbol
_atom_site_label
_atom_site_fract_x
_atom_site_fract_y
_atom_site_fract_z
Si Si1 0.876112 0.500000 0.349584
Si Si2 0.242554 0.500000 0.227510
Si Si3 0.258953 0.198598 0.934044
Si Si4 0.123101 0.804715 0.565504
Si Si5 0.878107 0.500000 0.109346
Si Si6 0.380273 0.202052 0.819309
O O1 0.817998 0.500000 0.288217
O O2 0.836395 0.669058 0.385884
O O3 0.000000 0.500000 0.339802
O O4 0.155916 0.500000 0.177162
O O5 0.313329 0.674155 0.223419
O O6 0.162530 0.326518 0.923362
O O7 0.350532 0.239063 0.887573
O O8 0.217748 0.000000 0.925969
O O9 0.303775 0.227404 0.000000
O O10 0.164838 0.755127 0.500000
O O11 0.000000 0.797817 0.563787
O O12 0.161319 0.000000 0.583010
O O13 0.000000 0.500000 0.105262
O O14 0.500000 0.250588 0.811472
O O15 0.358149 0.000000 0.802065
#
# Coordination Sequence:
#
# PCOD8193784 Si02
#       6
#     4   4   8   8   4   8
#     4  10  18  27  42  64  91 126 160 183 207 243
#     4  10  20  32  45  64  90 117 151 189 214 246
#     4   9  18  31  47  69  90 106 136 182 225 270
#     4   8  14  25  41  62  89 120 152 184 217 252
#     4  10  20  33  45  58  85 125 157 179 209 248
#     4   9  18  33  51  67  85 111 139 175 231 285
#
# _framework density 16.183588
#
# number of rings (size 3 to 8) (size 9 to 14) (size 15 to 20)
#    0.000    2.889    0.000    2.000    0.000    4.000 
#    0.000    3.333    0.000    8.000    0.000    0.000 
#    0.000    7.111    0.000   19.556    0.000    0.889 
#
# Total GULP energy -446264.628011 kJ/mol
# GULP energy per Si atom -12396.239667 kJ/mol
# Density = 1.614675 g / cm^3
# Si number density = 16.183588 Si / 1000 Ang^3
#
#
#
# Elastic Constant Matrix: (Units=GPa)
#
#
# Indices 1 2 3 4 5 6 
#
# 1 60.1362 37.3629 31.7879 0.0000 0.0000 0.0000
# 2 37.3629 112.8672 64.1766 0.0000 0.0000 0.0000
# 3 31.7879 64.1766 117.4124 0.0000 0.0000 0.0000
# 4 0.0000 0.0000 0.0000 16.4888 0.0000 0.0000
# 5 0.0000 0.0000 0.0000 0.0000 17.4647 0.0000
# 6 0.0000 0.0000 0.0000 0.0000 0.0000 17.6963
#
#
#
# Elastic Compliance Matrix: (Units=1/GPa)
#
#
# Indices 1 2 3 4 5 6 
#
# 1 0.021554 -0.005538 -0.002808 0.000000 0.000000 0.000000
# 2 -0.005538 0.014278 -0.006305 0.000000 0.000000 0.000000
# 3 -0.002808 -0.006305 0.012724 0.000000 0.000000 0.000000
# 4 0.000000 0.000000 0.000000 0.060647 0.000000 0.000000
# 5 0.000000 0.000000 0.000000 0.000000 0.057258 0.000000
# 6 0.000000 0.000000 0.000000 0.000000 0.000000 0.056509
#
#
# Mechanical properties :
#
#
# Convention : Reuss Voigt Hill
#
# Bulk Modulus (GPa) = 51.94023 61.89675 56.91849
# Shear Modulus (GPa) = 19.32799 20.80252 20.06526
#
# Velocity S-wave (km/s) = 3.45961 3.58915 3.52497
# Velocity P-wave (km/s) = 6.93704 7.45021 7.19820
#
# Compressibility (1/GPa) = 0.01925290
#
# Stress axis : x y z
#
# Youngs Moduli (GPa) = 46.39414 70.03579 78.59431
#
# Poissons Ratio (x) = 0.38789 0.22072
# Poissons Ratio (y) = 0.25695 0.49554
# Poissons Ratio (z) = 0.13029 0.44158
#
# Static dielectric constant tensor:
#      x y z
#    x 2.662000 0.000000 0.000000 
#    y 0.000000 -3.377170 0.000000 
#    z 0.000000 0.000000 3.025150 
# 
# 
# High freq. dielectric constant tensor:
#      x y z
#    x 1.577610 0.000000 0.000000 
#    y 0.000000 1.643650 0.000000 
#    z 0.000000 0.000000 1.613270 
# 
# From -- ./inp_files/30306.got.cif
#   From: 2010.03.12/outbox.cif.g09.slc.cpg/sg47_16_cif.got.tgz:30306.got - 2010.04.14 03:12:58.
