data_PCOD8193922
_publ_section_title
;
Structure prediction by ZEFSAII (Michael W. Deem and Ramdas Pophale) SiO2 
 PCOD8193922
Probable space group: P M M M
;
_chemical_formula_sum "Si O2"
_cell_formula_units_Z 64
_cell_length_a 19.982914
_cell_length_b 8.835823
_cell_length_c 20.698255
_cell_angle_alpha 90.000000
_cell_angle_beta 90.000000
_cell_angle_gamma 90.000000
_cell_volume 3654.597560
_symmetry_space_group_name_H-M "P M M M"
_symmetry_group_IT_number 47
_symmetry_cell_setting 'orthorhombic'
loop_
_space_group_symop_operation_xyz
x,y,z
-x,-y,z
x,-y,-z
-x,y,-z
-x,-y,-z
x,y,-z
-x,y,z
x,-y,z
loop_
_atom_site_type_symbol
_atom_site_label
_atom_site_fract_x
_atom_site_fract_y
_atom_site_fract_z
Si Si1 0.706949 0.321735 0.377423
Si Si2 0.165598 0.173438 0.572722
Si Si3 0.429678 0.169901 0.229816
Si Si4 0.922470 0.677201 0.319708
Si Si5 0.925260 0.679545 0.928786
Si Si6 0.287314 0.819075 0.762040
Si Si7 0.426758 0.169985 0.616555
Si Si8 0.157492 0.320927 0.808208
O O1 0.708255 0.500000 0.369038
O O2 0.765866 0.268802 0.424471
O O3 0.723499 0.247095 0.308868
O O4 0.634835 0.273641 0.407376
O O5 0.137461 0.187977 0.500000
O O6 0.108902 0.234897 0.620343
O O7 0.181351 0.000000 0.590662
O O8 0.500000 0.253329 0.208154
O O9 0.358657 0.241232 0.207350
O O10 0.426260 0.168494 0.306686
O O11 0.433975 0.000000 0.203152
O O12 0.912855 0.500000 0.332117
O O13 0.886181 0.726755 0.253677
O O14 0.000000 0.721394 0.313429
O O15 0.927994 0.500000 0.923258
O O16 0.877945 0.743453 0.872561
O O17 0.000000 0.744324 0.918630
O O18 0.898440 0.727676 0.000000
O O19 0.229047 0.760385 0.808007
O O20 0.287837 0.000000 0.757359
O O21 0.500000 0.230148 0.592360
O O22 0.415595 0.000000 0.590274
O O23 0.168051 0.500000 0.810611
#
# Coordination Sequence:
#
# PCOD8193922 Si02
#       8
#     8   8   8   8   8   8   8   8
#     4  11  20  31  49  72  98 126 159 203 252 298
#     4  11  24  40  56  72  92 123 164 207 250 300
#     4   7  11  21  37  58  85 119 157 192 227 272
#     4  10  21  36  54  76 100 126 156 195 246 300
#     4   8  14  26  46  72 101 134 171 205 235 277
#     4  10  18  28  45  68  96 129 163 199 242 294
#     4   8  14  26  45  68  95 128 162 195 236 290
#     4  10  18  29  48  75 104 132 163 201 242 285
#
# _framework density 17.512187000000001
#
# number of rings (size 3 to 8) (size 9 to 14) (size 15 to 20)
#    0.000    2.625    1.250    4.125    0.000    3.250 
#    0.000    1.250    0.000    3.000    0.000    3.500 
#    0.000    0.500    0.000    6.250    0.000    0.125 
#
# Total GULP energy -792972.240700 kJ/mol
# GULP energy per Si atom -12390.191261 kJ/mol
# Density = 1.747233 g / cm^3
# Si number density = 17.512187 Si / 1000 Ang^3
#
#
#
# Elastic Constant Matrix: (Units=GPa)
#
#
# Indices 1 2 3 4 5 6 
#
# 1 159.7885 40.9447 59.0036 0.0000 0.0000 0.0000
# 2 40.9447 54.6309 26.3469 0.0000 0.0000 0.0000
# 3 59.0036 26.3469 86.4659 0.0000 0.0000 0.0000
# 4 0.0000 0.0000 0.0000 9.2134 0.0000 0.0000
# 5 0.0000 0.0000 0.0000 0.0000 14.4557 0.0000
# 6 0.0000 0.0000 0.0000 0.0000 0.0000 29.7576
#
#
#
# Elastic Compliance Matrix: (Units=1/GPa)
#
#
# Indices 1 2 3 4 5 6 
#
# 1 0.009242 -0.004554 -0.004919 0.000000 0.000000 0.000000
# 2 -0.004554 0.023702 -0.004115 0.000000 0.000000 0.000000
# 3 -0.004919 -0.004115 0.016175 0.000000 0.000000 0.000000
# 4 0.000000 0.000000 0.000000 0.108538 0.000000 0.000000
# 5 0.000000 0.000000 0.000000 0.000000 0.069177 0.000000
# 6 0.000000 0.000000 0.000000 0.000000 0.000000 0.033605
#
#
# Mechanical properties :
#
#
# Convention : Reuss Voigt Hill
#
# Bulk Modulus (GPa) = 45.56955 61.49728 53.53342
# Shear Modulus (GPa) = 16.95330 22.32469 19.63899
#
# Velocity S-wave (km/s) = 3.11478 3.57432 3.35243
# Velocity P-wave (km/s) = 6.24611 7.22686 6.75431
#
# Compressibility (1/GPa) = 0.02194448
#
# Stress axis : x y z
#
# Youngs Moduli (GPa) = 108.20745 42.19006 61.82231
#
# Poissons Ratio (x) = 0.19214 0.30408
# Poissons Ratio (y) = 0.49280 0.25437
# Poissons Ratio (z) = 0.53223 0.17359
#
# Static dielectric constant tensor:
#      x y z
#    x 3.846740 0.000000 0.000000 
#    y 0.000000 3.036110 0.000000 
#    z 0.000000 0.000000 2.983580 
# 
# 
# High freq. dielectric constant tensor:
#      x y z
#    x 1.697920 0.000000 0.000000 
#    y 0.000000 1.650770 0.000000 
#    z 0.000000 0.000000 1.629180 
# 
# From -- ./inp_files/31498.got.cif
#   From: 2010.03.12/outbox.cif.g09.slc.cpg/sg47_16_cif.got.tgz:31498.got - 2010.04.14 03:12:58.
