data_PCOD8193194
_publ_section_title
;
Structure prediction by ZEFSAII (Michael W. Deem and Ramdas Pophale) SiO2 
 PCOD8193194
Probable space group: I M A 2
;
_chemical_formula_sum "Si O2"
_cell_formula_units_Z 64
_cell_length_a 16.964342
_cell_length_b 13.554400
_cell_length_c 12.704346
_cell_angle_alpha 90.000000
_cell_angle_beta 90.000000
_cell_angle_gamma 90.000000
_cell_volume 2921.256086
_symmetry_space_group_name_H-M "I M A 2"
_symmetry_group_IT_number 46
_symmetry_cell_setting 'orthorhombic'
loop_
_space_group_symop_operation_xyz
x,y,z
-x,-y,z
1/2-x,y,z
1/2+x,-y,z
1/2+x,1/2+y,1/2+z
1/2-x,1/2-y,1/2+z
-x,1/2+y,1/2+z
x,1/2-y,1/2+z
loop_
_atom_site_type_symbol
_atom_site_label
_atom_site_fract_x
_atom_site_fract_y
_atom_site_fract_z
Si Si1 0.447880 0.594750 0.600050
Si Si2 0.162328 0.852994 0.921520
Si Si3 0.341287 0.520177 0.783902
Si Si4 0.544047 0.723208 0.009687
Si Si5 0.838964 0.701470 0.832363
Si Si6 0.836975 0.635096 0.159695
Si Si7 0.884895 0.356566 0.975284
Si Si8 0.659973 0.082101 0.700727
O O1 0.500000 0.500000 0.599044
O O2 0.389424 0.584405 0.501862
O O3 0.395266 0.589227 0.707307
O O4 0.504633 0.690489 0.582648
O O5 0.250000 0.898867 0.921030
O O6 0.167668 0.739892 0.956628
O O7 0.126240 0.861870 0.803619
O O8 0.250000 0.529478 0.747763
O O9 0.368381 0.405720 0.789589
O O10 0.350762 0.557155 0.903529
O O11 0.592776 0.644419 0.077069
O O12 0.605401 0.755321 0.918732
O O13 0.475440 0.666331 0.947140
O O14 0.750000 0.691609 0.877818
O O15 0.840261 0.771066 0.733004
O O16 0.750000 0.630775 0.105029
O O17 0.850488 0.534096 0.223074
O O18 0.886933 0.385227 0.097816
O O19 0.750000 0.112578 0.680941
#
# Coordination Sequence:
#
# PCOD8193194 Si02
#       8
#     8   8   8   8   8   8   8   8
#     4  11  26  43  64  99 136 177 223 280 341 409
#     4  10  23  43  67  94 131 172 219 273 332 404
#     4  11  24  44  72  99 136 185 234 279 336 415
#     4  11  25  40  64  97 137 173 217 284 342 401
#     4  10  23  43  68  98 132 179 230 278 337 407
#     4  10  22  42  66  93 128 173 220 272 329 401
#     4  11  25  40  66 101 131 175 218 281 337 394
#     4  10  22  42  67  96 127 169 224 270 329 406
#
# _framework density 21.908382
#
# number of rings (size 3 to 8) (size 9 to 14) (size 15 to 20)
#    0.000    1.500    0.000    3.375    8.750    4.500 
#    0.000    1.250    0.000    0.000    0.000    0.000 
#    0.000    0.000    0.000    0.000    0.000    0.000 
#
# Total GULP energy -396651.414871 kJ/mol
# GULP energy per Si atom -12395.356715 kJ/mol
# Density = 2.185852 g / cm^3
# Si number density = 21.908382 Si / 1000 Ang^3
#
#
#
# Elastic Constant Matrix: (Units=GPa)
#
#
# Indices 1 2 3 4 5 6 
#
# 1 103.5683 30.5839 32.7829 0.0000 0.0000 0.0000
# 2 30.5839 61.9949 20.9301 0.0000 0.0000 0.0000
# 3 32.7829 20.9301 111.2846 0.0000 0.0000 0.0000
# 4 0.0000 0.0000 0.0000 28.8062 0.0000 0.0000
# 5 0.0000 0.0000 0.0000 0.0000 38.5005 0.0000
# 6 0.0000 0.0000 0.0000 0.0000 0.0000 23.8443
#
#
#
# Elastic Compliance Matrix: (Units=1/GPa)
#
#
# Indices 1 2 3 4 5 6 
#
# 1 0.011956 -0.005028 -0.002576 0.000000 0.000000 0.000000
# 2 -0.005028 0.019339 -0.002156 0.000000 0.000000 0.000000
# 3 -0.002576 -0.002156 0.010150 0.000000 0.000000 0.000000
# 4 0.000000 0.000000 0.000000 0.034715 0.000000 0.000000
# 5 0.000000 0.000000 0.000000 0.000000 0.025974 0.000000
# 6 0.000000 0.000000 0.000000 0.000000 0.000000 0.041939
#
#
# Mechanical properties :
#
#
# Convention : Reuss Voigt Hill
#
# Bulk Modulus (GPa) = 45.61229 49.49350 47.55289
# Shear Modulus (GPa) = 29.25662 31.06692 30.16177
#
# Velocity S-wave (km/s) = 3.65829 3.76977 3.71445
# Velocity P-wave (km/s) = 6.22164 6.44891 6.33629
#
# Compressibility (1/GPa) = 0.02192392
#
# Stress axis : x y z
#
# Youngs Moduli (GPa) = 83.64114 51.70940 98.51841
#
# Poissons Ratio (x) = 0.26001 0.25381
# Poissons Ratio (y) = 0.42058 0.21240
# Poissons Ratio (z) = 0.21548 0.11148
#
# Static dielectric constant tensor:
#      x y z
#    x 4.172950 0.000000 0.000000 
#    y 0.000000 3.943650 0.000000 
#    z 0.000000 0.000000 4.026250 
# 
# 
# High freq. dielectric constant tensor:
#      x y z
#    x 1.872630 0.000000 0.000000 
#    y 0.000000 1.857580 0.000000 
#    z 0.000000 0.000000 1.858950 
# 
# From -- ./inp_files/11987.got.cif
#   From: 2010.03.12/outbox.cif.g09.slc.cpg/sg46_6_cif.got.tgz:11987.got - 2010.04.14 02:56:35.
