data_PCOD8193474
_publ_section_title
;
Structure prediction by ZEFSAII (Michael W. Deem and Ramdas Pophale) SiO2 
 PCOD8193474
Probable space group: P M M M
;
_chemical_formula_sum "Si O2"
_cell_formula_units_Z 40
_cell_length_a 22.055109
_cell_length_b 9.495834
_cell_length_c 12.970885
_cell_angle_alpha 90.000000
_cell_angle_beta 90.000000
_cell_angle_gamma 90.000000
_cell_volume 2716.513898
_symmetry_space_group_name_H-M "P M M M"
_symmetry_group_IT_number 47
_symmetry_cell_setting 'orthorhombic'
loop_
_space_group_symop_operation_xyz
x,y,z
-x,-y,z
x,-y,-z
-x,y,-z
-x,-y,-z
x,y,-z
-x,y,z
x,-y,z
loop_
_atom_site_type_symbol
_atom_site_label
_atom_site_fract_x
_atom_site_fract_y
_atom_site_fract_z
Si Si1 0.609691 0.343864 0.122586
Si Si2 0.254642 0.335314 0.880893
Si Si3 0.932113 0.166817 0.000000
Si Si4 0.500000 0.158071 0.123167
Si Si5 0.932323 0.832907 0.385710
Si Si6 0.854642 0.167489 0.804814
O O1 0.594537 0.500000 0.165005
O O2 0.677224 0.298407 0.156750
O O3 0.560003 0.235458 0.166445
O O4 0.607401 0.347939 0.000000
O O5 0.241092 0.500000 0.865315
O O6 0.210210 0.242276 0.811475
O O7 0.245990 0.292651 0.000000
O O8 0.896805 0.218950 0.101138
O O9 0.000000 0.231208 0.000000
O O10 0.936391 0.000000 0.000000
O O11 0.500000 0.000000 0.166500
O O12 0.500000 0.159351 0.000000
O O13 0.911099 0.784228 0.500000
O O14 0.885615 0.777067 0.300300
O O15 0.000000 0.774459 0.362873
O O16 0.934632 0.000000 0.379749
O O17 0.845102 0.000000 0.806341
#
# Coordination Sequence:
#
# PCOD8193474 Si02
#       6
#     8   8   4   4   8   8
#     4   8  14  24  36  47  64  97 135 161 184 223
#     4   9  17  28  39  52  75 107 136 161 193 236
#     4   9  16  24  35  55  79  98 121 156 197 237
#     4   9  15  21  31  51  73  93 122 165 204 221
#     4   8  14  25  41  60  79  99 127 163 201 242
#     4  10  17  25  40  60  78  99 128 164 202 236
#
# _framework density 14.724754000000001
#
# number of rings (size 3 to 8) (size 9 to 14) (size 15 to 20)
#    0.000    3.200    1.000    2.700    0.000    4.400 
#    0.000    2.000    0.000    3.600    0.000    1.400 
#    0.000    0.000    0.000    0.900    0.000   18.300 
#
# Total GULP energy -495769.479770 kJ/mol
# GULP energy per Si atom -12394.236994 kJ/mol
# Density = 1.469124 g / cm^3
# Si number density = 14.724754 Si / 1000 Ang^3
#
#
#
# Elastic Constant Matrix: (Units=GPa)
#
#
# Indices 1 2 3 4 5 6 
#
# 1 137.0113 57.4045 49.9530 0.0000 0.0000 0.0000
# 2 57.4045 53.7823 25.1985 0.0000 0.0000 0.0000
# 3 49.9530 25.1985 71.7937 0.0000 0.0000 0.0000
# 4 0.0000 0.0000 0.0000 6.7400 0.0000 0.0000
# 5 0.0000 0.0000 0.0000 0.0000 12.5527 0.0000
# 6 0.0000 0.0000 0.0000 0.0000 0.0000 20.8023
#
#
#
# Elastic Compliance Matrix: (Units=1/GPa)
#
#
# Indices 1 2 3 4 5 6 
#
# 1 0.014953 -0.013267 -0.005747 0.000000 0.000000 0.000000
# 2 -0.013267 0.034024 -0.002711 0.000000 0.000000 0.000000
# 3 -0.005747 -0.002711 0.018879 0.000000 0.000000 0.000000
# 4 0.000000 0.000000 0.000000 0.148369 0.000000 0.000000
# 5 0.000000 0.000000 0.000000 0.000000 0.079664 0.000000
# 6 0.000000 0.000000 0.000000 0.000000 0.000000 0.048072
#
#
# Mechanical properties :
#
#
# Convention : Reuss Voigt Hill
#
# Bulk Modulus (GPa) = 40.97446 58.63325 49.80385
# Shear Modulus (GPa) = 12.64075 16.68773 14.66424
#
# Velocity S-wave (km/s) = 2.93314 3.37012 3.15920
# Velocity P-wave (km/s) = 6.27363 7.41954 6.87052
#
# Compressibility (1/GPa) = 0.02440545
#
# Stress axis : x y z
#
# Youngs Moduli (GPa) = 66.87794 29.39093 52.96823
#
# Poissons Ratio (x) = 0.38993 0.30443
# Poissons Ratio (y) = 0.88726 0.14360
# Poissons Ratio (z) = 0.38437 0.07968
#
# Static dielectric constant tensor:
#      x y z
#    x 3.043950 0.000000 0.000000 
#    y 0.000000 2.655110 0.000000 
#    z 0.000000 0.000000 2.622080 
# 
# 
# High freq. dielectric constant tensor:
#      x y z
#    x 1.572040 0.000000 0.000000 
#    y 0.000000 1.537890 0.000000 
#    z 0.000000 0.000000 1.511240 
# 
# From -- ./inp_files/24853.got.cif
#   From: 2010.03.12/outbox.cif.g09.slc.cpg/sg47_13_cif.got.tgz:24853.got - 2010.04.14 03:12:58.
