data_PCOD8193529
_publ_section_title
;
Structure prediction by ZEFSAII (Michael W. Deem and Ramdas Pophale) SiO2 
 PCOD8193529
Probable space group: P M M M
;
_chemical_formula_sum "Si O2"
_cell_formula_units_Z 44
_cell_length_a 9.158473
_cell_length_b 14.432473
_cell_length_c 23.360989
_cell_angle_alpha 90.000000
_cell_angle_beta 90.000000
_cell_angle_gamma 90.000000
_cell_volume 3087.841843
_symmetry_space_group_name_H-M "P M M M"
_symmetry_group_IT_number 47
_symmetry_cell_setting 'orthorhombic'
loop_
_space_group_symop_operation_xyz
x,y,z
-x,-y,z
x,-y,-z
-x,y,-z
-x,-y,-z
x,y,-z
-x,y,z
x,-y,z
loop_
_atom_site_type_symbol
_atom_site_label
_atom_site_fract_x
_atom_site_fract_y
_atom_site_fract_z
Si Si1 0.826966 0.103467 0.500000
Si Si2 0.826771 0.790895 0.613222
Si Si3 0.836673 0.889896 0.170925
Si Si4 0.328376 0.892487 0.284151
Si Si5 0.335952 0.110187 0.063119
Si Si6 0.827008 0.398627 0.564001
O O1 0.772725 0.155738 0.443401
O O2 0.000000 0.100751 0.500000
O O3 0.761020 0.000000 0.500000
O O4 0.742733 0.831632 0.666719
O O5 0.777102 0.683488 0.606351
O O6 0.000000 0.801853 0.622648
O O7 0.738970 0.858043 0.224324
O O8 0.768337 0.848416 0.112385
O O9 0.000000 0.850126 0.178019
O O10 0.839744 0.000000 0.167411
O O11 0.500000 0.875151 0.282069
O O12 0.290990 0.000000 0.295514
O O13 0.500000 0.147142 0.073331
O O14 0.336644 0.000000 0.066688
O O15 0.280109 0.141516 0.000000
O O16 0.763571 0.382528 0.500000
O O17 0.775791 0.500000 0.587180
O O18 0.000000 0.395283 0.559429
#
# Coordination Sequence:
#
# PCOD8193529 Si02
#       6
#     4   8   8   8   8   8
#     4   9  16  24  36  56  78  97 121 157 194 223
#     4  10  17  27  43  61  77  97 126 158 193 232
#     4   9  16  25  37  52  69  92 126 166 200 228
#     4  10  20  31  40  51  72 103 134 163 197 236
#     4   8  13  21  33  49  70  96 124 155 193 233
#     4   8  13  23  41  64  84  97 115 149 192 236
#
# _framework density 14.249434000000001
#
# number of rings (size 3 to 8) (size 9 to 14) (size 15 to 20)
#    0.000    3.000    0.909    2.727    0.000    4.364 
#    0.000    2.273    0.000    2.182    0.000    1.273 
#    0.000    0.000    0.000    0.000    0.000    0.909 
#
# Total GULP energy -545286.177232 kJ/mol
# GULP energy per Si atom -12392.867664 kJ/mol
# Density = 1.421700 g / cm^3
# Si number density = 14.249434 Si / 1000 Ang^3
#
#
#
# Elastic Constant Matrix: (Units=GPa)
#
#
# Indices 1 2 3 4 5 6 
#
# 1 64.5137 29.5570 54.4644 0.0000 0.0000 0.0000
# 2 29.5570 70.4737 47.7141 0.0000 0.0000 0.0000
# 3 54.4644 47.7141 131.6883 0.0000 0.0000 0.0000
# 4 0.0000 0.0000 0.0000 1.9901 0.0000 0.0000
# 5 0.0000 0.0000 0.0000 0.0000 12.4286 0.0000
# 6 0.0000 0.0000 0.0000 0.0000 0.0000 7.5789
#
#
#
# Elastic Compliance Matrix: (Units=1/GPa)
#
#
# Indices 1 2 3 4 5 6 
#
# 1 0.024892 -0.004597 -0.008629 0.000000 0.000000 0.000000
# 2 -0.004597 0.019651 -0.005219 0.000000 0.000000 0.000000
# 3 -0.008629 -0.005219 0.013053 0.000000 0.000000 0.000000
# 4 0.000000 0.000000 0.000000 0.502499 0.000000 0.000000
# 5 0.000000 0.000000 0.000000 0.000000 0.080459 0.000000
# 6 0.000000 0.000000 0.000000 0.000000 0.000000 0.131945
#
#
# Mechanical properties :
#
#
# Convention : Reuss Voigt Hill
#
# Bulk Modulus (GPa) = 48.29526 58.90517 53.60022
# Shear Modulus (GPa) = 6.12525 13.39554 9.76040
#
# Velocity S-wave (km/s) = 2.07555 3.06939 2.62003
# Velocity P-wave (km/s) = 6.30161 7.34778 6.84471
#
# Compressibility (1/GPa) = 0.02070596
#
# Stress axis : x y z
#
# Youngs Moduli (GPa) = 40.17371 50.88757 76.60807
#
# Poissons Ratio (x) = 0.23395 0.66106
# Poissons Ratio (y) = 0.18469 0.39979
# Poissons Ratio (z) = 0.34667 0.26557
#
# Static dielectric constant tensor:
#      x y z
#    x 2.688790 0.000000 0.000000 
#    y 0.000000 2.660830 0.000000 
#    z 0.000000 0.000000 2.927760 
# 
# 
# High freq. dielectric constant tensor:
#      x y z
#    x 1.528490 0.000000 0.000000 
#    y 0.000000 1.492030 0.000000 
#    z 0.000000 0.000000 1.545520 
# 
# From -- ./inp_files/7531.got.cif
#   From: 2010.03.12/outbox.cif.g09.slc.cpg/sg47_4_cif.got.tgz:7531.got - 2010.04.14 03:12:58.
