data_PCOD8193036
_publ_section_title
;
Structure prediction by ZEFSAII (Michael W. Deem and Ramdas Pophale) SiO2 
 PCOD8193036
Probable space group: I M A 2
;
_chemical_formula_sum "Si O2"
_cell_formula_units_Z 48
_cell_length_a 19.468545
_cell_length_b 5.222016
_cell_length_c 20.561882
_cell_angle_alpha 90.000000
_cell_angle_beta 90.000000
_cell_angle_gamma 90.000000
_cell_volume 2090.424833
_symmetry_space_group_name_H-M "I M A 2"
_symmetry_group_IT_number 46
_symmetry_cell_setting 'orthorhombic'
loop_
_space_group_symop_operation_xyz
x,y,z
-x,-y,z
1/2-x,y,z
1/2+x,-y,z
1/2+x,1/2+y,1/2+z
1/2-x,1/2-y,1/2+z
-x,1/2+y,1/2+z
x,1/2-y,1/2+z
loop_
_atom_site_type_symbol
_atom_site_label
_atom_site_fract_x
_atom_site_fract_y
_atom_site_fract_z
Si Si1 0.407838 0.296129 0.042370
Si Si2 0.500000 0.500000 0.945346
Si Si3 0.885972 0.249908 0.365938
Si Si4 0.592187 0.796594 0.689490
Si Si5 0.170615 0.690761 0.500115
Si Si6 0.329379 0.690273 0.731762
Si Si7 0.000000 0.000000 0.786541
O O1 0.434442 0.321246 0.115930
O O2 0.474578 0.271990 0.994396
O O3 0.366609 0.551031 0.022156
O O4 0.359479 0.050325 0.038180
O O5 0.435656 0.543752 0.898812
O O6 0.838313 0.365299 0.422743
O O7 0.838323 0.134445 0.309140
O O8 0.935666 0.456073 0.333080
O O9 0.640738 0.551332 0.693756
O O10 0.633219 0.052021 0.709628
O O11 0.525476 0.772063 0.737489
O O12 0.250000 0.717317 0.517726
O O13 0.250000 0.717592 0.714196
#
# Coordination Sequence:
#
# PCOD8193036 Si02
#       7
#     8   4   8   8   8   8   4
#     4  11  24  41  64  92 124 163 204 251 304 362
#     4  10  21  40  64  92 123 160 204 256 308 362
#     4  10  21  40  64  92 123 160 204 256 308 362
#     4  11  24  41  64  92 124 163 204 251 304 362
#     4  11  24  41  64  92 124 163 204 251 304 362
#     4  11  24  41  64  92 124 163 204 251 304 362
#     4  10  21  40  64  92 123 160 204 256 308 362
#
# _framework density 22.961836999999999
#
# number of rings (size 3 to 8) (size 9 to 14) (size 15 to 20)
#    0.000    1.333    0.000    5.000    0.000   12.000 
#    0.000   16.667    0.000    0.000    0.000    0.000 
#    0.000    0.000    0.000    0.000    0.000    0.000 
#
# Total GULP energy -297438.229195 kJ/mol
# GULP energy per Si atom -12393.259550 kJ/mol
# Density = 2.290958 g / cm^3
# Si number density = 22.961837 Si / 1000 Ang^3
#
#
#
# Elastic Constant Matrix: (Units=GPa)
#
#
# Indices 1 2 3 4 5 6 
#
# 1 55.9479 10.6296 -10.7799 0.0000 0.0000 0.0000
# 2 10.6296 113.5769 7.1642 0.0000 0.0000 0.0000
# 3 -10.7799 7.1642 107.3185 0.0000 0.0000 0.0000
# 4 0.0000 0.0000 0.0000 -69.4606 0.0000 0.0000
# 5 0.0000 0.0000 0.0000 0.0000 20.9144 0.0000
# 6 0.0000 0.0000 0.0000 0.0000 0.0000 21.0606
#
#
#
# Elastic Compliance Matrix: (Units=1/GPa)
#
#
# Indices 1 2 3 4 5 6 
#
# 1 0.018613 -0.001868 0.001994 0.000000 0.000000 0.000000
# 2 -0.001868 0.009029 -0.000790 0.000000 0.000000 0.000000
# 3 0.001994 -0.000790 0.009571 0.000000 0.000000 0.000000
# 4 0.000000 0.000000 0.000000 -0.014397 0.000000 0.000000
# 5 0.000000 0.000000 0.000000 0.000000 0.047814 0.000000
# 6 0.000000 0.000000 0.000000 0.000000 0.000000 0.047482
#
#
# Mechanical properties :
#
#
# Convention : Reuss Voigt Hill
#
# Bulk Modulus (GPa) = 27.86631 32.31902 30.09266
# Shear Modulus (GPa) = 38.05116 12.49152 25.27134
#
# Velocity S-wave (km/s) = 4.07522 2.33494 3.32110
# Velocity P-wave (km/s) = 5.85709 4.62330 5.27638
#
# Compressibility (1/GPa) = 0.03588563
#
# Stress axis : x y z
#
# Youngs Moduli (GPa) = 53.72622 110.75099 104.48071
#
# Poissons Ratio (x) = 0.20686 -0.20837
# Poissons Ratio (y) = 0.10035 0.08258
# Poissons Ratio (z) = -0.10715 0.08753
#
# Static dielectric constant tensor:
#      x y z
#    x 4.277680 0.000000 0.000000 
#    y 0.000000 3.862220 0.000000 
#    z 0.000000 0.000000 5.418700 
# 
# 
# High freq. dielectric constant tensor:
#      x y z
#    x 1.906880 0.000000 0.000000 
#    y 0.000000 1.888200 0.000000 
#    z 0.000000 0.000000 1.934780 
# 
# From -- ./inp_files/22371.got.cif
#   From: 2010.03.12/outbox.cif.g09.slc.cpg/sg46_12_cif.got.tgz:22371.got - 2010.04.14 02:56:35.
