data_PCOD8193118
_publ_section_title
;
Structure prediction by ZEFSAII (Michael W. Deem and Ramdas Pophale) SiO2 
 PCOD8193118
Probable space group: I M A 2
;
_chemical_formula_sum "Si O2"
_cell_formula_units_Z 56
_cell_length_a 14.475779
_cell_length_b 11.695962
_cell_length_c 15.110392
_cell_angle_alpha 90.000000
_cell_angle_beta 90.000000
_cell_angle_gamma 90.000000
_cell_volume 2558.312683
_symmetry_space_group_name_H-M "I M A 2"
_symmetry_group_IT_number 46
_symmetry_cell_setting 'orthorhombic'
loop_
_space_group_symop_operation_xyz
x,y,z
-x,-y,z
1/2-x,y,z
1/2+x,-y,z
1/2+x,1/2+y,1/2+z
1/2-x,1/2-y,1/2+z
-x,1/2+y,1/2+z
x,1/2-y,1/2+z
loop_
_atom_site_type_symbol
_atom_site_label
_atom_site_fract_x
_atom_site_fract_y
_atom_site_fract_z
Si Si1 0.353800 0.042719 0.873220
Si Si2 0.350453 0.754970 0.170290
Si Si3 0.540128 0.737105 0.918733
Si Si4 0.523021 0.631727 0.739417
Si Si5 0.853799 0.770105 0.601575
Si Si6 0.352940 0.821679 0.978054
Si Si7 0.606236 0.492920 0.179962
O O1 0.250000 0.094072 0.873969
O O2 0.429020 0.140494 0.882927
O O3 0.374398 0.976088 0.783236
O O4 0.367648 0.952523 0.950939
O O5 0.250000 0.778157 0.213990
O O6 0.430383 0.790667 0.238226
O O7 0.355345 0.623222 0.137215
O O8 0.363442 0.830397 0.083153
O O9 0.561909 0.645902 0.839959
O O10 0.430386 0.738339 0.937239
O O11 0.595313 0.709785 0.008327
O O12 0.500000 0.500000 0.719253
O O13 0.593560 0.680514 0.665544
O O14 0.750000 0.722566 0.585534
O O15 0.843377 0.893701 0.646443
O O16 0.250000 0.778029 0.950172
O O17 0.500000 0.500000 0.155343
#
# Coordination Sequence:
#
# PCOD8193118 Si02
#       7
#     8   8   8   8   8   8   8
#     4  11  22  37  65 102 137 180 235 292 349 423
#     4  11  23  43  69 104 140 181 232 290 363 434
#     4  12  24  44  68 100 139 188 241 294 365 433
#     4  12  28  48  71 104 147 196 240 303 371 442
#     4  12  27  47  73 105 144 192 246 304 369 443
#     4  10  22  38  64 101 140 177 230 299 356 423
#     4  12  21  42  71 102 138 180 230 295 356 430
#
# _framework density 21.889427000000001
#
# number of rings (size 3 to 8) (size 9 to 14) (size 15 to 20)
#    0.000    0.571    4.286    3.857    2.000    4.571 
#    0.000    0.000    0.000    0.000    0.000    0.000 
#    0.000    0.000    0.000    0.000    0.000    0.000 
#
# Total GULP energy -347196.969428 kJ/mol
# GULP energy per Si atom -12399.891765 kJ/mol
# Density = 2.183961 g / cm^3
# Si number density = 21.889427 Si / 1000 Ang^3
#
#
#
# Elastic Constant Matrix: (Units=GPa)
#
#
# Indices 1 2 3 4 5 6 
#
# 1 155.1347 28.6881 39.3526 0.0000 0.0000 0.0000
# 2 28.6881 113.4086 41.2459 0.0000 0.0000 0.0000
# 3 39.3526 41.2459 119.1697 0.0000 0.0000 0.0000
# 4 0.0000 0.0000 0.0000 34.3920 0.0000 0.0000
# 5 0.0000 0.0000 0.0000 0.0000 18.9705 0.0000
# 6 0.0000 0.0000 0.0000 0.0000 0.0000 23.9783
#
#
#
# Elastic Compliance Matrix: (Units=1/GPa)
#
#
# Indices 1 2 3 4 5 6 
#
# 1 0.007151 -0.001087 -0.001985 0.000000 0.000000 0.000000
# 2 -0.001087 0.010253 -0.003190 0.000000 0.000000 0.000000
# 3 -0.001985 -0.003190 0.010151 0.000000 0.000000 0.000000
# 4 0.000000 0.000000 0.000000 0.029076 0.000000 0.000000
# 5 0.000000 0.000000 0.000000 0.000000 0.052713 0.000000
# 6 0.000000 0.000000 0.000000 0.000000 0.000000 0.041704
#
#
# Mechanical properties :
#
#
# Convention : Reuss Voigt Hill
#
# Bulk Modulus (GPa) = 66.52968 67.36515 66.94741
# Shear Modulus (GPa) = 29.65916 34.02992 31.84454
#
# Velocity S-wave (km/s) = 3.68496 3.94715 3.81831
# Velocity P-wave (km/s) = 6.96884 7.18438 7.07743
#
# Compressibility (1/GPa) = 0.01503089
#
# Stress axis : x y z
#
# Youngs Moduli (GPa) = 139.84937 97.53564 98.51340
#
# Poissons Ratio (x) = 0.10601 0.19556
# Poissons Ratio (y) = 0.15199 0.31422
# Poissons Ratio (z) = 0.27762 0.31111
#
# Static dielectric constant tensor:
#      x y z
#    x 4.274080 0.000000 0.000000 
#    y 0.000000 3.719030 0.000000 
#    z 0.000000 0.000000 4.079940 
# 
# 
# High freq. dielectric constant tensor:
#      x y z
#    x 1.879680 0.000000 0.000000 
#    y 0.000000 1.842390 0.000000 
#    z 0.000000 0.000000 1.863780 
# 
# From -- ./inp_files/15919.got.cif
#   From: 2010.03.12/outbox.cif.g09.slc.cpg/sg46_8_cif.got.tgz:15919.got - 2010.04.14 02:56:35.
