data_PCOD8193382
_publ_section_title
;
Structure prediction by ZEFSAII (Michael W. Deem and Ramdas Pophale) SiO2 
 PCOD8193382
Probable space group: I M A 2
;
_chemical_formula_sum "Si O2"
_cell_formula_units_Z 32
_cell_length_a 25.672774
_cell_length_b 6.571611
_cell_length_c 9.500240
_cell_angle_alpha 90.000000
_cell_angle_beta 90.000000
_cell_angle_gamma 90.000000
_cell_volume 1602.799589
_symmetry_space_group_name_H-M "I M A 2"
_symmetry_group_IT_number 46
_symmetry_cell_setting 'orthorhombic'
loop_
_space_group_symop_operation_xyz
x,y,z
-x,-y,z
1/2-x,y,z
1/2+x,-y,z
1/2+x,1/2+y,1/2+z
1/2-x,1/2-y,1/2+z
-x,1/2+y,1/2+z
x,1/2-y,1/2+z
loop_
_atom_site_type_symbol
_atom_site_label
_atom_site_fract_x
_atom_site_fract_y
_atom_site_fract_z
Si Si1 0.388750 0.178167 0.784170
Si Si2 0.645093 0.287529 0.119351
Si Si3 0.190200 0.515568 0.849436
Si Si4 0.060721 0.028977 0.060895
O O1 0.343266 0.190240 0.356472
O O2 0.421613 0.304675 0.672950
O O3 0.361677 0.989450 0.709337
O O4 0.428102 0.105434 0.904098
O O5 0.673472 0.333563 0.973534
O O6 0.681598 0.128855 0.201548
O O7 0.589091 0.186031 0.088430
O O8 0.250000 0.452511 0.865890
O O9 0.000000 0.000000 0.080626
#
# Coordination Sequence:
#
# PCOD8193382 Si02
#       4
#     8   8   8   8
#     4  11  24  46  63  97 133 165 221 268 309 391
#     4  11  23  45  63  98 132 163 222 267 311 391
#     4  11  24  42  69  95 129 174 212 266 327 378
#     4  11  26  42  69  96 130 174 212 266 325 378
#
# _framework density 19.965066
#
# number of rings (size 3 to 8) (size 9 to 14) (size 15 to 20)
#    0.000    1.000    5.000    0.750    3.500    2.000 
#    0.000    0.000    0.000    0.000    0.000    0.000 
#    0.000    0.000    0.000    0.000    0.000    0.000 
#
# Total GULP energy -198513.610169 kJ/mol
# GULP energy per Si atom -12407.100636 kJ/mol
# Density = 1.991962 g / cm^3
# Si number density = 19.965066 Si / 1000 Ang^3
#
#
#
# Elastic Constant Matrix: (Units=GPa)
#
#
# Indices 1 2 3 4 5 6 
#
# 1 106.7259 8.2440 6.8697 0.0000 0.0000 0.0000
# 2 8.2440 72.3702 9.3756 0.0000 0.0000 0.0000
# 3 6.8697 9.3756 86.3321 0.0000 0.0000 0.0000
# 4 0.0000 0.0000 0.0000 36.4420 0.0000 0.0000
# 5 0.0000 0.0000 0.0000 0.0000 18.4198 0.0000
# 6 0.0000 0.0000 0.0000 0.0000 0.0000 15.2417
#
#
#
# Elastic Compliance Matrix: (Units=1/GPa)
#
#
# Indices 1 2 3 4 5 6 
#
# 1 0.009488 -0.000997 -0.000647 0.000000 0.000000 0.000000
# 2 -0.000997 0.014120 -0.001454 0.000000 0.000000 0.000000
# 3 -0.000647 -0.001454 0.011793 0.000000 0.000000 0.000000
# 4 0.000000 0.000000 0.000000 0.027441 0.000000 0.000000
# 5 0.000000 0.000000 0.000000 0.000000 0.054290 0.000000
# 6 0.000000 0.000000 0.000000 0.000000 0.000000 0.065610
#
#
# Mechanical properties :
#
#
# Convention : Reuss Voigt Hill
#
# Bulk Modulus (GPa) = 34.24068 34.93408 34.58738
# Shear Modulus (GPa) = 25.16717 30.08328 27.62523
#
# Velocity S-wave (km/s) = 3.55429 3.88596 3.72382
# Velocity P-wave (km/s) = 5.83365 6.13757 5.98754
#
# Compressibility (1/GPa) = 0.02920503
#
# Stress axis : x y z
#
# Youngs Moduli (GPa) = 105.39137 70.82257 84.79927
#
# Poissons Ratio (x) = 0.07062 0.05484
# Poissons Ratio (y) = 0.10508 0.12330
# Poissons Ratio (z) = 0.06816 0.10298
#
# Static dielectric constant tensor:
#      x y z
#    x 3.467670 0.000000 0.000000 
#    y 0.000000 3.936830 0.000000 
#    z 0.000000 0.000000 3.892510 
# 
# 
# High freq. dielectric constant tensor:
#      x y z
#    x 1.772880 0.000000 0.000000 
#    y 0.000000 1.790790 0.000000 
#    z 0.000000 0.000000 1.800680 
# 
# From -- ./inp_files/7102.got.cif
#   From: 2010.03.12/outbox.cif.g09.slc.cpg/sg46_4_cif.got.tgz:7102.got - 2010.04.14 02:56:35.
