data_PCOD8193662
_publ_section_title
;
Structure prediction by ZEFSAII (Michael W. Deem and Ramdas Pophale) SiO2 
 PCOD8193662
Probable space group: P M M M
;
_chemical_formula_sum "Si O2"
_cell_formula_units_Z 52
_cell_length_a 25.644832
_cell_length_b 9.237989
_cell_length_c 12.025192
_cell_angle_alpha 90.000000
_cell_angle_beta 90.000000
_cell_angle_gamma 90.000000
_cell_volume 2848.848264
_symmetry_space_group_name_H-M "P M M M"
_symmetry_group_IT_number 47
_symmetry_cell_setting 'orthorhombic'
loop_
_space_group_symop_operation_xyz
x,y,z
-x,-y,z
x,-y,-z
-x,y,-z
-x,-y,-z
x,y,-z
-x,y,z
x,-y,z
loop_
_atom_site_type_symbol
_atom_site_label
_atom_site_fract_x
_atom_site_fract_y
_atom_site_fract_z
Si Si1 0.351449 0.330349 0.876321
Si Si2 0.807336 0.829980 0.000000
Si Si3 0.559800 0.670234 0.283092
Si Si4 0.090036 0.335414 0.000000
Si Si5 0.943788 0.668085 0.243742
Si Si6 0.155726 0.671466 0.624546
Si Si7 0.438199 0.162257 0.500000
Si Si8 0.758837 0.331264 0.203726
O O1 0.355630 0.500000 0.893033
O O2 0.404637 0.274627 0.819178
O O3 0.302915 0.295370 0.793743
O O4 0.345094 0.259531 0.000000
O O5 0.867082 0.787660 0.000000
O O6 0.781462 0.765303 0.107782
O O7 0.800289 0.000000 0.000000
O O8 0.500000 0.709583 0.254746
O O9 0.566297 0.500000 0.305510
O O10 0.580935 0.752492 0.391516
O O11 0.056846 0.309554 0.110965
O O12 0.113297 0.500000 0.000000
O O13 0.942540 0.500000 0.272751
O O14 0.893763 0.738422 0.306892
O O15 0.000000 0.732459 0.284922
O O16 0.156022 0.736997 0.500000
O O17 0.150420 0.500000 0.619764
O O18 0.210862 0.712221 0.683049
O O19 0.500000 0.157843 0.500000
O O20 0.414897 0.000000 0.500000
O O21 0.768626 0.500000 0.176055
#
# Coordination Sequence:
#
# PCOD8193662 Si02
#       8
#     8   4   8   4   8   8   4   8
#     4   9  17  29  50  77 100 127 165 203 245 302
#     4  12  22  31  51  79  99 125 168 208 250 300
#     4   9  17  30  49  75 105 133 164 208 256 297
#     4  10  17  30  50  72  98 129 163 203 252 299
#     4   9  16  25  43  72 101 128 161 202 246 293
#     4   9  17  28  45  72 101 128 161 202 246 288
#     4   9  17  31  51  71  95 135 179 211 240 285
#     4  10  18  34  55  73  98 131 166 203 247 298
#
# _framework density 18.252991999999999
#
# number of rings (size 3 to 8) (size 9 to 14) (size 15 to 20)
#    0.000    2.538    2.308    1.154    0.000    2.462 
#    1.385    3.846    0.000    1.385    0.000    2.154 
#    0.000    1.231    0.000    0.000    0.000    0.000 
#
# Total GULP energy -644306.866588 kJ/mol
# GULP energy per Si atom -12390.516665 kJ/mol
# Density = 1.821145 g / cm^3
# Si number density = 18.252992 Si / 1000 Ang^3
#
#
#
# Elastic Constant Matrix: (Units=GPa)
#
#
# Indices 1 2 3 4 5 6 
#
# 1 139.0306 18.8095 78.1680 0.0000 0.0000 0.0000
# 2 18.8095 37.3343 20.0170 0.0000 0.0000 0.0000
# 3 78.1680 20.0170 144.0937 0.0000 0.0000 0.0000
# 4 0.0000 0.0000 0.0000 -0.2422 0.0000 0.0000
# 5 0.0000 0.0000 0.0000 0.0000 24.6155 0.0000
# 6 0.0000 0.0000 0.0000 0.0000 0.0000 5.5818
#
#
#
# Elastic Compliance Matrix: (Units=1/GPa)
#
#
# Indices 1 2 3 4 5 6 
#
# 1 0.010549 -0.002427 -0.005385 0.000000 0.000000 0.000000
# 2 -0.002427 0.029499 -0.002781 0.000000 0.000000 0.000000
# 3 -0.005385 -0.002781 0.010248 0.000000 0.000000 0.000000
# 4 0.000000 0.000000 0.000000 -4.128533 0.000000 0.000000
# 5 0.000000 0.000000 0.000000 0.000000 0.040625 0.000000
# 6 0.000000 0.000000 0.000000 0.000000 0.000000 0.179154
#
#
# Mechanical properties :
#
#
# Convention : Reuss Voigt Hill
#
# Bulk Modulus (GPa) = 34.35477 61.60530 47.98004
# Shear Modulus (GPa) = -1.30631 19.55530 9.12449
#
# Velocity S-wave (km/s) = -0.84689 3.27670 2.23825
# Velocity P-wave (km/s) = 4.23155 6.93828 5.74655
#
# Compressibility (1/GPa) = 0.02910804
#
# Stress axis : x y z
#
# Youngs Moduli (GPa) = 94.79664 33.89944 97.58250
#
# Poissons Ratio (x) = 0.08228 0.52552
# Poissons Ratio (y) = 0.23010 0.27139
# Poissons Ratio (z) = 0.51052 0.09428
#
# Static dielectric constant tensor:
#      x y z
#    x 3.667800 0.000000 0.000000 
#    y 0.000000 2.876610 0.000000 
#    z 0.000000 0.000000 2.235790 
# 
# 
# High freq. dielectric constant tensor:
#      x y z
#    x 1.712770 0.000000 0.000000 
#    y 0.000000 1.642490 0.000000 
#    z 0.000000 0.000000 1.706140 
# 
# From -- ./inp_files/19885.got.cif
#   From: 2010.03.12/outbox.cif.g09.slc.cpg/sg47_10_cif.got.tgz:19885.got - 2010.04.14 03:12:58.
