data_PCOD8193253
_publ_section_title
;
Structure prediction by ZEFSAII (Michael W. Deem and Ramdas Pophale) SiO2 
 PCOD8193253
Probable space group: I M A 2
;
_chemical_formula_sum "Si O2"
_cell_formula_units_Z 24
_cell_length_a 12.797400
_cell_length_b 12.931988
_cell_length_c 5.310684
_cell_angle_alpha 90.000000
_cell_angle_beta 90.000000
_cell_angle_gamma 90.000000
_cell_volume 878.896021
_symmetry_space_group_name_H-M "I M A 2"
_symmetry_group_IT_number 46
_symmetry_cell_setting 'orthorhombic'
loop_
_space_group_symop_operation_xyz
x,y,z
-x,-y,z
1/2-x,y,z
1/2+x,-y,z
1/2+x,1/2+y,1/2+z
1/2-x,1/2-y,1/2+z
-x,1/2+y,1/2+z
x,1/2-y,1/2+z
loop_
_atom_site_type_symbol
_atom_site_label
_atom_site_fract_x
_atom_site_fract_y
_atom_site_fract_z
Si Si1 0.130364 0.519800 0.720220
Si Si2 0.131353 0.851877 0.716244
Si Si3 0.440368 0.206569 0.222510
O O1 0.250000 0.481410 0.735620
O O2 0.110907 0.581162 0.463546
O O3 0.056350 0.417936 0.712401
O O4 0.101167 0.582498 0.971293
O O5 0.250000 0.810393 0.702033
O O6 0.059529 0.750111 0.728173
O O7 0.381953 0.247441 0.475000
#
# Coordination Sequence:
#
# PCOD8193253 Si02
#       3
#     8   8   8
#     4  10  23  45  70  96 132 179 226 273 332 403
#     4  10  23  45  70  96 132 179 226 273 332 403
#     4  12  26  40  68 104 136 170 224 284 336 392
#
# _framework density 27.306985000000001
#
# number of rings (size 3 to 8) (size 9 to 14) (size 15 to 20)
#    0.000    1.333    0.000    4.000    0.000   10.667 
#    0.000    0.000    0.000    4.000    0.000    0.000 
#    0.000    0.000    0.000    0.000    0.000    0.000 
#
# Total GULP energy -148826.750939 kJ/mol
# GULP energy per Si atom -12402.229245 kJ/mol
# Density = 2.724483 g / cm^3
# Si number density = 27.306985 Si / 1000 Ang^3
#
#
#
# Elastic Constant Matrix: (Units=GPa)
#
#
# Indices 1 2 3 4 5 6 
#
# 1 111.3899 16.6705 -15.1328 0.0000 0.0000 0.0000
# 2 16.6705 200.2528 53.5162 0.0000 0.0000 0.0000
# 3 -15.1328 53.5162 206.2619 0.0000 0.0000 0.0000
# 4 0.0000 0.0000 0.0000 43.0769 0.0000 0.0000
# 5 0.0000 0.0000 0.0000 0.0000 24.1307 0.0000
# 6 0.0000 0.0000 0.0000 0.0000 0.0000 54.5244
#
#
#
# Elastic Compliance Matrix: (Units=1/GPa)
#
#
# Indices 1 2 3 4 5 6 
#
# 1 0.009259 -0.001023 0.000945 0.000000 0.000000 0.000000
# 2 -0.001023 0.005479 -0.001497 0.000000 0.000000 0.000000
# 3 0.000945 -0.001497 0.005306 0.000000 0.000000 0.000000
# 4 0.000000 0.000000 0.000000 0.023214 0.000000 0.000000
# 5 0.000000 0.000000 0.000000 0.000000 0.041441 0.000000
# 6 0.000000 0.000000 0.000000 0.000000 0.000000 0.018340
#
#
# Mechanical properties :
#
#
# Convention : Reuss Voigt Hill
#
# Bulk Modulus (GPa) = 59.19444 69.77914 64.48679
# Shear Modulus (GPa) = 44.71451 55.20313 49.95882
#
# Velocity S-wave (km/s) = 4.05096 4.50107 4.28194
# Velocity P-wave (km/s) = 6.60340 7.25410 6.93638
#
# Compressibility (1/GPa) = 0.01689348
#
# Stress axis : x y z
#
# Youngs Moduli (GPa) = 108.00339 182.52086 188.47211
#
# Poissons Ratio (x) = 0.18677 -0.17807
# Poissons Ratio (y) = 0.11052 0.28207
# Poissons Ratio (z) = -0.10204 0.27316
#
# Static dielectric constant tensor:
#      x y z
#    x 4.933260 0.000000 0.000000 
#    y 0.000000 4.764970 0.000000 
#    z 0.000000 0.000000 6.953000 
# 
# 
# High freq. dielectric constant tensor:
#      x y z
#    x 2.097310 0.000000 0.000000 
#    y 0.000000 2.108450 0.000000 
#    z 0.000000 0.000000 2.154130 
# 
# From -- ./inp_files/1009.got.cif
#   From: 2010.03.12/outbox.cif.g09.slc.cpg/sg46_1_cif.got.tgz:1009.got - 2010.04.14 02:56:35.
