data_PCOD8193149
_publ_section_title
;
Structure prediction by ZEFSAII (Michael W. Deem and Ramdas Pophale) SiO2 
 PCOD8193149
Probable space group: I M A 2
;
_chemical_formula_sum "Si O2"
_cell_formula_units_Z 56
_cell_length_a 8.859509
_cell_length_b 15.445050
_cell_length_c 19.556603
_cell_angle_alpha 90.000000
_cell_angle_beta 90.000000
_cell_angle_gamma 90.000000
_cell_volume 2676.038713
_symmetry_space_group_name_H-M "I M A 2"
_symmetry_group_IT_number 46
_symmetry_cell_setting 'orthorhombic'
loop_
_space_group_symop_operation_xyz
x,y,z
-x,-y,z
1/2-x,y,z
1/2+x,-y,z
1/2+x,1/2+y,1/2+z
1/2-x,1/2-y,1/2+z
-x,1/2+y,1/2+z
x,1/2-y,1/2+z
loop_
_atom_site_type_symbol
_atom_site_label
_atom_site_fract_x
_atom_site_fract_y
_atom_site_fract_z
Si Si1 0.585080 0.883412 0.440030
Si Si2 0.928950 0.407069 0.327849
Si Si3 0.927117 0.257809 0.739685
Si Si4 0.076696 0.314441 0.451658
Si Si5 0.075129 0.583692 0.069406
Si Si6 0.581574 0.917548 0.290994
Si Si7 0.071896 0.238179 0.099533
O O1 0.750000 0.889877 0.478118
O O2 0.555016 0.782418 0.423940
O O3 0.451922 0.921023 0.487545
O O4 0.594858 0.938212 0.371246
O O5 0.750000 0.416048 0.328144
O O6 0.980208 0.335339 0.270735
O O7 0.000000 0.500000 0.308501
O O8 0.979513 0.378484 0.404167
O O9 0.750000 0.256045 0.728793
O O10 0.977411 0.332695 0.790862
O O11 0.003512 0.294956 0.670291
O O12 0.250000 0.344864 0.446508
O O13 0.021542 0.316318 0.531876
O O14 0.250000 0.589559 0.087975
O O15 0.000000 0.500000 0.104910
O O16 0.988392 0.664895 0.098203
O O17 0.750000 0.904089 0.259415
O O18 0.500000 0.000000 0.255289
O O19 0.250000 0.238308 0.103645
#
# Coordination Sequence:
#
# PCOD8193149 Si02
#       7
#     8   8   8   8   8   8   8
#     4   9  18  33  55  84 117 153 190 235 295 355
#     4  11  24  40  64  95 128 168 215 265 321 379
#     4  11  24  42  62  91 126 164 211 261 317 384
#     4   9  18  37  62  89 120 155 201 251 305 367
#     4  11  21  33  52  80 116 154 195 244 296 359
#     4  11  22  37  59  87 120 158 197 246 304 364
#     4  10  22  40  62  86 117 162 206 254 318 380
#
# _framework density 20.926452999999999
#
# number of rings (size 3 to 8) (size 9 to 14) (size 15 to 20)
#    0.000    1.714    1.429    4.286    0.000    7.429 
#    0.000    2.143    0.000    3.429    0.000    0.000 
#    0.000    0.000    0.000    0.000    0.000    0.000 
#
# Total GULP energy -346964.626792 kJ/mol
# GULP energy per Si atom -12391.593814 kJ/mol
# Density = 2.087882 g / cm^3
# Si number density = 20.926453 Si / 1000 Ang^3
#
#
#
# Elastic Constant Matrix: (Units=GPa)
#
#
# Indices 1 2 3 4 5 6 
#
# 1 88.6175 37.6982 35.6188 0.0000 0.0000 0.0000
# 2 37.6982 89.9044 8.8892 0.0000 0.0000 0.0000
# 3 35.6188 8.8892 78.1905 0.0000 0.0000 0.0000
# 4 0.0000 0.0000 0.0000 15.3777 0.0000 0.0000
# 5 0.0000 0.0000 0.0000 0.0000 23.1208 0.0000
# 6 0.0000 0.0000 0.0000 0.0000 0.0000 35.3588
#
#
#
# Elastic Compliance Matrix: (Units=1/GPa)
#
#
# Indices 1 2 3 4 5 6 
#
# 1 0.016763 -0.006345 -0.006915 0.000000 0.000000 0.000000
# 2 -0.006345 0.013651 0.001339 0.000000 0.000000 0.000000
# 3 -0.006915 0.001339 0.015787 0.000000 0.000000 0.000000
# 4 0.000000 0.000000 0.000000 0.065029 0.000000 0.000000
# 5 0.000000 0.000000 0.000000 0.000000 0.043251 0.000000
# 6 0.000000 0.000000 0.000000 0.000000 0.000000 0.028281
#
#
# Mechanical properties :
#
#
# Convention : Reuss Voigt Hill
#
# Bulk Modulus (GPa) = 44.72624 46.79165 45.75895
# Shear Modulus (GPa) = 23.35801 26.40521 24.88161
#
# Velocity S-wave (km/s) = 3.34458 3.55605 3.45193
# Velocity P-wave (km/s) = 6.02780 6.26652 6.14832
#
# Compressibility (1/GPa) = 0.02235824
#
# Stress axis : x y z
#
# Youngs Moduli (GPa) = 59.65468 73.25326 63.34284
#
# Poissons Ratio (x) = 0.46482 0.43801
# Poissons Ratio (y) = 0.37853 -0.08479
# Poissons Ratio (z) = 0.41251 -0.09806
#
# Static dielectric constant tensor:
#      x y z
#    x 3.930590 0.000000 0.000000 
#    y 0.000000 3.707020 0.000000 
#    z 0.000000 0.000000 3.923300 
# 
# 
# High freq. dielectric constant tensor:
#      x y z
#    x 1.821660 0.000000 0.000000 
#    y 0.000000 1.810000 0.000000 
#    z 0.000000 0.000000 1.808670 
# 
# From -- ./inp_files/21123.got.cif
#   From: 2010.03.12/outbox.cif.g09.slc.cpg/sg46_11_cif.got.tgz:21123.got - 2010.04.14 02:56:35.
