data_PCOD8193918
_publ_section_title
;
Structure prediction by ZEFSAII (Michael W. Deem and Ramdas Pophale) SiO2 
 PCOD8193918
Probable space group: P M M M
;
_chemical_formula_sum "Si O2"
_cell_formula_units_Z 64
_cell_length_a 28.909563
_cell_length_b 9.126317
_cell_length_c 14.553189
_cell_angle_alpha 90.000000
_cell_angle_beta 90.000000
_cell_angle_gamma 90.000000
_cell_volume 3839.681897
_symmetry_space_group_name_H-M "P M M M"
_symmetry_group_IT_number 47
_symmetry_cell_setting 'orthorhombic'
loop_
_space_group_symop_operation_xyz
x,y,z
-x,-y,z
x,-y,-z
-x,y,-z
-x,-y,-z
x,y,-z
-x,y,z
x,-y,z
loop_
_atom_site_type_symbol
_atom_site_label
_atom_site_fract_x
_atom_site_fract_y
_atom_site_fract_z
Si Si1 0.449465 0.335426 0.390979
Si Si2 0.767244 0.327622 0.893813
Si Si3 0.195564 0.826252 0.601491
Si Si4 0.861269 0.166996 0.892754
Si Si5 0.907786 0.825986 0.600473
Si Si6 0.949487 0.174556 0.784604
Si Si7 0.275460 0.174199 0.732340
Si Si8 0.640393 0.827135 0.604736
O O1 0.449989 0.332649 0.500000
O O2 0.500000 0.280291 0.355100
O O3 0.440535 0.500000 0.355337
O O4 0.408134 0.232915 0.355346
O O5 0.768114 0.500000 0.876628
O O6 0.817001 0.262252 0.864842
O O7 0.727210 0.252944 0.831718
O O8 0.756279 0.290065 0.000000
O O9 0.208891 0.767429 0.500000
O O10 0.143956 0.773630 0.627125
O O11 0.231364 0.765608 0.675848
O O12 0.198842 0.000000 0.600667
O O13 0.907561 0.234783 0.846723
O O14 0.852166 0.000000 0.859114
O O15 0.870668 0.172319 0.000000
O O16 0.922368 0.763193 0.500000
O O17 0.942387 0.770870 0.679465
O O18 0.908037 0.000000 0.595259
O O19 0.000000 0.232825 0.817633
O O20 0.948876 0.000000 0.789692
O O21 0.320176 0.226353 0.675006
O O22 0.275401 0.000000 0.746787
O O23 0.650419 0.771196 0.500000
O O24 0.637487 0.000000 0.603865
#
# Coordination Sequence:
#
# PCOD8193918 Si02
#       8
#     8   8   8   8   8   8   8   8
#     4   8  14  25  40  57  81 120 168 207 232 256
#     4  10  21  35  49  65  85 110 142 180 220 261
#     4   8  13  22  38  60  85 113 143 172 203 244
#     4   9  17  30  48  66  82 103 132 165 205 256
#     4   8  13  20  30  47  74 107 137 162 192 232
#     4   9  16  24  36  58  85 107 129 162 203 245
#     4  10  18  28  45  67  91 118 146 177 216 263
#     4   9  17  27  40  64  97 127 154 186 225 266
#
# _framework density 16.668049
#
# number of rings (size 3 to 8) (size 9 to 14) (size 15 to 20)
#    0.000    3.125    0.000    2.625    0.000    5.500 
#    0.000    3.750    0.000    1.500    0.000    1.750 
#    0.000    0.500    0.000   10.000    0.000    8.250 
#
# Total GULP energy -793046.723939 kJ/mol
# GULP energy per Si atom -12391.355062 kJ/mol
# Density = 1.663011 g / cm^3
# Si number density = 16.668049 Si / 1000 Ang^3
#
#
#
# Elastic Constant Matrix: (Units=GPa)
#
#
# Indices 1 2 3 4 5 6 
#
# 1 112.7441 30.8170 55.7527 0.0000 0.0000 0.0000
# 2 30.8170 29.1590 25.4750 0.0000 0.0000 0.0000
# 3 55.7527 25.4750 71.5942 0.0000 0.0000 0.0000
# 4 0.0000 0.0000 0.0000 12.4673 0.0000 0.0000
# 5 0.0000 0.0000 0.0000 0.0000 18.6980 0.0000
# 6 0.0000 0.0000 0.0000 0.0000 0.0000 10.1394
#
#
#
# Elastic Compliance Matrix: (Units=1/GPa)
#
#
# Indices 1 2 3 4 5 6 
#
# 1 0.015790 -0.008627 -0.009227 0.000000 0.000000 0.000000
# 2 -0.008627 0.054479 -0.012667 0.000000 0.000000 0.000000
# 3 -0.009227 -0.012667 0.025660 0.000000 0.000000 0.000000
# 4 0.000000 0.000000 0.000000 0.080210 0.000000 0.000000
# 5 0.000000 0.000000 0.000000 0.000000 0.053482 0.000000
# 6 0.000000 0.000000 0.000000 0.000000 0.000000 0.098625
#
#
# Mechanical properties :
#
#
# Convention : Reuss Voigt Hill
#
# Bulk Modulus (GPa) = 28.66324 48.62074 38.64199
# Shear Modulus (GPa) = 12.47142 15.02444 13.74793
#
# Velocity S-wave (km/s) = 2.73833 3.00558 2.87506
# Velocity P-wave (km/s) = 5.21841 6.42480 5.85277
#
# Compressibility (1/GPa) = 0.03488790
#
# Stress axis : x y z
#
# Youngs Moduli (GPa) = 63.32933 18.35577 38.97134
#
# Poissons Ratio (x) = 0.15836 0.35958
# Poissons Ratio (y) = 0.54636 0.49363
# Poissons Ratio (z) = 0.58432 0.23251
#
# Static dielectric constant tensor:
#      x y z
#    x 3.378060 0.000000 0.000000 
#    y 0.000000 2.731380 0.000000 
#    z 0.000000 0.000000 3.202200 
# 
# 
# High freq. dielectric constant tensor:
#      x y z
#    x 1.635730 0.000000 0.000000 
#    y 0.000000 1.594190 0.000000 
#    z 0.000000 0.000000 1.628190 
# 
# From -- ./inp_files/8319.got.cif
#   From: 2010.03.12/outbox.cif.g09.slc.cpg/sg47_5_cif.got.tgz:8319.got - 2010.04.14 03:12:58.
