data_PCOD8193045
_publ_section_title
;
Structure prediction by ZEFSAII (Michael W. Deem and Ramdas Pophale) SiO2 
 PCOD8193045
Probable space group: I M A 2
;
_chemical_formula_sum "Si O2"
_cell_formula_units_Z 64
_cell_length_a 16.658187
_cell_length_b 15.247465
_cell_length_c 12.013586
_cell_angle_alpha 90.000000
_cell_angle_beta 90.000000
_cell_angle_gamma 90.000000
_cell_volume 3051.392257
_symmetry_space_group_name_H-M "I M A 2"
_symmetry_group_IT_number 46
_symmetry_cell_setting 'orthorhombic'
loop_
_space_group_symop_operation_xyz
x,y,z
-x,-y,z
1/2-x,y,z
1/2+x,-y,z
1/2+x,1/2+y,1/2+z
1/2-x,1/2-y,1/2+z
-x,1/2+y,1/2+z
x,1/2-y,1/2+z
loop_
_atom_site_type_symbol
_atom_site_label
_atom_site_fract_x
_atom_site_fract_y
_atom_site_fract_z
Si Si1 0.840025 0.567015 0.346700
Si Si2 0.022204 0.098596 0.000367
Si Si3 0.561680 0.671683 0.725123
Si Si4 0.341019 0.323118 0.123984
Si Si5 0.842451 0.394941 0.237877
Si Si6 0.069616 0.760808 0.864599
Si Si7 0.341829 0.889265 0.490051
Si Si8 0.417840 0.442023 0.939790
O O1 0.750000 0.556639 0.394864
O O2 0.891716 0.615199 0.441580
O O3 0.839766 0.622187 0.235538
O O4 0.879332 0.472885 0.313083
O O5 0.959407 0.169789 0.955642
O O6 0.022704 0.108575 0.133110
O O7 0.000000 0.000000 0.970333
O O8 0.629999 0.725916 0.659085
O O9 0.499112 0.740921 0.775350
O O10 0.591494 0.608456 0.823406
O O11 0.250000 0.317098 0.074671
O O12 0.402622 0.369005 0.036349
O O13 0.750000 0.416667 0.222828
O O14 0.856264 0.302555 0.297782
O O15 0.878857 0.391378 0.114186
O O16 0.098880 0.671992 0.920564
O O17 0.250000 0.855009 0.485384
O O18 0.345613 0.987613 0.441747
O O19 0.500000 0.500000 0.954432
#
# Coordination Sequence:
#
# PCOD8193045 Si02
#       8
#     8   8   8   8   8   8   8   8
#     4  10  21  41  65  94 126 166 219 274 332 397
#     4  12  25  43  66  96 132 179 218 272 335 409
#     4  12  27  43  65  99 139 179 222 284 347 410
#     4  11  25  44  71 102 134 175 233 293 352 417
#     4  10  21  40  65  94 130 167 220 279 333 402
#     4  12  23  41  67  99 128 177 224 281 339 404
#     4  11  24  43  68  98 134 176 227 285 346 412
#     4  12  25  45  71 101 136 184 234 292 346 423
#
# _framework density 20.974032000000001
#
# number of rings (size 3 to 8) (size 9 to 14) (size 15 to 20)
#    0.000    0.750    5.000    2.625    1.750    2.000 
#    0.000    0.000    0.000    0.000    0.000    0.000 
#    0.000    0.000    0.000    0.000    0.000    0.000 
#
# Total GULP energy -396714.339132 kJ/mol
# GULP energy per Si atom -12397.323098 kJ/mol
# Density = 2.092629 g / cm^3
# Si number density = 20.974032 Si / 1000 Ang^3
#
#
#
# Elastic Constant Matrix: (Units=GPa)
#
#
# Indices 1 2 3 4 5 6 
#
# 1 67.8862 28.0625 39.1197 0.0000 0.0000 0.0000
# 2 28.0625 110.7294 52.1691 0.0000 0.0000 0.0000
# 3 39.1197 52.1691 120.9412 0.0000 0.0000 0.0000
# 4 0.0000 0.0000 0.0000 44.9985 0.0000 0.0000
# 5 0.0000 0.0000 0.0000 0.0000 20.9925 0.0000
# 6 0.0000 0.0000 0.0000 0.0000 0.0000 30.2224
#
#
#
# Elastic Compliance Matrix: (Units=1/GPa)
#
#
# Indices 1 2 3 4 5 6 
#
# 1 0.018583 -0.002356 -0.004994 0.000000 0.000000 0.000000
# 2 -0.002356 0.011633 -0.004256 0.000000 0.000000 0.000000
# 3 -0.004994 -0.004256 0.011720 0.000000 0.000000 0.000000
# 4 0.000000 0.000000 0.000000 0.022223 0.000000 0.000000
# 5 0.000000 0.000000 0.000000 0.000000 0.047636 0.000000
# 6 0.000000 0.000000 0.000000 0.000000 0.000000 0.033088
#
#
# Mechanical properties :
#
#
# Convention : Reuss Voigt Hill
#
# Bulk Modulus (GPa) = 53.41188 59.80660 56.60924
# Shear Modulus (GPa) = 28.68011 31.25639 29.96825
#
# Velocity S-wave (km/s) = 3.70186 3.86455 3.78408
# Velocity P-wave (km/s) = 6.61761 6.96344 6.79273
#
# Compressibility (1/GPa) = 0.01872243
#
# Stress axis : x y z
#
# Youngs Moduli (GPa) = 53.81383 85.95960 85.32589
#
# Poissons Ratio (x) = 0.20256 0.42614
# Poissons Ratio (y) = 0.12681 0.36314
# Poissons Ratio (z) = 0.26876 0.36584
#
# Static dielectric constant tensor:
#      x y z
#    x 3.804210 0.000000 0.000000 
#    y 0.000000 4.042640 0.000000 
#    z 0.000000 0.000000 3.757060 
# 
# 
# High freq. dielectric constant tensor:
#      x y z
#    x 1.813290 0.000000 0.000000 
#    y 0.000000 1.834530 0.000000 
#    z 0.000000 0.000000 1.823750 
# 
# From -- ./inp_files/11980.got.cif
#   From: 2010.03.12/outbox.cif.g09.slc.cpg/sg46_6_cif.got.tgz:11980.got - 2010.04.14 02:56:35.
