data_PCOD8193111
_publ_section_title
;
Structure prediction by ZEFSAII (Michael W. Deem and Ramdas Pophale) SiO2 
 PCOD8193111
Probable space group: I M A 2
;
_chemical_formula_sum "Si O2"
_cell_formula_units_Z 56
_cell_length_a 23.680491
_cell_length_b 21.122756
_cell_length_c 5.484722
_cell_angle_alpha 90.000000
_cell_angle_beta 90.000000
_cell_angle_gamma 90.000000
_cell_volume 2743.442770
_symmetry_space_group_name_H-M "I M A 2"
_symmetry_group_IT_number 46
_symmetry_cell_setting 'orthorhombic'
loop_
_space_group_symop_operation_xyz
x,y,z
-x,-y,z
1/2-x,y,z
1/2+x,-y,z
1/2+x,1/2+y,1/2+z
1/2-x,1/2-y,1/2+z
-x,1/2+y,1/2+z
x,1/2-y,1/2+z
loop_
_atom_site_type_symbol
_atom_site_label
_atom_site_fract_x
_atom_site_fract_y
_atom_site_fract_z
Si Si1 0.687233 0.499578 0.186420
Si Si2 0.410867 0.075635 0.918998
Si Si3 0.400669 0.976564 0.306576
Si Si4 0.575372 0.214275 0.806432
Si Si5 0.654451 0.117186 0.975881
Si Si6 0.250000 0.791172 0.119633
Si Si7 0.500000 0.000000 0.630767
Si Si8 0.944716 0.786249 0.845978
O O1 0.750000 0.527218 0.149085
O O2 0.647626 0.552972 0.301293
O O3 0.691947 0.436434 0.348678
O O4 0.660667 0.480714 0.929439
O O5 0.409308 0.151091 0.909698
O O6 0.467151 0.051992 0.785592
O O7 0.413709 0.045358 0.187806
O O8 0.453399 0.960805 0.479268
O O9 0.395186 0.917189 0.128751
O O10 0.590449 0.253759 0.566009
O O11 0.617149 0.154750 0.777773
O O12 0.510191 0.195482 0.828393
O O13 0.694737 0.164222 0.128108
O O14 0.250000 0.748398 0.364088
O O15 0.929171 0.758967 0.577054
#
# Coordination Sequence:
#
# PCOD8193111 Si02
#       8
#     8   8   8   8   8   4   4   8
#     4  10  23  42  64  95 124 169 219 282 344 389
#     4  10  23  41  63 100 128 169 220 274 336 410
#     4  10  24  36  65  94 127 174 208 288 335 401
#     4  10  23  39  57  88 126 174 221 266 317 390
#     4  11  24  39  62  90 128 174 230 283 331 386
#     4  12  28  44  66  92 132 192 244 294 326 382
#     4  10  22  38  62 100 134 166 218 274 342 400
#     4  10  24  41  67  95 133 175 209 263 330 410
#
# _framework density 20.412307999999999
#
# number of rings (size 3 to 8) (size 9 to 14) (size 15 to 20)
#    0.000    1.714    0.714    1.286   17.000    1.714 
#    0.000    0.000    0.000    0.857    0.000    0.000 
#    0.000    0.000    0.000    0.000    0.000    0.000 
#
# Total GULP energy -347014.175712 kJ/mol
# GULP energy per Si atom -12393.363418 kJ/mol
# Density = 2.036585 g / cm^3
# Si number density = 20.412308 Si / 1000 Ang^3
#
#
#
# Elastic Constant Matrix: (Units=GPa)
#
#
# Indices 1 2 3 4 5 6 
#
# 1 114.8913 43.3696 30.5165 0.0000 0.0000 0.0000
# 2 43.3696 103.0023 23.8482 0.0000 0.0000 0.0000
# 3 30.5165 23.8482 102.9163 0.0000 0.0000 0.0000
# 4 0.0000 0.0000 0.0000 4.1004 0.0000 0.0000
# 5 0.0000 0.0000 0.0000 0.0000 -3.9239 0.0000
# 6 0.0000 0.0000 0.0000 0.0000 0.0000 19.3293
#
#
#
# Elastic Compliance Matrix: (Units=1/GPa)
#
#
# Indices 1 2 3 4 5 6 
#
# 1 0.010831 -0.004033 -0.002277 0.000000 0.000000 0.000000
# 2 -0.004033 0.011761 -0.001529 0.000000 0.000000 0.000000
# 3 -0.002277 -0.001529 0.010746 0.000000 0.000000 0.000000
# 4 0.000000 0.000000 0.000000 0.243880 0.000000 0.000000
# 5 0.000000 0.000000 0.000000 0.000000 -0.254850 0.000000
# 6 0.000000 0.000000 0.000000 0.000000 0.000000 0.051735
#
#
# Mechanical properties :
#
#
# Convention : Reuss Voigt Hill
#
# Bulk Modulus (GPa) = 56.62866 57.36428 56.99647
# Shear Modulus (GPa) = 52.26404 18.77286 35.51845
#
# Velocity S-wave (km/s) = 5.06555 3.03592 4.17592
# Velocity P-wave (km/s) = 7.87500 6.36026 7.15781
#
# Compressibility (1/GPa) = 0.01765890
#
# Stress axis : x y z
#
# Youngs Moduli (GPa) = 92.32586 85.02781 93.05625
#
# Poissons Ratio (x) = 0.34295 0.21189
# Poissons Ratio (y) = 0.37238 0.14231
# Poissons Ratio (z) = 0.21023 0.13004
#
# Static dielectric constant tensor:
#      x y z
#    x 3.687010 0.000000 0.000000 
#    y 0.000000 3.560880 0.000000 
#    z 0.000000 0.000000 3.912780 
# 
# 
# High freq. dielectric constant tensor:
#      x y z
#    x 1.792460 0.000000 0.000000 
#    y 0.000000 1.783220 0.000000 
#    z 0.000000 0.000000 1.806680 
# 
# From -- ./inp_files/2390.got.cif
#   From: 2010.03.12/outbox.cif.g09.slc.cpg/sg46_2_cif.got.tgz:2390.got - 2010.04.14 02:56:35.
