data_PCOD8193416
_publ_section_title
;
Structure prediction by ZEFSAII (Michael W. Deem and Ramdas Pophale) SiO2 
 PCOD8193416
Probable space group: I M A 2
;
_chemical_formula_sum "Si O2"
_cell_formula_units_Z 48
_cell_length_a 15.229915
_cell_length_b 10.551030
_cell_length_c 14.978862
_cell_angle_alpha 90.000000
_cell_angle_beta 90.000000
_cell_angle_gamma 90.000000
_cell_volume 2406.972658
_symmetry_space_group_name_H-M "I M A 2"
_symmetry_group_IT_number 46
_symmetry_cell_setting 'orthorhombic'
loop_
_space_group_symop_operation_xyz
x,y,z
-x,-y,z
1/2-x,y,z
1/2+x,-y,z
1/2+x,1/2+y,1/2+z
1/2-x,1/2-y,1/2+z
-x,1/2+y,1/2+z
x,1/2-y,1/2+z
loop_
_atom_site_type_symbol
_atom_site_label
_atom_site_fract_x
_atom_site_fract_y
_atom_site_fract_z
Si Si1 0.750000 0.107405 0.041060
Si Si2 0.750000 0.561794 0.718377
Si Si3 0.897479 0.997977 0.357691
Si Si4 0.604092 0.193854 0.507006
Si Si5 0.094942 0.477170 0.153309
Si Si6 0.250000 0.130036 0.948940
Si Si7 0.250000 0.353715 0.246452
Si Si8 0.092152 0.286193 0.000089
O O1 0.835235 0.192655 0.036242
O O2 0.750000 0.014512 0.126073
O O3 0.750000 0.021578 0.952299
O O4 0.662852 0.516971 0.771039
O O5 0.750000 0.714457 0.699356
O O6 0.879622 0.879317 0.420989
O O7 0.870379 0.123502 0.414287
O O8 0.000000 0.000000 0.329065
O O9 0.508723 0.256152 0.490620
O O10 0.611918 0.095376 0.588531
O O11 0.167871 0.447291 0.227089
O O12 0.097301 0.351072 0.095433
O O13 0.000000 0.500000 0.199962
O O14 0.250000 0.181379 0.849451
O O15 0.161238 0.172622 0.999742
#
# Coordination Sequence:
#
# PCOD8193416 Si02
#       8
#     4   4   8   8   8   4   4   8
#     4  12  26  40  51  93 126 165 194 247 320 370
#     4  12  23  40  61  94 128 161 206 251 312 364
#     4   9  18  39  69  93 112 158 212 257 297 361
#     4   9  20  41  65  87 123 156 207 245 307 369
#     4   9  19  39  67  92 113 155 208 252 298 358
#     4  12  24  40  55  85 127 156 207 248 307 369
#     4  12  23  40  61  92 123 162 201 256 307 365
#     4   9  17  39  69  88 110 159 207 255 293 353
#
# _framework density 19.942063000000001
#
# number of rings (size 3 to 8) (size 9 to 14) (size 15 to 20)
#    0.000    2.000    1.667    4.500    0.000    3.333 
#   18.000    0.000    0.000    0.000    0.000    0.000 
#    0.000    0.000    0.000    0.000    0.000    0.000 
#
# Total GULP energy -297400.836665 kJ/mol
# GULP energy per Si atom -12391.701528 kJ/mol
# Density = 1.989667 g / cm^3
# Si number density = 19.942063 Si / 1000 Ang^3
#
#
#
# Elastic Constant Matrix: (Units=GPa)
#
#
# Indices 1 2 3 4 5 6 
#
# 1 147.2488 62.5169 44.3537 0.0000 0.0000 0.0000
# 2 62.5169 89.7241 28.7207 0.0000 0.0000 0.0000
# 3 44.3537 28.7207 56.0451 0.0000 0.0000 0.0000
# 4 0.0000 0.0000 0.0000 24.5303 0.0000 0.0000
# 5 0.0000 0.0000 0.0000 0.0000 21.1027 0.0000
# 6 0.0000 0.0000 0.0000 0.0000 0.0000 71.0480
#
#
#
# Elastic Compliance Matrix: (Units=1/GPa)
#
#
# Indices 1 2 3 4 5 6 
#
# 1 0.010984 -0.005827 -0.005707 0.000000 0.000000 0.000000
# 2 -0.005827 0.016423 -0.003805 0.000000 0.000000 0.000000
# 3 -0.005707 -0.003805 0.024309 0.000000 0.000000 0.000000
# 4 0.000000 0.000000 0.000000 0.040766 0.000000 0.000000
# 5 0.000000 0.000000 0.000000 0.000000 0.047387 0.000000
# 6 0.000000 0.000000 0.000000 0.000000 0.000000 0.014075
#
#
# Mechanical properties :
#
#
# Convention : Reuss Voigt Hill
#
# Bulk Modulus (GPa) = 47.53008 62.68897 55.10952
# Shear Modulus (GPa) = 26.09144 33.83133 29.96138
#
# Velocity S-wave (km/s) = 3.62105 4.12330 3.88031
# Velocity P-wave (km/s) = 6.43184 7.36021 6.91163
#
# Compressibility (1/GPa) = 0.02103931
#
# Stress axis : x y z
#
# Youngs Moduli (GPa) = 91.04195 60.89020 41.13707
#
# Poissons Ratio (x) = 0.35478 0.23476
# Poissons Ratio (y) = 0.53046 0.15653
# Poissons Ratio (z) = 0.51956 0.23169
#
# Static dielectric constant tensor:
#      x y z
#    x 4.117760 0.000000 0.000000 
#    y 0.000000 3.540060 0.000000 
#    z 0.000000 0.000000 3.392700 
# 
# 
# High freq. dielectric constant tensor:
#      x y z
#    x 1.794520 0.000000 0.000000 
#    y 0.000000 1.765970 0.000000 
#    z 0.000000 0.000000 1.759200 
# 
# From -- ./inp_files/15906.got.cif
#   From: 2010.03.12/outbox.cif.g09.slc.cpg/sg46_8_cif.got.tgz:15906.got - 2010.04.14 02:56:35.
