data_PCOD8193556
_publ_section_title
;
Structure prediction by ZEFSAII (Michael W. Deem and Ramdas Pophale) SiO2 
 PCOD8193556
Probable space group: P M M M
;
_chemical_formula_sum "Si O2"
_cell_formula_units_Z 64
_cell_length_a 9.081892
_cell_length_b 14.239781
_cell_length_c 31.561517
_cell_angle_alpha 90.000000
_cell_angle_beta 90.000000
_cell_angle_gamma 90.000000
_cell_volume 4081.666458
_symmetry_space_group_name_H-M "P M M M"
_symmetry_group_IT_number 47
_symmetry_cell_setting 'orthorhombic'
loop_
_space_group_symop_operation_xyz
x,y,z
-x,-y,z
x,-y,-z
-x,y,-z
-x,-y,-z
x,y,-z
-x,y,z
x,-y,z
loop_
_atom_site_type_symbol
_atom_site_label
_atom_site_fract_x
_atom_site_fract_y
_atom_site_fract_z
Si Si1 0.670987 0.393248 0.256287
Si Si2 0.329230 0.606082 0.158897
Si Si3 0.664589 0.111334 0.455227
Si Si4 0.174662 0.781485 0.288941
Si Si5 0.825013 0.105250 0.046840
Si Si6 0.675377 0.891618 0.363487
Si Si7 0.174982 0.894397 0.206893
Si Si8 0.825073 0.220483 0.125979
O O1 0.500000 0.367908 0.261949
O O2 0.700956 0.500000 0.270922
O O3 0.719155 0.380716 0.207547
O O4 0.768978 0.325155 0.285139
O O5 0.500000 0.629918 0.153707
O O6 0.296143 0.500000 0.144161
O O7 0.235896 0.674330 0.129020
O O8 0.744955 0.142775 0.500000
O O9 0.500000 0.152340 0.456829
O O10 0.735446 0.142146 0.410234
O O11 0.656296 0.000000 0.453746
O O12 0.242126 0.826463 0.330600
O O13 0.231590 0.840454 0.248490
O O14 0.000000 0.781987 0.292406
O O15 0.762692 0.175000 0.082645
O O16 0.000000 0.103791 0.049133
O O17 0.765946 0.000000 0.055645
O O18 0.773530 0.138962 0.000000
O O19 0.500000 0.878164 0.360395
O O20 0.717429 0.000000 0.354739
O O21 0.234352 0.841206 0.165316
O O22 0.000000 0.897186 0.206223
O O23 0.239209 0.000000 0.207308
O O24 0.000000 0.224661 0.126073
#
# Coordination Sequence:
#
# PCOD8193556 Si02
#       8
#     8   8   8   8   8   8   8   8
#     4   9  18  33  50  64  81 109 145 185 226 264
#     4   9  18  32  48  65  87 113 139 174 222 268
#     4   7  10  19  37  59  80 105 144 192 230 254
#     4  11  20  29  42  62  90 121 148 178 216 261
#     4   8  14  25  43  68  94 117 142 175 216 258
#     4   9  17  28  42  61  87 121 157 188 219 258
#     4   9  17  27  38  57  86 117 145 172 204 244
#     4  10  17  27  46  69  88 110 145 184 215 249
#
# _framework density 15.679869999999999
#
# number of rings (size 3 to 8) (size 9 to 14) (size 15 to 20)
#    0.000    3.000    1.250    3.375    0.000    2.750 
#    0.000    1.250    0.000    3.375    0.000    5.250 
#    0.000    0.500    0.000    5.750    0.000    1.875 
#
# Total GULP energy -793041.398028 kJ/mol
# GULP energy per Si atom -12391.271844 kJ/mol
# Density = 1.564418 g / cm^3
# Si number density = 15.679870 Si / 1000 Ang^3
#
#
#
# Elastic Constant Matrix: (Units=GPa)
#
#
# Indices 1 2 3 4 5 6 
#
# 1 27.3575 29.6052 31.6951 0.0000 0.0000 0.0000
# 2 29.6052 98.8573 65.0280 0.0000 0.0000 0.0000
# 3 31.6951 65.0280 142.5569 0.0000 0.0000 0.0000
# 4 0.0000 0.0000 0.0000 12.8819 0.0000 0.0000
# 5 0.0000 0.0000 0.0000 0.0000 15.1578 0.0000
# 6 0.0000 0.0000 0.0000 0.0000 0.0000 19.7112
#
#
#
# Elastic Compliance Matrix: (Units=1/GPa)
#
#
# Indices 1 2 3 4 5 6 
#
# 1 0.058842 -0.012881 -0.007207 0.000000 0.000000 0.000000
# 2 -0.012881 0.017272 -0.005015 0.000000 0.000000 0.000000
# 3 -0.007207 -0.005015 0.010905 0.000000 0.000000 0.000000
# 4 0.000000 0.000000 0.000000 0.077628 0.000000 0.000000
# 5 0.000000 0.000000 0.000000 0.000000 0.065973 0.000000
# 6 0.000000 0.000000 0.000000 0.000000 0.000000 0.050733
#
#
# Mechanical properties :
#
#
# Convention : Reuss Voigt Hill
#
# Bulk Modulus (GPa) = 27.16419 57.93645 42.55032
# Shear Modulus (GPa) = 14.54217 19.04641 16.79429
#
# Velocity S-wave (km/s) = 3.04870 3.48904 3.27628
# Velocity P-wave (km/s) = 5.45478 7.29801 6.44265
#
# Compressibility (1/GPa) = 0.03681317
#
# Stress axis : x y z
#
# Youngs Moduli (GPa) = 16.99471 57.89781 91.70505
#
# Poissons Ratio (x) = 0.74579 0.66089
# Poissons Ratio (y) = 0.21891 0.45988
# Poissons Ratio (z) = 0.12248 0.29034
#
# Static dielectric constant tensor:
#      x y z
#    x 2.606440 0.000000 0.000000 
#    y 0.000000 2.893220 0.000000 
#    z 0.000000 0.000000 3.299200 
# 
# 
# High freq. dielectric constant tensor:
#      x y z
#    x 1.565730 0.000000 0.000000 
#    y 0.000000 1.583650 0.000000 
#    z 0.000000 0.000000 1.600920 
# 
# From -- ./inp_files/34449.got.cif
#   From: 2010.03.12/outbox.cif.g09.slc.cpg/sg47_18_cif.got.tgz:34449.got - 2010.04.14 03:12:58.
