data_PCOD8193829
_publ_section_title
;
Structure prediction by ZEFSAII (Michael W. Deem and Ramdas Pophale) SiO2 
 PCOD8193829
Probable space group: P M M M
;
_chemical_formula_sum "Si O2"
_cell_formula_units_Z 56
_cell_length_a 17.907000
_cell_length_b 15.557269
_cell_length_c 13.748141
_cell_angle_alpha 90.000000
_cell_angle_beta 90.000000
_cell_angle_gamma 90.000000
_cell_volume 3830.012332
_symmetry_space_group_name_H-M "P M M M"
_symmetry_group_IT_number 47
_symmetry_cell_setting 'orthorhombic'
loop_
_space_group_symop_operation_xyz
x,y,z
-x,-y,z
x,-y,-z
-x,y,-z
-x,-y,-z
x,y,-z
-x,y,z
x,-y,z
loop_
_atom_site_type_symbol
_atom_site_label
_atom_site_fract_x
_atom_site_fract_y
_atom_site_fract_z
Si Si1 0.150396 0.333412 0.702606
Si Si2 0.349070 0.905990 0.386639
Si Si3 0.183019 0.845744 0.386659
Si Si4 0.295060 0.597085 0.612284
Si Si5 0.416811 0.732063 0.616034
Si Si6 0.917341 0.000000 0.384431
Si Si7 0.086356 0.600087 0.890025
Si Si8 0.000000 0.596480 0.614668
O O1 0.174208 0.236773 0.680444
O O2 0.217217 0.395249 0.668899
O O3 0.138506 0.345037 0.818095
O O4 0.073956 0.354864 0.647883
O O5 0.366451 0.910906 0.500000
O O6 0.262642 0.887918 0.368536
O O7 0.396842 0.827071 0.341939
O O8 0.369574 0.000000 0.340532
O O9 0.172217 0.820756 0.500000
O O10 0.122799 0.913948 0.348445
O O11 0.279210 0.619984 0.500000
O O12 0.325126 0.500000 0.623742
O O13 0.358014 0.661400 0.655426
O O14 0.412674 0.733110 0.500000
O O15 0.500000 0.707474 0.651701
O O16 0.916813 0.000000 0.500000
O O17 0.000000 0.000000 0.340382
O O18 0.105021 0.500000 0.877523
O O19 0.000000 0.616878 0.863590
O O20 0.103277 0.629958 0.000000
O O21 0.000000 0.500000 0.658817
O O22 0.000000 0.593439 0.500000
#
# Coordination Sequence:
#
# PCOD8193829 Si02
#       8
#     8   8   8   8   8   4   8   4
#     4  12  20  29  45  64  85 113 150 183 221 261
#     4   9  15  26  42  57  78 112 149 183 220 256
#     4  10  18  28  41  59  86 119 148 179 218 261
#     4  10  19  29  41  58  85 121 152 177 209 257
#     4   9  17  28  40  57  82 113 152 190 217 249
#     4   9  18  28  38  54  80 116 154 184 211 250
#     4   9  18  33  49  63  82 109 143 185 229 266
#     4  11  22  30  37  58  92 120 142 174 213 257
#
# _framework density 14.621363000000001
#
# number of rings (size 3 to 8) (size 9 to 14) (size 15 to 20)
#    0.000    2.143    2.857    3.000    1.000    1.714 
#    0.000    2.857    0.000    0.000    0.000    0.500 
#    0.000    2.286    0.000    3.000    0.000    1.857 
#
# Total GULP energy -694202.197432 kJ/mol
# GULP energy per Si atom -12396.467811 kJ/mol
# Density = 1.458808 g / cm^3
# Si number density = 14.621363 Si / 1000 Ang^3
#
#
#
# Elastic Constant Matrix: (Units=GPa)
#
#
# Indices 1 2 3 4 5 6 
#
# 1 85.5854 32.4594 18.6876 0.0000 0.0000 0.0000
# 2 32.4594 96.4460 23.2377 0.0000 0.0000 0.0000
# 3 18.6876 23.2377 46.7316 0.0000 0.0000 0.0000
# 4 0.0000 0.0000 0.0000 9.1350 0.0000 0.0000
# 5 0.0000 0.0000 0.0000 0.0000 5.8462 0.0000
# 6 0.0000 0.0000 0.0000 0.0000 0.0000 22.9649
#
#
#
# Elastic Compliance Matrix: (Units=1/GPa)
#
#
# Indices 1 2 3 4 5 6 
#
# 1 0.013930 -0.003801 -0.003680 0.000000 0.000000 0.000000
# 2 -0.003801 0.012817 -0.004853 0.000000 0.000000 0.000000
# 3 -0.003680 -0.004853 0.025284 0.000000 0.000000 0.000000
# 4 0.000000 0.000000 0.000000 0.109469 0.000000 0.000000
# 5 0.000000 0.000000 0.000000 0.000000 0.171052 0.000000
# 6 0.000000 0.000000 0.000000 0.000000 0.000000 0.043545
#
#
# Mechanical properties :
#
#
# Convention : Reuss Voigt Hill
#
# Bulk Modulus (GPa) = 36.54834 41.94803 39.24818
# Shear Modulus (GPa) = 12.19851 17.88110 15.03981
#
# Velocity S-wave (km/s) = 2.89155 3.50085 3.21069
# Velocity P-wave (km/s) = 6.01655 6.71514 6.37542
#
# Compressibility (1/GPa) = 0.02736103
#
# Stress axis : x y z
#
# Youngs Moduli (GPa) = 71.79007 78.01991 39.55104
#
# Poissons Ratio (x) = 0.29658 0.14555
# Poissons Ratio (y) = 0.27290 0.19195
# Poissons Ratio (z) = 0.26419 0.37866
#
# Static dielectric constant tensor:
#      x y z
#    x 2.922750 0.000000 0.000000 
#    y 0.000000 3.013410 0.000000 
#    z 0.000000 0.000000 2.414850 
# 
# 
# High freq. dielectric constant tensor:
#      x y z
#    x 1.562210 0.000000 0.000000 
#    y 0.000000 1.570750 0.000000 
#    z 0.000000 0.000000 1.487530 
# 
# From -- ./inp_files/24740.got.cif
#   From: 2010.03.12/outbox.cif.g09.slc.cpg/sg47_13_cif.got.tgz:24740.got - 2010.04.14 03:12:58.
