data_PCOD8193536
_publ_section_title
;
Structure prediction by ZEFSAII (Michael W. Deem and Ramdas Pophale) SiO2 
 PCOD8193536
Probable space group: P M M M
;
_chemical_formula_sum "Si O2"
_cell_formula_units_Z 64
_cell_length_a 31.275999
_cell_length_b 9.167619
_cell_length_c 14.628588
_cell_angle_alpha 90.000000
_cell_angle_beta 90.000000
_cell_angle_gamma 90.000000
_cell_volume 4194.402999
_symmetry_space_group_name_H-M "P M M M"
_symmetry_group_IT_number 47
_symmetry_cell_setting 'orthorhombic'
loop_
_space_group_symop_operation_xyz
x,y,z
-x,-y,z
x,-y,-z
-x,y,-z
-x,-y,-z
x,y,-z
-x,y,z
x,-y,z
loop_
_atom_site_type_symbol
_atom_site_label
_atom_site_fract_x
_atom_site_fract_y
_atom_site_fract_z
Si Si1 0.288092 0.170806 0.893508
Si Si2 0.872983 0.673195 0.102398
Si Si3 0.085485 0.673371 0.599532
Si Si4 0.211899 0.327237 0.208461
Si Si5 0.547142 0.836100 0.891291
Si Si6 0.047139 0.673967 0.215654
Si Si7 0.818557 0.327168 0.400528
Si Si8 0.627680 0.336616 0.108741
O O1 0.250153 0.242065 0.837544
O O2 0.332301 0.240671 0.858506
O O3 0.290056 0.000000 0.873842
O O4 0.280547 0.204661 0.000000
O O5 0.875104 0.500000 0.100154
O O6 0.832167 0.722998 0.160934
O O7 0.916616 0.735598 0.147354
O O8 0.869024 0.736818 0.000000
O O9 0.067442 0.723273 0.500000
O O10 0.086828 0.500000 0.604211
O O11 0.056128 0.733283 0.681611
O O12 0.133548 0.734610 0.612294
O O13 0.219171 0.500000 0.196935
O O14 0.210570 0.277435 0.315081
O O15 0.500000 0.780536 0.860181
O O16 0.583947 0.731909 0.850576
O O17 0.554861 0.000000 0.854965
O O18 0.549696 0.836528 0.000000
O O19 0.048597 0.500000 0.215134
O O20 0.000000 0.729056 0.185229
O O21 0.800079 0.275196 0.500000
O O22 0.821339 0.500000 0.398711
O O23 0.632571 0.500000 0.147544
O O24 0.625479 0.338110 0.000000
#
# Coordination Sequence:
#
# PCOD8193536 Si02
#       8
#     8   8   8   8   8   8   8   8
#     4  10  20  31  41  55  78 106 134 167 209 251
#     4   9  16  24  33  47  67  92 124 160 193 224
#     4   8  12  19  30  44  65  92 120 148 181 225
#     4  10  17  27  44  61  76  97 129 165 197 235
#     4   8  13  21  33  49  71 102 139 177 217 256
#     4   9  15  21  28  41  65  96 125 150 183 230
#     4   8  13  22  38  58  77  96 120 153 193 236
#     4   9  16  25  37  53  74 101 136 177 215 249
#
# _framework density 15.258428
#
# number of rings (size 3 to 8) (size 9 to 14) (size 15 to 20)
#    0.000    3.125    1.250    2.250    0.000    3.500 
#    0.000    3.750    0.000    0.375    0.000    0.000 
#    0.000    0.500    0.000    2.625    0.000    7.125 
#
# Total GULP energy -792993.612416 kJ/mol
# GULP energy per Si atom -12390.525194 kJ/mol
# Density = 1.522370 g / cm^3
# Si number density = 15.258428 Si / 1000 Ang^3
#
#
#
# Elastic Constant Matrix: (Units=GPa)
#
#
# Indices 1 2 3 4 5 6 
#
# 1 134.2296 44.6720 52.4813 0.0000 0.0000 0.0000
# 2 44.6720 44.1522 24.9308 0.0000 0.0000 0.0000
# 3 52.4813 24.9308 87.2021 0.0000 0.0000 0.0000
# 4 0.0000 0.0000 0.0000 6.0496 0.0000 0.0000
# 5 0.0000 0.0000 0.0000 0.0000 5.6332 0.0000
# 6 0.0000 0.0000 0.0000 0.0000 0.0000 0.8412
#
#
#
# Elastic Compliance Matrix: (Units=1/GPa)
#
#
# Indices 1 2 3 4 5 6 
#
# 1 0.012679 -0.010160 -0.004726 0.000000 0.000000 0.000000
# 2 -0.010160 0.035150 -0.003935 0.000000 0.000000 0.000000
# 3 -0.004726 -0.003935 0.015437 0.000000 0.000000 0.000000
# 4 0.000000 0.000000 0.000000 0.165299 0.000000 0.000000
# 5 0.000000 0.000000 0.000000 0.000000 0.177518 0.000000
# 6 0.000000 0.000000 0.000000 0.000000 0.000000 1.188742
#
#
# Mechanical properties :
#
#
# Convention : Reuss Voigt Hill
#
# Bulk Modulus (GPa) = 39.02472 56.63912 47.83192
# Shear Modulus (GPa) = 3.04691 12.07147 7.55919
#
# Velocity S-wave (km/s) = 1.41464 2.81576 2.22820
# Velocity P-wave (km/s) = 5.31974 6.91172 6.16731
#
# Compressibility (1/GPa) = 0.02562478
#
# Stress axis : x y z
#
# Youngs Moduli (GPa) = 78.87179 28.44959 64.78001
#
# Poissons Ratio (x) = 0.28903 0.30615
# Poissons Ratio (y) = 0.80130 0.25490
# Poissons Ratio (z) = 0.37275 0.11195
#
# Static dielectric constant tensor:
#      x y z
#    x 3.053330 0.000000 0.000000 
#    y 0.000000 2.569200 0.000000 
#    z 0.000000 0.000000 2.995740 
# 
# 
# High freq. dielectric constant tensor:
#      x y z
#    x 1.582150 0.000000 0.000000 
#    y 0.000000 1.538820 0.000000 
#    z 0.000000 0.000000 1.553110 
# 
# From -- ./inp_files/25864.got.cif
#   From: 2010.03.12/outbox.cif.g09.slc.cpg/sg47_13_cif.got.tgz:25864.got - 2010.04.14 03:12:58.
