data_PCOD8193053
_publ_section_title
;
Structure prediction by ZEFSAII (Michael W. Deem and Ramdas Pophale) SiO2 
 PCOD8193053
Probable space group: I M A 2
;
_chemical_formula_sum "Si O2"
_cell_formula_units_Z 60
_cell_length_a 15.453521
_cell_length_b 5.140245
_cell_length_c 32.430741
_cell_angle_alpha 90.000000
_cell_angle_beta 90.000000
_cell_angle_gamma 90.000000
_cell_volume 2576.132151
_symmetry_space_group_name_H-M "I M A 2"
_symmetry_group_IT_number 46
_symmetry_cell_setting 'orthorhombic'
loop_
_space_group_symop_operation_xyz
x,y,z
-x,-y,z
1/2-x,y,z
1/2+x,-y,z
1/2+x,1/2+y,1/2+z
1/2-x,1/2-y,1/2+z
-x,1/2+y,1/2+z
x,1/2-y,1/2+z
loop_
_atom_site_type_symbol
_atom_site_label
_atom_site_fract_x
_atom_site_fract_y
_atom_site_fract_z
Si Si1 0.907012 0.623905 0.781190
Si Si2 0.444262 0.250996 0.369502
Si Si3 0.844740 0.370599 0.240088
Si Si4 0.650895 0.858073 0.576053
Si Si5 0.411581 0.877350 0.652122
Si Si6 0.500000 0.500000 0.591910
Si Si7 0.149530 0.830524 0.498717
Si Si8 0.352833 0.169759 0.953092
O O1 0.887487 0.675132 0.829450
O O2 0.843539 0.398791 0.765416
O O3 0.000000 0.500000 0.773918
O O4 0.905483 0.896355 0.756352
O O5 0.500000 0.500000 0.355961
O O6 0.383089 0.347467 0.406108
O O7 0.500000 0.000000 0.383225
O O8 0.750000 0.492541 0.244025
O O9 0.861059 0.290497 0.192606
O O10 0.750000 0.748555 0.566473
O O11 0.568636 0.670382 0.564786
O O12 0.645892 0.924234 0.624517
O O13 0.634558 0.116460 0.547680
O O14 0.433281 0.645673 0.621583
O O15 0.500000 0.000000 0.668317
O O16 0.250000 0.815415 0.488693
O O17 0.107953 0.565740 0.480958
O O18 0.109139 0.071109 0.473625
O O19 0.250000 0.165626 0.953704
#
# Coordination Sequence:
#
# PCOD8193053 Si02
#       8
#     8   8   8   8   8   4   8   8
#     4  11  24  45  68  94 134 182 221 275 346 417
#     4  11  23  43  66  98 131 172 223 270 341 412
#     4  12  26  42  67 102 134 172 232 287 340 407
#     4  10  22  41  67  96 138 186 234 293 349 412
#     4  10  23  42  62  92 131 179 228 283 343 411
#     4  10  24  42  64 100 130 178 248 280 356 420
#     4   9  20  38  63  96 129 174 222 267 338 403
#     4  10  21  40  66  95 131 172 216 272 336 406
#
# _framework density 23.290728999999999
#
# number of rings (size 3 to 8) (size 9 to 14) (size 15 to 20)
#    0.000    1.600    0.000    4.400    6.533    2.133 
#    1.200    3.333    0.000    0.000    0.000    0.000 
#    0.000    0.000    0.000    0.000    0.000    0.000 
#
# Total GULP energy -371749.344703 kJ/mol
# GULP energy per Si atom -12391.644823 kJ/mol
# Density = 2.323772 g / cm^3
# Si number density = 23.290729 Si / 1000 Ang^3
#
#
#
# Elastic Constant Matrix: (Units=GPa)
#
#
# Indices 1 2 3 4 5 6 
#
# 1 76.7317 28.1050 40.1090 0.0000 0.0000 0.0000
# 2 28.1050 138.5769 50.2401 0.0000 0.0000 0.0000
# 3 40.1090 50.2401 156.2840 0.0000 0.0000 0.0000
# 4 0.0000 0.0000 0.0000 33.3744 0.0000 0.0000
# 5 0.0000 0.0000 0.0000 0.0000 22.7940 0.0000
# 6 0.0000 0.0000 0.0000 0.0000 0.0000 26.1923
#
#
#
# Elastic Compliance Matrix: (Units=1/GPa)
#
#
# Indices 1 2 3 4 5 6 
#
# 1 0.015492 -0.001925 -0.003357 0.000000 0.000000 0.000000
# 2 -0.001925 0.008407 -0.002209 0.000000 0.000000 0.000000
# 3 -0.003357 -0.002209 0.007970 0.000000 0.000000 0.000000
# 4 0.000000 0.000000 0.000000 0.029963 0.000000 0.000000
# 5 0.000000 0.000000 0.000000 0.000000 0.043871 0.000000
# 6 0.000000 0.000000 0.000000 0.000000 0.000000 0.038179
#
#
# Mechanical properties :
#
#
# Convention : Reuss Voigt Hill
#
# Bulk Modulus (GPa) = 59.21235 67.61120 63.41178
# Shear Modulus (GPa) = 30.39616 33.34801 31.87209
#
# Velocity S-wave (km/s) = 3.61650 3.78804 3.70326
# Velocity P-wave (km/s) = 6.55112 6.94439 6.75062
#
# Compressibility (1/GPa) = 0.01688837
#
# Stress axis : x y z
#
# Youngs Moduli (GPa) = 64.54810 118.94365 125.46704
#
# Poissons Ratio (x) = 0.22895 0.42122
# Poissons Ratio (y) = 0.12425 0.27712
# Poissons Ratio (z) = 0.21670 0.26271
#
# Static dielectric constant tensor:
#      x y z
#    x 4.027630 0.000000 0.000000 
#    y 0.000000 4.449860 0.000000 
#    z 0.000000 0.000000 4.120630 
# 
# 
# High freq. dielectric constant tensor:
#      x y z
#    x 1.905530 0.000000 0.000000 
#    y 0.000000 1.928880 0.000000 
#    z 0.000000 0.000000 1.925490 
# 
# From -- ./inp_files/24696.got.cif
#   From: 2010.03.12/outbox.cif.g09.slc.cpg/sg46_13_cif.got.tgz:24696.got - 2010.04.14 02:56:35.
