data_PCOD8193459
_publ_section_title
;
Structure prediction by ZEFSAII (Michael W. Deem and Ramdas Pophale) SiO2 
 PCOD8193459
Probable space group: P M M M
;
_chemical_formula_sum "Si O2"
_cell_formula_units_Z 44
_cell_length_a 13.785225
_cell_length_b 13.698290
_cell_length_c 16.379715
_cell_angle_alpha 90.000000
_cell_angle_beta 90.000000
_cell_angle_gamma 90.000000
_cell_volume 3093.047262
_symmetry_space_group_name_H-M "P M M M"
_symmetry_group_IT_number 47
_symmetry_cell_setting 'orthorhombic'
loop_
_space_group_symop_operation_xyz
x,y,z
-x,-y,z
x,-y,-z
-x,y,-z
-x,-y,-z
x,y,-z
-x,y,z
x,-y,z
loop_
_atom_site_type_symbol
_atom_site_label
_atom_site_fract_x
_atom_site_fract_y
_atom_site_fract_z
Si Si1 0.885293 0.107165 0.246425
Si Si2 0.885185 0.300717 0.669122
Si Si3 0.114878 0.609977 0.500000
Si Si4 0.606322 0.615530 0.908539
Si Si5 0.799306 0.386799 0.174088
Si Si6 0.886683 0.213693 0.089147
O O1 0.858814 0.186542 0.316066
O O2 0.842216 0.142484 0.158822
O O3 0.000000 0.100301 0.238756
O O4 0.842280 0.000000 0.268563
O O5 0.849462 0.330765 0.579270
O O6 0.825768 0.367997 0.731781
O O7 0.000000 0.319302 0.681692
O O8 0.157940 0.500000 0.500000
O O9 0.000000 0.604116 0.500000
O O10 0.500000 0.655983 0.881318
O O11 0.602002 0.500000 0.910607
O O12 0.688852 0.648850 0.844453
O O13 0.631324 0.653892 0.000000
O O14 0.813789 0.500000 0.152875
O O15 0.869811 0.325762 0.115182
O O16 0.000000 0.195922 0.083443
O O17 0.839804 0.191976 0.000000
#
# Coordination Sequence:
#
# PCOD8193459 Si02
#       6
#     8   8   4   8   8   8
#     4   8  14  25  38  49  66  94 124 156 190 214
#     4   9  17  27  38  55  76  96 124 157 184 220
#     4   9  16  26  39  53  74 104 129 148 175 215
#     4   8  14  24  36  50  69  94 125 157 184 212
#     4  10  17  24  36  52  72  99 125 152 187 219
#     4   9  17  25  32  48  73  98 126 154 177 214
#
# _framework density 14.225453
#
# number of rings (size 3 to 8) (size 9 to 14) (size 15 to 20)
#    0.000    3.182    0.000    3.273    0.000    3.636 
#    0.000    3.182    0.000    2.727    0.000    0.636 
#    0.000   15.273    0.000   40.000    0.000   10.909 
#
# Total GULP energy -545112.474549 kJ/mol
# GULP energy per Si atom -12388.919876 kJ/mol
# Density = 1.419308 g / cm^3
# Si number density = 14.225453 Si / 1000 Ang^3
#
#
#
# Elastic Constant Matrix: (Units=GPa)
#
#
# Indices 1 2 3 4 5 6 
#
# 1 31.2884 6.9418 25.0375 0.0000 0.0000 0.0000
# 2 6.9418 92.8570 44.2066 0.0000 0.0000 0.0000
# 3 25.0375 44.2066 116.8020 0.0000 0.0000 0.0000
# 4 0.0000 0.0000 0.0000 13.0434 0.0000 0.0000
# 5 0.0000 0.0000 0.0000 0.0000 12.3838 0.0000
# 6 0.0000 0.0000 0.0000 0.0000 0.0000 3.6402
#
#
#
# Elastic Compliance Matrix: (Units=1/GPa)
#
#
# Indices 1 2 3 4 5 6 
#
# 1 0.038704 0.001288 -0.008784 0.000000 0.000000 0.000000
# 2 0.001288 0.013179 -0.005264 0.000000 0.000000 0.000000
# 3 -0.008784 -0.005264 0.012437 0.000000 0.000000 0.000000
# 4 0.000000 0.000000 0.000000 0.076667 0.000000 0.000000
# 5 0.000000 0.000000 0.000000 0.000000 0.080751 0.000000
# 6 0.000000 0.000000 0.000000 0.000000 0.000000 0.274708
#
#
# Mechanical properties :
#
#
# Convention : Reuss Voigt Hill
#
# Bulk Modulus (GPa) = 25.77301 43.70212 34.73756
# Shear Modulus (GPa) = 9.34755 16.79757 13.07256
#
# Velocity S-wave (km/s) = 2.56618 3.44002 3.03472
# Velocity P-wave (km/s) = 5.19011 6.82393 6.06231
#
# Compressibility (1/GPa) = 0.03880028
#
# Stress axis : x y z
#
# Youngs Moduli (GPa) = 25.83701 75.87810 80.40646
#
# Poissons Ratio (x) = -0.09777 0.70631
# Poissons Ratio (y) = -0.03329 0.42327
# Poissons Ratio (z) = 0.22696 0.39943
#
# Static dielectric constant tensor:
#      x y z
#    x 2.660270 0.000000 0.000000 
#    y 0.000000 2.872270 0.000000 
#    z 0.000000 0.000000 2.920600 
# 
# 
# High freq. dielectric constant tensor:
#      x y z
#    x 1.492770 0.000000 0.000000 
#    y 0.000000 1.530780 0.000000 
#    z 0.000000 0.000000 1.538110 
# 
# From -- ./inp_files/22620.got.cif
#   From: 2010.03.12/outbox.cif.g09.slc.cpg/sg47_12_cif.got.tgz:22620.got - 2010.04.14 03:12:58.
