data_PCOD8193987
_publ_section_title
;
Structure prediction by ZEFSAII (Michael W. Deem and Ramdas Pophale) SiO2 
 PCOD8193987
Probable space group: P M M M
;
_chemical_formula_sum "Si O2"
_cell_formula_units_Z 48
_cell_length_a 19.501789
_cell_length_b 20.761230
_cell_length_c 9.426680
_cell_angle_alpha 90.000000
_cell_angle_beta 90.000000
_cell_angle_gamma 90.000000
_cell_volume 3816.684821
_symmetry_space_group_name_H-M "P M M M"
_symmetry_group_IT_number 47
_symmetry_cell_setting 'orthorhombic'
loop_
_space_group_symop_operation_xyz
x,y,z
-x,-y,z
x,-y,-z
-x,y,-z
-x,-y,-z
x,y,-z
-x,y,z
x,-y,z
loop_
_atom_site_type_symbol
_atom_site_label
_atom_site_fract_x
_atom_site_fract_y
_atom_site_fract_z
Si Si1 0.347632 0.372760 0.833679
Si Si2 0.201763 0.426441 0.836236
Si Si3 0.419833 0.739693 0.666459
Si Si4 0.423283 0.500000 0.831542
Si Si5 0.924871 0.423457 0.659928
Si Si6 0.425109 0.000000 0.168061
Si Si7 0.581672 0.137877 0.841112
O O1 0.267006 0.381638 0.804892
O O2 0.374823 0.314047 0.742159
O O3 0.385429 0.436478 0.776395
O O4 0.362888 0.360808 0.000000
O O5 0.217881 0.500000 0.788314
O O6 0.136632 0.395776 0.755292
O O7 0.182552 0.425596 0.000000
O O8 0.404584 0.739530 0.500000
O O9 0.500000 0.727276 0.698746
O O10 0.395083 0.807877 0.730224
O O11 0.500000 0.500000 0.770409
O O12 0.422039 0.500000 0.000000
O O13 0.912589 0.399683 0.500000
O O14 0.923600 0.500000 0.667845
O O15 0.000000 0.399140 0.713023
O O16 0.387548 0.067765 0.209281
O O17 0.500000 0.000000 0.241161
O O18 0.433919 0.000000 0.000000
O O19 0.500000 0.131553 0.843879
O O20 0.607783 0.155807 0.000000
#
# Coordination Sequence:
#
# PCOD8193987 Si02
#       7
#     8   8   8   4   8   4   8
#     4  10  18  29  42  54  66  85 115 149 185 225
#     4   9  16  26  39  55  72  85 105 142 181 214
#     4  10  20  30  37  49  70  92 116 148 183 218
#     4   9  16  26  41  55  62  75 108 152 191 225
#     4   8  14  24  37  53  72  92 111 128 153 200
#     4   7  10  18  35  57  73  83 103 135 166 201
#     4   8  13  23  39  55  69  87 110 136 169 209
#
# _framework density 12.576359999999999
#
# number of rings (size 3 to 8) (size 9 to 14) (size 15 to 20)
#    0.000    3.167    0.833    2.500    0.000    2.667 
#    0.000    2.500    0.000    4.000    0.000    0.000 
#    0.000    0.000    0.000    0.000    0.000    0.000 
#
# Total GULP energy -594733.302160 kJ/mol
# GULP energy per Si atom -12390.277128 kJ/mol
# Density = 1.254774 g / cm^3
# Si number density = 12.576360 Si / 1000 Ang^3
#
#
#
# Elastic Constant Matrix: (Units=GPa)
#
#
# Indices 1 2 3 4 5 6 
#
# 1 71.5204 35.5627 39.7861 0.0000 0.0000 0.0000
# 2 35.5627 92.1572 43.0489 0.0000 0.0000 0.0000
# 3 39.7861 43.0489 58.7647 0.0000 0.0000 0.0000
# 4 0.0000 0.0000 0.0000 8.3402 0.0000 0.0000
# 5 0.0000 0.0000 0.0000 0.0000 18.3801 0.0000
# 6 0.0000 0.0000 0.0000 0.0000 0.0000 1.6210
#
#
#
# Elastic Compliance Matrix: (Units=1/GPa)
#
#
# Indices 1 2 3 4 5 6 
#
# 1 0.022777 -0.002411 -0.013655 0.000000 0.000000 0.000000
# 2 -0.002411 0.016751 -0.010639 0.000000 0.000000 0.000000
# 3 -0.013655 -0.010639 0.034055 0.000000 0.000000 0.000000
# 4 0.000000 0.000000 0.000000 0.119902 0.000000 0.000000
# 5 0.000000 0.000000 0.000000 0.000000 0.054407 0.000000
# 6 0.000000 0.000000 0.000000 0.000000 0.000000 0.616892
#
#
# Mechanical properties :
#
#
# Convention : Reuss Voigt Hill
#
# Bulk Modulus (GPa) = 49.56802 51.02641 50.29722
# Shear Modulus (GPa) = 5.40589 12.60456 9.00523
#
# Velocity S-wave (km/s) = 2.07552 3.16926 2.67880
# Velocity P-wave (km/s) = 6.72629 7.35212 7.04615
#
# Compressibility (1/GPa) = 0.02017430
#
# Stress axis : x y z
#
# Youngs Moduli (GPa) = 43.90431 59.69760 29.36387
#
# Poissons Ratio (x) = 0.14393 0.40095
# Poissons Ratio (y) = 0.10585 0.31240
# Poissons Ratio (z) = 0.59950 0.63512
#
# Static dielectric constant tensor:
#      x y z
#    x 2.502630 0.000000 0.000000 
#    y 0.000000 2.612470 0.000000 
#    z 0.000000 0.000000 2.504710 
# 
# 
# High freq. dielectric constant tensor:
#      x y z
#    x 1.445240 0.000000 0.000000 
#    y 0.000000 1.454670 0.000000 
#    z 0.000000 0.000000 1.469670 
# 
# From -- ./inp_files/11720.got.cif
#   From: 2010.03.12/outbox.cif.g09.slc.cpg/sg47_6_cif.got.tgz:11720.got - 2010.04.14 03:12:58.
