data_PCOD8193320
_publ_section_title
;
Structure prediction by ZEFSAII (Michael W. Deem and Ramdas Pophale) SiO2 
 PCOD8193320
Probable space group: I M A 2
;
_chemical_formula_sum "Si O2"
_cell_formula_units_Z 32
_cell_length_a 17.533819
_cell_length_b 7.545794
_cell_length_c 13.659683
_cell_angle_alpha 90.000000
_cell_angle_beta 90.000000
_cell_angle_gamma 90.000000
_cell_volume 1807.266026
_symmetry_space_group_name_H-M "I M A 2"
_symmetry_group_IT_number 46
_symmetry_cell_setting 'orthorhombic'
loop_
_space_group_symop_operation_xyz
x,y,z
-x,-y,z
1/2-x,y,z
1/2+x,-y,z
1/2+x,1/2+y,1/2+z
1/2-x,1/2-y,1/2+z
-x,1/2+y,1/2+z
x,1/2-y,1/2+z
loop_
_atom_site_type_symbol
_atom_site_label
_atom_site_fract_x
_atom_site_fract_y
_atom_site_fract_z
Si Si1 0.339174 0.027185 0.732640
Si Si2 0.595902 0.172938 0.567574
Si Si3 0.161264 0.510507 0.455514
Si Si4 0.576128 0.714443 0.076796
O O1 0.250000 0.067841 0.725385
O O2 0.360065 0.847772 0.671933
O O3 0.366100 0.001200 0.843692
O O4 0.385479 0.193318 0.684932
O O5 0.644431 0.292681 0.494185
O O6 0.513156 0.258906 0.587799
O O7 0.587696 0.974925 0.520881
O O8 0.250000 0.468088 0.465353
O O9 0.115432 0.369526 0.518026
#
# Coordination Sequence:
#
# PCOD8193320 Si02
#       4
#     8   8   8   8
#     4   9  19  37  56  81 112 141 181 226 268 321
#     4   9  20  37  56  81 111 143 181 226 268 319
#     4  11  21  35  60  83 108 147 179 222 278 321
#     4   9  20  37  56  81 111 143 181 226 268 319
#
# _framework density 17.706302999999998
#
# number of rings (size 3 to 8) (size 9 to 14) (size 15 to 20)
#    1.500    1.000    0.000    2.250    0.000    4.000 
#    4.500    0.000    0.000    0.000    0.000    0.000 
#    0.000    0.000    0.000    0.000    0.000    0.000 
#
# Total GULP energy -198248.918829 kJ/mol
# GULP energy per Si atom -12390.557427 kJ/mol
# Density = 1.766600 g / cm^3
# Si number density = 17.706303 Si / 1000 Ang^3
#
#
#
# Elastic Constant Matrix: (Units=GPa)
#
#
# Indices 1 2 3 4 5 6 
#
# 1 56.1330 -1.1454 14.0558 0.0000 0.0000 0.0000
# 2 -1.1454 50.9921 20.9326 0.0000 0.0000 0.0000
# 3 14.0558 20.9326 103.7756 0.0000 0.0000 0.0000
# 4 0.0000 0.0000 0.0000 32.7525 0.0000 0.0000
# 5 0.0000 0.0000 0.0000 0.0000 7.9886 0.0000
# 6 0.0000 0.0000 0.0000 0.0000 0.0000 32.2539
#
#
#
# Elastic Compliance Matrix: (Units=1/GPa)
#
#
# Indices 1 2 3 4 5 6 
#
# 1 0.018556 0.001579 -0.002832 0.000000 0.000000 0.000000
# 2 0.001579 0.021516 -0.004554 0.000000 0.000000 0.000000
# 3 -0.002832 -0.004554 0.010938 0.000000 0.000000 0.000000
# 4 0.000000 0.000000 0.000000 0.030532 0.000000 0.000000
# 5 0.000000 0.000000 0.000000 0.000000 0.125178 0.000000
# 6 0.000000 0.000000 0.000000 0.000000 0.000000 0.031004
#
#
# Mechanical properties :
#
#
# Convention : Reuss Voigt Hill
#
# Bulk Modulus (GPa) = 25.38242 30.95409 28.16826
# Shear Modulus (GPa) = 19.04983 26.40285 22.72634
#
# Velocity S-wave (km/s) = 3.28362 3.86574 3.58651
# Velocity P-wave (km/s) = 5.36121 6.11924 5.75273
#
# Compressibility (1/GPa) = 0.03939734
#
# Stress axis : x y z
#
# Youngs Moduli (GPa) = 53.89047 46.47760 91.42190
#
# Poissons Ratio (x) = -0.07340 0.25890
# Poissons Ratio (y) = -0.08511 0.41632
# Poissons Ratio (z) = 0.15261 0.21165
#
# Static dielectric constant tensor:
#      x y z
#    x 3.389740 0.000000 0.000000 
#    y 0.000000 3.060790 0.000000 
#    z 0.000000 0.000000 3.149260 
# 
# 
# High freq. dielectric constant tensor:
#      x y z
#    x 1.703040 0.000000 0.000000 
#    y 0.000000 1.668280 0.000000 
#    z 0.000000 0.000000 1.666450 
# 
# From -- ./inp_files/10793.got.cif
#   From: 2010.03.12/outbox.cif.g09.slc.cpg/sg46_6_cif.got.tgz:10793.got - 2010.04.14 02:56:35.
