data_PCOD8193205
_publ_section_title
;
Structure prediction by ZEFSAII (Michael W. Deem and Ramdas Pophale) SiO2 
 PCOD8193205
Probable space group: I M A 2
;
_chemical_formula_sum "Si O2"
_cell_formula_units_Z 36
_cell_length_a 21.650077
_cell_length_b 7.243812
_cell_length_c 9.005347
_cell_angle_alpha 90.000000
_cell_angle_beta 90.000000
_cell_angle_gamma 90.000000
_cell_volume 1412.300353
_symmetry_space_group_name_H-M "I M A 2"
_symmetry_group_IT_number 46
_symmetry_cell_setting 'orthorhombic'
loop_
_space_group_symop_operation_xyz
x,y,z
-x,-y,z
1/2-x,y,z
1/2+x,-y,z
1/2+x,1/2+y,1/2+z
1/2-x,1/2-y,1/2+z
-x,1/2+y,1/2+z
x,1/2-y,1/2+z
loop_
_atom_site_type_symbol
_atom_site_label
_atom_site_fract_x
_atom_site_fract_y
_atom_site_fract_z
Si Si1 0.110234 0.790201 0.340680
Si Si2 0.389700 0.076696 0.649003
Si Si3 0.500000 0.500000 0.975369
Si Si4 0.180150 0.210552 0.390031
Si Si5 0.181046 0.579967 0.579432
O O1 0.106213 0.613502 0.235398
O O2 0.139682 0.729515 0.495561
O O3 0.153641 0.938432 0.249108
O O4 0.041920 0.869182 0.371459
O O5 0.457392 0.127438 0.583693
O O6 0.348548 0.050047 0.496118
O O7 0.363045 0.240645 0.749371
O O8 0.250000 0.164713 0.334709
O O9 0.181136 0.386378 0.497887
O O10 0.250000 0.660628 0.591065
#
# Coordination Sequence:
#
# PCOD8193205 Si02
#       5
#     8   8   4   8   8
#     4  11  24  47  71 108 146 201 251 306 378 442
#     4  11  26  46  74 106 149 202 245 314 372 449
#     4  12  28  46  72 108 154 204 258 306 360 466
#     4  10  24  45  73 109 146 188 253 319 382 441
#     4  10  22  43  70 107 147 190 248 313 380 443
#
# _framework density 25.490328999999999
#
# number of rings (size 3 to 8) (size 9 to 14) (size 15 to 20)
#    0.000    1.333    2.222    1.333    6.222    2.667 
#    0.000    0.000    0.000    0.000    0.000    0.000 
#    0.000    0.000    0.000    0.000    0.000    0.000 
#
# Total GULP energy -223175.917226 kJ/mol
# GULP energy per Si atom -12398.662068 kJ/mol
# Density = 2.543231 g / cm^3
# Si number density = 25.490329 Si / 1000 Ang^3
#
#
#
# Elastic Constant Matrix: (Units=GPa)
#
#
# Indices 1 2 3 4 5 6 
#
# 1 213.0457 54.5668 90.3308 0.0000 0.0000 0.0000
# 2 54.5668 79.3136 38.1628 0.0000 0.0000 0.0000
# 3 90.3308 38.1628 188.1250 0.0000 0.0000 0.0000
# 4 0.0000 0.0000 0.0000 38.0156 0.0000 0.0000
# 5 0.0000 0.0000 0.0000 0.0000 61.5628 0.0000
# 6 0.0000 0.0000 0.0000 0.0000 0.0000 40.5767
#
#
#
# Elastic Compliance Matrix: (Units=1/GPa)
#
#
# Indices 1 2 3 4 5 6 
#
# 1 0.006609 -0.003346 -0.002494 0.000000 0.000000 0.000000
# 2 -0.003346 0.015667 -0.001571 0.000000 0.000000 0.000000
# 3 -0.002494 -0.001571 0.006832 0.000000 0.000000 0.000000
# 4 0.000000 0.000000 0.000000 0.026305 0.000000 0.000000
# 5 0.000000 0.000000 0.000000 0.000000 0.016244 0.000000
# 6 0.000000 0.000000 0.000000 0.000000 0.000000 0.024645
#
#
# Mechanical properties :
#
#
# Convention : Reuss Voigt Hill
#
# Bulk Modulus (GPa) = 70.01291 94.06723 82.04007
# Shear Modulus (GPa) = 43.14609 47.85927 45.50268
#
# Velocity S-wave (km/s) = 4.11864 4.33777 4.22962
# Velocity P-wave (km/s) = 7.08122 7.87855 7.49050
#
# Compressibility (1/GPa) = 0.01428308
#
# Stress axis : x y z
#
# Youngs Moduli (GPa) = 151.31980 63.83042 146.36917
#
# Poissons Ratio (x) = 0.21360 0.36509
# Poissons Ratio (y) = 0.50638 0.22998
# Poissons Ratio (z) = 0.37744 0.10029
#
# Static dielectric constant tensor:
#      x y z
#    x 4.658660 0.000000 0.000000 
#    y 0.000000 4.732270 0.000000 
#    z 0.000000 0.000000 5.190900 
# 
# 
# High freq. dielectric constant tensor:
#      x y z
#    x 2.008540 0.000000 0.000000 
#    y 0.000000 2.043530 0.000000 
#    z 0.000000 0.000000 2.064110 
# 
# From -- ./inp_files/7169.got.cif
#   From: 2010.03.12/outbox.cif.g09.slc.cpg/sg46_4_cif.got.tgz:7169.got - 2010.04.14 02:56:35.
