data_PCOD8193726
_publ_section_title
;
Structure prediction by ZEFSAII (Michael W. Deem and Ramdas Pophale) SiO2 
 PCOD8193726
Probable space group: P M M M
;
_chemical_formula_sum "Si O2"
_cell_formula_units_Z 48
_cell_length_a 9.169446
_cell_length_b 19.917788
_cell_length_c 20.718797
_cell_angle_alpha 90.000000
_cell_angle_beta 90.000000
_cell_angle_gamma 90.000000
_cell_volume 3783.979179
_symmetry_space_group_name_H-M "P M M M"
_symmetry_group_IT_number 47
_symmetry_cell_setting 'orthorhombic'
loop_
_space_group_symop_operation_xyz
x,y,z
-x,-y,z
x,-y,-z
-x,y,-z
-x,-y,-z
x,y,-z
-x,y,z
x,-y,z
loop_
_atom_site_type_symbol
_atom_site_label
_atom_site_fract_x
_atom_site_fract_y
_atom_site_fract_z
Si Si1 0.172069 0.841642 0.122389
Si Si2 0.673894 0.284112 0.925799
Si Si3 0.830292 0.922611 0.248988
Si Si4 0.335499 0.079885 0.375549
Si Si5 0.826678 0.074978 0.000000
Si Si6 0.663273 0.429006 0.076586
Si Si7 0.835042 0.080124 0.500000
O O1 0.251254 0.770021 0.120452
O O2 0.216864 0.878572 0.187991
O O3 0.000000 0.830279 0.117620
O O4 0.229970 0.886863 0.063374
O O5 0.500000 0.280775 0.918989
O O6 0.733758 0.357809 0.901636
O O7 0.720448 0.270618 0.000000
O O8 0.740841 0.895149 0.310090
O O9 0.000000 0.914537 0.265176
O O10 0.792941 0.000000 0.233448
O O11 0.500000 0.107821 0.378000
O O12 0.247291 0.108290 0.436885
O O13 0.334426 0.000000 0.377686
O O14 0.000000 0.071283 0.000000
O O15 0.760791 0.000000 0.000000
O O16 0.500000 0.431799 0.104399
O O17 0.742746 0.500000 0.097998
O O18 0.656126 0.426031 0.000000
O O19 0.000000 0.107554 0.500000
O O20 0.834418 0.000000 0.500000
#
# Coordination Sequence:
#
# PCOD8193726 Si02
#       7
#     8   8   8   8   4   8   4
#     4  10  18  27  39  52  65  85 113 147 183 218
#     4   9  16  25  37  52  69  86 105 135 174 213
#     4   9  17  28  39  50  64  85 116 150 180 211
#     4   9  16  25  37  53  71  89 108 134 171 211
#     4   9  16  26  39  51  60  77 112 152 185 217
#     4   7  10  18  33  51  67  83 104 128 156 196
#     4   9  15  23  37  55  73  91 109 131 160 199
#
# _framework density 12.68506
#
# number of rings (size 3 to 8) (size 9 to 14) (size 15 to 20)
#    0.000    3.167    0.833    2.750    0.000    5.667 
#    0.000    0.000    0.000    2.500    0.000    2.333 
#    0.000    0.000    0.000    0.000    0.000    0.000 
#
# Total GULP energy -594705.831412 kJ/mol
# GULP energy per Si atom -12389.704821 kJ/mol
# Density = 1.265619 g / cm^3
# Si number density = 12.685060 Si / 1000 Ang^3
#
#
#
# Elastic Constant Matrix: (Units=GPa)
#
#
# Indices 1 2 3 4 5 6 
#
# 1 47.7142 26.2304 40.3589 0.0000 0.0000 0.0000
# 2 26.2304 90.6353 40.3840 0.0000 0.0000 0.0000
# 3 40.3589 40.3840 93.1207 0.0000 0.0000 0.0000
# 4 0.0000 0.0000 0.0000 3.3159 0.0000 0.0000
# 5 0.0000 0.0000 0.0000 0.0000 16.2717 0.0000
# 6 0.0000 0.0000 0.0000 0.0000 0.0000 10.8426
#
#
#
# Elastic Compliance Matrix: (Units=1/GPa)
#
#
# Indices 1 2 3 4 5 6 
#
# 1 0.034269 -0.004090 -0.013078 0.000000 0.000000 0.000000
# 2 -0.004090 0.014164 -0.004370 0.000000 0.000000 0.000000
# 3 -0.013078 -0.004370 0.018302 0.000000 0.000000 0.000000
# 4 0.000000 0.000000 0.000000 0.301575 0.000000 0.000000
# 5 0.000000 0.000000 0.000000 0.000000 0.061456 0.000000
# 6 0.000000 0.000000 0.000000 0.000000 0.000000 0.092229
#
#
# Mechanical properties :
#
#
# Convention : Reuss Voigt Hill
#
# Bulk Modulus (GPa) = 42.26906 49.49075 45.87990
# Shear Modulus (GPa) = 8.72663 14.38584 11.55624
#
# Velocity S-wave (km/s) = 2.62572 3.37126 3.02157
# Velocity P-wave (km/s) = 6.52586 7.36570 6.95846
#
# Compressibility (1/GPa) = 0.02365797
#
# Stress axis : x y z
#
# Youngs Moduli (GPa) = 29.18079 70.60135 54.63859
#
# Poissons Ratio (x) = 0.28878 0.71459
# Poissons Ratio (y) = 0.11936 0.23876
# Poissons Ratio (z) = 0.38164 0.30851
#
# Static dielectric constant tensor:
#      x y z
#    x 2.447950 0.000000 0.000000 
#    y 0.000000 2.643090 0.000000 
#    z 0.000000 0.000000 2.451740 
# 
# 
# High freq. dielectric constant tensor:
#      x y z
#    x 1.468610 0.000000 0.000000 
#    y 0.000000 1.455410 0.000000 
#    z 0.000000 0.000000 1.455170 
# 
# From -- ./inp_files/11717.got.cif
#   From: 2010.03.12/outbox.cif.g09.slc.cpg/sg47_6_cif.got.tgz:11717.got - 2010.04.14 03:12:58.
