data_PCOD8193677
_publ_section_title
;
Structure prediction by ZEFSAII (Michael W. Deem and Ramdas Pophale) SiO2 
 PCOD8193677
Probable space group: P M M M
;
_chemical_formula_sum "Si O2"
_cell_formula_units_Z 52
_cell_length_a 11.776380
_cell_length_b 28.527434
_cell_length_c 9.125598
_cell_angle_alpha 90.000000
_cell_angle_beta 90.000000
_cell_angle_gamma 90.000000
_cell_volume 3065.743765
_symmetry_space_group_name_H-M "P M M M"
_symmetry_group_IT_number 47
_symmetry_cell_setting 'orthorhombic'
loop_
_space_group_symop_operation_xyz
x,y,z
-x,-y,z
x,-y,-z
-x,y,-z
-x,-y,-z
x,y,-z
-x,y,z
x,-y,z
loop_
_atom_site_type_symbol
_atom_site_label
_atom_site_fract_x
_atom_site_fract_y
_atom_site_fract_z
Si Si1 0.124413 0.500000 0.825894
Si Si2 0.131076 0.140292 0.328256
Si Si3 0.864591 0.600227 0.835899
Si Si4 0.500000 0.095874 0.674081
Si Si5 0.253918 0.224116 0.169801
Si Si6 0.500000 0.192306 0.834131
Si Si7 0.132350 0.308352 0.328841
Si Si8 0.268665 0.051690 0.326613
O O1 0.185979 0.450658 0.781727
O O2 0.000000 0.500000 0.752075
O O3 0.111537 0.500000 0.000000
O O4 0.153189 0.149271 0.500000
O O5 0.203116 0.176964 0.236845
O O6 0.170094 0.088065 0.281750
O O7 0.000000 0.146077 0.287951
O O8 0.824331 0.641087 0.727138
O O9 0.000000 0.595898 0.836391
O O10 0.821439 0.612227 0.000000
O O11 0.500000 0.096554 0.500000
O O12 0.500000 0.149211 0.724304
O O13 0.610654 0.069343 0.736176
O O14 0.389455 0.224304 0.193306
O O15 0.204186 0.268928 0.249792
O O16 0.220211 0.226443 0.000000
O O17 0.500000 0.172622 0.000000
O O18 0.155499 0.305098 0.500000
O O19 0.000000 0.300723 0.291489
O O20 0.277338 0.048443 0.500000
O O21 0.240700 0.000000 0.261829
#
# Coordination Sequence:
#
# PCOD8193677 Si02
#       8
#     4   8   8   4   8   4   8   8
#     4   7  10  18  35  59  87 122 165 206 235 267
#     4  10  20  33  50  73  99 126 157 191 226 270
#     4   8  13  23  40  62  90 127 168 203 236 274
#     4  10  17  30  54  76  94 120 155 191 231 280
#     4  11  22  36  53  70  91 120 155 194 240 289
#     4  10  22  37  53  73  94 115 147 196 243 284
#     4  10  20  32  46  68  99 130 161 198 236 277
#     4   9  17  29  48  75 101 123 152 191 230 271
#
# _framework density 16.961627
#
# number of rings (size 3 to 8) (size 9 to 14) (size 15 to 20)
#    0.000    2.538    1.538    2.538    0.000    4.923 
#    0.000    1.923    0.000    4.615    0.000    1.077 
#    0.000    0.615    0.000    7.077    0.000    4.923 
#
# Total GULP energy -644498.755005 kJ/mol
# GULP energy per Si atom -12394.206827 kJ/mol
# Density = 1.692302 g / cm^3
# Si number density = 16.961627 Si / 1000 Ang^3
#
#
#
# Elastic Constant Matrix: (Units=GPa)
#
#
# Indices 1 2 3 4 5 6 
#
# 1 77.6047 47.8629 38.4218 0.0000 0.0000 0.0000
# 2 47.8629 155.5822 54.5920 0.0000 0.0000 0.0000
# 3 38.4218 54.5920 60.7612 0.0000 0.0000 0.0000
# 4 0.0000 0.0000 0.0000 28.5644 0.0000 0.0000
# 5 0.0000 0.0000 0.0000 0.0000 16.3923 0.0000
# 6 0.0000 0.0000 0.0000 0.0000 0.0000 2.5622
#
#
#
# Elastic Compliance Matrix: (Units=1/GPa)
#
#
# Indices 1 2 3 4 5 6 
#
# 1 0.019366 -0.002425 -0.010067 0.000000 0.000000 0.000000
# 2 -0.002425 0.009691 -0.007173 0.000000 0.000000 0.000000
# 3 -0.010067 -0.007173 0.029268 0.000000 0.000000 0.000000
# 4 0.000000 0.000000 0.000000 0.035009 0.000000 0.000000
# 5 0.000000 0.000000 0.000000 0.000000 0.061004 0.000000
# 6 0.000000 0.000000 0.000000 0.000000 0.000000 0.390292
#
#
# Mechanical properties :
#
#
# Convention : Reuss Voigt Hill
#
# Bulk Modulus (GPa) = 52.64710 63.96684 58.30697
# Shear Modulus (GPa) = 8.47041 19.70853 14.08947
#
# Velocity S-wave (km/s) = 2.23712 3.41243 2.88526
# Velocity P-wave (km/s) = 6.14648 7.30211 6.74908
#
# Compressibility (1/GPa) = 0.01899440
#
# Stress axis : x y z
#
# Youngs Moduli (GPa) = 51.63804 103.19381 34.16689
#
# Poissons Ratio (x) = 0.25028 0.34394
# Poissons Ratio (y) = 0.12524 0.24508
# Poissons Ratio (z) = 0.51982 0.74021
#
# Static dielectric constant tensor:
#      x y z
#    x 3.034430 0.000000 0.000000 
#    y 0.000000 3.592370 0.000000 
#    z 0.000000 0.000000 3.022430 
# 
# 
# High freq. dielectric constant tensor:
#      x y z
#    x 1.619620 0.000000 0.000000 
#    y 0.000000 1.668450 0.000000 
#    z 0.000000 0.000000 1.633120 
# 
# From -- ./inp_files/4615.got.cif
#   From: 2010.03.12/outbox.cif.g09.slc.cpg/sg47_3_cif.got.tgz:4615.got - 2010.04.14 03:12:58.
