data_PCOD8193595
_publ_section_title
;
Structure prediction by ZEFSAII (Michael W. Deem and Ramdas Pophale) SiO2 
 PCOD8193595
Probable space group: P M M M
;
_chemical_formula_sum "Si O2"
_cell_formula_units_Z 64
_cell_length_a 19.809624
_cell_length_b 20.444361
_cell_length_c 8.744549
_cell_angle_alpha 90.000000
_cell_angle_beta 90.000000
_cell_angle_gamma 90.000000
_cell_volume 3541.499535
_symmetry_space_group_name_H-M "P M M M"
_symmetry_group_IT_number 47
_symmetry_cell_setting 'orthorhombic'
loop_
_space_group_symop_operation_xyz
x,y,z
-x,-y,z
x,-y,-z
-x,y,-z
-x,-y,-z
x,y,-z
-x,y,z
x,-y,z
loop_
_atom_site_type_symbol
_atom_site_label
_atom_site_fract_x
_atom_site_fract_y
_atom_site_fract_z
Si Si1 0.075183 0.073521 0.680684
Si Si2 0.739153 0.606402 0.323713
Si Si3 0.393040 0.572070 0.177546
Si Si4 0.110532 0.569602 0.322741
Si Si5 0.290270 0.259899 0.821101
Si Si6 0.924384 0.708815 0.324066
Si Si7 0.425364 0.293507 0.321771
Si Si8 0.836445 0.817586 0.176167
O O1 0.075091 0.075946 0.500000
O O2 0.135598 0.119702 0.735673
O O3 0.000000 0.095163 0.738987
O O4 0.090323 0.000000 0.738529
O O5 0.716256 0.602609 0.500000
O O6 0.685913 0.568909 0.218043
O O7 0.809727 0.571809 0.297494
O O8 0.743770 0.682016 0.274471
O O9 0.424390 0.500000 0.213860
O O10 0.426811 0.630013 0.274404
O O11 0.402964 0.588891 0.000000
O O12 0.091765 0.568511 0.500000
O O13 0.084981 0.500000 0.250172
O O14 0.076450 0.634899 0.254115
O O15 0.368326 0.251291 0.767419
O O16 0.243586 0.195536 0.790587
O O17 0.289907 0.277448 0.000000
O O18 0.897969 0.709077 0.500000
O O19 0.877160 0.753141 0.221675
O O20 0.000000 0.736741 0.316198
O O21 0.408620 0.289167 0.500000
O O22 0.500000 0.264401 0.286495
O O23 0.848893 0.831651 0.000000
#
# Coordination Sequence:
#
# PCOD8193595 Si02
#       8
#     8   8   8   8   8   8   8   8
#     4   9  19  36  57  82 113 148 183 215 249 294
#     4  10  17  28  47  66  87 116 153 204 259 305
#     4  10  20  31  44  64  90 120 154 193 244 311
#     4   9  17  28  43  64  87 113 153 208 265 313
#     4  10  20  33  50  72  98 128 164 203 246 298
#     4  10  20  33  49  68  92 126 168 213 261 310
#     4  10  21  35  51  71  94 122 158 204 256 305
#     4  11  22  34  52  78 107 137 172 212 250 294
#
# _framework density 18.071439999999999
#
# number of rings (size 3 to 8) (size 9 to 14) (size 15 to 20)
#    0.000    2.125    1.250    4.500    0.000    6.750 
#    0.000    3.125    0.000    1.125    0.000    0.875 
#    0.000    0.500    0.000    5.500    0.000    4.000 
#
# Total GULP energy -793017.315679 kJ/mol
# GULP energy per Si atom -12390.895557 kJ/mol
# Density = 1.803031 g / cm^3
# Si number density = 18.071440 Si / 1000 Ang^3
#
#
#
# Elastic Constant Matrix: (Units=GPa)
#
#
# Indices 1 2 3 4 5 6 
#
# 1 94.4287 42.9319 23.5693 0.0000 0.0000 0.0000
# 2 42.9319 83.6319 14.6364 0.0000 0.0000 0.0000
# 3 23.5693 14.6364 40.1094 0.0000 0.0000 0.0000
# 4 0.0000 0.0000 0.0000 14.0693 0.0000 0.0000
# 5 0.0000 0.0000 0.0000 0.0000 17.9537 0.0000
# 6 0.0000 0.0000 0.0000 0.0000 0.0000 8.4940
#
#
#
# Elastic Compliance Matrix: (Units=1/GPa)
#
#
# Indices 1 2 3 4 5 6 
#
# 1 0.015262 -0.006692 -0.006526 0.000000 0.000000 0.000000
# 2 -0.006692 0.015707 -0.001799 0.000000 0.000000 0.000000
# 3 -0.006526 -0.001799 0.029423 0.000000 0.000000 0.000000
# 4 0.000000 0.000000 0.000000 0.071077 0.000000 0.000000
# 5 0.000000 0.000000 0.000000 0.000000 0.055699 0.000000
# 6 0.000000 0.000000 0.000000 0.000000 0.000000 0.117730
#
#
# Mechanical properties :
#
#
# Convention : Reuss Voigt Hill
#
# Bulk Modulus (GPa) = 32.94117 42.27169 37.60643
# Shear Modulus (GPa) = 14.49056 17.23890 15.86473
#
# Velocity S-wave (km/s) = 2.83477 3.09193 2.96614
# Velocity P-wave (km/s) = 5.38353 6.01572 5.70838
#
# Compressibility (1/GPa) = 0.03035715
#
# Stress axis : x y z
#
# Youngs Moduli (GPa) = 65.52433 63.66387 33.98679
#
# Poissons Ratio (x) = 0.42606 0.22180
# Poissons Ratio (y) = 0.43851 0.06115
# Poissons Ratio (z) = 0.42761 0.11455
#
# Static dielectric constant tensor:
#      x y z
#    x 3.464590 0.000000 0.000000 
#    y 0.000000 3.082490 0.000000 
#    z 0.000000 0.000000 3.227900 
# 
# 
# High freq. dielectric constant tensor:
#      x y z
#    x 1.699960 0.000000 0.000000 
#    y 0.000000 1.663640 0.000000 
#    z 0.000000 0.000000 1.689770 
# 
# From -- ./inp_files/11856.got.cif
#   From: 2010.03.12/outbox.cif.g09.slc.cpg/sg47_6_cif.got.tgz:11856.got - 2010.04.14 03:12:58.
