data_PCOD8193450
_publ_section_title
;
Structure prediction by ZEFSAII (Michael W. Deem and Ramdas Pophale) SiO2 
 PCOD8193450
Probable space group: P M M M
;
_chemical_formula_sum "Si O2"
_cell_formula_units_Z 32
_cell_length_a 7.735341
_cell_length_b 17.173923
_cell_length_c 14.454402
_cell_angle_alpha 90.000000
_cell_angle_beta 90.000000
_cell_angle_gamma 90.000000
_cell_volume 1920.211667
_symmetry_space_group_name_H-M "P M M M"
_symmetry_group_IT_number 47
_symmetry_cell_setting 'orthorhombic'
loop_
_space_group_symop_operation_xyz
x,y,z
-x,-y,z
x,-y,-z
-x,y,-z
-x,-y,-z
x,y,-z
-x,y,z
x,-y,z
loop_
_atom_site_type_symbol
_atom_site_label
_atom_site_fract_x
_atom_site_fract_y
_atom_site_fract_z
Si Si1 0.000000 0.086594 0.890376
Si Si2 0.204983 0.587215 0.601113
Si Si3 0.306402 0.804249 0.893963
Si Si4 0.205098 0.347064 0.790398
Si Si5 0.794764 0.500000 0.103616
O O1 0.828354 0.131649 0.856318
O O2 0.000000 0.000000 0.846519
O O3 0.000000 0.079960 0.000000
O O4 0.266450 0.618668 0.500000
O O5 0.278585 0.500000 0.616893
O O6 0.266466 0.644130 0.683380
O O7 0.000000 0.582150 0.604402
O O8 0.500000 0.839045 0.886773
O O9 0.297818 0.727542 0.832107
O O10 0.261045 0.781944 0.000000
O O11 0.271829 0.423117 0.844556
O O12 0.000000 0.336832 0.800045
O O13 0.000000 0.500000 0.103157
O O14 0.719455 0.500000 0.000000
#
# Coordination Sequence:
#
# PCOD8193450 Si02
#       5
#     4   8   8   8   4
#     4   9  18  34  54  73  94 123 156 189 230 283
#     4   8  13  22  38  62  89 118 161 210 247 280
#     4  10  20  32  47  70  99 128 157 193 234 276
#     4  10  16  26  43  63  90 127 165 199 239 279
#     4   9  16  22  34  58  84 120 169 205 228 266
#
# _framework density 16.664831
#
# number of rings (size 3 to 8) (size 9 to 14) (size 15 to 20)
#    0.000    2.750    2.500    1.500    0.000    1.500 
#    0.000    3.125    0.000    3.000    0.000    1.750 
#    0.000    2.000    0.000    2.250    0.000    0.250 
#
# Total GULP energy -396618.514419 kJ/mol
# GULP energy per Si atom -12394.328576 kJ/mol
# Density = 1.662690 g / cm^3
# Si number density = 16.664831 Si / 1000 Ang^3
#
#
#
# Elastic Constant Matrix: (Units=GPa)
#
#
# Indices 1 2 3 4 5 6 
#
# 1 67.3703 39.1138 22.5639 0.0000 0.0000 0.0000
# 2 39.1138 114.5026 45.6750 0.0000 0.0000 0.0000
# 3 22.5639 45.6750 107.4253 0.0000 0.0000 0.0000
# 4 0.0000 0.0000 0.0000 6.8658 0.0000 0.0000
# 5 0.0000 0.0000 0.0000 0.0000 6.8332 0.0000
# 6 0.0000 0.0000 0.0000 0.0000 0.0000 1.1148
#
#
#
# Elastic Compliance Matrix: (Units=1/GPa)
#
#
# Indices 1 2 3 4 5 6 
#
# 1 0.018704 -0.005807 -0.001460 0.000000 0.000000 0.000000
# 2 -0.005807 0.012320 -0.004019 0.000000 0.000000 0.000000
# 3 -0.001460 -0.004019 0.011324 0.000000 0.000000 0.000000
# 4 0.000000 0.000000 0.000000 0.145649 0.000000 0.000000
# 5 0.000000 0.000000 0.000000 0.000000 0.146344 0.000000
# 6 0.000000 0.000000 0.000000 0.000000 0.000000 0.897018
#
#
# Mechanical properties :
#
#
# Convention : Reuss Voigt Hill
#
# Bulk Modulus (GPa) = 50.56232 56.00041 53.28136
# Shear Modulus (GPa) = 3.96661 15.09246 9.52954
#
# Velocity S-wave (km/s) = 1.54447 3.01266 2.39390
# Velocity P-wave (km/s) = 5.79544 6.76597 6.29943
#
# Compressibility (1/GPa) = 0.01977757
#
# Stress axis : x y z
#
# Youngs Moduli (GPa) = 53.46585 81.16869 88.30828
#
# Poissons Ratio (x) = 0.47133 0.12889
# Poissons Ratio (y) = 0.31047 0.35487
# Poissons Ratio (z) = 0.07804 0.32618
#
# Static dielectric constant tensor:
#      x y z
#    x 2.940000 0.000000 0.000000 
#    y 0.000000 2.988030 0.000000 
#    z 0.000000 0.000000 3.334500 
# 
# 
# High freq. dielectric constant tensor:
#      x y z
#    x 1.630850 0.000000 0.000000 
#    y 0.000000 1.606530 0.000000 
#    z 0.000000 0.000000 1.625980 
# 
# From -- ./inp_files/5369.got.cif
#   From: 2010.03.12/outbox.cif.g09.slc.cpg/sg47_3_cif.got.tgz:5369.got - 2010.04.14 03:12:58.
