data_PCOD8193047
_publ_section_title
;
Structure prediction by ZEFSAII (Michael W. Deem and Ramdas Pophale) SiO2 
 PCOD8193047
Probable space group: I M A 2
;
_chemical_formula_sum "Si O2"
_cell_formula_units_Z 48
_cell_length_a 13.225462
_cell_length_b 20.196900
_cell_length_c 8.592281
_cell_angle_alpha 90.000000
_cell_angle_beta 90.000000
_cell_angle_gamma 90.000000
_cell_volume 2295.112820
_symmetry_space_group_name_H-M "I M A 2"
_symmetry_group_IT_number 46
_symmetry_cell_setting 'orthorhombic'
loop_
_space_group_symop_operation_xyz
x,y,z
-x,-y,z
1/2-x,y,z
1/2+x,-y,z
1/2+x,1/2+y,1/2+z
1/2-x,1/2-y,1/2+z
-x,1/2+y,1/2+z
x,1/2-y,1/2+z
loop_
_atom_site_type_symbol
_atom_site_label
_atom_site_fract_x
_atom_site_fract_y
_atom_site_fract_z
Si Si1 0.439863 0.413063 0.097230
Si Si2 0.868441 0.710344 0.929977
Si Si3 0.863365 0.456209 0.957127
Si Si4 0.055264 0.335845 0.599161
Si Si5 0.866276 0.545580 0.423469
Si Si6 0.864968 0.416204 0.604772
O O1 0.433317 0.433014 0.276909
O O2 0.388455 0.342217 0.067694
O O3 0.558927 0.410471 0.053881
O O4 0.383865 0.466647 0.989575
O O5 0.750000 0.721571 0.905060
O O6 0.919242 0.685737 0.772736
O O7 0.919232 0.779302 0.975611
O O8 0.750000 0.437101 0.010230
O O9 0.878254 0.446569 0.774943
O O10 0.119535 0.401535 0.561670
O O11 0.936061 0.352313 0.584430
O O12 0.750000 0.544056 0.371641
O O13 0.899256 0.473014 0.483255
O O14 0.750000 0.393530 0.574631
#
# Coordination Sequence:
#
# PCOD8193047 Si02
#       6
#     8   8   8   8   8   8
#     4  11  23  39  64 102 133 171 209 266 325 390
#     4  12  24  42  66  93 132 171 215 267 323 393
#     4  10  21  40  65  95 131 170 213 262 322 382
#     4  12  25  43  64  96 126 176 219 266 324 390
#     4  11  23  40  66  99 135 171 215 271 327 385
#     4  10  23  44  68  95 131 173 218 267 322 384
#
# _framework density 20.914005
#
# number of rings (size 3 to 8) (size 9 to 14) (size 15 to 20)
#    0.000    1.000    1.667    5.500    7.000    1.333 
#    0.000    1.667    0.000    0.000    0.000    0.000 
#    0.000    0.000    0.000    0.000    0.000    0.000 
#
# Total GULP energy -297730.417802 kJ/mol
# GULP energy per Si atom -12405.434075 kJ/mol
# Density = 2.086640 g / cm^3
# Si number density = 20.914005 Si / 1000 Ang^3
#
#
#
# Elastic Constant Matrix: (Units=GPa)
#
#
# Indices 1 2 3 4 5 6 
#
# 1 151.5740 65.6760 65.0427 0.0001 0.0000 0.0000
# 2 65.6760 115.9541 38.2989 0.0000 0.0000 0.0000
# 3 65.0427 38.2989 110.9957 -0.0002 -0.0001 0.0001
# 4 0.0001 0.0000 -0.0002 38.0448 0.0000 0.0000
# 5 0.0000 0.0000 -0.0001 0.0000 31.6109 0.0000
# 6 0.0000 0.0000 0.0001 0.0000 0.0000 34.8587
#
#
#
# Elastic Compliance Matrix: (Units=1/GPa)
#
#
# Indices 1 2 3 4 5 6 
#
# 1 0.010497 -0.004417 -0.004627 0.000000 0.000000 0.000000
# 2 -0.004417 0.011592 -0.001411 0.000000 0.000000 0.000000
# 3 -0.004627 -0.001411 0.012208 0.000000 0.000000 0.000000
# 4 0.000000 0.000000 0.000000 0.026285 0.000000 0.000000
# 5 0.000000 0.000000 0.000000 0.000000 0.031635 0.000000
# 6 0.000000 0.000000 0.000000 0.000000 0.000000 0.028687
#
#
# Mechanical properties :
#
#
# Convention : Reuss Voigt Hill
#
# Bulk Modulus (GPa) = 74.70676 79.61767 77.16221
# Shear Modulus (GPa) = 34.18186 34.86995 34.52590
#
# Velocity S-wave (km/s) = 4.04716 4.08769 4.06747
# Velocity P-wave (km/s) = 7.59196 7.77372 7.68337
#
# Compressibility (1/GPa) = 0.01338567
#
# Stress axis : x y z
#
# Youngs Moduli (GPa) = 95.26671 86.26539 81.91524
#
# Poissons Ratio (x) = 0.38104 0.37902
# Poissons Ratio (y) = 0.42080 0.11562
# Poissons Ratio (z) = 0.44080 0.12176
#
# Static dielectric constant tensor:
#      x y z
#    x 4.058290 0.000000 0.000000 
#    y 0.000000 3.779810 0.000000 
#    z 0.000000 0.000000 3.767380 
# 
# 
# High freq. dielectric constant tensor:
#      x y z
#    x 1.832310 0.000000 0.000000 
#    y 0.000000 1.801520 0.000000 
#    z 0.000000 0.000000 1.830110 
# 
# From -- ./inp_files/5705.got.cif
#   From: 2010.03.12/outbox.cif.g09.slc.cpg/sg46_3_cif.got.tgz:5705.got - 2010.04.14 02:56:35.
