data_PCOD8193916
_publ_section_title
;
Structure prediction by ZEFSAII (Michael W. Deem and Ramdas Pophale) SiO2 
 PCOD8193916
Probable space group: P M M M
;
_chemical_formula_sum "Si O2"
_cell_formula_units_Z 52
_cell_length_a 9.407619
_cell_length_b 23.510956
_cell_length_c 14.263603
_cell_angle_alpha 90.000000
_cell_angle_beta 90.000000
_cell_angle_gamma 90.000000
_cell_volume 3154.853899
_symmetry_space_group_name_H-M "P M M M"
_symmetry_group_IT_number 47
_symmetry_cell_setting 'orthorhombic'
loop_
_space_group_symop_operation_xyz
x,y,z
-x,-y,z
x,-y,-z
-x,y,-z
-x,-y,-z
x,y,-z
-x,y,z
x,-y,z
loop_
_atom_site_type_symbol
_atom_site_label
_atom_site_fract_x
_atom_site_fract_y
_atom_site_fract_z
Si Si1 0.665453 0.340165 0.103718
Si Si2 0.168742 0.062457 0.605397
Si Si3 0.332932 0.612036 0.294745
Si Si4 0.335585 0.273173 0.610224
Si Si5 0.330151 0.500000 0.393060
Si Si6 0.833446 0.173116 0.293237
Si Si7 0.163453 0.227054 0.896063
O O1 0.500000 0.325140 0.108766
O O2 0.704527 0.386497 0.183352
O O3 0.745355 0.282247 0.127231
O O4 0.706817 0.363630 0.000000
O O5 0.222384 0.075917 0.500000
O O6 0.225360 0.111266 0.675479
O O7 0.000000 0.061505 0.606663
O O8 0.225673 0.000000 0.637125
O O9 0.500000 0.609755 0.311889
O O10 0.274060 0.668842 0.344380
O O11 0.265937 0.555519 0.340845
O O12 0.315039 0.278091 0.500000
O O13 0.500000 0.264023 0.637826
O O14 0.246276 0.220693 0.647890
O O15 0.500000 0.500000 0.388462
O O16 0.276952 0.500000 0.500000
O O17 0.802786 0.179331 0.181941
O O18 0.000000 0.179137 0.315765
O O19 0.000000 0.245996 0.890614
O O20 0.200030 0.202883 0.000000
#
# Coordination Sequence:
#
# PCOD8193916 Si02
#       7
#     8   8   8   8   4   8   8
#     4   9  16  27  44  64  86 112 141 176 219 264
#     4   8  14  25  41  61  85 113 145 179 212 250
#     4   9  16  27  41  60  86 114 145 179 212 255
#     4  10  19  29  42  63  91 117 140 176 224 263
#     4   9  16  26  41  59  82 117 153 177 206 258
#     4  10  18  28  45  67  88 112 146 183 217 255
#     4   9  17  28  42  63  90 116 142 175 217 262
#
# _framework density 16.482538999999999
#
# number of rings (size 3 to 8) (size 9 to 14) (size 15 to 20)
#    0.000    2.846    1.538    1.385    0.000    2.769 
#    0.000    0.385    0.000    3.231    0.000    7.538 
#    0.000    6.154    0.000    5.231    0.000    5.692 
#
# Total GULP energy -644452.044480 kJ/mol
# GULP energy per Si atom -12393.308548 kJ/mol
# Density = 1.644502 g / cm^3
# Si number density = 16.482539 Si / 1000 Ang^3
#
#
#
# Elastic Constant Matrix: (Units=GPa)
#
#
# Indices 1 2 3 4 5 6 
#
# 1 19.9645 22.5974 23.4033 0.0000 0.0000 0.0000
# 2 22.5974 143.4899 85.2266 0.0000 0.0000 0.0000
# 3 23.4033 85.2266 134.3124 0.0000 0.0000 0.0000
# 4 0.0000 0.0000 0.0000 28.6665 0.0000 0.0000
# 5 0.0000 0.0000 0.0000 0.0000 16.4114 0.0000
# 6 0.0000 0.0000 0.0000 0.0000 0.0000 16.1479
#
#
#
# Elastic Compliance Matrix: (Units=1/GPa)
#
#
# Indices 1 2 3 4 5 6 
#
# 1 0.065723 -0.005695 -0.007838 0.000000 0.000000 0.000000
# 2 -0.005695 0.011678 -0.006418 0.000000 0.000000 0.000000
# 3 -0.007838 -0.006418 0.012883 0.000000 0.000000 0.000000
# 4 0.000000 0.000000 0.000000 0.034884 0.000000 0.000000
# 5 0.000000 0.000000 0.000000 0.000000 0.060933 0.000000
# 6 0.000000 0.000000 0.000000 0.000000 0.000000 0.061928
#
#
# Mechanical properties :
#
#
# Convention : Reuss Voigt Hill
#
# Bulk Modulus (GPa) = 19.84811 62.24681 41.04746
# Shear Modulus (GPa) = 16.40823 23.34780 19.87801
#
# Velocity S-wave (km/s) = 3.15856 3.76775 3.47652
# Velocity P-wave (km/s) = 5.03687 7.53493 6.40879
#
# Compressibility (1/GPa) = 0.05038264
#
# Stress axis : x y z
#
# Youngs Moduli (GPa) = 15.21535 85.63235 77.61888
#
# Poissons Ratio (x) = 0.48765 0.60841
# Poissons Ratio (y) = 0.08665 0.49814
# Poissons Ratio (z) = 0.11926 0.54957
#
# Static dielectric constant tensor:
#      x y z
#    x 2.776180 0.000000 0.000000 
#    y 0.000000 3.281060 0.000000 
#    z 0.000000 0.000000 3.444550 
# 
# 
# High freq. dielectric constant tensor:
#      x y z
#    x 1.591680 0.000000 0.000000 
#    y 0.000000 1.619380 0.000000 
#    z 0.000000 0.000000 1.649310 
# 
# From -- ./inp_files/7656.got.cif
#   From: 2010.03.12/outbox.cif.g09.slc.cpg/sg47_4_cif.got.tgz:7656.got - 2010.04.14 03:12:58.
