data_PCOD8193803
_publ_section_title
;
Structure prediction by ZEFSAII (Michael W. Deem and Ramdas Pophale) SiO2 
 PCOD8193803
Probable space group: P M M M
;
_chemical_formula_sum "Si O2"
_cell_formula_units_Z 56
_cell_length_a 23.653747
_cell_length_b 9.450355
_cell_length_c 14.716299
_cell_angle_alpha 90.000000
_cell_angle_beta 90.000000
_cell_angle_gamma 90.000000
_cell_volume 3289.627120
_symmetry_space_group_name_H-M "P M M M"
_symmetry_group_IT_number 47
_symmetry_cell_setting 'orthorhombic'
loop_
_space_group_symop_operation_xyz
x,y,z
-x,-y,z
x,-y,-z
-x,y,-z
-x,-y,-z
x,y,-z
-x,y,z
x,-y,z
loop_
_atom_site_type_symbol
_atom_site_label
_atom_site_fract_x
_atom_site_fract_y
_atom_site_fract_z
Si Si1 0.937353 0.167988 0.897933
Si Si2 0.333532 0.337878 0.394404
Si Si3 0.223213 0.164124 0.602343
Si Si4 0.562152 0.668697 0.721298
Si Si5 0.833605 0.834437 0.217107
Si Si6 0.744762 0.337922 0.895022
Si Si7 0.616824 0.332109 0.901404
O O1 0.892984 0.225663 0.822622
O O2 0.000000 0.226998 0.873959
O O3 0.938948 0.000000 0.895361
O O4 0.919953 0.217927 0.000000
O O5 0.346178 0.324383 0.500000
O O6 0.322660 0.500000 0.365023
O O7 0.278305 0.250435 0.366465
O O8 0.389036 0.274128 0.345330
O O9 0.203681 0.208135 0.500000
O O10 0.172622 0.195662 0.674294
O O11 0.240003 0.000000 0.604714
O O12 0.500000 0.725890 0.692492
O O13 0.562215 0.500000 0.718365
O O14 0.575075 0.724055 0.823317
O O15 0.782735 0.761454 0.165730
O O16 0.829350 0.000000 0.196529
O O17 0.753154 0.500000 0.864463
O O18 0.680729 0.287185 0.877968
O O19 0.761451 0.319477 0.000000
O O20 0.614923 0.500000 0.906820
O O21 0.598483 0.269814 0.000000
#
# Coordination Sequence:
#
# PCOD8193803 Si02
#       7
#     8   8   8   8   8   8   8
#     4   8  14  25  41  62  88 115 142 173 207 243
#     4   9  17  29  45  63  82 106 136 169 208 257
#     4   9  18  31  45  63  88 114 139 173 218 259
#     4   9  16  24  36  56  79 102 131 169 208 242
#     4  10  18  27  44  67  87 111 145 181 211 244
#     4   9  17  28  42  62  89 117 140 168 213 261
#     4   8  14  24  36  51  75 107 137 162 195 245
#
# _framework density 17.023205999999998
#
# number of rings (size 3 to 8) (size 9 to 14) (size 15 to 20)
#    0.000    3.143    0.000    2.571    0.000    3.143 
#    0.000    2.857    0.000    1.286    0.000    7.000 
#    0.000    0.000    0.000   17.143    0.000   15.286 
#
# Total GULP energy -693940.654136 kJ/mol
# GULP energy per Si atom -12391.797395 kJ/mol
# Density = 1.698446 g / cm^3
# Si number density = 17.023206 Si / 1000 Ang^3
#
#
#
# Elastic Constant Matrix: (Units=GPa)
#
#
# Indices 1 2 3 4 5 6 
#
# 1 106.9021 18.7473 75.1254 0.0000 0.0000 0.0000
# 2 18.7473 19.0444 20.1883 0.0000 0.0000 0.0000
# 3 75.1254 20.1883 100.8484 0.0000 0.0000 0.0000
# 4 0.0000 0.0000 0.0000 15.3599 0.0000 0.0000
# 5 0.0000 0.0000 0.0000 0.0000 29.1119 0.0000
# 6 0.0000 0.0000 0.0000 0.0000 0.0000 15.5518
#
#
#
# Elastic Compliance Matrix: (Units=1/GPa)
#
#
# Indices 1 2 3 4 5 6 
#
# 1 0.019991 -0.004941 -0.013903 0.000000 0.000000 0.000000
# 2 -0.004941 0.067875 -0.009907 0.000000 0.000000 0.000000
# 3 -0.013903 -0.009907 0.022256 0.000000 0.000000 0.000000
# 4 0.000000 0.000000 0.000000 0.065105 0.000000 0.000000
# 5 0.000000 0.000000 0.000000 0.000000 0.034350 0.000000
# 6 0.000000 0.000000 0.000000 0.000000 0.000000 0.064301
#
#
# Mechanical properties :
#
#
# Convention : Reuss Voigt Hill
#
# Bulk Modulus (GPa) = 19.00411 50.54631 34.77521
# Shear Modulus (GPa) = 14.32994 19.52030 16.92512
#
# Velocity S-wave (km/s) = 2.90451 3.38995 3.15658
# Velocity P-wave (km/s) = 4.73668 6.71412 5.81014
#
# Compressibility (1/GPa) = 0.05262021
#
# Stress axis : x y z
#
# Youngs Moduli (GPa) = 50.02199 14.73301 44.93211
#
# Poissons Ratio (x) = 0.07280 0.62469
# Poissons Ratio (y) = 0.24718 0.44512
# Poissons Ratio (z) = 0.69545 0.14595
#
# Static dielectric constant tensor:
#      x y z
#    x 3.366180 0.000000 0.000000 
#    y 0.000000 2.765650 0.000000 
#    z 0.000000 0.000000 3.528640 
# 
# 
# High freq. dielectric constant tensor:
#      x y z
#    x 1.645790 0.000000 0.000000 
#    y 0.000000 1.603940 0.000000 
#    z 0.000000 0.000000 1.666480 
# 
# From -- ./inp_files/25140.got.cif
#   From: 2010.03.12/outbox.cif.g09.slc.cpg/sg47_13_cif.got.tgz:25140.got - 2010.04.14 03:12:58.
