data_PCOD8193763
_publ_section_title
;
Structure prediction by ZEFSAII (Michael W. Deem and Ramdas Pophale) SiO2 
 PCOD8193763
Probable space group: P M M M
;
_chemical_formula_sum "Si O2"
_cell_formula_units_Z 64
_cell_length_a 14.314811
_cell_length_b 31.316199
_cell_length_c 9.162470
_cell_angle_alpha 90.000000
_cell_angle_beta 90.000000
_cell_angle_gamma 90.000000
_cell_volume 4107.402170
_symmetry_space_group_name_H-M "P M M M"
_symmetry_group_IT_number 47
_symmetry_cell_setting 'orthorhombic'
loop_
_space_group_symop_operation_xyz
x,y,z
-x,-y,z
x,-y,-z
-x,y,-z
-x,-y,-z
x,y,-z
-x,y,z
x,-y,z
loop_
_atom_site_type_symbol
_atom_site_label
_atom_site_fract_x
_atom_site_fract_y
_atom_site_fract_z
Si Si1 0.721723 0.283605 0.672754
Si Si2 0.611024 0.454797 0.336305
Si Si3 0.894462 0.254303 0.831049
Si Si4 0.898759 0.842192 0.826922
Si Si5 0.295063 0.123049 0.826682
Si Si6 0.394876 0.636603 0.674820
Si Si7 0.391370 0.200279 0.330767
Si Si8 0.392484 0.049152 0.332114
O O1 0.728857 0.285296 0.500000
O O2 0.825117 0.284001 0.739633
O O3 0.670066 0.325556 0.734601
O O4 0.665018 0.241715 0.723551
O O5 0.650851 0.456823 0.500000
O O6 0.500000 0.452453 0.341707
O O7 0.641752 0.500000 0.257137
O O8 0.643769 0.409639 0.264305
O O9 0.884259 0.206048 0.770895
O O10 0.000000 0.270790 0.806968
O O11 0.866312 0.256587 0.000000
O O12 0.812256 0.870840 0.772365
O O13 0.000000 0.859664 0.769465
O O14 0.901550 0.841027 0.000000
O O15 0.361064 0.159481 0.761993
O O16 0.326901 0.076976 0.771228
O O17 0.302657 0.124885 0.000000
O O18 0.394595 0.635452 0.500000
O O19 0.500000 0.645344 0.730930
O O20 0.371311 0.190478 0.500000
O O21 0.500000 0.209407 0.303616
O O22 0.374641 0.061535 0.500000
O O23 0.500000 0.057856 0.291578
O O24 0.366859 0.000000 0.304201
#
# Coordination Sequence:
#
# PCOD8193763 Si02
#       8
#     8   8   8   8   8   8   8   8
#     4  10  18  27  41  61  85 113 145 179 209 243
#     4   7   9  14  26  45  70 102 140 178 211 246
#     4   9  17  31  48  61  79 111 145 176 215 259
#     4   8  15  29  47  65  86 112 140 171 211 256
#     4  11  20  30  49  73  91 109 142 185 218 242
#     4   8  13  21  33  51  79 115 148 174 208 255
#     4  10  20  31  41  57  87 124 151 168 196 246
#     4   9  19  36  54  69  90 122 150 170 204 256
#
# _framework density 15.581624
#
# number of rings (size 3 to 8) (size 9 to 14) (size 15 to 20)
#    0.000    3.000    1.250    3.375    0.000    4.000 
#    0.000    0.625    0.000    3.000    0.000    2.625 
#    0.000    1.000    0.000    9.375    0.000    3.750 
#
# Total GULP energy -792976.265458 kJ/mol
# GULP energy per Si atom -12390.254148 kJ/mol
# Density = 1.554616 g / cm^3
# Si number density = 15.581624 Si / 1000 Ang^3
#
#
#
# Elastic Constant Matrix: (Units=GPa)
#
#
# Indices 1 2 3 4 5 6 
#
# 1 93.1910 52.1013 24.7123 0.0000 0.0000 0.0000
# 2 52.1013 109.8508 25.7612 0.0000 0.0000 0.0000
# 3 24.7123 25.7612 25.9986 0.0000 0.0000 0.0000
# 4 0.0000 0.0000 0.0000 7.9337 0.0000 0.0000
# 5 0.0000 0.0000 0.0000 0.0000 20.7866 0.0000
# 6 0.0000 0.0000 0.0000 0.0000 0.0000 11.2197
#
#
#
# Elastic Compliance Matrix: (Units=1/GPa)
#
#
# Indices 1 2 3 4 5 6 
#
# 1 0.016486 -0.005399 -0.010321 0.000000 0.000000 0.000000
# 2 -0.005399 0.013627 -0.008371 0.000000 0.000000 0.000000
# 3 -0.010321 -0.008371 0.056568 0.000000 0.000000 0.000000
# 4 0.000000 0.000000 0.000000 0.126045 0.000000 0.000000
# 5 0.000000 0.000000 0.000000 0.000000 0.048108 0.000000
# 6 0.000000 0.000000 0.000000 0.000000 0.000000 0.089129
#
#
# Mechanical properties :
#
#
# Convention : Reuss Voigt Hill
#
# Bulk Modulus (GPa) = 25.97392 48.24332 37.10862
# Shear Modulus (GPa) = 12.16615 16.41903 14.29259
#
# Velocity S-wave (km/s) = 2.79731 3.24966 3.03194
# Velocity P-wave (km/s) = 5.20952 6.71635 6.01034
#
# Compressibility (1/GPa) = 0.03850015
#
# Stress axis : x y z
#
# Youngs Moduli (GPa) = 60.65817 73.38431 17.67789
#
# Poissons Ratio (x) = 0.39619 0.18245
# Poissons Ratio (y) = 0.32748 0.14798
# Poissons Ratio (z) = 0.62603 0.61428
#
# Static dielectric constant tensor:
#      x y z
#    x 3.040240 0.000000 0.000000 
#    y 0.000000 3.211530 0.000000 
#    z 0.000000 0.000000 2.625760 
# 
# 
# High freq. dielectric constant tensor:
#      x y z
#    x 1.581490 0.000000 0.000000 
#    y 0.000000 1.595020 0.000000 
#    z 0.000000 0.000000 1.561530 
# 
# From -- ./inp_files/8261.got.cif
#   From: 2010.03.12/outbox.cif.g09.slc.cpg/sg47_5_cif.got.tgz:8261.got - 2010.04.14 03:12:58.
