data_PCOD8193003
_publ_section_title
;
Structure prediction by ZEFSAII (Michael W. Deem and Ramdas Pophale) SiO2 
 PCOD8193003
Probable space group: I M A 2
;
_chemical_formula_sum "Si O2"
_cell_formula_units_Z 48
_cell_length_a 27.061497
_cell_length_b 8.657629
_cell_length_c 9.441213
_cell_angle_alpha 90.000000
_cell_angle_beta 90.000000
_cell_angle_gamma 90.000000
_cell_volume 2211.966699
_symmetry_space_group_name_H-M "I M A 2"
_symmetry_group_IT_number 46
_symmetry_cell_setting 'orthorhombic'
loop_
_space_group_symop_operation_xyz
x,y,z
-x,-y,z
1/2-x,y,z
1/2+x,-y,z
1/2+x,1/2+y,1/2+z
1/2-x,1/2-y,1/2+z
-x,1/2+y,1/2+z
x,1/2-y,1/2+z
loop_
_atom_site_type_symbol
_atom_site_label
_atom_site_fract_x
_atom_site_fract_y
_atom_site_fract_z
Si Si1 0.379156 0.793064 0.973790
Si Si2 0.637308 0.447248 0.191260
Si Si3 0.007015 0.676652 0.435712
Si Si4 0.193355 0.289790 0.329136
Si Si5 0.945661 0.685483 0.165698
Si Si6 0.144075 0.391971 0.613663
O O1 0.358270 0.822212 0.817486
O O2 0.437508 0.771325 0.963177
O O3 0.355000 0.638665 0.041095
O O4 0.363664 0.930033 0.079920
O O5 0.679321 0.575507 0.215648
O O6 0.582553 0.523621 0.192414
O O7 0.000000 0.500000 0.488653
O O8 0.991070 0.696445 0.273792
O O9 0.971084 0.797574 0.513995
O O10 0.250000 0.304711 0.375277
O O11 0.159567 0.301801 0.469138
O O12 0.184145 0.131356 0.240552
O O13 0.906179 0.823200 0.178148
#
# Coordination Sequence:
#
# PCOD8193003 Si02
#       6
#     8   8   8   8   8   8
#     4  11  22  39  57  88 125 164 203 250 311 359
#     4  10  23  40  59  84 126 162 199 255 318 364
#     4  12  22  38  59  87 125 166 219 255 291 363
#     4  10  21  41  67  94 119 158 209 261 320 392
#     4  11  22  41  59  86 123 168 212 258 299 358
#     4  10  21  39  64  89 125 160 203 263 320 368
#
# _framework density 21.700144999999999
#
# number of rings (size 3 to 8) (size 9 to 14) (size 15 to 20)
#    0.000    1.333    3.333    3.500    0.000    4.000 
#    3.000    4.167    0.000    0.000    0.000    0.000 
#    0.000    0.000    0.000    0.000    0.000    0.000 
#
# Total GULP energy -297513.444222 kJ/mol
# GULP energy per Si atom -12396.393509 kJ/mol
# Density = 2.165075 g / cm^3
# Si number density = 21.700145 Si / 1000 Ang^3
#
#
#
# Elastic Constant Matrix: (Units=GPa)
#
#
# Indices 1 2 3 4 5 6 
#
# 1 81.1173 11.2737 8.5963 0.0000 0.0000 0.0000
# 2 11.2737 42.7916 29.7131 0.0000 0.0000 0.0000
# 3 8.5963 29.7131 68.7421 0.0000 0.0000 0.0000
# 4 0.0000 0.0000 0.0000 46.2258 0.0000 0.0000
# 5 0.0000 0.0000 0.0000 0.0000 28.0111 0.0000
# 6 0.0000 0.0000 0.0000 0.0000 0.0000 20.7150
#
#
#
# Elastic Compliance Matrix: (Units=1/GPa)
#
#
# Indices 1 2 3 4 5 6 
#
# 1 0.012798 -0.003230 -0.000204 0.000000 0.000000 0.000000
# 2 -0.003230 0.034206 -0.014381 0.000000 0.000000 0.000000
# 3 -0.000204 -0.014381 0.020789 0.000000 0.000000 0.000000
# 4 0.000000 0.000000 0.000000 0.021633 0.000000 0.000000
# 5 0.000000 0.000000 0.000000 0.000000 0.035700 0.000000
# 6 0.000000 0.000000 0.000000 0.000000 0.000000 0.048274
#
#
# Mechanical properties :
#
#
# Convention : Reuss Voigt Hill
#
# Bulk Modulus (GPa) = 31.09253 32.42412 31.75833
# Shear Modulus (GPa) = 22.75294 28.52825 25.64059
#
# Velocity S-wave (km/s) = 3.24159 3.62975 3.44115
# Velocity P-wave (km/s) = 5.32634 5.70448 5.51865
#
# Compressibility (1/GPa) = 0.03216206
#
# Stress axis : x y z
#
# Youngs Moduli (GPa) = 78.13491 29.23480 48.10279
#
# Poissons Ratio (x) = 0.09443 0.00983
# Poissons Ratio (y) = 0.25237 0.69178
# Poissons Ratio (z) = 0.01597 0.42043
#
# Static dielectric constant tensor:
#      x y z
#    x 3.750660 0.000000 0.000000 
#    y 0.000000 3.877150 0.000000 
#    z 0.000000 0.000000 3.966370 
# 
# 
# High freq. dielectric constant tensor:
#      x y z
#    x 1.831980 0.000000 0.000000 
#    y 0.000000 1.836820 0.000000 
#    z 0.000000 0.000000 1.861440 
# 
# From -- ./inp_files/8390.got.cif
#   From: 2010.03.12/outbox.cif.g09.slc.cpg/sg46_5_cif.got.tgz:8390.got - 2010.04.14 02:56:35.
