data_PCOD8193538
_publ_section_title
;
Structure prediction by ZEFSAII (Michael W. Deem and Ramdas Pophale) SiO2 
 PCOD8193538
Probable space group: P M M M
;
_chemical_formula_sum "Si O2"
_cell_formula_units_Z 52
_cell_length_a 18.717836
_cell_length_b 9.075224
_cell_length_c 17.825398
_cell_angle_alpha 90.000000
_cell_angle_beta 90.000000
_cell_angle_gamma 90.000000
_cell_volume 3027.974592
_symmetry_space_group_name_H-M "P M M M"
_symmetry_group_IT_number 47
_symmetry_cell_setting 'orthorhombic'
loop_
_space_group_symop_operation_xyz
x,y,z
-x,-y,z
x,-y,-z
-x,y,-z
-x,-y,-z
x,y,-z
-x,y,z
x,-y,z
loop_
_atom_site_type_symbol
_atom_site_label
_atom_site_fract_x
_atom_site_fract_y
_atom_site_fract_z
Si Si1 0.576720 0.326786 0.132851
Si Si2 0.919941 0.674907 0.500000
Si Si3 0.270386 0.673014 0.915625
Si Si4 0.319790 0.830742 0.416836
Si Si5 0.380502 0.162357 0.269623
Si Si6 0.783166 0.834118 0.222467
Si Si7 0.819653 0.674497 0.633823
O O1 0.500000 0.272912 0.097848
O O2 0.579154 0.500000 0.128728
O O3 0.647446 0.264759 0.091391
O O4 0.577031 0.279354 0.220096
O O5 0.920499 0.500000 0.500000
O O6 0.880827 0.728788 0.576071
O O7 0.000000 0.739971 0.500000
O O8 0.269525 0.500000 0.897387
O O9 0.216225 0.752754 0.858515
O O10 0.244154 0.705714 0.000000
O O11 0.350558 0.805686 0.500000
O O12 0.384757 0.798863 0.358300
O O13 0.254894 0.719976 0.403276
O O14 0.292924 0.000000 0.405640
O O15 0.296847 0.167130 0.251916
O O16 0.411891 0.000000 0.252558
O O17 0.831572 0.750242 0.284464
O O18 0.812313 0.000000 0.211729
O O19 0.820771 0.500000 0.645890
#
# Coordination Sequence:
#
# PCOD8193538 Si02
#       7
#     8   4   8   8   8   8   8
#     4   9  17  28  41  57  78 107 140 173 213 261
#     4   9  18  30  43  65  99 133 160 187 216 245
#     4   9  17  29  45  66  90 113 140 179 224 269
#     4   9  16  26  41  60  83 106 133 177 227 267
#     4   8  15  26  39  56  75 100 134 173 217 261
#     4   9  17  29  44  62  86 116 146 181 224 264
#     4  10  17  27  44  65  88 118 156 187 213 251
#
# _framework density 17.173196000000001
#
# number of rings (size 3 to 8) (size 9 to 14) (size 15 to 20)
#    0.000    3.000    0.769    1.846    0.000    4.615 
#    0.000    1.538    0.000    4.154    0.000    7.538 
#    0.000    0.615    0.000    7.077    0.000    2.000 
#
# Total GULP energy -644227.966215 kJ/mol
# GULP energy per Si atom -12388.999350 kJ/mol
# Density = 1.713411 g / cm^3
# Si number density = 17.173196 Si / 1000 Ang^3
#
#
#
# Elastic Constant Matrix: (Units=GPa)
#
#
# Indices 1 2 3 4 5 6 
#
# 1 38.5051 15.8795 23.8720 0.0000 0.0000 0.0000
# 2 15.8795 49.8912 36.8582 0.0000 0.0000 0.0000
# 3 23.8720 36.8582 131.6293 0.0000 0.0000 0.0000
# 4 0.0000 0.0000 0.0000 24.9257 0.0000 0.0000
# 5 0.0000 0.0000 0.0000 0.0000 11.1871 0.0000
# 6 0.0000 0.0000 0.0000 0.0000 0.0000 7.1656
#
#
#
# Elastic Compliance Matrix: (Units=1/GPa)
#
#
# Indices 1 2 3 4 5 6 
#
# 1 0.031212 -0.007253 -0.003630 0.000000 0.000000 0.000000
# 2 -0.007253 0.026957 -0.006233 0.000000 0.000000 0.000000
# 3 -0.003630 -0.006233 0.010001 0.000000 0.000000 0.000000
# 4 0.000000 0.000000 0.000000 0.040119 0.000000 0.000000
# 5 0.000000 0.000000 0.000000 0.000000 0.089388 0.000000
# 6 0.000000 0.000000 0.000000 0.000000 0.000000 0.139555
#
#
# Mechanical properties :
#
#
# Convention : Reuss Voigt Hill
#
# Bulk Modulus (GPa) = 29.46491 41.47167 35.46829
# Shear Modulus (GPa) = 13.06250 18.21676 15.63963
#
# Velocity S-wave (km/s) = 2.76095 3.26047 3.02105
# Velocity P-wave (km/s) = 5.23054 6.19482 5.73299
#
# Compressibility (1/GPa) = 0.03393868
#
# Stress axis : x y z
#
# Youngs Moduli (GPa) = 32.03912 37.09651 99.99320
#
# Poissons Ratio (x) = 0.26905 0.36294
# Poissons Ratio (y) = 0.23237 0.62325
# Poissons Ratio (z) = 0.11629 0.23122
#
# Static dielectric constant tensor:
#      x y z
#    x 2.926190 0.000000 0.000000 
#    y 0.000000 3.185330 0.000000 
#    z 0.000000 0.000000 3.526850 
# 
# 
# High freq. dielectric constant tensor:
#      x y z
#    x 1.598300 0.000000 0.000000 
#    y 0.000000 1.654750 0.000000 
#    z 0.000000 0.000000 1.672300 
# 
# From -- ./inp_files/9516.got.cif
#   From: 2010.03.12/outbox.cif.g09.slc.cpg/sg47_5_cif.got.tgz:9516.got - 2010.04.14 03:12:58.
