data_PCOD8193014
_publ_section_title
;
Structure prediction by ZEFSAII (Michael W. Deem and Ramdas Pophale) SiO2 
 PCOD8193014
Probable space group: I M A 2
;
_chemical_formula_sum "Si O2"
_cell_formula_units_Z 44
_cell_length_a 9.526163
_cell_length_b 9.203836
_cell_length_c 25.391805
_cell_angle_alpha 90.000000
_cell_angle_beta 90.000000
_cell_angle_gamma 90.000000
_cell_volume 2226.283431
_symmetry_space_group_name_H-M "I M A 2"
_symmetry_group_IT_number 46
_symmetry_cell_setting 'orthorhombic'
loop_
_space_group_symop_operation_xyz
x,y,z
-x,-y,z
1/2-x,y,z
1/2+x,-y,z
1/2+x,1/2+y,1/2+z
1/2-x,1/2-y,1/2+z
-x,1/2+y,1/2+z
x,1/2-y,1/2+z
loop_
_atom_site_type_symbol
_atom_site_label
_atom_site_fract_x
_atom_site_fract_y
_atom_site_fract_z
Si Si1 0.904481 0.365715 0.659320
Si Si2 0.082999 0.646535 0.249408
Si Si3 0.250000 0.332360 0.019474
Si Si4 0.750000 0.583618 0.907222
Si Si5 0.977773 0.167268 0.041314
Si Si6 0.750000 0.352342 0.989651
Si Si7 0.591414 0.867368 0.308404
O O1 0.750000 0.417596 0.674357
O O2 0.946347 0.229601 0.694964
O O3 0.906603 0.323564 0.598136
O O4 0.000000 0.500000 0.673658
O O5 0.250000 0.626951 0.261353
O O6 0.000000 0.500000 0.241612
O O7 0.003370 0.726187 0.297657
O O8 0.379052 0.254266 0.046868
O O9 0.250000 0.303842 0.956170
O O10 0.250000 0.507412 0.029562
O O11 0.750000 0.417418 0.930090
O O12 0.888631 0.611488 0.871577
O O13 0.884941 0.251179 0.998264
O O14 0.000000 0.000000 0.023553
O O15 0.750000 0.860698 0.282795
O O16 0.500000 0.000000 0.284677
#
# Coordination Sequence:
#
# PCOD8193014 Si02
#       7
#     8   8   4   4   8   4   8
#     4  10  23  41  64  94 131 173 221 261 328 413
#     4  11  24  43  65  97 135 170 215 283 346 404
#     4  10  23  37  63  91 122 174 222 274 327 392
#     4   8  24  38  69  88 130 164 235 270 331 389
#     4  11  22  40  62  96 133 176 219 271 340 400
#     4  10  21  39  66  85 134 172 219 278 320 403
#     4  10  21  39  67  92 121 167 223 272 332 401
#
# _framework density 19.763881000000001
#
# number of rings (size 3 to 8) (size 9 to 14) (size 15 to 20)
#    1.091    0.727    0.909    2.727    6.364    4.364 
#    0.000    0.909    4.000    0.000    0.000    0.000 
#    0.000    0.000    0.000    0.000    0.000    0.000 
#
# Total GULP energy -272615.099703 kJ/mol
# GULP energy per Si atom -12391.595441 kJ/mol
# Density = 1.971890 g / cm^3
# Si number density = 19.763881 Si / 1000 Ang^3
#
#
#
# Elastic Constant Matrix: (Units=GPa)
#
#
# Indices 1 2 3 4 5 6 
#
# 1 146.9064 74.8678 32.7244 0.0000 0.0000 0.0000
# 2 74.8678 154.0515 48.0910 0.0000 0.0000 0.0000
# 3 32.7244 48.0910 80.8587 0.0000 0.0000 0.0000
# 4 0.0000 0.0000 0.0000 29.5567 0.0000 0.0000
# 5 0.0000 0.0000 0.0000 0.0000 164.4969 0.0000
# 6 0.0000 0.0000 0.0000 0.0000 0.0000 45.3054
#
#
#
# Elastic Compliance Matrix: (Units=1/GPa)
#
#
# Indices 1 2 3 4 5 6 
#
# 1 0.009158 -0.004045 -0.001301 0.000000 0.000000 0.000000
# 2 -0.004045 0.009758 -0.004167 0.000000 0.000000 0.000000
# 3 -0.001301 -0.004167 0.015372 0.000000 0.000000 0.000000
# 4 0.000000 0.000000 0.000000 0.033833 0.000000 0.000000
# 5 0.000000 0.000000 0.000000 0.000000 0.006079 0.000000
# 6 0.000000 0.000000 0.000000 0.000000 0.000000 0.022072
#
#
# Mechanical properties :
#
#
# Convention : Reuss Voigt Hill
#
# Bulk Modulus (GPa) = 65.51542 77.02035 71.26788
# Shear Modulus (GPa) = 41.53368 62.94735 52.24052
#
# Velocity S-wave (km/s) = 4.58918 5.64968 5.14681
# Velocity P-wave (km/s) = 7.82955 9.03401 8.45326
#
# Compressibility (1/GPa) = 0.01526358
#
# Stress axis : x y z
#
# Youngs Moduli (GPa) = 109.19282 102.48307 65.05442
#
# Poissons Ratio (x) = 0.41451 0.08462
# Poissons Ratio (y) = 0.44165 0.27105
# Poissons Ratio (z) = 0.14204 0.42700
#
# Static dielectric constant tensor:
#      x y z
#    x 4.348660 0.000000 0.000000 
#    y 0.000000 3.575100 0.000000 
#    z 0.000000 0.000000 3.382380 
# 
# 
# High freq. dielectric constant tensor:
#      x y z
#    x 1.787630 0.000000 0.000000 
#    y 0.000000 1.766110 0.000000 
#    z 0.000000 0.000000 1.753890 
# 
# From -- ./inp_files/24928.got.cif
#   From: 2010.03.12/outbox.cif.g09.slc.cpg/sg46_13_cif.got.tgz:24928.got - 2010.04.14 02:56:35.
