data_PCOD8193541
_publ_section_title
;
Structure prediction by ZEFSAII (Michael W. Deem and Ramdas Pophale) SiO2 
 PCOD8193541
Probable space group: P M M M
;
_chemical_formula_sum "Si O2"
_cell_formula_units_Z 52
_cell_length_a 13.867409
_cell_length_b 12.932106
_cell_length_c 17.810242
_cell_angle_alpha 90.000000
_cell_angle_beta 90.000000
_cell_angle_gamma 90.000000
_cell_volume 3193.996243
_symmetry_space_group_name_H-M "P M M M"
_symmetry_group_IT_number 47
_symmetry_cell_setting 'orthorhombic'
loop_
_space_group_symop_operation_xyz
x,y,z
-x,-y,z
x,-y,-z
-x,y,-z
-x,-y,-z
x,y,-z
-x,y,z
x,-y,z
loop_
_atom_site_type_symbol
_atom_site_label
_atom_site_fract_x
_atom_site_fract_y
_atom_site_fract_z
Si Si1 0.892192 0.877171 0.415691
Si Si2 0.387982 0.197151 0.820749
Si Si3 0.104561 0.326057 0.084447
Si Si4 0.308457 0.384526 0.911731
Si Si5 0.614890 0.000000 0.084677
Si Si6 0.239497 0.880693 0.716257
Si Si7 0.110989 0.110515 0.858187
O O1 0.863744 0.843002 0.500000
O O2 0.809627 0.834598 0.359326
O O3 0.000000 0.835060 0.396215
O O4 0.894555 0.000000 0.408624
O O5 0.500000 0.185144 0.803131
O O6 0.371442 0.305159 0.863476
O O7 0.347920 0.102848 0.872542
O O8 0.332022 0.188503 0.741091
O O9 0.197224 0.384362 0.118684
O O10 0.129712 0.203753 0.084444
O O11 0.000000 0.348702 0.125116
O O12 0.092931 0.363765 0.000000
O O13 0.350064 0.500000 0.899682
O O14 0.313015 0.353624 0.000000
O O15 0.500000 0.000000 0.083408
O O16 0.655517 0.000000 0.000000
O O17 0.160285 0.866192 0.779742
O O18 0.271545 0.000000 0.705579
O O19 0.000000 0.101682 0.838145
O O20 0.147463 0.000000 0.892705
#
# Coordination Sequence:
#
# PCOD8193541 Si02
#       7
#     8   8   8   8   4   8   8
#     4   8  14  25  43  69 100 132 163 190 217 263
#     4  11  21  33  47  67  91 119 159 203 248 290
#     4   9  17  29  44  62  86 116 149 186 230 281
#     4  10  21  36  51  66  86 117 161 208 250 290
#     4   9  18  32  48  64  84 113 152 200 246 291
#     4  10  17  27  44  66  94 127 156 186 231 278
#     4   9  16  25  39  62  90 118 148 181 221 273
#
# _framework density 16.280545
#
# number of rings (size 3 to 8) (size 9 to 14) (size 15 to 20)
#    0.000    2.538    2.308    1.385    0.000    3.692 
#    0.000    3.846    0.000    0.462    0.000    2.154 
#    0.000    0.615    0.000    3.077    0.000    0.154 
#
# Total GULP energy -644235.322590 kJ/mol
# GULP energy per Si atom -12389.140819 kJ/mol
# Density = 1.624349 g / cm^3
# Si number density = 16.280545 Si / 1000 Ang^3
#
#
#
# Elastic Constant Matrix: (Units=GPa)
#
#
# Indices 1 2 3 4 5 6 
#
# 1 59.7735 28.8536 46.7701 0.0000 0.0000 0.0000
# 2 28.8536 63.5476 22.3167 0.0000 0.0000 0.0000
# 3 46.7701 22.3167 74.0855 0.0000 0.0000 0.0000
# 4 0.0000 0.0000 0.0000 9.9965 0.0000 0.0000
# 5 0.0000 0.0000 0.0000 0.0000 24.1383 0.0000
# 6 0.0000 0.0000 0.0000 0.0000 0.0000 14.6430
#
#
#
# Elastic Compliance Matrix: (Units=1/GPa)
#
#
# Indices 1 2 3 4 5 6 
#
# 1 0.037863 -0.009838 -0.020939 0.000000 0.000000 0.000000
# 2 -0.009838 0.020154 0.000140 0.000000 0.000000 0.000000
# 3 -0.020939 0.000140 0.026675 0.000000 0.000000 0.000000
# 4 0.000000 0.000000 0.000000 0.100035 0.000000 0.000000
# 5 0.000000 0.000000 0.000000 0.000000 0.041428 0.000000
# 6 0.000000 0.000000 0.000000 0.000000 0.000000 0.068292
#
#
# Mechanical properties :
#
#
# Convention : Reuss Voigt Hill
#
# Bulk Modulus (GPa) = 42.70479 43.69859 43.20169
# Shear Modulus (GPa) = 13.75414 16.38665 15.07040
#
# Velocity S-wave (km/s) = 2.90973 3.17601 3.04578
# Velocity P-wave (km/s) = 6.12995 6.35206 6.24199
#
# Compressibility (1/GPa) = 0.02341658
#
# Stress axis : x y z
#
# Youngs Moduli (GPa) = 26.41119 49.61776 37.48871
#
# Poissons Ratio (x) = 0.48814 0.78498
# Poissons Ratio (y) = 0.25983 -0.00524
# Poissons Ratio (z) = 0.55303 -0.00693
#
# Static dielectric constant tensor:
#      x y z
#    x 3.247410 0.000000 0.000000 
#    y 0.000000 2.964910 0.000000 
#    z 0.000000 0.000000 2.931790 
# 
# 
# High freq. dielectric constant tensor:
#      x y z
#    x 1.636790 0.000000 0.000000 
#    y 0.000000 1.595360 0.000000 
#    z 0.000000 0.000000 1.579310 
# 
# From -- ./inp_files/17960.got.cif
#   From: 2010.03.12/outbox.cif.g09.slc.cpg/sg47_9_cif.got.tgz:17960.got - 2010.04.14 03:12:58.
