data_PCOD8193742
_publ_section_title
;
Structure prediction by ZEFSAII (Michael W. Deem and Ramdas Pophale) SiO2 
 PCOD8193742
Probable space group: P M M M
;
_chemical_formula_sum "Si O2"
_cell_formula_units_Z 64
_cell_length_a 18.316301
_cell_length_b 25.716097
_cell_length_c 9.523399
_cell_angle_alpha 90.000000
_cell_angle_beta 90.000000
_cell_angle_gamma 90.000000
_cell_volume 4485.747331
_symmetry_space_group_name_H-M "P M M M"
_symmetry_group_IT_number 47
_symmetry_cell_setting 'orthorhombic'
loop_
_space_group_symop_operation_xyz
x,y,z
-x,-y,z
x,-y,-z
-x,y,-z
-x,-y,-z
x,y,-z
-x,y,z
x,-y,z
loop_
_atom_site_type_symbol
_atom_site_label
_atom_site_fract_x
_atom_site_fract_y
_atom_site_fract_z
Si Si1 0.582967 0.247916 0.836761
Si Si2 0.332451 0.857262 0.835425
Si Si3 0.415616 0.060182 0.340480
Si Si4 0.083309 0.439805 0.161889
Si Si5 0.918910 0.252976 0.332931
Si Si6 0.215180 0.191274 0.656922
Si Si7 0.697080 0.297991 0.344870
Si Si8 0.838264 0.355161 0.334119
O O1 0.500000 0.249354 0.782310
O O2 0.614465 0.191005 0.802978
O O3 0.628703 0.293116 0.759743
O O4 0.587963 0.260347 0.000000
O O5 0.367191 0.908410 0.769080
O O6 0.253369 0.848266 0.764671
O O7 0.321039 0.866066 0.000000
O O8 0.399593 0.078546 0.500000
O O9 0.500000 0.069515 0.303831
O O10 0.395275 0.000000 0.323379
O O11 0.100872 0.500000 0.187752
O O12 0.138989 0.407567 0.256687
O O13 0.000000 0.427547 0.205889
O O14 0.095604 0.425100 0.000000
O O15 0.918984 0.255420 0.500000
O O16 0.866401 0.205044 0.287181
O O17 0.888963 0.308153 0.276851
O O18 0.000000 0.243206 0.272080
O O19 0.213224 0.166608 0.500000
O O20 0.258410 0.244871 0.651121
O O21 0.666201 0.310202 0.500000
O O22 0.753323 0.343146 0.297355
O O23 0.848280 0.362594 0.500000
#
# Coordination Sequence:
#
# PCOD8193742 Si02
#       8
#     8   8   8   8   8   8   8   8
#     4   9  17  27  38  55  79 105 133 162 190 223
#     4  10  18  27  40  57  79 106 133 161 193 226
#     4   9  18  31  44  58  77 101 130 163 195 227
#     4   9  18  30  40  53  77 106 134 164 195 227
#     4   8  13  22  38  59  80 102 130 164 198 229
#     4   8  14  25  39  54  75 103 132 160 190 227
#     4   8  15  26  38  55  77 100 128 160 193 229
#     4   9  16  26  41  59  78 101 131 165 197 230
#
# _framework density 14.267410999999999
#
# number of rings (size 3 to 8) (size 9 to 14) (size 15 to 20)
#    0.000    3.250    0.000    3.375    0.000    3.250 
#    0.000    3.125    0.000    1.125    0.000    0.000 
#    0.000    1.000    0.000   11.250    0.000    5.625 
#
# Total GULP energy -793292.718615 kJ/mol
# GULP energy per Si atom -12395.198728 kJ/mol
# Density = 1.423494 g / cm^3
# Si number density = 14.267411 Si / 1000 Ang^3
#
#
#
# Elastic Constant Matrix: (Units=GPa)
#
#
# Indices 1 2 3 4 5 6 
#
# 1 99.4156 41.2005 45.9489 0.0000 0.0000 0.0000
# 2 41.2005 57.8557 40.0743 0.0000 0.0000 0.0000
# 3 45.9489 40.0743 63.6858 0.0000 0.0000 0.0000
# 4 0.0000 0.0000 0.0000 22.6361 0.0000 0.0000
# 5 0.0000 0.0000 0.0000 0.0000 19.7359 0.0000
# 6 0.0000 0.0000 0.0000 0.0000 0.0000 26.1354
#
#
#
# Elastic Compliance Matrix: (Units=1/GPa)
#
#
# Indices 1 2 3 4 5 6 
#
# 1 0.016224 -0.006108 -0.007862 0.000000 0.000000 0.000000
# 2 -0.006108 0.032937 -0.016319 0.000000 0.000000 0.000000
# 3 -0.007862 -0.016319 0.031644 0.000000 0.000000 0.000000
# 4 0.000000 0.000000 0.000000 0.044177 0.000000 0.000000
# 5 0.000000 0.000000 0.000000 0.000000 0.050669 0.000000
# 6 0.000000 0.000000 0.000000 0.000000 0.000000 0.038262
#
#
# Mechanical properties :
#
#
# Convention : Reuss Voigt Hill
#
# Bulk Modulus (GPa) = 49.43975 52.82274 51.13125
# Shear Modulus (GPa) = 17.77882 19.95037 18.86459
#
# Velocity S-wave (km/s) = 3.53386 3.74346 3.64017
# Velocity P-wave (km/s) = 7.16787 7.46917 7.32007
#
# Compressibility (1/GPa) = 0.02022664
#
# Stress axis : x y z
#
# Youngs Moduli (GPa) = 61.63825 30.36060 31.60206
#
# Poissons Ratio (x) = 0.18543 0.24846
# Poissons Ratio (y) = 0.37646 0.51572
# Poissons Ratio (z) = 0.48461 0.49547
#
# Static dielectric constant tensor:
#      x y z
#    x 2.994920 0.000000 0.000000 
#    y 0.000000 2.532580 0.000000 
#    z 0.000000 0.000000 2.732700 
# 
# 
# High freq. dielectric constant tensor:
#      x y z
#    x 1.536510 0.000000 0.000000 
#    y 0.000000 1.510000 0.000000 
#    z 0.000000 0.000000 1.538810 
# 
# From -- ./inp_files/10266.got.cif
#   From: 2010.03.12/outbox.cif.g09.slc.cpg/sg47_6_cif.got.tgz:10266.got - 2010.04.14 03:12:58.
