data_PCOD8193577
_publ_section_title
;
Structure prediction by ZEFSAII (Michael W. Deem and Ramdas Pophale) SiO2 
 PCOD8193577
Probable space group: P M M M
;
_chemical_formula_sum "Si O2"
_cell_formula_units_Z 52
_cell_length_a 8.950729
_cell_length_b 14.136060
_cell_length_c 23.340452
_cell_angle_alpha 90.000000
_cell_angle_beta 90.000000
_cell_angle_gamma 90.000000
_cell_volume 2953.221695
_symmetry_space_group_name_H-M "P M M M"
_symmetry_group_IT_number 47
_symmetry_cell_setting 'orthorhombic'
loop_
_space_group_symop_operation_xyz
x,y,z
-x,-y,z
x,-y,-z
-x,y,-z
-x,-y,-z
x,y,-z
-x,y,z
x,-y,z
loop_
_atom_site_type_symbol
_atom_site_label
_atom_site_fract_x
_atom_site_fract_y
_atom_site_fract_z
Si Si1 0.177007 0.213391 0.606414
Si Si2 0.822663 0.220034 0.829148
Si Si3 0.326878 0.392907 0.220318
Si Si4 0.676163 0.889582 0.500000
Si Si5 0.822597 0.105903 0.280063
Si Si6 0.674749 0.607439 0.648499
Si Si7 0.177650 0.893812 0.063321
O O1 0.253627 0.158455 0.555210
O O2 0.231796 0.162802 0.664439
O O3 0.231416 0.322178 0.608191
O O4 0.000000 0.210309 0.598268
O O5 0.765315 0.326643 0.822454
O O6 0.760492 0.157183 0.776609
O O7 0.758466 0.176778 0.888383
O O8 0.000000 0.220989 0.829375
O O9 0.500000 0.367864 0.215011
O O10 0.295582 0.500000 0.200886
O O11 0.274022 0.378467 0.285775
O O12 0.500000 0.873079 0.500000
O O13 0.717791 0.000000 0.500000
O O14 0.000000 0.102323 0.278263
O O15 0.756345 0.000000 0.282398
O O16 0.500000 0.629342 0.641838
O O17 0.709173 0.500000 0.629019
O O18 0.000000 0.894397 0.065932
O O19 0.236258 0.000000 0.075668
O O20 0.231123 0.860544 0.000000
#
# Coordination Sequence:
#
# PCOD8193577 Si02
#       7
#     8   8   8   4   8   8   8
#     4  11  21  35  56  81 107 135 168 212 260 306
#     4  10  17  27  47  75 101 127 166 212 253 295
#     4   9  18  32  49  70 100 136 168 202 251 309
#     4  11  25  43  60  77 102 141 183 214 244 295
#     4   9  17  28  44  71 104 131 156 196 252 304
#     4   9  18  34  55  77 104 138 171 206 254 311
#     4   8  14  25  43  69 101 136 171 206 247 298
#
# _framework density 17.607890000000001
#
# number of rings (size 3 to 8) (size 9 to 14) (size 15 to 20)
#    0.000    2.538    1.538    3.000    0.000    3.692 
#    0.000    1.923    0.000    6.000    0.000    4.308 
#    0.000    0.000    0.000    0.000    0.000    0.000 
#
# Total GULP energy -644729.927765 kJ/mol
# GULP energy per Si atom -12398.652457 kJ/mol
# Density = 1.756781 g / cm^3
# Si number density = 17.607890 Si / 1000 Ang^3
#
#
#
# Elastic Constant Matrix: (Units=GPa)
#
#
# Indices 1 2 3 4 5 6 
#
# 1 40.1946 42.3151 38.8184 0.0000 0.0000 0.0000
# 2 42.3151 137.2250 75.3822 0.0000 0.0000 0.0000
# 3 38.8184 75.3822 134.7747 0.0000 0.0000 0.0000
# 4 0.0000 0.0000 0.0000 31.7011 0.0000 0.0000
# 5 0.0000 0.0000 0.0000 0.0000 15.0012 0.0000
# 6 0.0000 0.0000 0.0000 0.0000 0.0000 23.8022
#
#
#
# Elastic Compliance Matrix: (Units=1/GPa)
#
#
# Indices 1 2 3 4 5 6 
#
# 1 0.040736 -0.008829 -0.006795 0.000000 0.000000 0.000000
# 2 -0.008829 0.012433 -0.004411 0.000000 0.000000 0.000000
# 3 -0.006795 -0.004411 0.011844 0.000000 0.000000 0.000000
# 4 0.000000 0.000000 0.000000 0.031545 0.000000 0.000000
# 5 0.000000 0.000000 0.000000 0.000000 0.066661 0.000000
# 6 0.000000 0.000000 0.000000 0.000000 0.000000 0.042013
#
#
# Mechanical properties :
#
#
# Convention : Reuss Voigt Hill
#
# Bulk Modulus (GPa) = 40.09080 69.46952 54.78016
# Shear Modulus (GPa) = 19.71491 24.47948 22.09720
#
# Velocity S-wave (km/s) = 3.34977 3.73266 3.54638
# Velocity P-wave (km/s) = 6.14649 7.62340 6.92444
#
# Compressibility (1/GPa) = 0.02494338
#
# Stress axis : x y z
#
# Youngs Moduli (GPa) = 24.54856 80.43170 84.43057
#
# Poissons Ratio (x) = 0.71011 0.57368
# Poissons Ratio (y) = 0.21673 0.37243
# Poissons Ratio (z) = 0.16680 0.35479
#
# Static dielectric constant tensor:
#      x y z
#    x 2.909520 0.000000 0.000000 
#    y 0.000000 3.385650 0.000000 
#    z 0.000000 0.000000 3.372140 
# 
# 
# High freq. dielectric constant tensor:
#      x y z
#    x 1.649260 0.000000 0.000000 
#    y 0.000000 1.688840 0.000000 
#    z 0.000000 0.000000 1.670050 
# 
# From -- ./inp_files/25465.got.cif
#   From: 2010.03.12/outbox.cif.g09.slc.cpg/sg47_13_cif.got.tgz:25465.got - 2010.04.14 03:12:58.
