data_PCOD8193074
_publ_section_title
;
Structure prediction by ZEFSAII (Michael W. Deem and Ramdas Pophale) SiO2 
 PCOD8193074
Probable space group: I M A 2
;
_chemical_formula_sum "Si O2"
_cell_formula_units_Z 48
_cell_length_a 15.914988
_cell_length_b 9.059634
_cell_length_c 15.635222
_cell_angle_alpha 90.000000
_cell_angle_beta 90.000000
_cell_angle_gamma 90.000000
_cell_volume 2254.348323
_symmetry_space_group_name_H-M "I M A 2"
_symmetry_group_IT_number 46
_symmetry_cell_setting 'orthorhombic'
loop_
_space_group_symop_operation_xyz
x,y,z
-x,-y,z
1/2-x,y,z
1/2+x,-y,z
1/2+x,1/2+y,1/2+z
1/2-x,1/2-y,1/2+z
-x,1/2+y,1/2+z
x,1/2-y,1/2+z
loop_
_atom_site_type_symbol
_atom_site_label
_atom_site_fract_x
_atom_site_fract_y
_atom_site_fract_z
Si Si1 0.846729 0.385668 0.122530
Si Si2 0.153788 0.408187 0.462915
Si Si3 0.848298 0.389621 0.808509
Si Si4 0.411890 0.570623 0.298189
Si Si5 0.150509 0.082537 0.468522
Si Si6 0.593121 0.436123 0.628693
O O1 0.750000 0.341298 0.104432
O O2 0.852131 0.461438 0.216343
O O3 0.905145 0.240748 0.117495
O O4 0.882871 0.497038 0.051800
O O5 0.250000 0.390925 0.439169
O O6 0.112998 0.497085 0.386493
O O7 0.111005 0.246413 0.468096
O O8 0.145059 0.491237 0.552363
O O9 0.750000 0.343296 0.817344
O O10 0.908880 0.247008 0.813882
O O11 0.877598 0.498367 0.883189
O O12 0.862641 0.475179 0.718990
O O13 0.500000 0.500000 0.271270
O O14 0.250000 0.093507 0.474502
O O15 0.500000 0.500000 0.626838
#
# Coordination Sequence:
#
# PCOD8193074 Si02
#       6
#     8   8   8   8   8   8
#     4  10  21  42  65  86 117 165 206 237 290 368
#     4  11  22  39  61  88 119 157 200 249 299 353
#     4  10  21  42  65  86 117 165 206 237 290 368
#     4  11  23  38  59  90 120 152 199 253 301 350
#     4   9  21  37  60  88 114 149 200 247 288 341
#     4  11  23  38  59  90 120 152 199 253 301 350
#
# _framework density 21.292183000000001
#
# number of rings (size 3 to 8) (size 9 to 14) (size 15 to 20)
#    0.000    1.667    0.000    5.500    0.000    8.000 
#    0.000    7.500    0.000    0.000    0.000    0.000 
#    0.000    0.000    0.000    0.000    0.000    0.000 
#
# Total GULP energy -297554.197944 kJ/mol
# GULP energy per Si atom -12398.091581 kJ/mol
# Density = 2.124372 g / cm^3
# Si number density = 21.292183 Si / 1000 Ang^3
#
#
#
# Elastic Constant Matrix: (Units=GPa)
#
#
# Indices 1 2 3 4 5 6 
#
# 1 63.2726 26.6126 -0.2732 0.0000 0.0000 0.0000
# 2 26.6126 126.3812 81.8010 0.0000 0.0000 0.0000
# 3 -0.2732 81.8010 185.3048 0.0000 0.0000 0.0000
# 4 0.0000 0.0000 0.0000 19.0646 0.0000 0.0000
# 5 0.0000 0.0000 0.0000 0.0000 10.7239 0.0000
# 6 0.0000 0.0000 0.0000 0.0000 0.0000 11.2744
#
#
#
# Elastic Compliance Matrix: (Units=1/GPa)
#
#
# Indices 1 2 3 4 5 6 
#
# 1 0.018065 -0.005350 0.002388 0.000000 0.000000 0.000000
# 2 -0.005350 0.012662 -0.005597 0.000000 0.000000 0.000000
# 3 0.002388 -0.005597 0.007871 0.000000 0.000000 0.000000
# 4 0.000000 0.000000 0.000000 0.052453 0.000000 0.000000
# 5 0.000000 0.000000 0.000000 0.000000 0.093250 0.000000
# 6 0.000000 0.000000 0.000000 0.000000 0.000000 0.088697
#
#
# Mechanical properties :
#
#
# Convention : Reuss Voigt Hill
#
# Bulk Modulus (GPa) = 46.55470 65.69326 56.12398
# Shear Modulus (GPa) = 16.81940 26.00046 21.40993
#
# Velocity S-wave (km/s) = 2.81362 3.49825 3.17445
# Velocity P-wave (km/s) = 5.69802 6.87294 6.31287
#
# Compressibility (1/GPa) = 0.02148011
#
# Stress axis : x y z
#
# Youngs Moduli (GPa) = 55.35529 78.97584 127.04911
#
# Poissons Ratio (x) = 0.42251 -0.30343
# Poissons Ratio (y) = 0.29614 0.71115
# Poissons Ratio (z) = -0.13220 0.44206
#
# Static dielectric constant tensor:
#      x y z
#    x 3.647050 0.000000 0.000000 
#    y 0.000000 4.023060 0.000000 
#    z 0.000000 0.000000 4.135710 
# 
# 
# High freq. dielectric constant tensor:
#      x y z
#    x 1.814390 0.000000 0.000000 
#    y 0.000000 1.834010 0.000000 
#    z 0.000000 0.000000 1.858940 
# 
# From -- ./inp_files/19426.got.cif
#   From: 2010.03.12/outbox.cif.g09.slc.cpg/sg46_10_cif.got.tgz:19426.got - 2010.04.14 02:56:35.
