data_PCOD8193220
_publ_section_title
;
Structure prediction by ZEFSAII (Michael W. Deem and Ramdas Pophale) SiO2 
 PCOD8193220
Probable space group: I M A 2
;
_chemical_formula_sum "Si O2"
_cell_formula_units_Z 48
_cell_length_a 8.505462
_cell_length_b 9.148095
_cell_length_c 30.360694
_cell_angle_alpha 90.000000
_cell_angle_beta 90.000000
_cell_angle_gamma 90.000000
_cell_volume 2362.328390
_symmetry_space_group_name_H-M "I M A 2"
_symmetry_group_IT_number 46
_symmetry_cell_setting 'orthorhombic'
loop_
_space_group_symop_operation_xyz
x,y,z
-x,-y,z
1/2-x,y,z
1/2+x,-y,z
1/2+x,1/2+y,1/2+z
1/2-x,1/2-y,1/2+z
-x,1/2+y,1/2+z
x,1/2-y,1/2+z
loop_
_atom_site_type_symbol
_atom_site_label
_atom_site_fract_x
_atom_site_fract_y
_atom_site_fract_z
Si Si1 0.436596 0.838782 0.780310
Si Si2 0.564531 0.659986 0.699716
Si Si3 0.063226 0.839980 0.949345
Si Si4 0.064311 0.154292 0.526670
Si Si5 0.435406 0.838682 0.364561
Si Si6 0.064248 0.657228 0.122744
O O1 0.250000 0.840516 0.777488
O O2 0.504361 0.772641 0.735842
O O3 0.499138 0.745146 0.821646
O O4 0.500000 0.000000 0.786880
O O5 0.500000 0.500000 0.710210
O O6 0.750000 0.654011 0.700387
O O7 0.506186 0.713981 0.652282
O O8 0.250000 0.839249 0.955269
O O9 0.006278 0.742204 0.908454
O O10 0.000000 0.000000 0.939777
O O11 0.980945 0.781408 0.993232
O O12 0.250000 0.144187 0.533123
O O13 0.984668 0.191559 0.572991
O O14 0.000000 0.000000 0.508264
O O15 0.250000 0.843934 0.363413
O O16 0.500000 0.000000 0.364448
O O17 0.250000 0.656173 0.127233
O O18 0.000000 0.500000 0.138401
#
# Coordination Sequence:
#
# PCOD8193220 Si02
#       6
#     8   8   8   8   8   8
#     4  11  23  41  63  91 122 159 201 247 298 354
#     4  12  25  42  62  89 122 159 200 248 299 356
#     4  11  23  40  60  88 121 159 202 249 300 356
#     4  11  22  39  62  90 121 158 200 248 299 356
#     4  10  23  40  62  89 121 157 200 247 298 354
#     4  11  22  40  64  91 121 158 200 247 298 356
#
# _framework density 20.318937999999999
#
# number of rings (size 3 to 8) (size 9 to 14) (size 15 to 20)
#    0.000    1.000    0.000    8.500    0.000    6.000 
#    0.000    3.333    0.000    0.000    0.000    0.000 
#    0.000    0.000    0.000    0.000    0.000    0.000 
#
# Total GULP energy -297771.732633 kJ/mol
# GULP energy per Si atom -12407.155526 kJ/mol
# Density = 2.027269 g / cm^3
# Si number density = 20.318938 Si / 1000 Ang^3
#
#
#
# Elastic Constant Matrix: (Units=GPa)
#
#
# Indices 1 2 3 4 5 6 
#
# 1 88.5191 42.8822 17.6034 0.0000 0.0000 0.0000
# 2 42.8822 156.0333 66.4564 0.0000 0.0000 0.0000
# 3 17.6034 66.4564 101.0208 0.0000 0.0000 0.0000
# 4 0.0000 0.0000 0.0000 -18.7521 0.0000 0.0000
# 5 0.0000 0.0000 0.0000 0.0000 17.8440 0.0000
# 6 0.0000 0.0000 0.0000 0.0000 0.0000 40.3720
#
#
#
# Elastic Compliance Matrix: (Units=1/GPa)
#
#
# Indices 1 2 3 4 5 6 
#
# 1 0.013033 -0.003632 0.000118 0.000000 0.000000 0.000000
# 2 -0.003632 0.009916 -0.005890 0.000000 0.000000 0.000000
# 3 0.000118 -0.005890 0.013753 0.000000 0.000000 0.000000
# 4 0.000000 0.000000 0.000000 -0.053327 0.000000 0.000000
# 5 0.000000 0.000000 0.000000 0.000000 0.056041 0.000000
# 6 0.000000 0.000000 0.000000 0.000000 0.000000 0.024770
#
#
# Mechanical properties :
#
#
# Convention : Reuss Voigt Hill
#
# Bulk Modulus (GPa) = 55.88475 66.60639 61.24557
# Shear Modulus (GPa) = 56.20612 22.46820 39.33716
#
# Velocity S-wave (km/s) = 5.26517 3.32893 4.40476
# Velocity P-wave (km/s) = 8.03282 6.90125 7.48844
#
# Compressibility (1/GPa) = 0.01789397
#
# Stress axis : x y z
#
# Youngs Moduli (GPa) = 76.72793 100.84882 72.71048
#
# Poissons Ratio (x) = 0.36631 -0.00861
# Poissons Ratio (y) = 0.27870 0.42828
# Poissons Ratio (z) = -0.00908 0.59402
#
# Static dielectric constant tensor:
#      x y z
#    x 3.803140 0.000000 0.000000 
#    y 0.000000 3.643160 0.000000 
#    z 0.000000 0.000000 3.948080 
# 
# 
# High freq. dielectric constant tensor:
#      x y z
#    x 1.808550 0.000000 0.000000 
#    y 0.000000 1.803650 0.000000 
#    z 0.000000 0.000000 1.809890 
# 
# From -- ./inp_files/24977.got.cif
#   From: 2010.03.12/outbox.cif.g09.slc.cpg/sg46_13_cif.got.tgz:24977.got - 2010.04.14 02:56:35.
