data_PCOD8193587
_publ_section_title
;
Structure prediction by ZEFSAII (Michael W. Deem and Ramdas Pophale) SiO2 
 PCOD8193587
Probable space group: P M M M
;
_chemical_formula_sum "Si O2"
_cell_formula_units_Z 32
_cell_length_a 12.647259
_cell_length_b 9.488412
_cell_length_c 18.452223
_cell_angle_alpha 90.000000
_cell_angle_beta 90.000000
_cell_angle_gamma 90.000000
_cell_volume 2214.311120
_symmetry_space_group_name_H-M "P M M M"
_symmetry_group_IT_number 47
_symmetry_cell_setting 'orthorhombic'
loop_
_space_group_symop_operation_xyz
x,y,z
-x,-y,z
x,-y,-z
-x,y,-z
-x,-y,-z
x,y,-z
-x,y,z
x,-y,z
loop_
_atom_site_type_symbol
_atom_site_label
_atom_site_fract_x
_atom_site_fract_y
_atom_site_fract_z
Si Si1 0.500000 0.835552 0.915492
Si Si2 0.500000 0.667516 0.418066
Si Si3 0.877602 0.837786 0.582809
Si Si4 0.293373 0.333228 0.664551
Si Si5 0.616542 0.345009 0.187040
O O1 0.606158 0.765581 0.879942
O O2 0.500000 0.000000 0.898516
O O3 0.500000 0.802478 0.000000
O O4 0.500000 0.500000 0.416166
O O5 0.500000 0.725088 0.500000
O O6 0.394686 0.725536 0.379051
O O7 0.852432 0.795959 0.500000
O O8 0.811746 0.740389 0.636448
O O9 0.000000 0.811171 0.600058
O O10 0.847947 0.000000 0.596431
O O11 0.281957 0.500000 0.654213
O O12 0.304374 0.294115 0.749916
O O13 0.500000 0.358318 0.223964
O O14 0.650871 0.500000 0.157474
#
# Coordination Sequence:
#
# PCOD8193587 Si02
#       5
#     4   4   8   8   8
#     4   9  16  25  39  61  88 117 148 175 194 228
#     4   9  15  22  35  57  82 105 128 162 210 251
#     4   9  19  34  46  57  79 111 145 183 226 263
#     4  10  17  28  44  62  83 107 140 177 211 252
#     4   8  15  27  40  57  85 116 138 163 205 251
#
# _framework density 14.451447
#
# number of rings (size 3 to 8) (size 9 to 14) (size 15 to 20)
#    0.750    2.250    1.250    1.500    0.000    4.000 
#    0.000    1.875    0.000    2.250    0.000    0.000 
#    0.000    1.000    0.000   11.000    0.000    8.000 
#
# Total GULP energy -396495.699055 kJ/mol
# GULP energy per Si atom -12390.490595 kJ/mol
# Density = 1.441855 g / cm^3
# Si number density = 14.451447 Si / 1000 Ang^3
#
#
#
# Elastic Constant Matrix: (Units=GPa)
#
#
# Indices 1 2 3 4 5 6 
#
# 1 55.3135 33.5713 39.4195 0.0000 0.0000 0.0000
# 2 33.5713 66.6498 62.5684 0.0000 0.0000 0.0000
# 3 39.4195 62.5684 106.3947 0.0000 0.0000 0.0000
# 4 0.0000 0.0000 0.0000 24.5823 0.0000 0.0000
# 5 0.0000 0.0000 0.0000 0.0000 17.8762 0.0000
# 6 0.0000 0.0000 0.0000 0.0000 0.0000 21.5728
#
#
#
# Elastic Compliance Matrix: (Units=1/GPa)
#
#
# Indices 1 2 3 4 5 6 
#
# 1 0.026959 -0.009382 -0.004471 0.000000 0.000000 0.000000
# 2 -0.009382 0.036761 -0.018142 0.000000 0.000000 0.000000
# 3 -0.004471 -0.018142 0.021724 0.000000 0.000000 0.000000
# 4 0.000000 0.000000 0.000000 0.040680 0.000000 0.000000
# 5 0.000000 0.000000 0.000000 0.000000 0.055940 0.000000
# 6 0.000000 0.000000 0.000000 0.000000 0.000000 0.046355
#
#
# Mechanical properties :
#
#
# Convention : Reuss Voigt Hill
#
# Bulk Modulus (GPa) = 46.61131 55.49737 51.05434
# Shear Modulus (GPa) = 16.69109 18.99283 17.84196
#
# Velocity S-wave (km/s) = 3.40218 3.62919 3.51752
# Velocity P-wave (km/s) = 6.91064 7.48648 7.20431
#
# Compressibility (1/GPa) = 0.02145402
#
# Stress axis : x y z
#
# Youngs Moduli (GPa) = 37.09289 27.20306 46.03101
#
# Poissons Ratio (x) = 0.25522 0.20581
# Poissons Ratio (y) = 0.34800 0.83510
# Poissons Ratio (z) = 0.16585 0.49352
#
# Static dielectric constant tensor:
#      x y z
#    x 2.557050 0.000000 0.000000 
#    y 0.000000 2.658810 0.000000 
#    z 0.000000 0.000000 2.665130 
# 
# 
# High freq. dielectric constant tensor:
#      x y z
#    x 1.520520 0.000000 0.000000 
#    y 0.000000 1.544160 0.000000 
#    z 0.000000 0.000000 1.539670 
# 
# From -- ./inp_files/27367.got.cif
#   From: 2010.03.12/outbox.cif.g09.slc.cpg/sg47_14_cif.got.tgz:27367.got - 2010.04.14 03:12:58.
