data_PCOD8193812
_publ_section_title
;
Structure prediction by ZEFSAII (Michael W. Deem and Ramdas Pophale) SiO2 
 PCOD8193812
Probable space group: P M M M
;
_chemical_formula_sum "Si O2"
_cell_formula_units_Z 48
_cell_length_a 13.782469
_cell_length_b 9.230856
_cell_length_c 23.689158
_cell_angle_alpha 90.000000
_cell_angle_beta 90.000000
_cell_angle_gamma 90.000000
_cell_volume 3013.829121
_symmetry_space_group_name_H-M "P M M M"
_symmetry_group_IT_number 47
_symmetry_cell_setting 'orthorhombic'
loop_
_space_group_symop_operation_xyz
x,y,z
-x,-y,z
x,-y,-z
-x,y,-z
-x,-y,-z
x,y,-z
-x,y,z
x,-y,z
loop_
_atom_site_type_symbol
_atom_site_label
_atom_site_fract_x
_atom_site_fract_y
_atom_site_fract_z
Si Si1 0.289491 0.834253 0.339926
Si Si2 0.390749 0.329409 0.563751
Si Si3 0.389032 0.169295 0.775482
Si Si4 0.108359 0.328170 0.062208
Si Si5 0.889761 0.833319 0.732154
Si Si6 0.781799 0.327594 0.171431
O O1 0.313361 0.740334 0.394422
O O2 0.359619 0.789763 0.288280
O O3 0.178086 0.803933 0.322159
O O4 0.306334 0.000000 0.356583
O O5 0.363929 0.283338 0.500000
O O6 0.500000 0.276553 0.578118
O O7 0.384245 0.500000 0.570574
O O8 0.500000 0.212737 0.785669
O O9 0.324460 0.260426 0.819131
O O10 0.370062 0.000000 0.786148
O O11 0.104239 0.500000 0.063536
O O12 0.182709 0.273700 0.109898
O O13 0.000000 0.267752 0.074546
O O14 0.143210 0.275141 0.000000
O O15 0.858933 0.730176 0.783199
O O16 0.000000 0.799060 0.714627
O O17 0.876449 0.000000 0.751775
O O18 0.776079 0.500000 0.176346
#
# Coordination Sequence:
#
# PCOD8193812 Si02
#       6
#     8   8   8   8   8   8
#     4   9  17  29  46  67  86 108 144 183 214 248
#     4   9  18  31  45  63  89 118 143 170 212 263
#     4   9  18  32  47  63  88 121 150 177 216 265
#     4   8  14  25  41  62  89 118 144 174 217 264
#     4   9  18  32  47  63  89 123 150 175 215 264
#     4  10  18  27  44  70  93 112 143 186 224 260
#
# _framework density 15.926582
#
# number of rings (size 3 to 8) (size 9 to 14) (size 15 to 20)
#    0.000    3.000    0.000    3.500    0.000    5.333 
#    0.000    0.833    0.000    3.000    0.000   12.833 
#    0.000    0.000    0.000    0.000    0.000    0.000 
#
# Total GULP energy -595044.440796 kJ/mol
# GULP energy per Si atom -12396.759183 kJ/mol
# Density = 1.589033 g / cm^3
# Si number density = 15.926582 Si / 1000 Ang^3
#
#
#
# Elastic Constant Matrix: (Units=GPa)
#
#
# Indices 1 2 3 4 5 6 
#
# 1 133.1914 41.0263 72.6547 0.0000 0.0000 0.0000
# 2 41.0263 45.5725 44.1790 0.0000 0.0000 0.0000
# 3 72.6547 44.1790 120.5884 0.0000 0.0000 0.0000
# 4 0.0000 0.0000 0.0000 3.9224 0.0000 0.0000
# 5 0.0000 0.0000 0.0000 0.0000 26.3299 0.0000
# 6 0.0000 0.0000 0.0000 0.0000 0.0000 24.8865
#
#
#
# Elastic Compliance Matrix: (Units=1/GPa)
#
#
# Indices 1 2 3 4 5 6 
#
# 1 0.012143 -0.005954 -0.005135 0.000000 0.000000 0.000000
# 2 -0.005954 0.036948 -0.009949 0.000000 0.000000 0.000000
# 3 -0.005135 -0.009949 0.015031 0.000000 0.000000 0.000000
# 4 0.000000 0.000000 0.000000 0.254943 0.000000 0.000000
# 5 0.000000 0.000000 0.000000 0.000000 0.037980 0.000000
# 6 0.000000 0.000000 0.000000 0.000000 0.000000 0.040182
#
#
# Mechanical properties :
#
#
# Convention : Reuss Voigt Hill
#
# Bulk Modulus (GPa) = 45.35839 68.34137 56.84988
# Shear Modulus (GPa) = 11.19441 20.46059 15.82750
#
# Velocity S-wave (km/s) = 2.65406 3.58813 3.15585
# Velocity P-wave (km/s) = 6.15902 7.75691 7.00369
#
# Compressibility (1/GPa) = 0.02204664
#
# Stress axis : x y z
#
# Youngs Moduli (GPa) = 82.35237 27.06526 66.52708
#
# Poissons Ratio (x) = 0.16114 0.34161
# Poissons Ratio (y) = 0.49030 0.66189
# Poissons Ratio (z) = 0.42288 0.26928
#
# Static dielectric constant tensor:
#      x y z
#    x 3.118090 0.000000 0.000000 
#    y 0.000000 2.852130 0.000000 
#    z 0.000000 0.000000 3.039860 
# 
# 
# High freq. dielectric constant tensor:
#      x y z
#    x 1.607360 0.000000 0.000000 
#    y 0.000000 1.599100 0.000000 
#    z 0.000000 0.000000 1.600410 
# 
# From -- ./inp_files/6756.got.cif
#   From: 2010.03.12/outbox.cif.g09.slc.cpg/sg47_4_cif.got.tgz:6756.got - 2010.04.14 03:12:58.
