data_PCOD8193544
_publ_section_title
;
Structure prediction by ZEFSAII (Michael W. Deem and Ramdas Pophale) SiO2 
 PCOD8193544
Probable space group: P M M M
;
_chemical_formula_sum "Si O2"
_cell_formula_units_Z 64
_cell_length_a 14.051890
_cell_length_b 20.799676
_cell_length_c 14.370221
_cell_angle_alpha 90.000000
_cell_angle_beta 90.000000
_cell_angle_gamma 90.000000
_cell_volume 4200.052882
_symmetry_space_group_name_H-M "P M M M"
_symmetry_group_IT_number 47
_symmetry_cell_setting 'orthorhombic'
loop_
_space_group_symop_operation_xyz
x,y,z
-x,-y,z
x,-y,-z
-x,y,-z
-x,-y,-z
x,y,-z
-x,y,z
x,-y,z
loop_
_atom_site_type_symbol
_atom_site_label
_atom_site_fract_x
_atom_site_fract_y
_atom_site_fract_z
Si Si1 0.805017 0.071918 0.789556
Si Si2 0.887024 0.571250 0.895961
Si Si3 0.604866 0.193152 0.608060
Si Si4 0.887655 0.809437 0.104135
Si Si5 0.889007 0.120529 0.395026
Si Si6 0.395707 0.072046 0.268810
Si Si7 0.205754 0.256968 0.394326
Si Si8 0.113275 0.688809 0.225177
O O1 0.858755 0.122360 0.853530
O O2 0.830839 0.079433 0.680233
O O3 0.691065 0.082006 0.803515
O O4 0.834374 0.000000 0.820977
O O5 0.854347 0.500000 0.863043
O O6 0.847503 0.625008 0.825849
O O7 0.000000 0.575143 0.898378
O O8 0.848148 0.585101 0.000000
O O9 0.620640 0.182610 0.500000
O O10 0.500000 0.222062 0.631217
O O11 0.617178 0.122444 0.648830
O O12 0.687380 0.241203 0.642787
O O13 0.850281 0.750922 0.167505
O O14 0.000000 0.806291 0.099797
O O15 0.845302 0.802643 0.000000
O O16 0.867767 0.095280 0.500000
O O17 0.860587 0.194710 0.386830
O O18 0.000000 0.114731 0.371004
O O19 0.500000 0.081835 0.220294
O O20 0.388884 0.000000 0.310984
O O21 0.207141 0.283694 0.500000
O O22 0.161189 0.310769 0.327022
O O23 0.000000 0.687972 0.235340
#
# Coordination Sequence:
#
# PCOD8193544 Si02
#       8
#     8   8   8   8   8   8   8   8
#     4  11  21  32  45  59  79 108 140 177 222 265
#     4   8  14  25  42  66  94 120 146 177 212 247
#     4   9  16  26  40  57  78 104 135 175 222 262
#     4  10  20  32  45  62  82 106 141 180 214 252
#     4  10  19  30  42  57  80 109 141 175 208 246
#     4   9  17  28  42  59  76  96 127 170 221 274
#     4  10  18  28  42  62  86 113 145 177 207 245
#     4  10  17  27  45  65  88 119 148 173 205 246
#
# _framework density 15.237902999999999
#
# number of rings (size 3 to 8) (size 9 to 14) (size 15 to 20)
#    0.000    2.375    2.500    1.500    0.000    4.000 
#    0.000    3.750    0.000    0.750    0.000    3.500 
#    0.000    2.000    0.000    4.500    0.000    1.000 
#
# Total GULP energy -793174.415830 kJ/mol
# GULP energy per Si atom -12393.350247 kJ/mol
# Density = 1.520322 g / cm^3
# Si number density = 15.237903 Si / 1000 Ang^3
#
#
#
# Elastic Constant Matrix: (Units=GPa)
#
#
# Indices 1 2 3 4 5 6 
#
# 1 44.8549 16.3982 21.2699 0.0000 0.0000 0.0000
# 2 16.3982 84.8082 42.3584 0.0000 0.0000 0.0000
# 3 21.2699 42.3584 76.3428 0.0000 0.0000 0.0000
# 4 0.0000 0.0000 0.0000 22.0911 0.0000 0.0000
# 5 0.0000 0.0000 0.0000 0.0000 10.8854 0.0000
# 6 0.0000 0.0000 0.0000 0.0000 0.0000 9.8857
#
#
#
# Elastic Compliance Matrix: (Units=1/GPa)
#
#
# Indices 1 2 3 4 5 6 
#
# 1 0.025917 -0.001943 -0.006143 0.000000 0.000000 0.000000
# 2 -0.001943 0.016457 -0.008590 0.000000 0.000000 0.000000
# 3 -0.006143 -0.008590 0.019576 0.000000 0.000000 0.000000
# 4 0.000000 0.000000 0.000000 0.045267 0.000000 0.000000
# 5 0.000000 0.000000 0.000000 0.000000 0.091866 0.000000
# 6 0.000000 0.000000 0.000000 0.000000 0.000000 0.101156
#
#
# Mechanical properties :
#
#
# Convention : Reuss Voigt Hill
#
# Bulk Modulus (GPa) = 34.96572 40.67319 37.81945
# Shear Modulus (GPa) = 14.57197 16.97108 15.77153
#
# Velocity S-wave (km/s) = 3.09576 3.34090 3.22066
# Velocity P-wave (km/s) = 5.98119 6.45230 6.22121
#
# Compressibility (1/GPa) = 0.02859944
#
# Stress axis : x y z
#
# Youngs Moduli (GPa) = 38.58421 60.76300 51.08223
#
# Poissons Ratio (x) = 0.11808 0.31378
# Poissons Ratio (y) = 0.07498 0.43879
# Poissons Ratio (z) = 0.23701 0.52195
#
# Static dielectric constant tensor:
#      x y z
#    x 3.045880 0.000000 0.000000 
#    y 0.000000 2.819750 0.000000 
#    z 0.000000 0.000000 2.917280 
# 
# 
# High freq. dielectric constant tensor:
#      x y z
#    x 1.570920 0.000000 0.000000 
#    y 0.000000 1.556310 0.000000 
#    z 0.000000 0.000000 1.569270 
# 
# From -- ./inp_files/24070.got.cif
#   From: 2010.03.12/outbox.cif.g09.slc.cpg/sg47_13_cif.got.tgz:24070.got - 2010.04.14 03:12:58.
