data_PCOD8193832
_publ_section_title
;
Structure prediction by ZEFSAII (Michael W. Deem and Ramdas Pophale) SiO2 
 PCOD8193832
Probable space group: P M M M
;
_chemical_formula_sum "Si O2"
_cell_formula_units_Z 52
_cell_length_a 9.361582
_cell_length_b 19.383630
_cell_length_c 23.256744
_cell_angle_alpha 90.000000
_cell_angle_beta 90.000000
_cell_angle_gamma 90.000000
_cell_volume 4220.202296
_symmetry_space_group_name_H-M "P M M M"
_symmetry_group_IT_number 47
_symmetry_cell_setting 'orthorhombic'
loop_
_space_group_symop_operation_xyz
x,y,z
-x,-y,z
x,-y,-z
-x,y,-z
-x,-y,-z
x,y,-z
-x,y,z
x,-y,z
loop_
_atom_site_type_symbol
_atom_site_label
_atom_site_fract_x
_atom_site_fract_y
_atom_site_fract_z
Si Si1 0.832775 0.206522 0.567427
Si Si2 0.339640 0.417958 0.936434
Si Si3 0.659916 0.923941 0.431804
Si Si4 0.332043 0.335276 0.392374
Si Si5 0.334566 0.579263 0.720404
Si Si6 0.160364 0.582147 0.169432
Si Si7 0.669396 0.576535 0.500000
O O1 0.799081 0.217922 0.500000
O O2 0.771936 0.133252 0.589776
O O3 0.754646 0.264473 0.604906
O O4 0.000000 0.208506 0.580116
O O5 0.500000 0.390701 0.925143
O O6 0.339482 0.500000 0.933115
O O7 0.235567 0.387109 0.887699
O O8 0.287278 0.394305 0.000000
O O9 0.660766 0.925676 0.500000
O O10 0.500000 0.905410 0.410119
O O11 0.704804 0.000000 0.408513
O O12 0.500000 0.319470 0.398244
O O13 0.294649 0.373526 0.333442
O O14 0.276865 0.383927 0.443655
O O15 0.500000 0.585820 0.736939
O O16 0.296817 0.500000 0.705173
O O17 0.244338 0.607160 0.774197
O O18 0.161291 0.500000 0.166907
O O19 0.000000 0.611325 0.171949
O O20 0.736591 0.500000 0.500000
O O21 0.500000 0.571239 0.500000
#
# Coordination Sequence:
#
# PCOD8193832 Si02
#       7
#     8   8   8   8   8   8   4
#     4  10  19  28  38  53  74  94 109 129 162 206
#     4   8  13  21  33  48  65  84 104 127 157 193
#     4   8  14  25  41  58  73  89 109 130 152 185
#     4  10  18  28  42  55  66  84 110 143 179 214
#     4   9  17  28  40  52  64  81 110 146 181 215
#     4   9  16  24  34  48  65  85 106 130 164 204
#     4   9  16  26  41  57  66  75 102 145 185 218
#
# _framework density 12.321683999999999
#
# number of rings (size 3 to 8) (size 9 to 14) (size 15 to 20)
#    0.000    3.000    0.769    2.308    0.000    5.538 
#    0.000    3.077    0.000    1.846    0.000    0.000 
#    0.000    0.000    0.000    0.000    0.000    0.000 
#
# Total GULP energy -644575.517714 kJ/mol
# GULP energy per Si atom -12395.683033 kJ/mol
# Density = 1.229364 g / cm^3
# Si number density = 12.321684 Si / 1000 Ang^3
#
#
#
# Elastic Constant Matrix: (Units=GPa)
#
#
# Indices 1 2 3 4 5 6 
#
# 1 73.1564 37.4282 49.8094 0.0000 0.0000 0.0000
# 2 37.4282 67.0421 31.0361 0.0000 0.0000 0.0000
# 3 49.8094 31.0361 88.0720 0.0000 0.0000 0.0000
# 4 0.0000 0.0000 0.0000 1.6484 0.0000 0.0000
# 5 0.0000 0.0000 0.0000 0.0000 12.9999 0.0000
# 6 0.0000 0.0000 0.0000 0.0000 0.0000 10.6542
#
#
#
# Elastic Compliance Matrix: (Units=1/GPa)
#
#
# Indices 1 2 3 4 5 6 
#
# 1 0.026354 -0.009336 -0.011614 0.000000 0.000000 0.000000
# 2 -0.009336 0.021131 -0.002166 0.000000 0.000000 0.000000
# 3 -0.011614 -0.002166 0.018686 0.000000 0.000000 0.000000
# 4 0.000000 0.000000 0.000000 0.606633 0.000000 0.000000
# 5 0.000000 0.000000 0.000000 0.000000 0.076924 0.000000
# 6 0.000000 0.000000 0.000000 0.000000 0.000000 0.093860
#
#
# Mechanical properties :
#
#
# Convention : Reuss Voigt Hill
#
# Bulk Modulus (GPa) = 50.15728 51.64642 50.90185
# Shear Modulus (GPa) = 5.57745 12.39362 8.98554
#
# Velocity S-wave (km/s) = 2.12987 3.17494 2.70338
# Velocity P-wave (km/s) = 6.84422 7.44623 7.15156
#
# Compressibility (1/GPa) = 0.01993729
#
# Stress axis : x y z
#
# Youngs Moduli (GPa) = 37.94552 47.32386 53.51492
#
# Poissons Ratio (x) = 0.44181 0.62154
# Poissons Ratio (y) = 0.35426 0.11594
# Poissons Ratio (z) = 0.44072 0.10253
#
# Static dielectric constant tensor:
#      x y z
#    x 2.576730 0.000000 0.000000 
#    y 0.000000 2.379990 0.000000 
#    z 0.000000 0.000000 2.458360 
# 
# 
# High freq. dielectric constant tensor:
#      x y z
#    x 1.469760 0.000000 0.000000 
#    y 0.000000 1.426550 0.000000 
#    z 0.000000 0.000000 1.444410 
# 
# From -- ./inp_files/10108.got.cif
#   From: 2010.03.12/outbox.cif.g09.slc.cpg/sg47_6_cif.got.tgz:10108.got - 2010.04.14 03:12:58.
