data_PCOD8193513
_publ_section_title
;
Structure prediction by ZEFSAII (Michael W. Deem and Ramdas Pophale) SiO2 
 PCOD8193513
Probable space group: P M M M
;
_chemical_formula_sum "Si O2"
_cell_formula_units_Z 64
_cell_length_a 14.580375
_cell_length_b 9.214729
_cell_length_c 28.509729
_cell_angle_alpha 90.000000
_cell_angle_beta 90.000000
_cell_angle_gamma 90.000000
_cell_volume 3830.401956
_symmetry_space_group_name_H-M "P M M M"
_symmetry_group_IT_number 47
_symmetry_cell_setting 'orthorhombic'
loop_
_space_group_symop_operation_xyz
x,y,z
-x,-y,z
x,-y,-z
-x,y,-z
-x,-y,-z
x,y,-z
-x,y,z
x,-y,z
loop_
_atom_site_type_symbol
_atom_site_label
_atom_site_fract_x
_atom_site_fract_y
_atom_site_fract_z
Si Si1 0.394548 0.830282 0.413795
Si Si2 0.717436 0.171994 0.222271
Si Si3 0.399642 0.171303 0.308695
Si Si4 0.899444 0.172120 0.268467
Si Si5 0.608584 0.162090 0.948479
Si Si6 0.892636 0.834941 0.373281
Si Si7 0.772032 0.666657 0.447346
Si Si8 0.606516 0.670802 0.857913
O O1 0.500000 0.787134 0.423428
O O2 0.365477 0.787913 0.360594
O O3 0.328362 0.739880 0.447203
O O4 0.380485 0.000000 0.423248
O O5 0.668976 0.229701 0.269447
O O6 0.824226 0.216786 0.229329
O O7 0.673278 0.253943 0.178905
O O8 0.705415 0.000000 0.214744
O O9 0.500000 0.239945 0.299315
O O10 0.407544 0.000000 0.305086
O O11 0.873037 0.226944 0.320796
O O12 0.000000 0.232649 0.253339
O O13 0.904015 0.000000 0.272421
O O14 0.500000 0.159975 0.950471
O O15 0.640617 0.275117 0.908919
O O16 0.644484 0.000000 0.936151
O O17 0.646307 0.209605 0.000000
O O18 0.841213 0.739620 0.411338
O O19 0.000000 0.827212 0.384154
O O20 0.856444 0.000000 0.377579
O O21 0.811553 0.683181 0.500000
O O22 0.761073 0.500000 0.433096
O O23 0.500000 0.714129 0.848545
O O24 0.619958 0.500000 0.855347
#
# Coordination Sequence:
#
# PCOD8193513 Si02
#       8
#     8   8   8   8   8   8   8   8
#     4   9  18  34  55  74  90 113 152 198 233 263
#     4  10  17  26  45  67  89 121 153 181 219 268
#     4   8  14  25  43  67  89 110 143 185 224 262
#     4   8  15  29  50  75  96 113 142 187 233 272
#     4   8  14  26  44  63  83 113 157 203 238 270
#     4   9  18  35  59  80  94 112 144 187 230 273
#     4  11  24  37  48  67  97 128 151 176 219 275
#     4  10  20  30  39  58  93 131 162 194 230 265
#
# _framework density 16.70843
#
# number of rings (size 3 to 8) (size 9 to 14) (size 15 to 20)
#    0.000    2.875    0.000    3.750    0.000    5.500 
#    0.000    6.250    0.000    1.875    0.000    0.000 
#    0.000    0.500    0.000    5.750    0.000    1.875 
#
# Total GULP energy -793178.414698 kJ/mol
# GULP energy per Si atom -12393.412730 kJ/mol
# Density = 1.667040 g / cm^3
# Si number density = 16.708430 Si / 1000 Ang^3
#
#
#
# Elastic Constant Matrix: (Units=GPa)
#
#
# Indices 1 2 3 4 5 6 
#
# 1 77.3804 38.9208 54.7254 0.0000 0.0000 0.0000
# 2 38.9208 63.6490 45.2575 0.0000 0.0000 0.0000
# 3 54.7254 45.2575 101.2082 0.0000 0.0000 0.0000
# 4 0.0000 0.0000 0.0000 -2.1976 0.0000 0.0000
# 5 0.0000 0.0000 0.0000 0.0000 17.6734 0.0000
# 6 0.0000 0.0000 0.0000 0.0000 0.0000 11.9263
#
#
#
# Elastic Compliance Matrix: (Units=1/GPa)
#
#
# Indices 1 2 3 4 5 6 
#
# 1 0.023267 -0.007744 -0.009118 0.000000 0.000000 0.000000
# 2 -0.007744 0.025613 -0.007266 0.000000 0.000000 0.000000
# 3 -0.009118 -0.007266 0.018060 0.000000 0.000000 0.000000
# 4 0.000000 0.000000 0.000000 -0.455041 0.000000 0.000000
# 5 0.000000 0.000000 0.000000 0.000000 0.056582 0.000000
# 6 0.000000 0.000000 0.000000 0.000000 0.000000 0.083848
#
#
# Mechanical properties :
#
#
# Convention : Reuss Voigt Hill
#
# Bulk Modulus (GPa) = 53.52239 57.78278 55.65259
# Shear Modulus (GPa) = -25.88180 12.36933 -6.75623
#
# Velocity S-wave (km/s) = -3.94004 2.72381 -2.01305
# Velocity P-wave (km/s) = 3.37701 6.67460 5.28935
#
# Compressibility (1/GPa) = 0.01868377
#
# Stress axis : x y z
#
# Youngs Moduli (GPa) = 42.97991 39.04244 55.37088
#
# Poissons Ratio (x) = 0.30235 0.50486
# Poissons Ratio (y) = 0.33284 0.40233
# Poissons Ratio (z) = 0.39188 0.28369
#
# Static dielectric constant tensor:
#      x y z
#    x 3.249940 0.000000 0.000000 
#    y 0.000000 2.887590 0.000000 
#    z 0.000000 0.000000 3.281340 
# 
# 
# High freq. dielectric constant tensor:
#      x y z
#    x 1.628040 0.000000 0.000000 
#    y 0.000000 1.615370 0.000000 
#    z 0.000000 0.000000 1.636520 
# 
# From -- ./inp_files/34664.got.cif
#   From: 2010.03.12/outbox.cif.g09.slc.cpg/sg47_18_cif.got.tgz:34664.got - 2010.04.14 03:12:58.
