data_PCOD8193657
_publ_section_title
;
Structure prediction by ZEFSAII (Michael W. Deem and Ramdas Pophale) SiO2 
 PCOD8193657
Probable space group: P M M M
;
_chemical_formula_sum "Si O2"
_cell_formula_units_Z 52
_cell_length_a 21.003012
_cell_length_b 16.385467
_cell_length_c 8.867834
_cell_angle_alpha 90.000000
_cell_angle_beta 90.000000
_cell_angle_gamma 90.000000
_cell_volume 3051.813283
_symmetry_space_group_name_H-M "P M M M"
_symmetry_group_IT_number 47
_symmetry_cell_setting 'orthorhombic'
loop_
_space_group_symop_operation_xyz
x,y,z
-x,-y,z
x,-y,-z
-x,y,-z
-x,-y,-z
x,y,-z
-x,y,z
x,-y,z
loop_
_atom_site_type_symbol
_atom_site_label
_atom_site_fract_x
_atom_site_fract_y
_atom_site_fract_z
Si Si1 0.814679 0.767904 0.676954
Si Si2 0.749440 0.909313 0.177245
Si Si3 0.720942 0.500000 0.179438
Si Si4 0.859595 0.500000 0.320945
Si Si5 0.309501 0.333366 0.678042
Si Si6 0.500000 0.907154 0.179235
Si Si7 0.624738 0.812227 0.822078
Si Si8 0.929400 0.337756 0.679012
O O1 0.814194 0.781502 0.500000
O O2 0.805889 0.855075 0.754857
O O3 0.758959 0.704821 0.722602
O O4 0.882335 0.733605 0.734825
O O5 0.681579 0.872623 0.223796
O O6 0.754434 0.000000 0.245230
O O7 0.757509 0.911009 0.000000
O O8 0.792733 0.500000 0.237898
O O9 0.684050 0.420489 0.240904
O O10 0.719644 0.500000 0.000000
O O11 0.846026 0.500000 0.500000
O O12 0.900660 0.576767 0.266921
O O13 0.316379 0.345275 0.500000
O O14 0.365673 0.274079 0.737628
O O15 0.438826 0.856821 0.236274
O O16 0.500000 0.000000 0.244421
O O17 0.500000 0.912688 0.000000
O O18 0.622643 0.795359 0.000000
O O19 0.933120 0.337986 0.500000
O O20 0.000000 0.324817 0.748153
#
# Coordination Sequence:
#
# PCOD8193657 Si02
#       8
#     8   8   4   4   8   4   8   8
#     4   9  17  29  46  68  92 119 155 198 242 287
#     4   9  17  29  46  68  94 123 157 197 239 283
#     4  12  22  31  49  74  99 128 163 204 244 284
#     4  10  17  30  48  70  97 127 159 194 237 289
#     4  10  19  33  50  70  97 130 164 202 246 288
#     4   9  16  28  51  80 109 140 169 197 234 285
#     4   9  17  30  49  75 103 131 164 199 236 282
#     4   9  16  27  46  70  94 123 160 198 237 285
#
# _framework density 17.039048999999999
#
# number of rings (size 3 to 8) (size 9 to 14) (size 15 to 20)
#    0.000    2.538    1.538    1.846    0.000    3.692 
#    0.000    0.385    0.000    5.077    0.000    6.462 
#    0.000    0.000    0.000    0.000    0.000    0.000 
#
# Total GULP energy -644730.613687 kJ/mol
# GULP energy per Si atom -12398.665648 kJ/mol
# Density = 1.700027 g / cm^3
# Si number density = 17.039049 Si / 1000 Ang^3
#
#
#
# Elastic Constant Matrix: (Units=GPa)
#
#
# Indices 1 2 3 4 5 6 
#
# 1 114.8730 78.1430 23.4816 0.0000 0.0000 0.0000
# 2 78.1430 167.0637 41.9604 0.0000 0.0000 0.0000
# 3 23.4816 41.9604 39.7254 0.0000 0.0000 0.0000
# 4 0.0000 0.0000 0.0000 26.9835 0.0000 0.0000
# 5 0.0000 0.0000 0.0000 0.0000 18.6150 0.0000
# 6 0.0000 0.0000 0.0000 0.0000 0.0000 25.0354
#
#
#
# Elastic Compliance Matrix: (Units=1/GPa)
#
#
# Indices 1 2 3 4 5 6 
#
# 1 0.012851 -0.005585 -0.001697 0.000000 0.000000 0.000000
# 2 -0.005585 0.010574 -0.007868 0.000000 0.000000 0.000000
# 3 -0.001697 -0.007868 0.034487 0.000000 0.000000 0.000000
# 4 0.000000 0.000000 0.000000 0.037060 0.000000 0.000000
# 5 0.000000 0.000000 0.000000 0.000000 0.053720 0.000000
# 6 0.000000 0.000000 0.000000 0.000000 0.000000 0.039943
#
#
# Mechanical properties :
#
#
# Convention : Reuss Voigt Hill
#
# Bulk Modulus (GPa) = 36.21611 67.64802 51.93206
# Shear Modulus (GPa) = 21.91641 25.99858 23.95749
#
# Velocity S-wave (km/s) = 3.59032 3.91042 3.75378
# Velocity P-wave (km/s) = 6.20388 7.75735 7.02369
#
# Compressibility (1/GPa) = 0.02761202
#
# Stress axis : x y z
#
# Youngs Moduli (GPa) = 77.81295 94.57043 28.99669
#
# Poissons Ratio (x) = 0.52816 0.04922
# Poissons Ratio (y) = 0.43457 0.22814
# Poissons Ratio (z) = 0.13208 0.74407
#
# Static dielectric constant tensor:
#      x y z
#    x 3.234130 0.000000 0.000000 
#    y 0.000000 3.426950 0.000000 
#    z 0.000000 0.000000 2.924470 
# 
# 
# High freq. dielectric constant tensor:
#      x y z
#    x 1.639230 0.000000 0.000000 
#    y 0.000000 1.662810 0.000000 
#    z 0.000000 0.000000 1.632230 
# 
# From -- ./inp_files/11112.got.cif
#   From: 2010.03.12/outbox.cif.g09.slc.cpg/sg47_6_cif.got.tgz:11112.got - 2010.04.14 03:12:58.
