data_PCOD8193051
_publ_section_title
;
Structure prediction by ZEFSAII (Michael W. Deem and Ramdas Pophale) SiO2 
 PCOD8193051
Probable space group: I M A 2
;
_chemical_formula_sum "Si O2"
_cell_formula_units_Z 64
_cell_length_a 16.249786
_cell_length_b 12.028338
_cell_length_c 15.493249
_cell_angle_alpha 90.000000
_cell_angle_beta 90.000000
_cell_angle_gamma 90.000000
_cell_volume 3028.278199
_symmetry_space_group_name_H-M "I M A 2"
_symmetry_group_IT_number 46
_symmetry_cell_setting 'orthorhombic'
loop_
_space_group_symop_operation_xyz
x,y,z
-x,-y,z
1/2-x,y,z
1/2+x,-y,z
1/2+x,1/2+y,1/2+z
1/2-x,1/2-y,1/2+z
-x,1/2+y,1/2+z
x,1/2-y,1/2+z
loop_
_atom_site_type_symbol
_atom_site_label
_atom_site_fract_x
_atom_site_fract_y
_atom_site_fract_z
Si Si1 0.992803 0.621185 0.774370
Si Si2 0.345749 0.758913 0.276708
Si Si3 0.385386 0.706235 0.078548
Si Si4 0.341305 0.167523 0.390735
Si Si5 0.840033 0.544157 0.070782
Si Si6 0.562445 0.758200 0.619276
Si Si7 0.655113 0.883691 0.987113
Si Si8 0.842150 0.118130 0.936556
O O1 0.921457 0.614688 0.846228
O O2 0.961845 0.718178 0.713281
O O3 0.000000 0.500000 0.730419
O O4 0.087278 0.647040 0.803024
O O5 0.250000 0.796772 0.293563
O O6 0.354374 0.725865 0.176370
O O7 0.371890 0.660214 0.342525
O O8 0.372943 0.578582 0.054571
O O9 0.480893 0.728934 0.062713
O O10 0.341568 0.787286 0.010615
O O11 0.250000 0.152686 0.344806
O O12 0.335624 0.107270 0.481260
O O13 0.357877 0.298619 0.407393
O O14 0.750000 0.535916 0.113555
O O15 0.895721 0.620907 0.132855
O O16 0.617128 0.664404 0.574843
O O17 0.750000 0.898214 0.010436
O O18 0.612159 0.003266 0.964813
O O19 0.750000 0.078835 0.922155
#
# Coordination Sequence:
#
# PCOD8193051 Si02
#       8
#     8   8   8   8   8   8   8   8
#     4  11  26  41  59  93 128 167 213 261 326 388
#     4  10  24  44  62  93 129 163 215 269 315 384
#     4  11  23  40  65  94 129 167 211 267 326 383
#     4   9  21  40  62  92 126 164 210 261 317 382
#     4  10  21  40  66  92 121 165 214 259 321 387
#     4  10  23  39  60  90 126 163 210 263 320 384
#     4   9  20  40  63  90 124 165 216 263 315 387
#     4  10  22  39  64  93 122 169 216 257 325 388
#
# _framework density 21.134122000000001
#
# number of rings (size 3 to 8) (size 9 to 14) (size 15 to 20)
#    0.000    2.000    0.000    2.625    8.750    2.500 
#    0.000    2.500    0.000    0.000    0.000    0.000 
#    0.000    0.000    0.000    0.000    0.000    0.000 
#
# Total GULP energy -396426.290484 kJ/mol
# GULP energy per Si atom -12388.321578 kJ/mol
# Density = 2.108602 g / cm^3
# Si number density = 21.134122 Si / 1000 Ang^3
#
#
#
# Elastic Constant Matrix: (Units=GPa)
#
#
# Indices 1 2 3 4 5 6 
#
# 1 112.9416 35.2580 20.8967 0.0000 0.0000 0.0000
# 2 35.2580 152.6229 29.1754 0.0000 0.0000 0.0000
# 3 20.8967 29.1754 66.3986 0.0000 0.0000 0.0000
# 4 0.0000 0.0000 0.0000 23.9920 0.0000 0.0000
# 5 0.0000 0.0000 0.0000 0.0000 26.3449 0.0000
# 6 0.0000 0.0000 0.0000 0.0000 0.0000 18.0775
#
#
#
# Elastic Compliance Matrix: (Units=1/GPa)
#
#
# Indices 1 2 3 4 5 6 
#
# 1 0.009852 -0.001838 -0.002293 0.000000 0.000000 0.000000
# 2 -0.001838 0.007496 -0.002715 0.000000 0.000000 0.000000
# 3 -0.002293 -0.002715 0.016975 0.000000 0.000000 0.000000
# 4 0.000000 0.000000 0.000000 0.041681 0.000000 0.000000
# 5 0.000000 0.000000 0.000000 0.000000 0.037958 0.000000
# 6 0.000000 0.000000 0.000000 0.000000 0.000000 0.055317
#
#
# Mechanical properties :
#
#
# Convention : Reuss Voigt Hill
#
# Bulk Modulus (GPa) = 48.47068 55.84702 52.15885
# Shear Modulus (GPa) = 26.33687 30.12510 28.23098
#
# Velocity S-wave (km/s) = 3.53395 3.77958 3.65883
# Velocity P-wave (km/s) = 6.29574 6.74754 6.52555
#
# Compressibility (1/GPa) = 0.02063103
#
# Stress axis : x y z
#
# Youngs Moduli (GPa) = 101.50144 133.41059 58.90902
#
# Poissons Ratio (x) = 0.24516 0.13509
# Poissons Ratio (y) = 0.18652 0.15995
# Poissons Ratio (z) = 0.23276 0.36224
#
# Static dielectric constant tensor:
#      x y z
#    x 4.388450 0.000000 0.000000 
#    y 0.000000 4.089030 0.000000 
#    z 0.000000 0.000000 3.497950 
# 
# 
# High freq. dielectric constant tensor:
#      x y z
#    x 1.843950 0.000000 0.000000 
#    y 0.000000 1.836710 0.000000 
#    z 0.000000 0.000000 1.803020 
# 
# From -- ./inp_files/19623.got.cif
#   From: 2010.03.12/outbox.cif.g09.slc.cpg/sg46_10_cif.got.tgz:19623.got - 2010.04.14 02:56:35.
