data_PCOD8193854
_publ_section_title
;
Structure prediction by ZEFSAII (Michael W. Deem and Ramdas Pophale) SiO2 
 PCOD8193854
Probable space group: P M M M
;
_chemical_formula_sum "Si O2"
_cell_formula_units_Z 64
_cell_length_a 19.328391
_cell_length_b 24.046938
_cell_length_c 9.011971
_cell_angle_alpha 90.000000
_cell_angle_beta 90.000000
_cell_angle_gamma 90.000000
_cell_volume 4188.661565
_symmetry_space_group_name_H-M "P M M M"
_symmetry_group_IT_number 47
_symmetry_cell_setting 'orthorhombic'
loop_
_space_group_symop_operation_xyz
x,y,z
-x,-y,z
x,-y,-z
-x,y,-z
-x,-y,-z
x,y,-z
-x,y,z
x,-y,z
loop_
_atom_site_type_symbol
_atom_site_label
_atom_site_fract_x
_atom_site_fract_y
_atom_site_fract_z
Si Si1 0.078321 0.061075 0.676633
Si Si2 0.712366 0.561342 0.823822
Si Si3 0.201373 0.665828 0.175988
Si Si4 0.152439 0.167792 0.325674
Si Si5 0.575167 0.735360 0.328773
Si Si6 0.278563 0.764927 0.327093
Si Si7 0.078782 0.279313 0.675514
Si Si8 0.423796 0.381001 0.174913
O O1 0.081464 0.061520 0.500000
O O2 0.127605 0.109295 0.746003
O O3 0.000000 0.073003 0.728897
O O4 0.102367 0.000000 0.734364
O O5 0.730434 0.500000 0.760247
O O6 0.770460 0.605434 0.772871
O O7 0.636271 0.578818 0.763017
O O8 0.709574 0.559520 0.000000
O O9 0.254847 0.711785 0.234069
O O10 0.125417 0.673763 0.246086
O O11 0.196513 0.670721 0.000000
O O12 0.143493 0.161791 0.500000
O O13 0.232397 0.181216 0.281931
O O14 0.104176 0.218508 0.270527
O O15 0.576135 0.718084 0.500000
O O16 0.500000 0.762736 0.288404
O O17 0.639839 0.776915 0.295403
O O18 0.587461 0.680189 0.236865
O O19 0.264887 0.751375 0.500000
O O20 0.087260 0.285400 0.500000
O O21 0.000000 0.287927 0.726292
O O22 0.500000 0.404206 0.219978
O O23 0.417178 0.375457 0.000000
#
# Coordination Sequence:
#
# PCOD8193854 Si02
#       8
#     8   8   8   8   8   8   8   8
#     4   8  12  17  27  46  74 105 131 155 185 221
#     4   9  17  28  41  58  79 101 126 157 191 228
#     4  10  18  28  43  61  80 100 124 157 194 231
#     4   8  13  21  34  53  76 102 130 157 186 224
#     4   9  16  25  38  55  76 102 129 158 192 229
#     4   9  16  26  40  56  77 104 131 159 193 233
#     4   9  17  29  45  62  80 103 127 155 193 234
#     4   9  16  26  41  59  77  99 128 158 187 223
#
# _framework density 15.279343000000001
#
# number of rings (size 3 to 8) (size 9 to 14) (size 15 to 20)
#    0.000    3.125    1.250    1.875    0.000    2.000 
#    0.000    1.250    0.000    3.750    0.000    4.375 
#    0.000    8.500    0.000   34.500    0.000   25.000 
#
# Total GULP energy -792854.979228 kJ/mol
# GULP energy per Si atom -12388.359050 kJ/mol
# Density = 1.524457 g / cm^3
# Si number density = 15.279343 Si / 1000 Ang^3
#
#
#
# Elastic Constant Matrix: (Units=GPa)
#
#
# Indices 1 2 3 4 5 6 
#
# 1 151.3838 78.5811 17.9165 0.0000 0.0000 0.0000
# 2 78.5811 112.0656 14.1031 0.0000 0.0000 0.0000
# 3 17.9165 14.1031 15.3704 0.0000 0.0000 0.0000
# 4 0.0000 0.0000 0.0000 39.4725 0.0000 0.0000
# 5 0.0000 0.0000 0.0000 0.0000 16.4344 0.0000
# 6 0.0000 0.0000 0.0000 0.0000 0.0000 25.3745
#
#
#
# Elastic Compliance Matrix: (Units=1/GPa)
#
#
# Indices 1 2 3 4 5 6 
#
# 1 0.010924 -0.006848 -0.006450 0.000000 0.000000 0.000000
# 2 -0.006848 0.014381 -0.005213 0.000000 0.000000 0.000000
# 3 -0.006450 -0.005213 0.077362 0.000000 0.000000 0.000000
# 4 0.000000 0.000000 0.000000 0.025334 0.000000 0.000000
# 5 0.000000 0.000000 0.000000 0.000000 0.060848 0.000000
# 6 0.000000 0.000000 0.000000 0.000000 0.000000 0.039410
#
#
# Mechanical properties :
#
#
# Convention : Reuss Voigt Hill
#
# Bulk Modulus (GPa) = 15.23347 55.55789 35.39568
# Shear Modulus (GPa) = 17.41173 27.47087 22.44130
#
# Velocity S-wave (km/s) = 3.37940 4.24478 3.83657
# Velocity P-wave (km/s) = 5.02183 7.77590 6.54535
#
# Compressibility (1/GPa) = 0.06564493
#
# Stress axis : x y z
#
# Youngs Moduli (GPa) = 91.54253 69.53437 12.92626
#
# Poissons Ratio (x) = 0.47618 0.08337
# Poissons Ratio (y) = 0.62690 0.06738
# Poissons Ratio (z) = 0.59044 0.36248
#
# Static dielectric constant tensor:
#      x y z
#    x 3.288890 0.000000 0.000000 
#    y 0.000000 3.056560 0.000000 
#    z 0.000000 0.000000 2.643510 
# 
# 
# High freq. dielectric constant tensor:
#      x y z
#    x 1.592840 0.000000 0.000000 
#    y 0.000000 1.552970 0.000000 
#    z 0.000000 0.000000 1.553440 
# 
# From -- ./inp_files/11926.got.cif
#   From: 2010.03.12/outbox.cif.g09.slc.cpg/sg47_6_cif.got.tgz:11926.got - 2010.04.14 03:12:58.
