data_PCOD8193734
_publ_section_title
;
Structure prediction by ZEFSAII (Michael W. Deem and Ramdas Pophale) SiO2 
 PCOD8193734
Probable space group: P M M M
;
_chemical_formula_sum "Si O2"
_cell_formula_units_Z 56
_cell_length_a 13.790408
_cell_length_b 18.334836
_cell_length_c 16.427317
_cell_angle_alpha 90.000000
_cell_angle_beta 90.000000
_cell_angle_gamma 90.000000
_cell_volume 4153.562816
_symmetry_space_group_name_H-M "P M M M"
_symmetry_group_IT_number 47
_symmetry_cell_setting 'orthorhombic'
loop_
_space_group_symop_operation_xyz
x,y,z
-x,-y,z
x,-y,-z
-x,y,-z
-x,-y,-z
x,y,-z
-x,y,z
x,-y,z
loop_
_atom_site_type_symbol
_atom_site_label
_atom_site_fract_x
_atom_site_fract_y
_atom_site_fract_z
Si Si1 0.202449 0.085169 0.832531
Si Si2 0.112610 0.142671 0.679296
Si Si3 0.890734 0.579892 0.403480
Si Si4 0.390624 0.190998 0.408268
Si Si5 0.791113 0.276846 0.593520
Si Si6 0.609579 0.083799 0.736823
Si Si7 0.110679 0.086193 0.000000
Si Si8 0.115732 0.000000 0.591730
O O1 0.135222 0.133676 0.774277
O O2 0.316121 0.099870 0.811262
O O3 0.176709 0.000000 0.821431
O O4 0.174057 0.112250 0.922610
O O5 0.154870 0.217076 0.646195
O O6 0.158949 0.072349 0.634046
O O7 0.000000 0.145679 0.662927
O O8 0.887832 0.576836 0.500000
O O9 0.858953 0.500000 0.369308
O O10 0.817856 0.642910 0.371810
O O11 0.000000 0.598088 0.374097
O O12 0.378147 0.158708 0.500000
O O13 0.500000 0.217402 0.393227
O O14 0.323908 0.262816 0.397893
O O15 0.360160 0.129930 0.342745
O O16 0.825771 0.269564 0.500000
O O17 0.500000 0.103080 0.765995
O O18 0.616080 0.000000 0.709788
O O19 0.000000 0.118246 0.000000
O O20 0.102390 0.000000 0.000000
O O21 0.152615 0.000000 0.500000
O O22 0.000000 0.000000 0.598289
#
# Coordination Sequence:
#
# PCOD8193734 Si02
#       8
#     8   8   8   8   8   8   4   4
#     4  10  18  30  43  57  74  99 133 169 206 246
#     4  11  19  26  37  54  77 104 133 165 197 237
#     4   8  14  25  40  56  75 101 132 165 200 237
#     4   9  17  28  40  55  77 106 140 173 204 239
#     4  10  18  27  39  57  78 103 135 168 202 240
#     4   9  17  29  43  57  75 101 136 177 212 240
#     4   9  18  30  45  59  73  97 131 167 203 250
#     4   9  18  28  34  45  72 108 135 157 194 236
#
# _framework density 13.482400999999999
#
# number of rings (size 3 to 8) (size 9 to 14) (size 15 to 20)
#    0.000    2.571    2.143    1.714    0.000    2.286 
#    0.000    1.786    0.000    2.571    0.000    3.000 
#    0.000    0.000    0.000    0.643    0.000    7.071 
#
# Total GULP energy -694026.919073 kJ/mol
# GULP energy per Si atom -12393.337841 kJ/mol
# Density = 1.345171 g / cm^3
# Si number density = 13.482401 Si / 1000 Ang^3
#
#
#
# Elastic Constant Matrix: (Units=GPa)
#
#
# Indices 1 2 3 4 5 6 
#
# 1 76.0455 41.3391 36.1750 0.0000 0.0000 0.0000
# 2 41.3391 85.2426 34.6618 0.0000 0.0000 0.0000
# 3 36.1750 34.6618 78.1647 0.0000 0.0000 0.0000
# 4 0.0000 0.0000 0.0000 4.4184 0.0000 0.0000
# 5 0.0000 0.0000 0.0000 0.0000 19.5136 0.0000
# 6 0.0000 0.0000 0.0000 0.0000 0.0000 18.0514
#
#
#
# Elastic Compliance Matrix: (Units=1/GPa)
#
#
# Indices 1 2 3 4 5 6 
#
# 1 0.019942 -0.007220 -0.006028 0.000000 0.000000 0.000000
# 2 -0.007220 0.016926 -0.004164 0.000000 0.000000 0.000000
# 3 -0.006028 -0.004164 0.017430 0.000000 0.000000 0.000000
# 4 0.000000 0.000000 0.000000 0.226326 0.000000 0.000000
# 5 0.000000 0.000000 0.000000 0.000000 0.051246 0.000000
# 6 0.000000 0.000000 0.000000 0.000000 0.000000 0.055397
#
#
# Mechanical properties :
#
#
# Convention : Reuss Voigt Hill
#
# Bulk Modulus (GPa) = 51.35068 51.53384 51.44226
# Shear Modulus (GPa) = 11.66635 16.88181 14.27408
#
# Velocity S-wave (km/s) = 2.94479 3.54239 3.25733
# Velocity P-wave (km/s) = 7.05211 7.41872 7.23774
#
# Compressibility (1/GPa) = 0.01947394
#
# Stress axis : x y z
#
# Youngs Moduli (GPa) = 50.14443 59.08068 57.37319
#
# Poissons Ratio (x) = 0.42658 0.34583
# Poissons Ratio (y) = 0.36205 0.23891
# Poissons Ratio (z) = 0.30225 0.24602
#
# Static dielectric constant tensor:
#      x y z
#    x 2.847420 0.000000 0.000000 
#    y 0.000000 2.662050 0.000000 
#    z 0.000000 0.000000 2.545130 
# 
# 
# High freq. dielectric constant tensor:
#      x y z
#    x 1.522980 0.000000 0.000000 
#    y 0.000000 1.479860 0.000000 
#    z 0.000000 0.000000 1.482330 
# 
# From -- ./inp_files/24053.got.cif
#   From: 2010.03.12/outbox.cif.g09.slc.cpg/sg47_13_cif.got.tgz:24053.got - 2010.04.14 03:12:58.
