data_PCOD8193903
_publ_section_title
;
Structure prediction by ZEFSAII (Michael W. Deem and Ramdas Pophale) SiO2 
 PCOD8193903
Probable space group: P M M M
;
_chemical_formula_sum "Si O2"
_cell_formula_units_Z 64
_cell_length_a 18.686781
_cell_length_b 14.534979
_cell_length_c 15.654678
_cell_angle_alpha 90.000000
_cell_angle_beta 90.000000
_cell_angle_gamma 90.000000
_cell_volume 4251.997922
_symmetry_space_group_name_H-M "P M M M"
_symmetry_group_IT_number 47
_symmetry_cell_setting 'orthorhombic'
loop_
_space_group_symop_operation_xyz
x,y,z
-x,-y,z
x,-y,-z
-x,y,-z
-x,-y,-z
x,y,-z
-x,y,z
x,-y,z
loop_
_atom_site_type_symbol
_atom_site_label
_atom_site_fract_x
_atom_site_fract_y
_atom_site_fract_z
Si Si1 0.418712 0.898030 0.817028
Si Si2 0.327386 0.102131 0.350390
Si Si3 0.171032 0.102066 0.401803
Si Si4 0.348573 0.701686 0.595552
Si Si5 0.416206 0.397864 0.748363
Si Si6 0.079434 0.728625 0.601562
Si Si7 0.204315 0.602450 0.398985
Si Si8 0.584040 0.715867 0.093346
O O1 0.500000 0.882071 0.782106
O O2 0.362040 0.885947 0.741817
O O3 0.400061 0.823309 0.888863
O O4 0.412028 0.000000 0.857427
O O5 0.241565 0.109696 0.343307
O O6 0.354850 0.187263 0.407437
O O7 0.347534 0.000000 0.388370
O O8 0.193761 0.124237 0.500000
O O9 0.111325 0.173116 0.369195
O O10 0.137668 0.000000 0.395002
O O11 0.365687 0.665175 0.500000
O O12 0.404397 0.659129 0.661755
O O13 0.270302 0.667986 0.626673
O O14 0.500000 0.405169 0.761911
O O15 0.382373 0.500000 0.740987
O O16 0.381957 0.346681 0.831145
O O17 0.075163 0.725102 0.500000
O O18 0.131078 0.647748 0.636438
O O19 0.000000 0.716348 0.640940
O O20 0.199790 0.595789 0.500000
O O21 0.213198 0.500000 0.359662
O O22 0.500000 0.698035 0.090388
O O23 0.617105 0.691115 0.000000
#
# Coordination Sequence:
#
# PCOD8193903 Si02
#       8
#     8   8   8   8   8   8   8   8
#     4   9  17  29  45  65  88 111 137 173 214 257
#     4  10  18  28  45  64  83 110 142 175 213 256
#     4   9  16  26  39  55  76 104 139 174 208 250
#     4  11  20  31  47  63  83 113 147 181 218 257
#     4  10  21  35  48  64  86 110 142 184 222 255
#     4   9  16  25  37  54  74  97 129 172 219 256
#     4   9  17  28  40  55  75 102 138 175 209 249
#     4   9  17  30  48  67  85 107 136 171 216 265
#
# _framework density 15.051748999999999
#
# number of rings (size 3 to 8) (size 9 to 14) (size 15 to 20)
#    0.000    2.500    2.500    0.750    0.000    2.750 
#    0.000    5.625    0.000    1.125    0.000    8.750 
#    0.000    0.000    0.000    0.000    0.000   10.000 
#
# Total GULP energy -793047.660020 kJ/mol
# GULP energy per Si atom -12391.369688 kJ/mol
# Density = 1.501749 g / cm^3
# Si number density = 15.051749 Si / 1000 Ang^3
#
#
#
# Elastic Constant Matrix: (Units=GPa)
#
#
# Indices 1 2 3 4 5 6 
#
# 1 40.1162 19.8919 17.9387 0.0000 0.0000 0.0000
# 2 19.8919 118.9822 34.2199 0.0000 0.0000 0.0000
# 3 17.9387 34.2199 65.0818 0.0000 0.0000 0.0000
# 4 0.0000 0.0000 0.0000 12.8127 0.0000 0.0000
# 5 0.0000 0.0000 0.0000 0.0000 2.7106 0.0000
# 6 0.0000 0.0000 0.0000 0.0000 0.0000 18.7468
#
#
#
# Elastic Compliance Matrix: (Units=1/GPa)
#
#
# Indices 1 2 3 4 5 6 
#
# 1 0.029336 -0.003038 -0.006488 0.000000 0.000000 0.000000
# 2 -0.003038 0.010217 -0.004534 0.000000 0.000000 0.000000
# 3 -0.006488 -0.004534 0.019538 0.000000 0.000000 0.000000
# 4 0.000000 0.000000 0.000000 0.078048 0.000000 0.000000
# 5 0.000000 0.000000 0.000000 0.000000 0.368919 0.000000
# 6 0.000000 0.000000 0.000000 0.000000 0.000000 0.053342
#
#
# Mechanical properties :
#
#
# Convention : Reuss Voigt Hill
#
# Bulk Modulus (GPa) = 32.29149 40.92013 36.60581
# Shear Modulus (GPa) = 8.36339 16.99601 12.67970
#
# Velocity S-wave (km/s) = 2.35976 3.36396 2.90557
# Velocity P-wave (km/s) = 5.37818 6.50643 5.96902
#
# Compressibility (1/GPa) = 0.03096792
#
# Stress axis : x y z
#
# Youngs Moduli (GPa) = 34.08837 97.87881 51.18264
#
# Poissons Ratio (x) = 0.29739 0.33209
# Poissons Ratio (y) = 0.10357 0.23209
# Poissons Ratio (z) = 0.22117 0.44383
#
# Static dielectric constant tensor:
#      x y z
#    x 2.793870 0.000000 0.000000 
#    y 0.000000 3.323430 0.000000 
#    z 0.000000 0.000000 2.609910 
# 
# 
# High freq. dielectric constant tensor:
#      x y z
#    x 1.545650 0.000000 0.000000 
#    y 0.000000 1.602010 0.000000 
#    z 0.000000 0.000000 1.522340 
# 
# From -- ./inp_files/24093.got.cif
#   From: 2010.03.12/outbox.cif.g09.slc.cpg/sg47_13_cif.got.tgz:24093.got - 2010.04.14 03:12:58.
