data_PCOD8193772
_publ_section_title
;
Structure prediction by ZEFSAII (Michael W. Deem and Ramdas Pophale) SiO2 
 PCOD8193772
Probable space group: P M M M
;
_chemical_formula_sum "Si O2"
_cell_formula_units_Z 52
_cell_length_a 18.541510
_cell_length_b 9.044533
_cell_length_c 18.747715
_cell_angle_alpha 90.000000
_cell_angle_beta 90.000000
_cell_angle_gamma 90.000000
_cell_volume 3143.978665
_symmetry_space_group_name_H-M "P M M M"
_symmetry_group_IT_number 47
_symmetry_cell_setting 'orthorhombic'
loop_
_space_group_symop_operation_xyz
x,y,z
-x,-y,z
x,-y,-z
-x,y,-z
-x,-y,-z
x,y,-z
-x,y,z
x,-y,z
loop_
_atom_site_type_symbol
_atom_site_label
_atom_site_fract_x
_atom_site_fract_y
_atom_site_fract_z
Si Si1 0.218941 0.329661 0.281020
Si Si2 0.828555 0.327433 0.920461
Si Si3 0.652777 0.332121 0.369952
Si Si4 0.581615 0.327944 0.218176
Si Si5 0.078739 0.672375 0.788227
Si Si6 0.418239 0.174330 0.500000
Si Si7 0.292803 0.173824 0.153127
O O1 0.233186 0.500000 0.255633
O O2 0.260434 0.306915 0.356492
O O3 0.132376 0.298312 0.279860
O O4 0.252495 0.215916 0.225722
O O5 0.814086 0.500000 0.907833
O O6 0.885827 0.266937 0.861871
O O7 0.752026 0.244043 0.912174
O O8 0.858786 0.296795 0.000000
O O9 0.638023 0.500000 0.394515
O O10 0.610894 0.295333 0.297370
O O11 0.625039 0.224577 0.430647
O O12 0.500000 0.270975 0.214383
O O13 0.587723 0.500000 0.200463
O O14 0.626416 0.239401 0.158195
O O15 0.066451 0.500000 0.797864
O O16 0.000000 0.747720 0.775258
O O17 0.500000 0.238581 0.500000
O O18 0.420718 0.000000 0.500000
O O19 0.297095 0.000000 0.142872
#
# Coordination Sequence:
#
# PCOD8193772 Si02
#       7
#     8   8   8   8   8   4   8
#     4   8  15  29  46  64  87 115 149 183 214 255
#     4   9  17  29  44  61  85 119 153 180 210 257
#     4   9  17  30  47  64  85 117 152 179 206 251
#     4   9  17  30  48  67  86 110 142 180 221 264
#     4   8  13  23  43  71  96 113 136 178 226 263
#     4  11  23  33  41  61  94 123 146 180 223 259
#     4  10  18  27  42  63  86 112 144 183 222 259
#
# _framework density 16.539553000000002
#
# number of rings (size 3 to 8) (size 9 to 14) (size 15 to 20)
#    0.000    3.000    0.000    3.923    0.000    4.615 
#    0.000    1.538    0.000    7.846    0.000    8.077 
#    0.000    4.308    0.000    0.000    0.000    0.000 
#
# Total GULP energy -644198.887298 kJ/mol
# GULP energy per Si atom -12388.440140 kJ/mol
# Density = 1.650191 g / cm^3
# Si number density = 16.539553 Si / 1000 Ang^3
#
#
#
# Elastic Constant Matrix: (Units=GPa)
#
#
# Indices 1 2 3 4 5 6 
#
# 1 158.1897 32.8684 48.9064 0.0000 0.0000 0.0000
# 2 32.8684 49.8192 18.1842 0.0000 0.0000 0.0000
# 3 48.9064 18.1842 52.6540 0.0000 0.0000 0.0000
# 4 0.0000 0.0000 0.0000 14.1143 0.0000 0.0000
# 5 0.0000 0.0000 0.0000 0.0000 19.7778 0.0000
# 6 0.0000 0.0000 0.0000 0.0000 0.0000 10.2632
#
#
#
# Elastic Compliance Matrix: (Units=1/GPa)
#
#
# Indices 1 2 3 4 5 6 
#
# 1 0.009355 -0.003433 -0.007503 0.000000 0.000000 0.000000
# 2 -0.003433 0.024228 -0.005178 0.000000 0.000000 0.000000
# 3 -0.007503 -0.005178 0.027749 0.000000 0.000000 0.000000
# 4 0.000000 0.000000 0.000000 0.070850 0.000000 0.000000
# 5 0.000000 0.000000 0.000000 0.000000 0.050562 0.000000
# 6 0.000000 0.000000 0.000000 0.000000 0.000000 0.097435
#
#
# Mechanical properties :
#
#
# Convention : Reuss Voigt Hill
#
# Bulk Modulus (GPa) = 34.36137 51.17566 42.76851
# Shear Modulus (GPa) = 15.52273 19.54467 17.53370
#
# Velocity S-wave (km/s) = 3.06685 3.44131 3.25946
# Velocity P-wave (km/s) = 5.77591 6.84095 6.33087
#
# Compressibility (1/GPa) = 0.02910245
#
# Stress axis : x y z
#
# Youngs Moduli (GPa) = 106.90020 41.27516 36.03681
#
# Poissons Ratio (x) = 0.14170 0.27039
# Poissons Ratio (y) = 0.36699 0.18661
# Poissons Ratio (z) = 0.80209 0.21374
#
# Static dielectric constant tensor:
#      x y z
#    x 3.608800 0.000000 0.000000 
#    y 0.000000 2.849520 0.000000 
#    z 0.000000 0.000000 2.921300 
# 
# 
# High freq. dielectric constant tensor:
#      x y z
#    x 1.641620 0.000000 0.000000 
#    y 0.000000 1.614530 0.000000 
#    z 0.000000 0.000000 1.598190 
# 
# From -- ./inp_files/31294.got.cif
#   From: 2010.03.12/outbox.cif.g09.slc.cpg/sg47_16_cif.got.tgz:31294.got - 2010.04.14 03:12:58.
