data_PCOD8193487
_publ_section_title
;
Structure prediction by ZEFSAII (Michael W. Deem and Ramdas Pophale) SiO2 
 PCOD8193487
Probable space group: P M M M
;
_chemical_formula_sum "Si O2"
_cell_formula_units_Z 44
_cell_length_a 23.061183
_cell_length_b 14.439455
_cell_length_c 9.819768
_cell_angle_alpha 90.000000
_cell_angle_beta 90.000000
_cell_angle_gamma 90.000000
_cell_volume 3269.893523
_symmetry_space_group_name_H-M "P M M M"
_symmetry_group_IT_number 47
_symmetry_cell_setting 'orthorhombic'
loop_
_space_group_symop_operation_xyz
x,y,z
-x,-y,z
x,-y,-z
-x,y,-z
-x,-y,-z
x,y,-z
-x,y,z
x,-y,z
loop_
_atom_site_type_symbol
_atom_site_label
_atom_site_fract_x
_atom_site_fract_y
_atom_site_fract_z
Si Si1 0.161378 0.109783 0.150061
Si Si2 0.500000 0.103277 0.661151
Si Si3 0.064224 0.110122 0.347824
Si Si4 0.614955 0.790828 0.661715
Si Si5 0.292356 0.892393 0.158633
Si Si6 0.564753 0.398686 0.661226
O O1 0.113832 0.153806 0.251661
O O2 0.226408 0.135073 0.196019
O O3 0.155135 0.000000 0.145488
O O4 0.149085 0.150475 0.000000
O O5 0.500000 0.099380 0.500000
O O6 0.442663 0.155899 0.710692
O O7 0.500000 0.000000 0.723722
O O8 0.074592 0.148080 0.500000
O O9 0.000000 0.139811 0.296342
O O10 0.068832 0.000000 0.348204
O O11 0.625625 0.802217 0.500000
O O12 0.668866 0.830419 0.743525
O O13 0.607733 0.683382 0.706989
O O14 0.304053 0.000000 0.190463
O O15 0.305231 0.871714 0.000000
O O16 0.559737 0.395432 0.500000
O O17 0.500000 0.382616 0.721016
O O18 0.588336 0.500000 0.708842
#
# Coordination Sequence:
#
# PCOD8193487 Si02
#       6
#     8   4   8   8   8   8
#     4   8  14  24  35  45  60  87 122 153 178 208
#     4   9  16  24  34  52  76  93 111 149 188 211
#     4   8  13  20  30  46  67  87 109 144 187 219
#     4  10  17  26  41  59  73  91 121 152 185 224
#     4   9  18  30  39  49  71 101 128 155 187 220
#     4   8  13  23  40  60  78  92 110 143 186 228
#
# _framework density 13.456094999999999
#
# number of rings (size 3 to 8) (size 9 to 14) (size 15 to 20)
#    0.000    3.364    0.909    2.727    0.000    2.182 
#    0.000    4.091    0.000    2.182    0.000    1.273 
#    0.000    0.000    0.000    0.000    0.000    0.909 
#
# Total GULP energy -545172.897421 kJ/mol
# GULP energy per Si atom -12390.293123 kJ/mol
# Density = 1.342547 g / cm^3
# Si number density = 13.456095 Si / 1000 Ang^3
#
#
#
# Elastic Constant Matrix: (Units=GPa)
#
#
# Indices 1 2 3 4 5 6 
#
# 1 112.9314 43.0804 58.0283 0.0000 0.0000 0.0000
# 2 43.0804 69.7996 30.1017 0.0000 0.0000 0.0000
# 3 58.0283 30.1017 53.8731 0.0000 0.0000 0.0000
# 4 0.0000 0.0000 0.0000 7.6706 0.0000 0.0000
# 5 0.0000 0.0000 0.0000 0.0000 14.2838 0.0000
# 6 0.0000 0.0000 0.0000 0.0000 0.0000 2.9492
#
#
#
# Elastic Compliance Matrix: (Units=1/GPa)
#
#
# Indices 1 2 3 4 5 6 
#
# 1 0.020711 -0.004166 -0.019981 0.000000 0.000000 0.000000
# 2 -0.004166 0.019713 -0.006527 0.000000 0.000000 0.000000
# 3 -0.019981 -0.006527 0.043731 0.000000 0.000000 0.000000
# 4 0.000000 0.000000 0.000000 0.130369 0.000000 0.000000
# 5 0.000000 0.000000 0.000000 0.000000 0.070009 0.000000
# 6 0.000000 0.000000 0.000000 0.000000 0.000000 0.339070
#
#
# Mechanical properties :
#
#
# Convention : Reuss Voigt Hill
#
# Bulk Modulus (GPa) = 43.84618 55.44722 49.64670
# Shear Modulus (GPa) = 7.21967 12.00697 9.61332
#
# Velocity S-wave (km/s) = 2.31884 2.99039 2.67577
# Velocity P-wave (km/s) = 6.31068 7.29512 6.82068
#
# Compressibility (1/GPa) = 0.02280700
#
# Stress axis : x y z
#
# Youngs Moduli (GPa) = 48.28380 50.72805 22.86715
#
# Poissons Ratio (x) = 0.21133 0.45690
# Poissons Ratio (y) = 0.20115 0.14926
# Poissons Ratio (z) = 0.96473 0.33112
#
# Static dielectric constant tensor:
#      x y z
#    x 2.768720 0.000000 0.000000 
#    y 0.000000 2.567570 0.000000 
#    z 0.000000 0.000000 2.627260 
# 
# 
# High freq. dielectric constant tensor:
#      x y z
#    x 1.509860 0.000000 0.000000 
#    y 0.000000 1.466260 0.000000 
#    z 0.000000 0.000000 1.493930 
# 
# From -- ./inp_files/13368.got.cif
#   From: 2010.03.12/outbox.cif.g09.slc.cpg/sg47_7_cif.got.tgz:13368.got - 2010.04.14 03:12:58.
