data_PCOD8193073
_publ_section_title
;
Structure prediction by ZEFSAII (Michael W. Deem and Ramdas Pophale) SiO2 
 PCOD8193073
Probable space group: I M A 2
;
_chemical_formula_sum "Si O2"
_cell_formula_units_Z 64
_cell_length_a 14.268232
_cell_length_b 11.235769
_cell_length_c 17.346164
_cell_angle_alpha 90.000000
_cell_angle_beta 90.000000
_cell_angle_gamma 90.000000
_cell_volume 2780.842628
_symmetry_space_group_name_H-M "I M A 2"
_symmetry_group_IT_number 46
_symmetry_cell_setting 'orthorhombic'
loop_
_space_group_symop_operation_xyz
x,y,z
-x,-y,z
1/2-x,y,z
1/2+x,-y,z
1/2+x,1/2+y,1/2+z
1/2-x,1/2-y,1/2+z
-x,1/2+y,1/2+z
x,1/2-y,1/2+z
loop_
_atom_site_type_symbol
_atom_site_label
_atom_site_fract_x
_atom_site_fract_y
_atom_site_fract_z
Si Si1 0.397652 0.034202 0.329220
Si Si2 0.984462 0.378354 0.424866
Si Si3 0.853510 0.481669 0.557292
Si Si4 0.359657 0.173347 0.178395
Si Si5 0.647708 0.270615 0.820170
Si Si6 0.146694 0.754035 0.145956
Si Si7 0.356706 0.297001 0.964878
Si Si8 0.029591 0.129739 0.607101
O O1 0.405875 0.099122 0.247019
O O2 0.349453 0.124476 0.388238
O O3 0.500000 0.000000 0.359065
O O4 0.339850 0.912588 0.324804
O O5 0.928230 0.430629 0.497943
O O6 0.928712 0.277498 0.379717
O O7 0.000000 0.500000 0.374323
O O8 0.085267 0.325293 0.450486
O O9 0.750000 0.486167 0.518806
O O10 0.878917 0.609881 0.595322
O O11 0.850962 0.394686 0.631220
O O12 0.250000 0.190816 0.194871
O O13 0.411105 0.301223 0.173030
O O14 0.750000 0.216603 0.840260
O O15 0.617664 0.232008 0.734532
O O16 0.250000 0.699013 0.128669
O O17 0.069550 0.695026 0.090303
O O18 0.250000 0.263929 0.990169
O O19 0.408674 0.375794 0.029664
O O20 0.000000 0.000000 0.636927
#
# Coordination Sequence:
#
# PCOD8193073 Si02
#       8
#     8   8   8   8   8   8   8   8
#     4  12  23  44  76 107 137 181 236 304 362 420
#     4  12  26  43  68 101 147 191 230 284 361 437
#     4  10  21  41  73 108 137 174 231 296 360 419
#     4  11  24  44  75 111 142 181 238 305 364 421
#     4  11  23  44  73 106 138 175 229 295 359 426
#     4  10  22  43  70 102 135 172 229 300 356 415
#     4  12  27  47  68 100 145 189 239 299 363 431
#     4  12  27  45  67  97 141 193 236 284 356 432
#
# _framework density 23.014609
#
# number of rings (size 3 to 8) (size 9 to 14) (size 15 to 20)
#    0.000    0.750    3.750    3.750    0.000    3.500 
#    0.000    0.000    0.000    0.000    0.000    0.000 
#    0.000    0.000    0.000    0.000    0.000    0.000 
#
# Total GULP energy -396747.141517 kJ/mol
# GULP energy per Si atom -12398.348172 kJ/mol
# Density = 2.296223 g / cm^3
# Si number density = 23.014609 Si / 1000 Ang^3
#
#
#
# Elastic Constant Matrix: (Units=GPa)
#
#
# Indices 1 2 3 4 5 6 
#
# 1 159.1219 44.2919 39.7789 0.0000 0.0000 0.0000
# 2 44.2919 136.0609 31.2479 0.0000 0.0000 0.0000
# 3 39.7789 31.2479 77.3526 0.0000 0.0000 0.0000
# 4 0.0000 0.0000 0.0000 30.9537 0.0000 0.0000
# 5 0.0000 0.0000 0.0000 0.0000 26.7508 0.0000
# 6 0.0000 0.0000 0.0000 0.0000 0.0000 25.8718
#
#
#
# Elastic Compliance Matrix: (Units=1/GPa)
#
#
# Indices 1 2 3 4 5 6 
#
# 1 0.007564 -0.001729 -0.003191 0.000000 0.000000 0.000000
# 2 -0.001729 0.008497 -0.002543 0.000000 0.000000 0.000000
# 3 -0.003191 -0.002543 0.015596 0.000000 0.000000 0.000000
# 4 0.000000 0.000000 0.000000 0.032306 0.000000 0.000000
# 5 0.000000 0.000000 0.000000 0.000000 0.037382 0.000000
# 6 0.000000 0.000000 0.000000 0.000000 0.000000 0.038652
#
#
# Mechanical properties :
#
#
# Convention : Reuss Voigt Hill
#
# Bulk Modulus (GPa) = 59.77444 67.01919 63.39682
# Shear Modulus (GPa) = 31.15263 33.86303 32.50783
#
# Velocity S-wave (km/s) = 3.68312 3.84001 3.76238
# Velocity P-wave (km/s) = 6.64199 6.98888 6.81764
#
# Compressibility (1/GPa) = 0.01672956
#
# Stress axis : x y z
#
# Youngs Moduli (GPa) = 132.21271 117.69361 64.11856
#
# Poissons Ratio (x) = 0.20353 0.20460
# Poissons Ratio (y) = 0.22864 0.16306
# Poissons Ratio (z) = 0.42189 0.29930
#
# Static dielectric constant tensor:
#      x y z
#    x 4.328670 0.000000 0.000000 
#    y 0.000000 4.321300 0.000000 
#    z 0.000000 0.000000 3.812930 
# 
# 
# High freq. dielectric constant tensor:
#      x y z
#    x 1.933410 0.000000 0.000000 
#    y 0.000000 1.904790 0.000000 
#    z 0.000000 0.000000 1.892250 
# 
# From -- ./inp_files/19645.got.cif
#   From: 2010.03.12/outbox.cif.g09.slc.cpg/sg46_10_cif.got.tgz:19645.got - 2010.04.14 02:56:35.
