data_PCOD8193930
_publ_section_title
;
Structure prediction by ZEFSAII (Michael W. Deem and Ramdas Pophale) SiO2 
 PCOD8193930
Probable space group: P M M M
;
_chemical_formula_sum "Si O2"
_cell_formula_units_Z 36
_cell_length_a 7.929283
_cell_length_b 22.213759
_cell_length_c 12.001792
_cell_angle_alpha 90.000000
_cell_angle_beta 90.000000
_cell_angle_gamma 90.000000
_cell_volume 2113.985821
_symmetry_space_group_name_H-M "P M M M"
_symmetry_group_IT_number 47
_symmetry_cell_setting 'orthorhombic'
loop_
_space_group_symop_operation_xyz
x,y,z
-x,-y,z
x,-y,-z
-x,y,-z
-x,-y,-z
x,y,-z
-x,y,z
x,-y,z
loop_
_atom_site_type_symbol
_atom_site_label
_atom_site_fract_x
_atom_site_fract_y
_atom_site_fract_z
Si Si1 0.200800 0.431019 0.500000
Si Si2 0.195522 0.390107 0.733969
Si Si3 0.201715 0.500000 0.875851
Si Si4 0.000000 0.931750 0.133021
Si Si5 0.697520 0.719301 0.124546
Si Si6 0.312749 0.855130 0.132071
O O1 0.264109 0.500000 0.500000
O O2 0.273243 0.396706 0.609609
O O3 0.000000 0.429324 0.500000
O O4 0.274662 0.440832 0.814439
O O5 0.222003 0.324188 0.784257
O O6 0.000000 0.404055 0.724243
O O7 0.000000 0.500000 0.878746
O O8 0.276160 0.500000 0.000000
O O9 0.169082 0.899568 0.180214
O O10 0.000000 0.000000 0.176584
O O11 0.000000 0.928857 0.000000
O O12 0.500000 0.708423 0.120506
O O13 0.738233 0.787074 0.164172
O O14 0.772654 0.707619 0.000000
O O15 0.500000 0.871532 0.179961
O O16 0.321239 0.860446 0.000000
#
# Coordination Sequence:
#
# PCOD8193930 Si02
#       6
#     4   8   4   4   8   8
#     4   9  16  30  47  63  85 113 145 182 229 282
#     4  10  18  28  46  65  82 111 147 186 227 272
#     4   9  16  25  38  62  87 103 136 185 226 266
#     4   9  16  24  38  62  88 118 159 194 216 254
#     4   9  18  31  44  61  87 116 147 185 231 277
#     4   8  15  27  40  56  85 122 153 186 227 268
#
# _framework density 17.029442
#
# number of rings (size 3 to 8) (size 9 to 14) (size 15 to 20)
#    0.000    3.000    1.111    2.000    1.556    1.778 
#    0.000    3.333    0.000    2.667    0.000    0.000 
#    0.000    0.000    0.000    2.000    0.000    9.778 
#
# Total GULP energy -446143.846110 kJ/mol
# GULP energy per Si atom -12392.884614 kJ/mol
# Density = 1.699068 g / cm^3
# Si number density = 17.029442 Si / 1000 Ang^3
#
#
#
# Elastic Constant Matrix: (Units=GPa)
#
#
# Indices 1 2 3 4 5 6 
#
# 1 54.9021 47.1152 23.0140 0.0000 0.0000 0.0000
# 2 47.1152 127.6315 52.9904 0.0000 0.0000 0.0000
# 3 23.0140 52.9904 100.8880 0.0000 0.0000 0.0000
# 4 0.0000 0.0000 0.0000 6.2780 0.0000 0.0000
# 5 0.0000 0.0000 0.0000 0.0000 6.2464 0.0000
# 6 0.0000 0.0000 0.0000 0.0000 0.0000 0.4751
#
#
#
# Elastic Compliance Matrix: (Units=1/GPa)
#
#
# Indices 1 2 3 4 5 6 
#
# 1 0.026768 -0.009395 -0.001172 0.000000 0.000000 0.000000
# 2 -0.009395 0.013318 -0.004852 0.000000 0.000000 0.000000
# 3 -0.001172 -0.004852 0.012728 0.000000 0.000000 0.000000
# 4 0.000000 0.000000 0.000000 0.159287 0.000000 0.000000
# 5 0.000000 0.000000 0.000000 0.000000 0.160091 0.000000
# 6 0.000000 0.000000 0.000000 0.000000 0.000000 2.104943
#
#
# Mechanical properties :
#
#
# Convention : Reuss Voigt Hill
#
# Bulk Modulus (GPa) = 45.50337 58.85120 52.17729
# Shear Modulus (GPa) = 1.98784 13.28670 7.63727
#
# Velocity S-wave (km/s) = 1.08159 2.79627 2.12002
# Velocity P-wave (km/s) = 5.32336 6.71260 6.05794
#
# Compressibility (1/GPa) = 0.02197639
#
# Stress axis : x y z
#
# Youngs Moduli (GPa) = 37.35841 75.08866 78.56952
#
# Poissons Ratio (x) = 0.70545 0.09205
# Poissons Ratio (y) = 0.35098 0.38120
# Poissons Ratio (z) = 0.04377 0.36432
#
# Static dielectric constant tensor:
#      x y z
#    x 3.138840 0.000000 0.000000 
#    y 0.000000 3.248430 0.000000 
#    z 0.000000 0.000000 3.099110 
# 
# 
# High freq. dielectric constant tensor:
#      x y z
#    x 1.645850 0.000000 0.000000 
#    y 0.000000 1.649900 0.000000 
#    z 0.000000 0.000000 1.607190 
# 
# From -- ./inp_files/15210.got.cif
#   From: 2010.03.12/outbox.cif.g09.slc.cpg/sg47_8_cif.got.tgz:15210.got - 2010.04.14 03:12:58.
