data_PCOD8193617
_publ_section_title
;
Structure prediction by ZEFSAII (Michael W. Deem and Ramdas Pophale) SiO2 
 PCOD8193617
Probable space group: P M M M
;
_chemical_formula_sum "Si O2"
_cell_formula_units_Z 52
_cell_length_a 12.954868
_cell_length_b 22.592540
_cell_length_c 9.081397
_cell_angle_alpha 90.000000
_cell_angle_beta 90.000000
_cell_angle_gamma 90.000000
_cell_volume 2657.973910
_symmetry_space_group_name_H-M "P M M M"
_symmetry_group_IT_number 47
_symmetry_cell_setting 'orthorhombic'
loop_
_space_group_symop_operation_xyz
x,y,z
-x,-y,z
x,-y,-z
-x,y,-z
-x,-y,-z
x,y,-z
-x,y,z
x,-y,z
loop_
_atom_site_type_symbol
_atom_site_label
_atom_site_fract_x
_atom_site_fract_y
_atom_site_fract_z
Si Si1 0.383230 0.612631 0.326355
Si Si2 0.380509 0.727168 0.836168
Si Si3 0.673096 0.155123 0.673580
Si Si4 0.500000 0.934255 0.325585
Si Si5 0.204822 0.434959 0.830436
Si Si6 0.886007 0.197640 0.674093
Si Si7 0.119984 0.673402 0.661979
O O1 0.375465 0.613344 0.500000
O O2 0.500000 0.602341 0.274797
O O3 0.332149 0.673983 0.262902
O O4 0.313648 0.561380 0.256406
O O5 0.500000 0.711260 0.850130
O O6 0.372851 0.789214 0.756189
O O7 0.330396 0.728827 0.000000
O O8 0.658546 0.165058 0.500000
O O9 0.605491 0.098730 0.726255
O O10 0.796176 0.149518 0.714395
O O11 0.500000 0.938649 0.500000
O O12 0.500000 0.000000 0.255551
O O13 0.152157 0.500000 0.811633
O O14 0.134164 0.382915 0.766720
O O15 0.226625 0.421079 0.000000
O O16 0.897370 0.202108 0.500000
O O17 0.843516 0.262440 0.729502
O O18 0.000000 0.180413 0.740511
O O19 0.170188 0.660806 0.500000
O O20 0.000000 0.683583 0.640338
#
# Coordination Sequence:
#
# PCOD8193617 Si02
#       7
#     8   8   8   4   8   8   8
#     4  10  21  36  54  74  97 128 168 212 256 312
#     4  10  19  30  47  74 106 131 156 202 264 319
#     4  10  17  28  50  73  99 138 180 217 251 304
#     4   9  18  30  45  73 111 147 184 223 260 295
#     4  11  24  38  51  70  98 132 169 212 264 318
#     4   8  15  28  48  75 100 123 159 211 267 312
#     4   9  18  34  55  76  98 125 161 210 266 321
#
# _framework density 19.563773999999999
#
# number of rings (size 3 to 8) (size 9 to 14) (size 15 to 20)
#    0.000    2.385    0.769    3.231    0.000    4.923 
#    0.000    3.077    0.000    2.769    0.000    3.231 
#    0.000    0.000    0.000    1.385    0.000    1.538 
#
# Total GULP energy -644250.687875 kJ/mol
# GULP energy per Si atom -12389.436305 kJ/mol
# Density = 1.951925 g / cm^3
# Si number density = 19.563774 Si / 1000 Ang^3
#
#
#
# Elastic Constant Matrix: (Units=GPa)
#
#
# Indices 1 2 3 4 5 6 
#
# 1 86.2485 46.7642 4.6151 0.0000 0.0000 0.0000
# 2 46.7642 110.3394 29.5541 0.0000 0.0000 0.0000
# 3 4.6151 29.5541 67.7762 0.0000 0.0000 0.0000
# 4 0.0000 0.0000 0.0000 8.2596 0.0000 0.0000
# 5 0.0000 0.0000 0.0000 0.0000 15.0346 0.0000
# 6 0.0000 0.0000 0.0000 0.0000 0.0000 23.3453
#
#
#
# Elastic Compliance Matrix: (Units=1/GPa)
#
#
# Indices 1 2 3 4 5 6 
#
# 1 0.015294 -0.007023 0.002021 0.000000 0.000000 0.000000
# 2 -0.007023 0.013487 -0.005403 0.000000 0.000000 0.000000
# 3 0.002021 -0.005403 0.016973 0.000000 0.000000 0.000000
# 4 0.000000 0.000000 0.000000 0.121071 0.000000 0.000000
# 5 0.000000 0.000000 0.000000 0.000000 0.066513 0.000000
# 6 0.000000 0.000000 0.000000 0.000000 0.000000 0.042835
#
#
# Mechanical properties :
#
#
# Convention : Reuss Voigt Hill
#
# Bulk Modulus (GPa) = 40.09010 47.35901 43.72456
# Shear Modulus (GPa) = 16.37748 21.55662 18.96705
#
# Velocity S-wave (km/s) = 2.89646 3.32304 3.11706
# Velocity P-wave (km/s) = 5.63227 6.24367 5.94584
#
# Compressibility (1/GPa) = 0.02494381
#
# Stress axis : x y z
#
# Youngs Moduli (GPa) = 65.38346 74.14693 58.91822
#
# Poissons Ratio (x) = 0.52077 -0.11908
# Poissons Ratio (y) = 0.45922 0.31832
# Poissons Ratio (z) = -0.13215 0.40059
#
# Static dielectric constant tensor:
#      x y z
#    x 3.926180 0.000000 0.000000 
#    y 0.000000 3.456850 0.000000 
#    z 0.000000 0.000000 3.366980 
# 
# 
# High freq. dielectric constant tensor:
#      x y z
#    x 1.777520 0.000000 0.000000 
#    y 0.000000 1.728310 0.000000 
#    z 0.000000 0.000000 1.736920 
# 
# From -- ./inp_files/7064.got.cif
#   From: 2010.03.12/outbox.cif.g09.slc.cpg/sg47_4_cif.got.tgz:7064.got - 2010.04.14 03:12:58.
