data_PCOD8193574
_publ_section_title
;
Structure prediction by ZEFSAII (Michael W. Deem and Ramdas Pophale) SiO2 
 PCOD8193574
Probable space group: P M M M
;
_chemical_formula_sum "Si O2"
_cell_formula_units_Z 52
_cell_length_a 27.092957
_cell_length_b 8.637301
_cell_length_c 12.259246
_cell_angle_alpha 90.000000
_cell_angle_beta 90.000000
_cell_angle_gamma 90.000000
_cell_volume 2868.786458
_symmetry_space_group_name_H-M "P M M M"
_symmetry_group_IT_number 47
_symmetry_cell_setting 'orthorhombic'
loop_
_space_group_symop_operation_xyz
x,y,z
-x,-y,z
x,-y,-z
-x,y,-z
-x,-y,-z
x,y,-z
-x,y,z
x,-y,z
loop_
_atom_site_type_symbol
_atom_site_label
_atom_site_fract_x
_atom_site_fract_y
_atom_site_fract_z
Si Si1 0.326552 0.818942 0.125240
Si Si2 0.944358 0.816387 0.000000
Si Si3 0.053909 0.184062 0.620419
Si Si4 0.124080 0.183578 0.195792
Si Si5 0.500000 0.816960 0.124349
Si Si6 0.223116 0.677161 0.874473
Si Si7 0.443978 0.316460 0.500000
Si Si8 0.411667 0.682488 0.736966
O O1 0.270154 0.781632 0.154749
O O2 0.358967 0.726783 0.213048
O O3 0.336588 0.000000 0.138725
O O4 0.338203 0.766772 0.000000
O O5 0.913306 0.758028 0.896904
O O6 0.000000 0.745905 0.000000
O O7 0.948741 0.000000 0.000000
O O8 0.062837 0.250859 0.500000
O O9 0.098594 0.243153 0.693934
O O10 0.000000 0.239290 0.663921
O O11 0.054153 0.000000 0.619747
O O12 0.176781 0.265787 0.194664
O O13 0.132263 0.000000 0.188572
O O14 0.547982 0.760003 0.186643
O O15 0.500000 0.000000 0.122891
O O16 0.500000 0.753230 0.000000
O O17 0.235766 0.500000 0.846487
O O18 0.208575 0.698831 0.000000
O O19 0.445094 0.500000 0.500000
O O20 0.500000 0.251607 0.500000
O O21 0.416532 0.258413 0.389163
O O22 0.419557 0.500000 0.740816
#
# Coordination Sequence:
#
# PCOD8193574 Si02
#       8
#     8   4   8   8   4   8   4   8
#     4  10  21  37  57  81 110 138 170 218 272 317
#     4   9  16  24  39  69 103 131 163 202 249 306
#     4   8  14  25  43  69  98 127 162 204 249 297
#     4  10  17  27  47  72  99 130 165 208 255 300
#     4  11  23  36  51  78 118 153 182 221 268 309
#     4  10  20  34  52  74 101 134 172 211 256 315
#     4   9  18  36  58  82 112 148 184 218 257 304
#     4  11  21  36  59  83 110 145 184 221 261 313
#
# _framework density 18.126131000000001
#
# number of rings (size 3 to 8) (size 9 to 14) (size 15 to 20)
#    0.000    2.231    1.538    3.000    0.000    5.846 
#    0.000    1.923    1.692    2.769    0.000    1.077 
#    0.000    0.000    0.000    0.000    0.000    0.000 
#
# Total GULP energy -644633.973735 kJ/mol
# GULP energy per Si atom -12396.807187 kJ/mol
# Density = 1.808488 g / cm^3
# Si number density = 18.126131 Si / 1000 Ang^3
#
#
#
# Elastic Constant Matrix: (Units=GPa)
#
#
# Indices 1 2 3 4 5 6 
#
# 1 117.8645 15.3638 68.2939 0.0000 0.0000 0.0000
# 2 15.3638 37.1655 24.6390 0.0000 0.0000 0.0000
# 3 68.2939 24.6390 128.0494 0.0000 0.0000 0.0000
# 4 0.0000 0.0000 0.0000 14.6547 0.0000 0.0000
# 5 0.0000 0.0000 0.0000 0.0000 24.0738 0.0000
# 6 0.0000 0.0000 0.0000 0.0000 0.0000 13.1469
#
#
#
# Elastic Compliance Matrix: (Units=1/GPa)
#
#
# Indices 1 2 3 4 5 6 
#
# 1 0.012302 -0.000843 -0.006399 0.000000 0.000000 0.000000
# 2 -0.000843 0.030899 -0.005496 0.000000 0.000000 0.000000
# 3 -0.006399 -0.005496 0.012280 0.000000 0.000000 0.000000
# 4 0.000000 0.000000 0.000000 0.068238 0.000000 0.000000
# 5 0.000000 0.000000 0.000000 0.000000 0.041539 0.000000
# 6 0.000000 0.000000 0.000000 0.000000 0.000000 0.076063
#
#
# Mechanical properties :
#
#
# Convention : Reuss Voigt Hill
#
# Bulk Modulus (GPa) = 33.32826 55.51921 44.42374
# Shear Modulus (GPa) = 18.06376 22.02727 20.04551
#
# Velocity S-wave (km/s) = 3.16026 3.48978 3.32910
# Velocity P-wave (km/s) = 5.63410 6.85084 6.27204
#
# Compressibility (1/GPa) = 0.03000457
#
# Stress axis : x y z
#
# Youngs Moduli (GPa) = 81.28827 32.36388 81.43520
#
# Poissons Ratio (x) = 0.02729 0.52109
# Poissons Ratio (y) = 0.06855 0.44754
# Poissons Ratio (z) = 0.52015 0.17786
#
# Static dielectric constant tensor:
#      x y z
#    x 3.473410 0.000000 0.000000 
#    y 0.000000 3.080550 0.000000 
#    z 0.000000 0.000000 3.610430 
# 
# 
# High freq. dielectric constant tensor:
#      x y z
#    x 1.707560 0.000000 0.000000 
#    y 0.000000 1.675930 0.000000 
#    z 0.000000 0.000000 1.695500 
# 
# From -- ./inp_files/19892.got.cif
#   From: 2010.03.12/outbox.cif.g09.slc.cpg/sg47_10_cif.got.tgz:19892.got - 2010.04.14 03:12:58.
