data_PCOD8193415
_publ_section_title
;
Structure prediction by ZEFSAII (Michael W. Deem and Ramdas Pophale) SiO2 
 PCOD8193415
Probable space group: I M A 2
;
_chemical_formula_sum "Si O2"
_cell_formula_units_Z 48
_cell_length_a 16.394364
_cell_length_b 14.329601
_cell_length_c 9.552816
_cell_angle_alpha 90.000000
_cell_angle_beta 90.000000
_cell_angle_gamma 90.000000
_cell_volume 2244.192383
_symmetry_space_group_name_H-M "I M A 2"
_symmetry_group_IT_number 46
_symmetry_cell_setting 'orthorhombic'
loop_
_space_group_symop_operation_xyz
x,y,z
-x,-y,z
1/2-x,y,z
1/2+x,-y,z
1/2+x,1/2+y,1/2+z
1/2-x,1/2-y,1/2+z
-x,1/2+y,1/2+z
x,1/2-y,1/2+z
loop_
_atom_site_type_symbol
_atom_site_label
_atom_site_fract_x
_atom_site_fract_y
_atom_site_fract_z
Si Si1 0.158169 0.445601 0.513770
Si Si2 0.559902 0.303983 0.120093
Si Si3 0.845038 0.374480 0.651520
Si Si4 0.346595 0.554781 0.946522
Si Si5 0.542589 0.705217 0.387956
Si Si6 0.839427 0.635605 0.822047
O O1 0.250000 0.442080 0.446566
O O2 0.124135 0.552409 0.531441
O O3 0.093405 0.387870 0.423431
O O4 0.163797 0.408717 0.670342
O O5 0.633927 0.230663 0.113272
O O6 0.527481 0.321072 0.276892
O O7 0.597714 0.402146 0.069370
O O8 0.490057 0.257720 0.025034
O O9 0.750000 0.390143 0.660375
O O10 0.880353 0.396082 0.805463
O O11 0.250000 0.572176 0.972342
O O12 0.365461 0.444116 0.934737
O O13 0.601593 0.777816 0.313667
O O14 0.750000 0.672623 0.865123
#
# Coordination Sequence:
#
# PCOD8193415 Si02
#       6
#     8   8   8   8   8   8
#     4   9  19  39  65  90 117 164 217 254 300 370
#     4  12  23  38  59  94 132 162 200 254 323 377
#     4   9  19  39  65  88 118 164 215 257 301 369
#     4   9  19  39  65  90 117 164 217 254 300 370
#     4  12  23  38  59  94 132 162 200 254 323 377
#     4   9  19  39  65  88 118 164 215 257 301 369
#
# _framework density 21.388541
#
# number of rings (size 3 to 8) (size 9 to 14) (size 15 to 20)
#    0.000    2.000    3.333    3.000    0.000    1.333 
#    0.000    3.333    0.000    4.000    0.000    0.000 
#    0.000    0.000    0.000    0.000    0.000    0.000 
#
# Total GULP energy -297478.290384 kJ/mol
# GULP energy per Si atom -12394.928766 kJ/mol
# Density = 2.133986 g / cm^3
# Si number density = 21.388541 Si / 1000 Ang^3
#
#
#
# Elastic Constant Matrix: (Units=GPa)
#
#
# Indices 1 2 3 4 5 6 
#
# 1 53.5958 34.7948 30.9455 0.0000 0.0000 0.0000
# 2 34.7948 93.9739 33.1175 0.0000 0.0000 0.0000
# 3 30.9455 33.1175 65.3059 0.0000 0.0000 0.0000
# 4 0.0000 0.0000 0.0000 30.6227 0.0000 0.0000
# 5 0.0000 0.0000 0.0000 0.0000 33.2508 0.0000
# 6 0.0000 0.0000 0.0000 0.0000 0.0000 35.1613
#
#
#
# Elastic Compliance Matrix: (Units=1/GPa)
#
#
# Indices 1 2 3 4 5 6 
#
# 1 0.029236 -0.007236 -0.010184 0.000000 0.000000 0.000000
# 2 -0.007236 0.014748 -0.004050 0.000000 0.000000 0.000000
# 3 -0.010184 -0.004050 0.022192 0.000000 0.000000 0.000000
# 4 0.000000 0.000000 0.000000 0.032656 0.000000 0.000000
# 5 0.000000 0.000000 0.000000 0.000000 0.030075 0.000000
# 6 0.000000 0.000000 0.000000 0.000000 0.000000 0.028440
#
#
# Mechanical properties :
#
#
# Convention : Reuss Voigt Hill
#
# Bulk Modulus (GPa) = 43.03719 45.62124 44.32921
# Shear Modulus (GPa) = 24.03481 27.40814 25.72148
#
# Velocity S-wave (km/s) = 3.35584 3.58360 3.47159
# Velocity P-wave (km/s) = 5.93134 6.20476 6.06959
#
# Compressibility (1/GPa) = 0.02323572
#
# Stress axis : x y z
#
# Youngs Moduli (GPa) = 34.20439 67.80719 45.06099
#
# Poissons Ratio (x) = 0.49065 0.45891
# Poissons Ratio (y) = 0.24750 0.18250
# Poissons Ratio (z) = 0.34834 0.27462
#
# Static dielectric constant tensor:
#      x y z
#    x 3.831550 0.000000 0.000000 
#    y 0.000000 4.072790 0.000000 
#    z 0.000000 0.000000 3.669800 
# 
# 
# High freq. dielectric constant tensor:
#      x y z
#    x 1.838940 0.000000 0.000000 
#    y 0.000000 1.841520 0.000000 
#    z 0.000000 0.000000 1.816410 
# 
# From -- ./inp_files/6602.got.cif
#   From: 2010.03.12/outbox.cif.g09.slc.cpg/sg46_4_cif.got.tgz:6602.got - 2010.04.14 02:56:35.
