data_PCOD8193801
_publ_section_title
;
Structure prediction by ZEFSAII (Michael W. Deem and Ramdas Pophale) SiO2 
 PCOD8193801
Probable space group: P M M M
;
_chemical_formula_sum "Si O2"
_cell_formula_units_Z 44
_cell_length_a 18.152963
_cell_length_b 17.368359
_cell_length_c 7.855369
_cell_angle_alpha 90.000000
_cell_angle_beta 90.000000
_cell_angle_gamma 90.000000
_cell_volume 2476.697126
_symmetry_space_group_name_H-M "P M M M"
_symmetry_group_IT_number 47
_symmetry_cell_setting 'orthorhombic'
loop_
_space_group_symop_operation_xyz
x,y,z
-x,-y,z
x,-y,-z
-x,y,-z
-x,-y,-z
x,y,-z
-x,y,z
x,-y,z
loop_
_atom_site_type_symbol
_atom_site_label
_atom_site_fract_x
_atom_site_fract_y
_atom_site_fract_z
Si Si1 0.217881 0.818177 0.310820
Si Si2 0.579909 0.817966 0.000000
Si Si3 0.629503 0.270633 0.314818
Si Si4 0.295644 0.585697 0.804965
Si Si5 0.000000 0.412700 0.702372
Si Si6 0.149400 0.663343 0.300775
Si Si7 0.731176 0.090643 0.000000
O O1 0.204721 0.854609 0.500000
O O2 0.292915 0.771533 0.309021
O O3 0.154336 0.755675 0.266475
O O4 0.222768 0.883874 0.166970
O O5 0.579475 0.763610 0.166055
O O6 0.500000 0.861065 0.000000
O O7 0.647568 0.877356 0.000000
O O8 0.591711 0.257895 0.500000
O O9 0.645411 0.361249 0.292760
O O10 0.299061 0.500000 0.726288
O O11 0.212788 0.617382 0.795829
O O12 0.319672 0.585035 0.000000
O O13 0.928417 0.367301 0.769958
O O14 0.000000 0.500000 0.773246
O O15 0.000000 0.413336 0.500000
O O16 0.159181 0.646379 0.500000
O O17 0.724760 0.000000 0.000000
#
# Coordination Sequence:
#
# PCOD8193801 Si02
#       7
#     8   4   8   8   4   8   4
#     4   8  16  30  49  72  96 125 164 204 237 280
#     4  10  20  35  53  74 103 129 151 183 223 285
#     4   9  17  31  50  70  93 126 167 204 237 275
#     4  10  18  27  43  67  94 124 163 215 261 287
#     4   9  16  26  41  65 101 138 174 215 252 292
#     4   9  17  28  44  66  93 132 174 207 247 296
#     4  10  20  33  54  80 102 125 149 185 241 293
#
# _framework density 17.765595999999999
#
# number of rings (size 3 to 8) (size 9 to 14) (size 15 to 20)
#    0.000    2.818    0.909    2.182    3.818    3.091 
#    0.000    0.455    0.000    2.727    0.000    7.636 
#    0.000    3.636    0.000    0.000    0.000    0.000 
#
# Total GULP energy -545296.618520 kJ/mol
# GULP energy per Si atom -12393.104966 kJ/mol
# Density = 1.772516 g / cm^3
# Si number density = 17.765596 Si / 1000 Ang^3
#
#
#
# Elastic Constant Matrix: (Units=GPa)
#
#
# Indices 1 2 3 4 5 6 
#
# 1 59.9609 33.1657 20.3341 0.0000 0.0000 0.0000
# 2 33.1657 116.0245 52.3620 0.0000 0.0000 0.0000
# 3 20.3341 52.3620 108.3916 0.0000 0.0000 0.0000
# 4 0.0000 0.0000 0.0000 21.2538 0.0000 0.0000
# 5 0.0000 0.0000 0.0000 0.0000 26.8339 0.0000
# 6 0.0000 0.0000 0.0000 0.0000 0.0000 15.7592
#
#
#
# Elastic Compliance Matrix: (Units=1/GPa)
#
#
# Indices 1 2 3 4 5 6 
#
# 1 0.019944 -0.005131 -0.001263 0.000000 0.000000 0.000000
# 2 -0.005131 0.012342 -0.005000 0.000000 0.000000 0.000000
# 3 -0.001263 -0.005000 0.011878 0.000000 0.000000 0.000000
# 4 0.000000 0.000000 0.000000 0.047050 0.000000 0.000000
# 5 0.000000 0.000000 0.000000 0.000000 0.037266 0.000000
# 6 0.000000 0.000000 0.000000 0.000000 0.000000 0.063455
#
#
# Mechanical properties :
#
#
# Convention : Reuss Voigt Hill
#
# Bulk Modulus (GPa) = 46.77942 55.12228 50.95085
# Shear Modulus (GPa) = 22.53799 24.67040 23.60420
#
# Velocity S-wave (km/s) = 3.56565 3.73052 3.64901
# Velocity P-wave (km/s) = 6.58335 7.04632 6.81876
#
# Compressibility (1/GPa) = 0.02137692
#
# Stress axis : x y z
#
# Youngs Moduli (GPa) = 50.14076 81.02478 84.19012
#
# Poissons Ratio (x) = 0.41575 0.10631
# Poissons Ratio (y) = 0.25728 0.42091
# Poissons Ratio (z) = 0.06331 0.40509
#
# Static dielectric constant tensor:
#      x y z
#    x 3.108370 0.000000 0.000000 
#    y 0.000000 3.140740 0.000000 
#    z 0.000000 0.000000 3.564480 
# 
# 
# High freq. dielectric constant tensor:
#      x y z
#    x 1.653280 0.000000 0.000000 
#    y 0.000000 1.660860 0.000000 
#    z 0.000000 0.000000 1.696170 
# 
# From -- ./inp_files/9094.got.cif
#   From: 2010.03.12/outbox.cif.g09.slc.cpg/sg47_5_cif.got.tgz:9094.got - 2010.04.14 03:12:58.
