data_PCOD8193690
_publ_section_title
;
Structure prediction by ZEFSAII (Michael W. Deem and Ramdas Pophale) SiO2 
 PCOD8193690
Probable space group: P M M M
;
_chemical_formula_sum "Si O2"
_cell_formula_units_Z 52
_cell_length_a 12.906366
_cell_length_b 7.737735
_cell_length_c 27.872635
_cell_angle_alpha 90.000000
_cell_angle_beta 90.000000
_cell_angle_gamma 90.000000
_cell_volume 2783.529680
_symmetry_space_group_name_H-M "P M M M"
_symmetry_group_IT_number 47
_symmetry_cell_setting 'orthorhombic'
loop_
_space_group_symop_operation_xyz
x,y,z
-x,-y,z
x,-y,-z
-x,y,-z
-x,-y,-z
x,y,-z
-x,y,z
x,-y,z
loop_
_atom_site_type_symbol
_atom_site_label
_atom_site_fract_x
_atom_site_fract_y
_atom_site_fract_z
Si Si1 0.116867 0.794821 0.052270
Si Si2 0.383694 0.298051 0.315073
Si Si3 0.000000 0.195358 0.796761
Si Si4 0.121590 0.000000 0.555917
Si Si5 0.199449 0.206897 0.849149
Si Si6 0.000000 0.301226 0.309314
Si Si7 0.386951 0.801685 0.210242
Si Si8 0.809905 0.297616 0.377754
O O1 0.189956 0.728301 0.095580
O O2 0.000000 0.727221 0.060932
O O3 0.115626 0.000000 0.052525
O O4 0.157271 0.728467 0.000000
O O5 0.500000 0.239122 0.330649
O O6 0.379744 0.500000 0.305600
O O7 0.349842 0.209770 0.265365
O O8 0.302145 0.247249 0.356213
O O9 0.897010 0.283162 0.818630
O O10 0.000000 0.194462 0.739414
O O11 0.000000 0.000000 0.815415
O O12 0.172414 0.175061 0.576677
O O13 0.145613 0.000000 0.500000
O O14 0.000000 0.000000 0.567070
O O15 0.303644 0.286203 0.825492
O O16 0.202165 0.000000 0.845755
O O17 0.897821 0.253308 0.339022
O O18 0.000000 0.500000 0.294662
O O19 0.500000 0.711046 0.204328
O O20 0.397108 0.000000 0.196010
O O21 0.815525 0.500000 0.393157
#
# Coordination Sequence:
#
# PCOD8193690 Si02
#       8
#     8   8   4   4   8   4   8   8
#     4   8  12  19  33  51  75 107 145 193 244 295
#     4   9  18  33  53  76 103 137 174 209 249 303
#     4  10  18  24  39  64  89 117 147 187 241 296
#     4  11  24  40  61  87 111 143 186 221 259 316
#     4   9  15  24  35  55  85 114 148 191 242 294
#     4  10  20  32  46  70 103 136 163 199 250 302
#     4   9  17  27  40  62  92 127 160 191 233 290
#     4  10  21  37  56  81 112 141 175 222 268 307
#
# _framework density 18.681317
#
# number of rings (size 3 to 8) (size 9 to 14) (size 15 to 20)
#    0.000    2.692    1.538    1.385    2.154    0.308 
#    0.000    0.769    0.000    1.385    0.000    5.385 
#    0.000    3.077    0.000    3.846    0.000    4.000 
#
# Total GULP energy -644441.685980 kJ/mol
# GULP energy per Si atom -12393.109346 kJ/mol
# Density = 1.863880 g / cm^3
# Si number density = 18.681317 Si / 1000 Ang^3
#
#
#
# Elastic Constant Matrix: (Units=GPa)
#
#
# Indices 1 2 3 4 5 6 
#
# 1 136.6766 25.6090 84.8304 0.0000 0.0000 0.0000
# 2 25.6090 36.0010 33.7268 0.0000 0.0000 0.0000
# 3 84.8304 33.7268 144.1693 0.0000 0.0000 0.0000
# 4 0.0000 0.0000 0.0000 -8.2221 0.0000 0.0000
# 5 0.0000 0.0000 0.0000 0.0000 28.8485 0.0000
# 6 0.0000 0.0000 0.0000 0.0000 0.0000 8.9530
#
#
#
# Elastic Compliance Matrix: (Units=1/GPa)
#
#
# Indices 1 2 3 4 5 6 
#
# 1 0.011685 -0.002396 -0.006315 0.000000 0.000000 0.000000
# 2 -0.002396 0.036065 -0.007027 0.000000 0.000000 0.000000
# 3 -0.006315 -0.007027 0.012296 0.000000 0.000000 0.000000
# 4 0.000000 0.000000 0.000000 -0.121623 0.000000 0.000000
# 5 0.000000 0.000000 0.000000 0.000000 0.034664 0.000000
# 6 0.000000 0.000000 0.000000 0.000000 0.000000 0.111694
#
#
# Mechanical properties :
#
#
# Convention : Reuss Voigt Hill
#
# Bulk Modulus (GPa) = 35.00244 67.24212 51.12228
# Shear Modulus (GPa) = 39.75210 17.42793 28.59002
#
# Velocity S-wave (km/s) = 4.61793 3.05767 3.91629
# Velocity P-wave (km/s) = 6.87102 6.96694 6.91915
#
# Compressibility (1/GPa) = 0.02856944
#
# Stress axis : x y z
#
# Youngs Moduli (GPa) = 85.57994 27.72805 81.32711
#
# Poissons Ratio (x) = 0.06643 0.51358
# Poissons Ratio (y) = 0.20504 0.57150
# Poissons Ratio (z) = 0.54044 0.19485
#
# Static dielectric constant tensor:
#      x y z
#    x 3.812080 0.000000 0.000000 
#    y 0.000000 3.116720 0.000000 
#    z 0.000000 0.000000 3.401370 
# 
# 
# High freq. dielectric constant tensor:
#      x y z
#    x 1.718950 0.000000 0.000000 
#    y 0.000000 1.702000 0.000000 
#    z 0.000000 0.000000 1.709120 
# 
# From -- ./inp_files/33643.got.cif
#   From: 2010.03.12/outbox.cif.g09.slc.cpg/sg47_17_cif.got.tgz:33643.got - 2010.04.14 03:12:58.
