data_PCOD8193308
_publ_section_title
;
Structure prediction by ZEFSAII (Michael W. Deem and Ramdas Pophale) SiO2 
 PCOD8193308
Probable space group: I M A 2
;
_chemical_formula_sum "Si O2"
_cell_formula_units_Z 56
_cell_length_a 8.992811
_cell_length_b 13.600250
_cell_length_c 29.795047
_cell_angle_alpha 90.000000
_cell_angle_beta 90.000000
_cell_angle_gamma 90.000000
_cell_volume 3644.067664
_symmetry_space_group_name_H-M "I M A 2"
_symmetry_group_IT_number 46
_symmetry_cell_setting 'orthorhombic'
loop_
_space_group_symop_operation_xyz
x,y,z
-x,-y,z
1/2-x,y,z
1/2+x,-y,z
1/2+x,1/2+y,1/2+z
1/2-x,1/2-y,1/2+z
-x,1/2+y,1/2+z
x,1/2-y,1/2+z
loop_
_atom_site_type_symbol
_atom_site_label
_atom_site_fract_x
_atom_site_fract_y
_atom_site_fract_z
Si Si1 0.924061 0.395234 0.509720
Si Si2 0.925314 0.297874 0.600053
Si Si3 0.575263 0.221850 0.730525
Si Si4 0.072631 0.397329 0.682597
Si Si5 0.075299 0.894606 0.816304
Si Si6 0.422559 0.897078 0.913271
Si Si7 0.578935 0.399656 0.144631
O O1 0.750000 0.415114 0.513174
O O2 0.973960 0.321559 0.549119
O O3 0.964740 0.344638 0.460900
O O4 0.000000 0.500000 0.516332
O O5 0.750000 0.314703 0.609063
O O6 0.968677 0.184821 0.609326
O O7 0.015424 0.368881 0.633135
O O8 0.750000 0.248789 0.729076
O O9 0.480173 0.318155 0.719414
O O10 0.521453 0.182572 0.778898
O O11 0.538683 0.136582 0.694623
O O12 0.250000 0.405017 0.682479
O O13 0.000000 0.500000 0.696913
O O14 0.250000 0.912372 0.810814
O O15 0.034794 0.846218 0.865520
O O16 0.000000 0.000000 0.809447
O O17 0.250000 0.919101 0.912736
O O18 0.500000 0.000000 0.914222
O O19 0.500000 0.500000 0.131929
O O20 0.750000 0.423596 0.140359
#
# Coordination Sequence:
#
# PCOD8193308 Si02
#       7
#     8   8   8   8   8   8   8
#     4   9  16  26  41  60  85 113 141 171 205 246
#     4   9  18  31  44  61  85 113 143 175 209 247
#     4   9  18  31  44  61  85 112 140 170 205 247
#     4  11  21  32  46  63  84 110 139 174 211 250
#     4   9  16  26  42  63  89 116 142 173 208 246
#     4   8  14  24  38  59  84 111 140 169 204 246
#     4   9  17  28  41  57  80 107 136 170 206 242
#
# _framework density 15.367440999999999
#
# number of rings (size 3 to 8) (size 9 to 14) (size 15 to 20)
#    0.000    2.857    0.000    3.000    0.000    4.571 
#    0.000    0.000    0.000    0.000    0.000    1.000 
#    0.000    2.286    0.000    0.000    0.000    0.286 
#
# Total GULP energy -346891.429724 kJ/mol
# GULP energy per Si atom -12388.979633 kJ/mol
# Density = 1.533246 g / cm^3
# Si number density = 15.367441 Si / 1000 Ang^3
#
#
#
# Elastic Constant Matrix: (Units=GPa)
#
#
# Indices 1 2 3 4 5 6 
#
# 1 45.7274 33.9093 33.0455 0.0000 0.0000 0.0000
# 2 33.9093 86.0725 59.4635 0.0000 0.0000 0.0000
# 3 33.0455 59.4635 162.5776 0.0000 0.0000 0.0000
# 4 0.0000 0.0000 0.0000 19.9258 0.0000 0.0000
# 5 0.0000 0.0000 0.0000 0.0000 16.0770 0.0000
# 6 0.0000 0.0000 0.0000 0.0000 0.0000 24.0067
#
#
#
# Elastic Compliance Matrix: (Units=1/GPa)
#
#
# Indices 1 2 3 4 5 6 
#
# 1 0.031639 -0.010734 -0.002505 0.000000 0.000000 0.000000
# 2 -0.010734 0.019188 -0.004836 0.000000 0.000000 0.000000
# 3 -0.002505 -0.004836 0.008429 0.000000 0.000000 0.000000
# 4 0.000000 0.000000 0.000000 0.050186 0.000000 0.000000
# 5 0.000000 0.000000 0.000000 0.000000 0.062201 0.000000
# 6 0.000000 0.000000 0.000000 0.000000 0.000000 0.041655
#
#
# Mechanical properties :
#
#
# Convention : Reuss Voigt Hill
#
# Bulk Modulus (GPa) = 43.27989 60.80155 52.04072
# Shear Modulus (GPa) = 19.44394 23.19920 21.32157
#
# Velocity S-wave (km/s) = 3.56092 3.88962 3.72889
# Velocity P-wave (km/s) = 6.71799 7.73455 7.24412
#
# Compressibility (1/GPa) = 0.02310542
#
# Stress axis : x y z
#
# Youngs Moduli (GPa) = 31.60687 52.11570 118.63843
#
# Poissons Ratio (x) = 0.55941 0.29718
# Poissons Ratio (y) = 0.33927 0.57378
# Poissons Ratio (z) = 0.07917 0.25205
#
# Static dielectric constant tensor:
#      x y z
#    x 2.209520 0.000000 0.000000 
#    y 0.000000 2.714040 0.000000 
#    z 0.000000 0.000000 3.568470 
# 
# 
# High freq. dielectric constant tensor:
#      x y z
#    x 1.589080 0.000000 0.000000 
#    y 0.000000 1.553380 0.000000 
#    z 0.000000 0.000000 1.597880 
# 
# From -- ./inp_files/25238.got.cif
#   From: 2010.03.12/outbox.cif.g09.slc.cpg/sg46_13_cif.got.tgz:25238.got - 2010.04.14 02:56:35.
