data_PCOD8193257
_publ_section_title
;
Structure prediction by ZEFSAII (Michael W. Deem and Ramdas Pophale) SiO2 
 PCOD8193257
Probable space group: I M A 2
;
_chemical_formula_sum "Si O2"
_cell_formula_units_Z 24
_cell_length_a 7.755010
_cell_length_b 18.872299
_cell_length_c 8.828875
_cell_angle_alpha 90.000000
_cell_angle_beta 90.000000
_cell_angle_gamma 90.000000
_cell_volume 1292.148831
_symmetry_space_group_name_H-M "I M A 2"
_symmetry_group_IT_number 46
_symmetry_cell_setting 'orthorhombic'
loop_
_space_group_symop_operation_xyz
x,y,z
-x,-y,z
1/2-x,y,z
1/2+x,-y,z
1/2+x,1/2+y,1/2+z
1/2-x,1/2-y,1/2+z
-x,1/2+y,1/2+z
x,1/2-y,1/2+z
loop_
_atom_site_type_symbol
_atom_site_label
_atom_site_fract_x
_atom_site_fract_y
_atom_site_fract_z
Si Si1 0.055922 0.919771 0.250000
Si Si2 0.750000 0.823029 0.760595
Si Si3 0.938574 0.926059 0.570740
Si Si4 0.250000 0.169761 0.117070
O O1 0.250000 0.906466 0.189326
O O2 0.057244 0.902511 0.430381
O O3 0.924800 0.869755 0.161434
O O4 0.000000 0.000000 0.220369
O O5 0.921318 0.865262 0.699854
O O6 0.750000 0.744797 0.697639
O O7 0.750000 0.819443 0.938851
O O8 0.750000 0.939922 0.496588
O O9 0.000000 0.000000 0.646860
#
# Coordination Sequence:
#
# PCOD8193257 Si02
#       4
#     8   4   8   4
#     4  11  20  37  65  92 121 162 203 249 301 367
#     4  10  24  38  66  82 131 168 189 270 300 356
#     4   9  17  36  60  93 117 158 201 241 302 355
#     4  12  22  44  58  90 129 158 213 242 316 358
#
# _framework density 18.573712
#
# number of rings (size 3 to 8) (size 9 to 14) (size 15 to 20)
#    1.000    0.667    3.333    5.000    0.000    1.333 
#    0.000   10.000    0.000    0.000    0.000    0.000 
#    0.000    0.000    0.000    0.000    0.000    0.000 
#
# Total GULP energy -148693.773779 kJ/mol
# GULP energy per Si atom -12391.147815 kJ/mol
# Density = 1.853144 g / cm^3
# Si number density = 18.573712 Si / 1000 Ang^3
#
#
#
# Elastic Constant Matrix: (Units=GPa)
#
#
# Indices 1 2 3 4 5 6 
#
# 1 135.3844 58.6144 41.6796 -0.0002 0.0014 0.0000
# 2 58.6144 148.5656 84.0916 -0.0003 -0.0002 0.0000
# 3 41.6796 84.0916 133.4201 -0.0091 0.0010 -0.0026
# 4 -0.0002 -0.0003 -0.0091 33.7125 -0.0014 -0.0002
# 5 0.0014 -0.0002 0.0010 -0.0014 22.4672 -0.0008
# 6 0.0000 0.0000 -0.0026 -0.0002 -0.0008 28.2347
#
#
#
# Elastic Compliance Matrix: (Units=1/GPa)
#
#
# Indices 1 2 3 4 5 6 
#
# 1 0.008975 -0.003038 -0.000889 0.000000 -0.000001 0.000000
# 2 -0.003038 0.011492 -0.006294 -0.000002 0.000001 -0.000001
# 3 -0.000889 -0.006294 0.011740 0.000003 -0.000001 0.000001
# 4 0.000000 -0.000002 0.000003 0.029663 0.000002 0.000000
# 5 -0.000001 0.000001 -0.000001 0.000002 0.044509 0.000001
# 6 0.000000 -0.000001 0.000001 0.000000 0.000001 0.035417
#
#
# Mechanical properties :
#
#
# Convention : Reuss Voigt Hill
#
# Bulk Modulus (GPa) = 84.99740 87.34903 86.17321
# Shear Modulus (GPa) = 30.09124 32.41517 31.25321
#
# Velocity S-wave (km/s) = 4.02941 4.18211 4.10647
# Velocity P-wave (km/s) = 8.21643 8.39348 8.30543
#
# Compressibility (1/GPa) = 0.01176507
#
# Stress axis : x y z
#
# Youngs Moduli (GPa) = 111.41659 87.01483 85.17830
#
# Poissons Ratio (x) = 0.26433 0.07574
# Poissons Ratio (y) = 0.33846 0.53614
# Poissons Ratio (z) = 0.09907 0.54770
#
# Static dielectric constant tensor:
#      x y z
#    x 3.853040 0.000000 0.000010 
#    y 0.000000 3.414180 0.000000 
#    z 0.000010 0.000000 3.174090 
# 
# 
# High freq. dielectric constant tensor:
#      x y z
#    x 1.716700 0.000000 0.000000 
#    y 0.000000 1.721710 0.000000 
#    z 0.000000 0.000000 1.702030 
# 
# From -- ./inp_files/3265.got.cif
#   From: 2010.03.12/outbox.cif.g09.slc.cpg/sg46_2_cif.got.tgz:3265.got - 2010.04.14 02:56:35.
