data_PCOD8193531
_publ_section_title
;
Structure prediction by ZEFSAII (Michael W. Deem and Ramdas Pophale) SiO2 
 PCOD8193531
Probable space group: P M M M
;
_chemical_formula_sum "Si O2"
_cell_formula_units_Z 64
_cell_length_a 14.493402
_cell_length_b 30.802433
_cell_length_c 9.274611
_cell_angle_alpha 90.000000
_cell_angle_beta 90.000000
_cell_angle_gamma 90.000000
_cell_volume 4140.483546
_symmetry_space_group_name_H-M "P M M M"
_symmetry_group_IT_number 47
_symmetry_cell_setting 'orthorhombic'
loop_
_space_group_symop_operation_xyz
x,y,z
-x,-y,z
x,-y,-z
-x,y,-z
-x,-y,-z
x,y,-z
-x,y,z
x,-y,z
loop_
_atom_site_type_symbol
_atom_site_label
_atom_site_fract_x
_atom_site_fract_y
_atom_site_fract_z
Si Si1 0.396634 0.293672 0.828896
Si Si2 0.100820 0.757535 0.829103
Si Si3 0.288177 0.377963 0.171143
Si Si4 0.708412 0.207602 0.171010
Si Si5 0.899147 0.660264 0.828939
Si Si6 0.608199 0.869429 0.331933
Si Si7 0.395009 0.449946 0.666935
Si Si8 0.609454 0.952201 0.838490
O O1 0.500000 0.292284 0.765411
O O2 0.347048 0.337001 0.771651
O O3 0.342542 0.251187 0.776047
O O4 0.398018 0.294462 0.000000
O O5 0.184225 0.788784 0.779650
O O6 0.115972 0.708916 0.767299
O O7 0.000000 0.775427 0.777967
O O8 0.103290 0.754375 0.000000
O O9 0.182484 0.371283 0.224734
O O10 0.325081 0.421948 0.239431
O O11 0.295112 0.382224 0.000000
O O12 0.664306 0.167439 0.251484
O O13 0.697692 0.200860 0.000000
O O14 0.000000 0.642533 0.779167
O O15 0.894543 0.662971 0.000000
O O16 0.630125 0.867583 0.500000
O O17 0.500000 0.862894 0.299794
O O18 0.644583 0.915680 0.272180
O O19 0.380941 0.438794 0.500000
O O20 0.500000 0.439622 0.713365
O O21 0.372074 0.500000 0.697338
O O22 0.500000 0.953105 0.837763
O O23 0.646374 0.000000 0.791218
O O24 0.644725 0.941208 0.000000
#
# Coordination Sequence:
#
# PCOD8193531 Si02
#       8
#     8   8   8   8   8   8   8   8
#     4   9  16  24  36  59  88 113 139 174 210 243
#     4   8  13  23  41  64  86 108 141 183 219 252
#     4  10  17  27  46  71  91 109 140 180 218 253
#     4  10  17  27  43  61  83 116 151 178 210 254
#     4   8  13  23  41  66  93 114 135 171 219 263
#     4  10  20  30  39  56  86 122 154 183 217 255
#     4   9  19  35  50  63  84 115 145 172 210 260
#     4   8  14  26  44  63  81 105 143 188 226 260
#
# _framework density 15.457132
#
# number of rings (size 3 to 8) (size 9 to 14) (size 15 to 20)
#    0.000    3.000    1.250    2.625    0.000    2.500 
#    0.000    2.500    0.000    3.375    0.000    4.375 
#    0.000    0.500    0.000    5.750    0.000    1.875 
#
# Total GULP energy -793131.720484 kJ/mol
# GULP energy per Si atom -12392.683133 kJ/mol
# Density = 1.542195 g / cm^3
# Si number density = 15.457132 Si / 1000 Ang^3
#
#
#
# Elastic Constant Matrix: (Units=GPa)
#
#
# Indices 1 2 3 4 5 6 
#
# 1 117.9481 62.9053 36.8861 0.0000 0.0000 0.0000
# 2 62.9053 107.2806 41.8441 0.0000 0.0000 0.0000
# 3 36.8861 41.8441 40.6165 0.0000 0.0000 0.0000
# 4 0.0000 0.0000 0.0000 -2.0083 0.0000 0.0000
# 5 0.0000 0.0000 0.0000 0.0000 10.1411 0.0000
# 6 0.0000 0.0000 0.0000 0.0000 0.0000 10.4169
#
#
#
# Elastic Compliance Matrix: (Units=1/GPa)
#
#
# Indices 1 2 3 4 5 6 
#
# 1 0.013372 -0.005189 -0.006797 0.000000 0.000000 0.000000
# 2 -0.005189 0.017597 -0.013416 0.000000 0.000000 0.000000
# 3 -0.006797 -0.013416 0.044615 0.000000 0.000000 0.000000
# 4 0.000000 0.000000 0.000000 -0.497942 0.000000 0.000000
# 5 0.000000 0.000000 0.000000 0.000000 0.098609 0.000000
# 6 0.000000 0.000000 0.000000 0.000000 0.000000 0.095997
#
#
# Mechanical properties :
#
#
# Convention : Reuss Voigt Hill
#
# Bulk Modulus (GPa) = 40.35802 61.01291 50.68546
# Shear Modulus (GPa) = -29.64093 11.99059 -8.82517
#
# Velocity S-wave (km/s) = -4.38382 2.78822 -2.39204
# Velocity P-wave (km/s) = 0.73657 7.06566 5.02325
#
# Compressibility (1/GPa) = 0.02477822
#
# Stress axis : x y z
#
# Youngs Moduli (GPa) = 74.78462 56.82755 22.41384
#
# Poissons Ratio (x) = 0.29490 0.15236
# Poissons Ratio (y) = 0.38809 0.30071
# Poissons Ratio (z) = 0.50834 0.76241
#
# Static dielectric constant tensor:
#      x y z
#    x 3.176320 0.000000 0.000000 
#    y 0.000000 2.998370 0.000000 
#    z 0.000000 0.000000 2.619020 
# 
# 
# High freq. dielectric constant tensor:
#      x y z
#    x 1.581730 0.000000 0.000000 
#    y 0.000000 1.583240 0.000000 
#    z 0.000000 0.000000 1.555920 
# 
# From -- ./inp_files/8328.got.cif
#   From: 2010.03.12/outbox.cif.g09.slc.cpg/sg47_5_cif.got.tgz:8328.got - 2010.04.14 03:12:58.
