data_PCOD8193478
_publ_section_title
;
Structure prediction by ZEFSAII (Michael W. Deem and Ramdas Pophale) SiO2 
 PCOD8193478
Probable space group: P M M M
;
_chemical_formula_sum "Si O2"
_cell_formula_units_Z 56
_cell_length_a 9.387433
_cell_length_b 14.728488
_cell_length_c 23.606432
_cell_angle_alpha 90.000000
_cell_angle_beta 90.000000
_cell_angle_gamma 90.000000
_cell_volume 3263.888891
_symmetry_space_group_name_H-M "P M M M"
_symmetry_group_IT_number 47
_symmetry_cell_setting 'orthorhombic'
loop_
_space_group_symop_operation_xyz
x,y,z
-x,-y,z
x,-y,-z
-x,y,-z
-x,-y,-z
x,y,-z
-x,y,z
x,-y,z
loop_
_atom_site_type_symbol
_atom_site_label
_atom_site_fract_x
_atom_site_fract_y
_atom_site_fract_z
Si Si1 0.330948 0.400229 0.719464
Si Si2 0.168736 0.901520 0.884285
Si Si3 0.660295 0.393670 0.153876
Si Si4 0.831586 0.281563 0.063716
Si Si5 0.669272 0.101901 0.562892
Si Si6 0.838325 0.894835 0.756408
Si Si7 0.330815 0.217486 0.333161
O O1 0.500000 0.406712 0.722033
O O2 0.270318 0.500000 0.701410
O O3 0.278845 0.373907 0.782877
O O4 0.282386 0.322950 0.674518
O O5 0.222479 0.821566 0.925274
O O6 0.215841 0.879001 0.820292
O O7 0.000000 0.908789 0.885536
O O8 0.231785 0.000000 0.903384
O O9 0.500000 0.355085 0.147455
O O10 0.661033 0.500000 0.142243
O O11 0.760849 0.349055 0.107637
O O12 0.000000 0.287959 0.072429
O O13 0.787584 0.308737 0.000000
O O14 0.725813 0.127388 0.500000
O O15 0.500000 0.103165 0.562883
O O16 0.727895 0.176489 0.607482
O O17 0.721635 0.000000 0.579291
O O18 0.731338 0.840068 0.717669
O O19 0.000000 0.859367 0.748307
O O20 0.829647 0.000000 0.739904
O O21 0.500000 0.209140 0.330159
#
# Coordination Sequence:
#
# PCOD8193478 Si02
#       7
#     8   8   8   8   8   8   8
#     4   8  15  28  45  66  89 109 134 175 223 260
#     4   8  15  29  46  62  84 115 144 167 202 258
#     4   9  18  33  50  64  82 112 143 168 207 267
#     4  10  20  31  45  67  89 108 137 179 217 244
#     4   8  14  24  37  57  88 120 146 174 207 243
#     4   9  17  28  42  62  89 116 137 166 215 263
#     4  10  17  25  44  68  85 109 147 183 210 244
#
# _framework density 17.157446
#
# number of rings (size 3 to 8) (size 9 to 14) (size 15 to 20)
#    0.000    3.143    0.000    3.429    0.000    2.000 
#    0.000    2.857    0.000    3.429    0.000    6.000 
#    0.000    0.000    0.000    1.286    0.000    1.571 
#
# Total GULP energy -693928.864347 kJ/mol
# GULP energy per Si atom -12391.586863 kJ/mol
# Density = 1.711840 g / cm^3
# Si number density = 17.157446 Si / 1000 Ang^3
#
#
#
# Elastic Constant Matrix: (Units=GPa)
#
#
# Indices 1 2 3 4 5 6 
#
# 1 17.6114 20.8423 19.5757 0.0000 0.0000 0.0000
# 2 20.8423 106.2119 78.9029 0.0000 0.0000 0.0000
# 3 19.5757 78.9029 103.4300 0.0000 0.0000 0.0000
# 4 0.0000 0.0000 0.0000 28.0620 0.0000 0.0000
# 5 0.0000 0.0000 0.0000 0.0000 14.8858 0.0000
# 6 0.0000 0.0000 0.0000 0.0000 0.0000 17.0010
#
#
#
# Elastic Compliance Matrix: (Units=1/GPa)
#
#
# Indices 1 2 3 4 5 6 
#
# 1 0.076059 -0.009766 -0.006946 0.000000 0.000000 0.000000
# 2 -0.009766 0.022984 -0.015685 0.000000 0.000000 0.000000
# 3 -0.006946 -0.015685 0.022948 0.000000 0.000000 0.000000
# 4 0.000000 0.000000 0.000000 0.035635 0.000000 0.000000
# 5 0.000000 0.000000 0.000000 0.000000 0.067178 0.000000
# 6 0.000000 0.000000 0.000000 0.000000 0.000000 0.058820
#
#
# Mechanical properties :
#
#
# Convention : Reuss Voigt Hill
#
# Bulk Modulus (GPa) = 17.48292 51.76613 34.62453
# Shear Modulus (GPa) = 13.60607 19.18525 16.39566
#
# Velocity S-wave (km/s) = 2.81910 3.34756 3.09463
# Velocity P-wave (km/s) = 4.56161 6.72148 5.74398
#
# Compressibility (1/GPa) = 0.05719868
#
# Stress axis : x y z
#
# Youngs Moduli (GPa) = 13.14770 43.50925 43.57586
#
# Poissons Ratio (x) = 0.42489 0.30266
# Poissons Ratio (y) = 0.12839 0.68349
# Poissons Ratio (z) = 0.09132 0.68245
#
# Static dielectric constant tensor:
#      x y z
#    x 2.787270 0.000000 0.000000 
#    y 0.000000 3.623870 0.000000 
#    z 0.000000 0.000000 3.341340 
# 
# 
# High freq. dielectric constant tensor:
#      x y z
#    x 1.613290 0.000000 0.000000 
#    y 0.000000 1.668410 0.000000 
#    z 0.000000 0.000000 1.653010 
# 
# From -- ./inp_files/16732.got.cif
#   From: 2010.03.12/outbox.cif.g09.slc.cpg/sg47_9_cif.got.tgz:16732.got - 2010.04.14 03:12:58.
