data_PCOD8193327
_publ_section_title
;
Structure prediction by ZEFSAII (Michael W. Deem and Ramdas Pophale) SiO2 
 PCOD8193327
Probable space group: I M A 2
;
_chemical_formula_sum "Si O2"
_cell_formula_units_Z 40
_cell_length_a 25.056073
_cell_length_b 4.854845
_cell_length_c 13.732660
_cell_angle_alpha 90.000000
_cell_angle_beta 90.000000
_cell_angle_gamma 90.000000
_cell_volume 1670.486777
_symmetry_space_group_name_H-M "I M A 2"
_symmetry_group_IT_number 46
_symmetry_cell_setting 'orthorhombic'
loop_
_space_group_symop_operation_xyz
x,y,z
-x,-y,z
1/2-x,y,z
1/2+x,-y,z
1/2+x,1/2+y,1/2+z
1/2-x,1/2-y,1/2+z
-x,1/2+y,1/2+z
x,1/2-y,1/2+z
loop_
_atom_site_type_symbol
_atom_site_label
_atom_site_fract_x
_atom_site_fract_y
_atom_site_fract_z
Si Si1 0.534454 0.727514 0.196720
Si Si2 0.373680 0.924254 0.440251
Si Si3 0.851343 0.842657 0.637870
Si Si4 0.188909 0.647996 0.747318
Si Si5 0.443134 0.417444 0.411119
O O1 0.500000 0.500000 0.137279
O O2 0.588601 0.785515 0.137721
O O3 0.550942 0.567806 0.295211
O O4 0.500000 0.000000 0.215934
O O5 0.338508 0.020018 0.533223
O O6 0.427315 0.106018 0.435793
O O7 0.337243 0.971357 0.345563
O O8 0.394802 0.612047 0.448747
O O9 0.813053 0.586827 0.663450
O O10 0.843575 0.080649 0.717734
O O11 0.250000 0.729550 0.766281
O O12 0.500000 0.500000 0.461363
#
# Coordination Sequence:
#
# PCOD8193327 Si02
#       5
#     8   8   8   8   8
#     4  11  21  38  67 102 141 184 224 271 338 421
#     4  12  24  45  70 101 139 182 230 283 349 420
#     4  12  26  45  71 105 137 181 235 287 353 421
#     4  12  26  48  71  97 136 180 237 304 357 404
#     4  11  22  40  69 101 141 185 224 271 337 418
#
# _framework density 23.945117
#
# number of rings (size 3 to 8) (size 9 to 14) (size 15 to 20)
#    0.000    0.400    4.000    6.000    0.000    4.000 
#    0.000    0.000    0.000    0.000    0.000    0.000 
#    0.000    0.000    0.000    0.000    0.000    0.000 
#
# Total GULP energy -248010.592984 kJ/mol
# GULP energy per Si atom -12400.529649 kJ/mol
# Density = 2.389062 g / cm^3
# Si number density = 23.945117 Si / 1000 Ang^3
#
#
#
# Elastic Constant Matrix: (Units=GPa)
#
#
# Indices 1 2 3 4 5 6 
#
# 1 112.0786 35.9944 32.8544 0.0000 0.0000 0.0000
# 2 35.9944 117.5235 8.7654 0.0000 0.0000 0.0000
# 3 32.8544 8.7654 67.4966 0.0000 0.0000 0.0000
# 4 0.0000 0.0000 0.0000 21.4327 0.0000 0.0000
# 5 0.0000 0.0000 0.0000 0.0000 10.4110 0.0000
# 6 0.0000 0.0000 0.0000 0.0000 0.0000 34.6376
#
#
#
# Elastic Compliance Matrix: (Units=1/GPa)
#
#
# Indices 1 2 3 4 5 6 
#
# 1 0.011437 -0.003118 -0.005162 0.000000 0.000000 0.000000
# 2 -0.003118 0.009442 0.000291 0.000000 0.000000 0.000000
# 3 -0.005162 0.000291 0.017290 0.000000 0.000000 0.000000
# 4 0.000000 0.000000 0.000000 0.046658 0.000000 0.000000
# 5 0.000000 0.000000 0.000000 0.000000 0.096052 0.000000
# 6 0.000000 0.000000 0.000000 0.000000 0.000000 0.028870
#
#
# Mechanical properties :
#
#
# Convention : Reuss Voigt Hill
#
# Bulk Modulus (GPa) = 45.06041 50.25857 47.65949
# Shear Modulus (GPa) = 21.44785 27.92857 24.68821
#
# Velocity S-wave (km/s) = 2.99609 3.41890 3.21445
# Velocity P-wave (km/s) = 5.55228 6.05143 5.80722
#
# Compressibility (1/GPa) = 0.02219243
#
# Stress axis : x y z
#
# Youngs Moduli (GPa) = 87.43708 105.90867 57.83563
#
# Poissons Ratio (x) = 0.33020 0.29855
# Poissons Ratio (y) = 0.27261 -0.01685
# Poissons Ratio (z) = 0.45135 -0.03086
#
# Static dielectric constant tensor:
#      x y z
#    x 4.242970 0.000000 0.000000 
#    y 0.000000 4.187080 0.000000 
#    z 0.000000 0.000000 4.261060 
# 
# 
# High freq. dielectric constant tensor:
#      x y z
#    x 1.932250 0.000000 0.000000 
#    y 0.000000 1.962970 0.000000 
#    z 0.000000 0.000000 1.943690 
# 
# From -- ./inp_files/17262.got.cif
#   From: 2010.03.12/outbox.cif.g09.slc.cpg/sg46_9_cif.got.tgz:17262.got - 2010.04.14 02:56:35.
