data_PCOD8193553
_publ_section_title
;
Structure prediction by ZEFSAII (Michael W. Deem and Ramdas Pophale) SiO2 
 PCOD8193553
Probable space group: P M M M
;
_chemical_formula_sum "Si O2"
_cell_formula_units_Z 64
_cell_length_a 8.796105
_cell_length_b 20.006013
_cell_length_c 20.489786
_cell_angle_alpha 90.000000
_cell_angle_beta 90.000000
_cell_angle_gamma 90.000000
_cell_volume 3605.689907
_symmetry_space_group_name_H-M "P M M M"
_symmetry_group_IT_number 47
_symmetry_cell_setting 'orthorhombic'
loop_
_space_group_symop_operation_xyz
x,y,z
-x,-y,z
x,-y,-z
-x,y,-z
-x,-y,-z
x,y,-z
-x,y,z
x,-y,z
loop_
_atom_site_type_symbol
_atom_site_label
_atom_site_fract_x
_atom_site_fract_y
_atom_site_fract_z
Si Si1 0.319470 0.924846 0.192872
Si Si2 0.680660 0.841178 0.071931
Si Si3 0.824706 0.847615 0.311462
Si Si4 0.176556 0.427947 0.867132
Si Si5 0.324041 0.923425 0.424964
Si Si6 0.320500 0.701544 0.126549
Si Si7 0.321541 0.427171 0.273968
Si Si8 0.823482 0.296882 0.267729
O O1 0.500000 0.925375 0.190855
O O2 0.252955 0.890979 0.126916
O O3 0.271129 0.883492 0.255703
O O4 0.254721 0.000000 0.197108
O O5 0.500000 0.844102 0.074165
O O6 0.734759 0.765677 0.085969
O O7 0.740116 0.862518 0.000000
O O8 0.778360 0.874732 0.382026
O O9 0.792578 0.768195 0.311791
O O10 0.000000 0.863227 0.298075
O O11 0.199581 0.500000 0.903378
O O12 0.242616 0.364340 0.906737
O O13 0.270954 0.429341 0.800741
O O14 0.000000 0.416443 0.851491
O O15 0.281515 0.910505 0.500000
O O16 0.500000 0.907456 0.412096
O O17 0.289271 0.000000 0.405880
O O18 0.500000 0.692930 0.123975
O O19 0.268683 0.711511 0.200891
O O20 0.500000 0.414110 0.278312
O O21 0.280993 0.500000 0.306129
O O22 0.235085 0.363599 0.306592
O O23 0.000000 0.304948 0.251054
#
# Coordination Sequence:
#
# PCOD8193553 Si02
#       8
#     8   8   8   8   8   8   8   8
#     4  10  20  34  53  74  95 123 159 200 249 301
#     4   9  18  32  49  70  93 117 153 203 254 300
#     4  11  22  33  49  75 106 136 166 202 241 285
#     4   9  16  25  39  60  87 117 147 184 231 283
#     4   9  19  36  56  77 102 134 171 207 243 287
#     4  10  17  27  46  66  87 117 152 195 243 289
#     4   9  16  25  39  62  91 122 157 196 238 283
#     4  10  19  29  43  65  95 129 162 196 236 283
#
# _framework density 17.749725000000002
#
# number of rings (size 3 to 8) (size 9 to 14) (size 15 to 20)
#    0.000    2.375    1.250    4.125    0.000    5.500 
#    0.000    1.875    0.000    3.750    0.000    3.500 
#    0.000    0.500    0.000    5.500    0.000    4.000 
#
# Total GULP energy -793103.227223 kJ/mol
# GULP energy per Si atom -12392.237925 kJ/mol
# Density = 1.770933 g / cm^3
# Si number density = 17.749725 Si / 1000 Ang^3
#
#
#
# Elastic Constant Matrix: (Units=GPa)
#
#
# Indices 1 2 3 4 5 6 
#
# 1 34.7350 38.9516 11.9677 0.0000 0.0000 0.0000
# 2 38.9516 150.5972 42.2156 0.0000 0.0000 0.0000
# 3 11.9677 42.2156 59.6245 0.0000 0.0000 0.0000
# 4 0.0000 0.0000 0.0000 15.3021 0.0000 0.0000
# 5 0.0000 0.0000 0.0000 0.0000 0.7644 0.0000
# 6 0.0000 0.0000 0.0000 0.0000 0.0000 27.6614
#
#
#
# Elastic Compliance Matrix: (Units=1/GPa)
#
#
# Indices 1 2 3 4 5 6 
#
# 1 0.040589 -0.010249 -0.000891 0.000000 0.000000 0.000000
# 2 -0.010249 0.010872 -0.005641 0.000000 0.000000 0.000000
# 3 -0.000891 -0.005641 0.020944 0.000000 0.000000 0.000000
# 4 0.000000 0.000000 0.000000 0.065351 0.000000 0.000000
# 5 0.000000 0.000000 0.000000 0.000000 1.308150 0.000000
# 6 0.000000 0.000000 0.000000 0.000000 0.000000 0.036151
#
#
# Mechanical properties :
#
#
# Convention : Reuss Voigt Hill
#
# Bulk Modulus (GPa) = 25.74308 47.91404 36.82856
# Shear Modulus (GPa) = 3.27104 18.86704 11.06904
#
# Velocity S-wave (km/s) = 1.35900 3.26383 2.49994
# Velocity P-wave (km/s) = 4.12278 6.42310 5.39693
#
# Compressibility (1/GPa) = 0.03884539
#
# Stress axis : x y z
#
# Youngs Moduli (GPa) = 24.63723 91.97769 47.74597
#
# Poissons Ratio (x) = 0.94264 0.04253
# Poissons Ratio (y) = 0.25250 0.26932
# Poissons Ratio (z) = 0.02195 0.51882
#
# Static dielectric constant tensor:
#      x y z
#    x 3.203460 0.000000 0.000000 
#    y 0.000000 4.141420 0.000000 
#    z 0.000000 0.000000 2.896190 
# 
# 
# High freq. dielectric constant tensor:
#      x y z
#    x 1.681620 0.000000 0.000000 
#    y 0.000000 1.710810 0.000000 
#    z 0.000000 0.000000 1.628720 
# 
# From -- ./inp_files/30144.got.cif
#   From: 2010.03.12/outbox.cif.g09.slc.cpg/sg47_16_cif.got.tgz:30144.got - 2010.04.14 03:12:58.
