data_PCOD8193264
_publ_section_title
;
Structure prediction by ZEFSAII (Michael W. Deem and Ramdas Pophale) SiO2 
 PCOD8193264
Probable space group: I M A 2
;
_chemical_formula_sum "Si O2"
_cell_formula_units_Z 36
_cell_length_a 13.193801
_cell_length_b 6.863888
_cell_length_c 17.853123
_cell_angle_alpha 90.000000
_cell_angle_beta 90.000000
_cell_angle_gamma 90.000000
_cell_volume 1616.792608
_symmetry_space_group_name_H-M "I M A 2"
_symmetry_group_IT_number 46
_symmetry_cell_setting 'orthorhombic'
loop_
_space_group_symop_operation_xyz
x,y,z
-x,-y,z
1/2-x,y,z
1/2+x,-y,z
1/2+x,1/2+y,1/2+z
1/2-x,1/2-y,1/2+z
-x,1/2+y,1/2+z
x,1/2-y,1/2+z
loop_
_atom_site_type_symbol
_atom_site_label
_atom_site_fract_x
_atom_site_fract_y
_atom_site_fract_z
Si Si1 0.132842 0.343016 0.678750
Si Si2 0.500000 0.500000 0.125180
Si Si3 0.862991 0.955090 0.346605
Si Si4 0.466426 0.803888 0.900913
Si Si5 0.129712 0.673656 0.556947
O O1 0.250000 0.283589 0.669432
O O2 0.109599 0.427217 0.760289
O O3 0.103086 0.506824 0.617686
O O4 0.063649 0.152540 0.673951
O O5 0.582651 0.383534 0.076745
O O6 0.750000 0.889665 0.366043
O O7 0.934810 0.836211 0.403477
O O8 0.876620 0.186715 0.359890
O O9 0.500000 0.000000 0.856300
O O10 0.423936 0.883781 0.979666
O O11 0.250000 0.697962 0.547881
#
# Coordination Sequence:
#
# PCOD8193264 Si02
#       5
#     8   4   8   8   8
#     4  10  24  44  67 101 140 177 223 282 344 410
#     4  12  22  38  74 102 128 174 226 274 334 400
#     4  10  24  44  66  97 138 178 225 286 343 404
#     4  11  24  41  68  97 131 179 226 276 339 404
#     4  11  25  44  66 100 141 179 222 277 339 412
#
# _framework density 22.266307000000001
#
# number of rings (size 3 to 8) (size 9 to 14) (size 15 to 20)
#    0.000    1.333    0.000    4.667    7.778    1.778 
#    0.000    7.778    0.000    0.000    0.000    0.000 
#    0.000    0.000    0.000    0.000    0.000    0.000 
#
# Total GULP energy -223119.199524 kJ/mol
# GULP energy per Si atom -12395.511085 kJ/mol
# Density = 2.221563 g / cm^3
# Si number density = 22.266307 Si / 1000 Ang^3
#
#
#
# Elastic Constant Matrix: (Units=GPa)
#
#
# Indices 1 2 3 4 5 6 
#
# 1 147.2107 59.4070 53.6159 0.0000 0.0000 0.0000
# 2 59.4070 154.2508 51.6103 0.0000 0.0000 0.0000
# 3 53.6159 51.6103 94.4180 0.0000 0.0000 0.0000
# 4 0.0000 0.0000 0.0000 28.0741 0.0000 0.0000
# 5 0.0000 0.0000 0.0000 0.0000 2.4656 0.0000
# 6 0.0000 0.0000 0.0000 0.0000 0.0000 45.1931
#
#
#
# Elastic Compliance Matrix: (Units=1/GPa)
#
#
# Indices 1 2 3 4 5 6 
#
# 1 0.009126 -0.002179 -0.003991 0.000000 0.000000 0.000000
# 2 -0.002179 0.008454 -0.003384 0.000000 0.000000 0.000000
# 3 -0.003991 -0.003384 0.014707 0.000000 0.000000 0.000000
# 4 0.000000 0.000000 0.000000 0.035620 0.000000 0.000000
# 5 0.000000 0.000000 0.000000 0.000000 0.405577 0.000000
# 6 0.000000 0.000000 0.000000 0.000000 0.000000 0.022127
#
#
# Mechanical properties :
#
#
# Convention : Reuss Voigt Hill
#
# Bulk Modulus (GPa) = 75.87632 80.57177 78.22404
# Shear Modulus (GPa) = 9.63181 30.56297 20.09739
#
# Velocity S-wave (km/s) = 2.08210 3.70890 3.00758
# Velocity P-wave (km/s) = 6.31909 7.38954 6.87518
#
# Compressibility (1/GPa) = 0.01317934
#
# Stress axis : x y z
#
# Youngs Moduli (GPa) = 109.57637 118.28071 67.99429
#
# Poissons Ratio (x) = 0.25778 0.27137
# Poissons Ratio (y) = 0.23881 0.23008
# Poissons Ratio (z) = 0.43732 0.40023
#
# Static dielectric constant tensor:
#      x y z
#    x 4.269100 0.000000 0.000000 
#    y 0.000000 4.217800 0.000000 
#    z 0.000000 0.000000 3.834750 
# 
# 
# High freq. dielectric constant tensor:
#      x y z
#    x 1.901100 0.000000 0.000000 
#    y 0.000000 1.884140 0.000000 
#    z 0.000000 0.000000 1.863460 
# 
# From -- ./inp_files/21836.got.cif
#   From: 2010.03.12/outbox.cif.g09.slc.cpg/sg46_11_cif.got.tgz:21836.got - 2010.04.14 02:56:35.
