data_PCOD8193667
_publ_section_title
;
Structure prediction by ZEFSAII (Michael W. Deem and Ramdas Pophale) SiO2 
 PCOD8193667
Probable space group: P M M M
;
_chemical_formula_sum "Si O2"
_cell_formula_units_Z 64
_cell_length_a 13.885291
_cell_length_b 13.763262
_cell_length_c 18.516372
_cell_angle_alpha 90.000000
_cell_angle_beta 90.000000
_cell_angle_gamma 90.000000
_cell_volume 3538.606415
_symmetry_space_group_name_H-M "P M M M"
_symmetry_group_IT_number 47
_symmetry_cell_setting 'orthorhombic'
loop_
_space_group_symop_operation_xyz
x,y,z
-x,-y,z
x,-y,-z
-x,y,-z
-x,-y,-z
x,y,-z
-x,y,z
x,-y,z
loop_
_atom_site_type_symbol
_atom_site_label
_atom_site_fract_x
_atom_site_fract_y
_atom_site_fract_z
Si Si1 0.106144 0.111002 0.207204
Si Si2 0.300240 0.389261 0.216081
Si Si3 0.892162 0.608245 0.707792
Si Si4 0.695714 0.110930 0.850801
Si Si5 0.892398 0.201326 0.360802
Si Si6 0.611898 0.292173 0.917851
Si Si7 0.291004 0.112092 0.581872
Si Si8 0.612687 0.792079 0.713355
O O1 0.188644 0.130260 0.147358
O O2 0.126792 0.174527 0.277551
O O3 0.000000 0.134397 0.174455
O O4 0.111851 0.000000 0.233387
O O5 0.333202 0.500000 0.230436
O O6 0.185525 0.376577 0.228052
O O7 0.324839 0.360708 0.133713
O O8 0.356401 0.319029 0.271444
O O9 0.881602 0.500000 0.675375
O O10 0.875806 0.681924 0.640413
O O11 0.000000 0.624732 0.740401
O O12 0.643562 0.179982 0.908463
O O13 0.660875 0.134268 0.769840
O O14 0.670603 0.000000 0.870642
O O15 0.819662 0.147074 0.413682
O O16 0.000000 0.173059 0.386005
O O17 0.500000 0.302060 0.896522
O O18 0.629581 0.324627 0.000000
O O19 0.326961 0.125956 0.500000
O O20 0.357009 0.177987 0.632905
O O21 0.298281 0.000000 0.605386
O O22 0.500000 0.801481 0.721747
#
# Coordination Sequence:
#
# PCOD8193667 Si02
#       8
#     8   8   8   8   8   8   8   8
#     4   9  16  26  46  75 101 127 165 213 262 312
#     4  10  19  35  61  86 106 133 170 213 262 311
#     4   9  17  30  54  86 111 132 165 210 258 309
#     4  10  18  31  53  76  99 133 176 219 263 308
#     4  10  17  30  52  75 106 141 171 210 261 313
#     4  10  22  37  50  72 108 141 172 213 260 312
#     4  11  23  37  52  74 107 144 180 216 261 317
#     4  11  22  36  53  76 104 133 177 231 271 306
#
# _framework density 18.086216
#
# number of rings (size 3 to 8) (size 9 to 14) (size 15 to 20)
#    0.000    2.000    2.500    3.000    0.000    4.500 
#    0.000    2.500    0.000    3.000    0.000    6.125 
#    0.000    0.000    0.000    0.000    0.000    0.000 
#
# Total GULP energy -793371.466979 kJ/mol
# GULP energy per Si atom -12396.429172 kJ/mol
# Density = 1.804505 g / cm^3
# Si number density = 18.086216 Si / 1000 Ang^3
#
#
#
# Elastic Constant Matrix: (Units=GPa)
#
#
# Indices 1 2 3 4 5 6 
#
# 1 99.5673 28.6311 30.4555 0.0000 0.0000 0.0000
# 2 28.6311 102.4000 32.7847 0.0000 0.0000 0.0000
# 3 30.4555 32.7847 70.7209 0.0000 0.0000 0.0000
# 4 0.0000 0.0000 0.0000 16.7409 0.0000 0.0000
# 5 0.0000 0.0000 0.0000 0.0000 21.1191 0.0000
# 6 0.0000 0.0000 0.0000 0.0000 0.0000 22.5043
#
#
#
# Elastic Compliance Matrix: (Units=1/GPa)
#
#
# Indices 1 2 3 4 5 6 
#
# 1 0.011900 -0.001980 -0.004206 0.000000 0.000000 0.000000
# 2 -0.001980 0.011797 -0.004616 0.000000 0.000000 0.000000
# 3 -0.004206 -0.004616 0.018091 0.000000 0.000000 0.000000
# 4 0.000000 0.000000 0.000000 0.059734 0.000000 0.000000
# 5 0.000000 0.000000 0.000000 0.000000 0.047350 0.000000
# 6 0.000000 0.000000 0.000000 0.000000 0.000000 0.044436
#
#
# Mechanical properties :
#
#
# Convention : Reuss Voigt Hill
#
# Bulk Modulus (GPa) = 49.54791 50.71454 50.13122
# Shear Modulus (GPa) = 22.55888 24.12731 23.34309
#
# Velocity S-wave (km/s) = 3.53554 3.65638 3.59647
# Velocity P-wave (km/s) = 6.64241 6.77693 6.71001
#
# Compressibility (1/GPa) = 0.02018249
#
# Stress axis : x y z
#
# Youngs Moduli (GPa) = 84.03655 84.76545 55.27460
#
# Poissons Ratio (x) = 0.16787 0.23251
# Poissons Ratio (y) = 0.16643 0.25515
# Poissons Ratio (z) = 0.35349 0.39129
#
# Static dielectric constant tensor:
#      x y z
#    x 3.595420 0.000000 0.000000 
#    y 0.000000 3.576340 0.000000 
#    z 0.000000 0.000000 2.910140 
# 
# 
# High freq. dielectric constant tensor:
#      x y z
#    x 1.714450 0.000000 0.000000 
#    y 0.000000 1.711980 0.000000 
#    z 0.000000 0.000000 1.650730 
# 
# From -- ./inp_files/28359.got.cif
#   From: 2010.03.12/outbox.cif.g09.slc.cpg/sg47_15_cif.got.tgz:28359.got - 2010.04.14 03:12:58.
