data_PCOD8193265
_publ_section_title
;
Structure prediction by ZEFSAII (Michael W. Deem and Ramdas Pophale) SiO2 
 PCOD8193265
Probable space group: I M A 2
;
_chemical_formula_sum "Si O2"
_cell_formula_units_Z 36
_cell_length_a 17.838558
_cell_length_b 7.883716
_cell_length_c 10.633038
_cell_angle_alpha 90.000000
_cell_angle_beta 90.000000
_cell_angle_gamma 90.000000
_cell_volume 1495.367997
_symmetry_space_group_name_H-M "I M A 2"
_symmetry_group_IT_number 46
_symmetry_cell_setting 'orthorhombic'
loop_
_space_group_symop_operation_xyz
x,y,z
-x,-y,z
1/2-x,y,z
1/2+x,-y,z
1/2+x,1/2+y,1/2+z
1/2-x,1/2-y,1/2+z
-x,1/2+y,1/2+z
x,1/2-y,1/2+z
loop_
_atom_site_type_symbol
_atom_site_label
_atom_site_fract_x
_atom_site_fract_y
_atom_site_fract_z
Si Si1 0.250000 0.248765 0.720580
Si Si2 0.989115 0.194221 0.002017
Si Si3 0.250000 0.859545 0.171166
Si Si4 0.750000 0.044374 0.518618
Si Si5 0.087789 0.680870 0.756593
Si Si6 0.877505 0.632989 0.877461
O O1 0.250000 0.434386 0.648801
O O2 0.250000 0.086782 0.633788
O O3 0.174974 0.231477 0.805994
O O4 0.950468 0.260052 0.130920
O O5 0.939138 0.216562 0.878224
O O6 0.000000 0.000000 0.024902
O O7 0.070033 0.281645 0.982204
O O8 0.250000 0.745675 0.045244
O O9 0.322731 0.799161 0.246994
O O10 0.675359 0.007428 0.440897
O O11 0.071801 0.476979 0.778853
#
# Coordination Sequence:
#
# PCOD8193265 Si02
#       6
#     4   8   4   4   8   8
#     4   9  23  43  70 103 147 184 237 314 356 442
#     4  12  27  42  73 103 142 194 243 293 379 434
#     4  10  24  44  73 103 142 185 252 292 376 429
#     4  11  23  43  79 102 139 199 235 308 372 445
#     4  11  26  48  69 103 146 190 235 317 353 441
#     4  10  24  46  65 104 147 184 244 307 364 429
#
# _framework density 24.074339999999999
#
# number of rings (size 3 to 8) (size 9 to 14) (size 15 to 20)
#    0.000    1.333    0.000    4.000   12.444    2.667 
#    0.000    2.222    0.000    0.000    0.000    0.000 
#    0.000    0.000    0.000    0.000    0.000    0.000 
#
# Total GULP energy -223040.065215 kJ/mol
# GULP energy per Si atom -12391.114734 kJ/mol
# Density = 2.401955 g / cm^3
# Si number density = 24.074340 Si / 1000 Ang^3
#
#
#
# Elastic Constant Matrix: (Units=GPa)
#
#
# Indices 1 2 3 4 5 6 
#
# 1 135.4561 26.8361 51.0440 0.0000 0.0000 0.0000
# 2 26.8361 58.0998 26.8715 0.0000 0.0000 0.0000
# 3 51.0440 26.8715 157.6037 0.0000 0.0000 0.0000
# 4 0.0000 0.0000 0.0000 47.3717 0.0000 0.0000
# 5 0.0000 0.0000 0.0000 0.0000 37.6283 0.0000
# 6 0.0000 0.0000 0.0000 0.0000 0.0000 111.7394
#
#
#
# Elastic Compliance Matrix: (Units=1/GPa)
#
#
# Indices 1 2 3 4 5 6 
#
# 1 0.008867 -0.003004 -0.002360 0.000000 0.000000 0.000000
# 2 -0.003004 0.019703 -0.002386 0.000000 0.000000 0.000000
# 3 -0.002360 -0.002386 0.007516 0.000000 0.000000 0.000000
# 4 0.000000 0.000000 0.000000 0.021110 0.000000 0.000000
# 5 0.000000 0.000000 0.000000 0.000000 0.026576 0.000000
# 6 0.000000 0.000000 0.000000 0.000000 0.000000 0.008949
#
#
# Mechanical properties :
#
#
# Convention : Reuss Voigt Hill
#
# Bulk Modulus (GPa) = 48.57737 62.29586 55.43662
# Shear Modulus (GPa) = 43.44690 55.77509 49.61099
#
# Velocity S-wave (km/s) = 4.25278 4.81852 4.54446
# Velocity P-wave (km/s) = 6.65858 7.54256 7.11431
#
# Compressibility (1/GPa) = 0.02058572
#
# Stress axis : x y z
#
# Youngs Moduli (GPa) = 112.78031 50.75336 133.04775
#
# Poissons Ratio (x) = 0.15248 0.31393
# Poissons Ratio (y) = 0.33882 0.31750
# Poissons Ratio (z) = 0.26611 0.12112
#
# Static dielectric constant tensor:
#      x y z
#    x 4.576790 0.000000 0.000000 
#    y 0.000000 4.229170 0.000000 
#    z 0.000000 0.000000 4.787480 
# 
# 
# High freq. dielectric constant tensor:
#      x y z
#    x 1.981700 0.000000 0.000000 
#    y 0.000000 1.932550 0.000000 
#    z 0.000000 0.000000 1.959980 
# 
# From -- ./inp_files/7176.got.cif
#   From: 2010.03.12/outbox.cif.g09.slc.cpg/sg46_4_cif.got.tgz:7176.got - 2010.04.14 02:56:35.
