data_PCOD8193107
_publ_section_title
;
Structure prediction by ZEFSAII (Michael W. Deem and Ramdas Pophale) SiO2 
 PCOD8193107
Probable space group: I M A 2
;
_chemical_formula_sum "Si O2"
_cell_formula_units_Z 64
_cell_length_a 30.674101
_cell_length_b 10.937578
_cell_length_c 8.836707
_cell_angle_alpha 90.000000
_cell_angle_beta 90.000000
_cell_angle_gamma 90.000000
_cell_volume 2964.718488
_symmetry_space_group_name_H-M "I M A 2"
_symmetry_group_IT_number 46
_symmetry_cell_setting 'orthorhombic'
loop_
_space_group_symop_operation_xyz
x,y,z
-x,-y,z
1/2-x,y,z
1/2+x,-y,z
1/2+x,1/2+y,1/2+z
1/2-x,1/2-y,1/2+z
-x,1/2+y,1/2+z
x,1/2-y,1/2+z
loop_
_atom_site_type_symbol
_atom_site_label
_atom_site_fract_x
_atom_site_fract_y
_atom_site_fract_z
Si Si1 0.450791 0.407269 0.233870
Si Si2 0.666029 0.233185 0.478183
Si Si3 0.798694 0.413261 0.711126
Si Si4 0.463898 0.589501 0.649616
Si Si5 0.389789 0.639776 0.238339
Si Si6 0.089337 0.224206 0.462914
Si Si7 0.027038 0.715114 0.346797
Si Si8 0.620087 0.579741 0.691441
O O1 0.417653 0.516201 0.275150
O O2 0.443446 0.299949 0.358537
O O3 0.503792 0.403475 0.261128
O O4 0.440989 0.362143 0.065542
O O5 0.697806 0.301218 0.593984
O O6 0.693075 0.137271 0.379445
O O7 0.644966 0.338381 0.372263
O O8 0.631390 0.150283 0.572833
O O9 0.750000 0.468283 0.702709
O O10 0.833343 0.516757 0.669037
O O11 0.500000 0.500000 0.580247
O O12 0.461149 0.694533 0.520020
O O13 0.488909 0.648199 0.798946
O O14 0.418306 0.519472 0.674767
O O15 0.426510 0.742243 0.257295
O O16 0.118281 0.313590 0.566105
O O17 0.119974 0.140373 0.358219
#
# Coordination Sequence:
#
# PCOD8193107 Si02
#       8
#     8   8   8   8   8   8   8   8
#     4  11  21  36  56  82 119 160 202 247 297 351
#     4  10  22  38  60  89 120 153 199 245 297 367
#     4  11  22  40  64  92 122 157 194 244 306 368
#     4  12  25  41  59  85 122 164 205 252 304 357
#     4  11  21  36  57  82 115 157 196 245 301 350
#     4  10  22  39  60  85 112 155 203 245 296 360
#     4  12  23  36  56  85 119 157 206 254 298 354
#     4  11  23  42  65  88 121 159 201 252 308 363
#
# _framework density 21.587209999999999
#
# number of rings (size 3 to 8) (size 9 to 14) (size 15 to 20)
#    0.000    1.000    0.000    9.750    0.000    1.000 
#    0.000    2.500    0.000    0.000    0.000    0.000 
#    0.000    0.000    0.000    0.000    0.000    0.000 
#
# Total GULP energy -396441.066162 kJ/mol
# GULP energy per Si atom -12388.783318 kJ/mol
# Density = 2.153808 g / cm^3
# Si number density = 21.587210 Si / 1000 Ang^3
#
#
#
# Elastic Constant Matrix: (Units=GPa)
#
#
# Indices 1 2 3 4 5 6 
#
# 1 122.6253 25.6283 37.3409 0.0000 0.0000 0.0000
# 2 25.6283 69.2891 33.9849 0.0000 0.0000 0.0000
# 3 37.3409 33.9849 126.9477 0.0000 0.0000 0.0000
# 4 0.0000 0.0000 0.0000 40.6665 0.0000 0.0000
# 5 0.0000 0.0000 0.0000 0.0000 19.4832 0.0000
# 6 0.0000 0.0000 0.0000 0.0000 0.0000 16.5345
#
#
#
# Elastic Compliance Matrix: (Units=1/GPa)
#
#
# Indices 1 2 3 4 5 6 
#
# 1 0.009295 -0.002414 -0.002088 0.000000 0.000000 0.000000
# 2 -0.002414 0.017241 -0.003905 0.000000 0.000000 0.000000
# 3 -0.002088 -0.003905 0.009537 0.000000 0.000000 0.000000
# 4 0.000000 0.000000 0.000000 0.024590 0.000000 0.000000
# 5 0.000000 0.000000 0.000000 0.000000 0.051326 0.000000
# 6 0.000000 0.000000 0.000000 0.000000 0.000000 0.060480
#
#
# Mechanical properties :
#
#
# Convention : Reuss Voigt Hill
#
# Bulk Modulus (GPa) = 51.92587 56.97448 54.45018
# Shear Modulus (GPa) = 25.54892 30.13071 27.83982
#
# Velocity S-wave (km/s) = 3.44397 3.74005 3.59506
# Velocity P-wave (km/s) = 6.31829 6.71570 6.52002
#
# Compressibility (1/GPa) = 0.01925822
#
# Stress axis : x y z
#
# Youngs Moduli (GPa) = 107.58209 58.00235 104.85579
#
# Poissons Ratio (x) = 0.14002 0.21893
# Poissons Ratio (y) = 0.25970 0.40950
# Poissons Ratio (z) = 0.22462 0.22652
#
# Static dielectric constant tensor:
#      x y z
#    x 3.697170 0.000000 0.000000 
#    y 0.000000 4.085400 0.000000 
#    z 0.000000 0.000000 4.054870 
# 
# 
# High freq. dielectric constant tensor:
#      x y z
#    x 1.819080 0.000000 0.000000 
#    y 0.000000 1.851590 0.000000 
#    z 0.000000 0.000000 1.868910 
# 
# From -- ./inp_files/8496.got.cif
#   From: 2010.03.12/outbox.cif.g09.slc.cpg/sg46_5_cif.got.tgz:8496.got - 2010.04.14 02:56:35.
