data_PCOD8193773
_publ_section_title
;
Structure prediction by ZEFSAII (Michael W. Deem and Ramdas Pophale) SiO2 
 PCOD8193773
Probable space group: P M M M
;
_chemical_formula_sum "Si O2"
_cell_formula_units_Z 56
_cell_length_a 13.747810
_cell_length_b 8.586810
_cell_length_c 29.501233
_cell_angle_alpha 90.000000
_cell_angle_beta 90.000000
_cell_angle_gamma 90.000000
_cell_volume 3482.615611
_symmetry_space_group_name_H-M "P M M M"
_symmetry_group_IT_number 47
_symmetry_cell_setting 'orthorhombic'
loop_
_space_group_symop_operation_xyz
x,y,z
-x,-y,z
x,-y,-z
-x,y,-z
-x,-y,-z
x,y,-z
-x,y,z
x,-y,z
loop_
_atom_site_type_symbol
_atom_site_label
_atom_site_fract_x
_atom_site_fract_y
_atom_site_fract_z
Si Si1 0.390613 0.314097 0.355212
Si Si2 0.615607 0.325367 0.547983
Si Si3 0.610664 0.816900 0.820895
Si Si4 0.888201 0.180792 0.948326
Si Si5 0.710777 0.316459 0.734752
Si Si6 0.110580 0.182769 0.780168
Si Si7 0.789138 0.319148 0.134761
O O1 0.500000 0.253480 0.344993
O O2 0.391972 0.500000 0.358392
O O3 0.350892 0.246892 0.404116
O O4 0.319323 0.257588 0.315269
O O5 0.647644 0.241009 0.500000
O O6 0.500000 0.331188 0.550341
O O7 0.657340 0.500000 0.545907
O O8 0.500000 0.766072 0.829702
O O9 0.641376 0.768549 0.770467
O O10 0.677274 0.730646 0.858014
O O11 0.625006 0.000000 0.826340
O O12 0.819370 0.283538 0.916592
O O13 0.000000 0.226065 0.939452
O O14 0.871444 0.000000 0.937592
O O15 0.859657 0.218520 0.000000
O O16 0.695817 0.500000 0.740076
O O17 0.822875 0.272075 0.743600
O O18 0.141320 0.224872 0.831229
O O19 0.000000 0.235244 0.771949
O O20 0.124036 0.000000 0.773318
O O21 0.800806 0.500000 0.145523
#
# Coordination Sequence:
#
# PCOD8193773 Si02
#       7
#     8   8   8   8   8   8   8
#     4   8  13  20  31  51  80 111 139 167 203 246
#     4   7   9  14  25  42  68 104 140 167 193 234
#     4  10  20  33  48  64  85 116 152 184 210 244
#     4   9  18  33  52  72  95 123 150 175 207 250
#     4  10  18  27  42  63  87 112 138 174 217 257
#     4  10  20  33  47  61  82 113 145 176 209 250
#     4  11  21  31  48  72  95 117 141 175 216 254
#
# _framework density 16.079867
#
# number of rings (size 3 to 8) (size 9 to 14) (size 15 to 20)
#    0.000    2.714    0.000    6.857    0.000    5.143 
#    0.000    0.714    0.000    0.429    0.000    3.000 
#    0.000    2.857    0.000   23.286    0.000   14.571 
#
# Total GULP energy -693933.840175 kJ/mol
# GULP energy per Si atom -12391.675717 kJ/mol
# Density = 1.604327 g / cm^3
# Si number density = 16.079867 Si / 1000 Ang^3
#
#
#
# Elastic Constant Matrix: (Units=GPa)
#
#
# Indices 1 2 3 4 5 6 
#
# 1 90.8349 16.4870 54.7258 0.0000 0.0000 0.0000
# 2 16.4870 22.9689 12.5960 0.0000 0.0000 0.0000
# 3 54.7258 12.5960 128.8747 0.0000 0.0000 0.0000
# 4 0.0000 0.0000 0.0000 2.9762 0.0000 0.0000
# 5 0.0000 0.0000 0.0000 0.0000 21.0846 0.0000
# 6 0.0000 0.0000 0.0000 0.0000 0.0000 17.1143
#
#
#
# Elastic Compliance Matrix: (Units=1/GPa)
#
#
# Indices 1 2 3 4 5 6 
#
# 1 0.016158 -0.008279 -0.006052 0.000000 0.000000 0.000000
# 2 -0.008279 0.050245 -0.001395 0.000000 0.000000 0.000000
# 3 -0.006052 -0.001395 0.010466 0.000000 0.000000 0.000000
# 4 0.000000 0.000000 0.000000 0.335996 0.000000 0.000000
# 5 0.000000 0.000000 0.000000 0.000000 0.047428 0.000000
# 6 0.000000 0.000000 0.000000 0.000000 0.000000 0.058431
#
#
# Mechanical properties :
#
#
# Convention : Reuss Voigt Hill
#
# Bulk Modulus (GPa) = 22.01875 45.58848 33.80361
# Shear Modulus (GPa) = 8.84462 18.82632 13.83547
#
# Velocity S-wave (km/s) = 2.34784 3.42541 2.93648
# Velocity P-wave (km/s) = 4.59052 6.63757 5.70659
#
# Compressibility (1/GPa) = 0.04541584
#
# Stress axis : x y z
#
# Youngs Moduli (GPa) = 61.88877 19.90242 95.54864
#
# Poissons Ratio (x) = 0.16478 0.57828
# Poissons Ratio (y) = 0.51239 0.13331
# Poissons Ratio (z) = 0.37456 0.02777
#
# Static dielectric constant tensor:
#      x y z
#    x 2.939590 0.000000 0.000000 
#    y 0.000000 2.844710 0.000000 
#    z 0.000000 0.000000 3.360750 
# 
# 
# High freq. dielectric constant tensor:
#      x y z
#    x 1.586470 0.000000 0.000000 
#    y 0.000000 1.601410 0.000000 
#    z 0.000000 0.000000 1.621920 
# 
# From -- ./inp_files/34626.got.cif
#   From: 2010.03.12/outbox.cif.g09.slc.cpg/sg47_18_cif.got.tgz:34626.got - 2010.04.14 03:12:58.
