data_PCOD8193227
_publ_section_title
;
Structure prediction by ZEFSAII (Michael W. Deem and Ramdas Pophale) SiO2 
 PCOD8193227
Probable space group: I M A 2
;
_chemical_formula_sum "Si O2"
_cell_formula_units_Z 60
_cell_length_a 19.382257
_cell_length_b 9.009933
_cell_length_c 17.281888
_cell_angle_alpha 90.000000
_cell_angle_beta 90.000000
_cell_angle_gamma 90.000000
_cell_volume 3017.985129
_symmetry_space_group_name_H-M "I M A 2"
_symmetry_group_IT_number 46
_symmetry_cell_setting 'orthorhombic'
loop_
_space_group_symop_operation_xyz
x,y,z
-x,-y,z
1/2-x,y,z
1/2+x,-y,z
1/2+x,1/2+y,1/2+z
1/2-x,1/2-y,1/2+z
-x,1/2+y,1/2+z
x,1/2-y,1/2+z
loop_
_atom_site_type_symbol
_atom_site_label
_atom_site_fract_x
_atom_site_fract_y
_atom_site_fract_z
Si Si1 0.887201 0.480857 0.664400
Si Si2 0.826996 0.473125 0.833973
Si Si3 0.172817 0.956843 0.004181
Si Si4 0.500000 0.500000 0.052921
Si Si5 0.424126 0.799940 0.440613
Si Si6 0.673993 0.800924 0.879485
Si Si7 0.027570 0.155774 0.834810
Si Si8 0.003990 0.240423 0.167176
O O1 0.848381 0.496788 0.745454
O O2 0.832621 0.491574 0.595107
O O3 0.939484 0.615493 0.659771
O O4 0.928182 0.326604 0.651882
O O5 0.750000 0.408883 0.835260
O O6 0.875766 0.351699 0.871324
O O7 0.831006 0.622979 0.885347
O O8 0.250000 0.892731 0.988173
O O9 0.113306 0.841929 0.978698
O O10 0.163612 0.115445 0.961142
O O11 0.473288 0.366749 0.106819
O O12 0.562473 0.432077 0.001784
O O13 0.499059 0.764988 0.402172
O O14 0.750000 0.842802 0.844333
O O15 0.610513 0.849928 0.825531
O O16 0.996937 0.195374 0.752524
O O17 0.000000 0.000000 0.862915
#
# Coordination Sequence:
#
# PCOD8193227 Si02
#       8
#     8   8   8   4   8   8   8   8
#     4  11  23  41  64  94 123 172 219 262 314 387
#     4  11  23  42  66  93 131 172 213 264 322 384
#     4  11  24  43  64  93 133 171 213 265 324 386
#     4  12  26  40  62  92 134 164 202 272 334 374
#     4  12  25  39  67  98 125 165 218 268 320 380
#     4  10  23  41  63  96 131 164 208 265 324 384
#     4  12  22  40  70  96 127 165 217 270 320 377
#     4  11  24  40  63  94 132 163 213 273 319 374
#
# _framework density 19.880814000000001
#
# number of rings (size 3 to 8) (size 9 to 14) (size 15 to 20)
#    0.000    0.800    6.000    1.600    3.733    0.000 
#    0.000    0.000    0.000    1.600    0.000    0.000 
#    0.000    0.000    0.000    0.000    0.000    0.000 
#
# Total GULP energy -371858.793142 kJ/mol
# GULP energy per Si atom -12395.293105 kJ/mol
# Density = 1.983556 g / cm^3
# Si number density = 19.880814 Si / 1000 Ang^3
#
#
#
# Elastic Constant Matrix: (Units=GPa)
#
#
# Indices 1 2 3 4 5 6 
#
# 1 116.9142 34.7578 33.9484 0.0000 0.0000 0.0000
# 2 34.7578 88.6507 45.5720 0.0000 0.0000 0.0000
# 3 33.9484 45.5720 122.0105 0.0000 0.0000 0.0000
# 4 0.0000 0.0000 0.0000 28.2839 0.0000 0.0000
# 5 0.0000 0.0000 0.0000 0.0000 36.4511 0.0000
# 6 0.0000 0.0000 0.0000 0.0000 0.0000 25.2836
#
#
#
# Elastic Compliance Matrix: (Units=1/GPa)
#
#
# Indices 1 2 3 4 5 6 
#
# 1 0.009934 -0.003062 -0.001620 0.000000 0.000000 0.000000
# 2 -0.003062 0.014905 -0.004715 0.000000 0.000000 0.000000
# 3 -0.001620 -0.004715 0.010408 0.000000 0.000000 0.000000
# 4 0.000000 0.000000 0.000000 0.035356 0.000000 0.000000
# 5 0.000000 0.000000 0.000000 0.000000 0.027434 0.000000
# 6 0.000000 0.000000 0.000000 0.000000 0.000000 0.039551
#
#
# Mechanical properties :
#
#
# Convention : Reuss Voigt Hill
#
# Bulk Modulus (GPa) = 60.78330 61.79244 61.28787
# Shear Modulus (GPa) = 30.88964 32.22352 31.55658
#
# Velocity S-wave (km/s) = 3.94603 4.03033 3.98840
# Velocity P-wave (km/s) = 7.16950 7.26684 7.21834
#
# Compressibility (1/GPa) = 0.01645189
#
# Stress axis : x y z
#
# Youngs Moduli (GPa) = 100.66351 67.09358 96.08001
#
# Poissons Ratio (x) = 0.20543 0.15569
# Poissons Ratio (y) = 0.30822 0.45302
# Poissons Ratio (z) = 0.16312 0.31635
#
# Static dielectric constant tensor:
#      x y z
#    x 3.765550 0.000000 0.000000 
#    y 0.000000 3.663070 0.000000 
#    z 0.000000 0.000000 3.629690 
# 
# 
# High freq. dielectric constant tensor:
#      x y z
#    x 1.780260 0.000000 0.000000 
#    y 0.000000 1.777180 0.000000 
#    z 0.000000 0.000000 1.775840 
# 
# From -- ./inp_files/19967.got.cif
#   From: 2010.03.12/outbox.cif.g09.slc.cpg/sg46_10_cif.got.tgz:19967.got - 2010.04.14 02:56:35.
