data_PCOD8193276
_publ_section_title
;
Structure prediction by ZEFSAII (Michael W. Deem and Ramdas Pophale) SiO2 
 PCOD8193276
Probable space group: I M A 2
;
_chemical_formula_sum "Si O2"
_cell_formula_units_Z 36
_cell_length_a 25.045878
_cell_length_b 5.260079
_cell_length_c 12.227335
_cell_angle_alpha 90.000000
_cell_angle_beta 90.000000
_cell_angle_gamma 90.000000
_cell_volume 1610.869425
_symmetry_space_group_name_H-M "I M A 2"
_symmetry_group_IT_number 46
_symmetry_cell_setting 'orthorhombic'
loop_
_space_group_symop_operation_xyz
x,y,z
-x,-y,z
1/2-x,y,z
1/2+x,-y,z
1/2+x,1/2+y,1/2+z
1/2-x,1/2-y,1/2+z
-x,1/2+y,1/2+z
x,1/2-y,1/2+z
loop_
_atom_site_type_symbol
_atom_site_label
_atom_site_fract_x
_atom_site_fract_y
_atom_site_fract_z
Si Si1 0.940622 0.828128 0.684840
Si Si2 0.064890 0.820082 0.304285
Si Si3 0.664291 0.036893 0.744968
Si Si4 0.250000 0.617934 0.066067
Si Si5 0.250000 0.388427 0.416598
Si Si6 0.500000 0.500000 0.991726
O O1 0.955775 0.587489 0.757111
O O2 0.962976 0.807850 0.562255
O O3 0.963447 0.097488 0.733962
O O4 0.875930 0.835807 0.688794
O O5 0.129164 0.766749 0.300785
O O6 0.041577 0.820360 0.426576
O O7 0.699385 0.142044 0.645685
O O8 0.698068 0.893246 0.838511
O O9 0.250000 0.360709 0.993203
O O10 0.250000 0.858534 0.988035
#
# Coordination Sequence:
#
# PCOD8193276 Si02
#       6
#     8   8   8   4   4   4
#     4  10  25  42  67  96 138 177 230 287 342 401
#     4  10  25  44  66  97 141 176 229 295 335 406
#     4   9  26  46  66 102 143 172 227 296 342 406
#     4  11  26  43  74 104 132 183 226 281 352 434
#     4  11  26  41  76  98 138 181 234 271 364 426
#     4  12  24  44  72  98 132 196 238 278 356 414
#
# _framework density 22.348179999999999
#
# number of rings (size 3 to 8) (size 9 to 14) (size 15 to 20)
#    1.333    0.444    0.000    1.333    9.333    5.333 
#    0.000    0.000    0.000    0.000    0.000    0.000 
#    0.000    0.000    0.000    0.000    0.000    0.000 
#
# Total GULP energy -223040.506700 kJ/mol
# GULP energy per Si atom -12391.139261 kJ/mol
# Density = 2.229731 g / cm^3
# Si number density = 22.348180 Si / 1000 Ang^3
#
#
#
# Elastic Constant Matrix: (Units=GPa)
#
#
# Indices 1 2 3 4 5 6 
#
# 1 148.7239 58.0028 95.4103 0.0000 0.0000 0.0000
# 2 58.0028 127.7066 45.0366 0.0000 0.0000 0.0000
# 3 95.4103 45.0366 149.2156 0.0000 0.0000 0.0000
# 4 0.0000 0.0000 0.0000 28.8035 0.0000 0.0000
# 5 0.0000 0.0000 0.0000 0.0000 49.2518 0.0000
# 6 0.0000 0.0000 0.0000 0.0000 0.0000 31.7248
#
#
#
# Elastic Compliance Matrix: (Units=1/GPa)
#
#
# Indices 1 2 3 4 5 6 
#
# 1 0.012462 -0.003190 -0.007006 0.000000 0.000000 0.000000
# 2 -0.003190 0.009580 -0.000852 0.000000 0.000000 0.000000
# 3 -0.007006 -0.000852 0.011438 0.000000 0.000000 0.000000
# 4 0.000000 0.000000 0.000000 0.034718 0.000000 0.000000
# 5 0.000000 0.000000 0.000000 0.000000 0.020304 0.000000
# 6 0.000000 0.000000 0.000000 0.000000 0.000000 0.031521
#
#
# Mechanical properties :
#
#
# Convention : Reuss Voigt Hill
#
# Bulk Modulus (GPa) = 87.82956 91.39395 89.61176
# Shear Modulus (GPa) = 34.26706 37.10246 35.68476
#
# Velocity S-wave (km/s) = 3.92002 4.07898 4.00029
# Velocity P-wave (km/s) = 7.73787 7.94785 7.84356
#
# Compressibility (1/GPa) = 0.01138569
#
# Stress axis : x y z
#
# Youngs Moduli (GPa) = 80.24261 104.38942 87.42456
#
# Poissons Ratio (x) = 0.33295 0.61248
# Poissons Ratio (y) = 0.25594 0.07448
# Poissons Ratio (z) = 0.56216 0.08893
#
# Static dielectric constant tensor:
#      x y z
#    x 4.328420 0.000000 0.000000 
#    y 0.000000 3.771040 0.000000 
#    z 0.000000 0.000000 3.982320 
# 
# 
# High freq. dielectric constant tensor:
#      x y z
#    x 1.916310 0.000000 0.000000 
#    y 0.000000 1.867090 0.000000 
#    z 0.000000 0.000000 1.876820 
# 
# From -- ./inp_files/13119.got.cif
#   From: 2010.03.12/outbox.cif.g09.slc.cpg/sg46_7_cif.got.tgz:13119.got - 2010.04.14 02:56:35.
