data_PCOD8193515
_publ_section_title
;
Structure prediction by ZEFSAII (Michael W. Deem and Ramdas Pophale) SiO2 
 PCOD8193515
Probable space group: P M M M
;
_chemical_formula_sum "Si O2"
_cell_formula_units_Z 64
_cell_length_a 31.099773
_cell_length_b 14.056529
_cell_length_c 9.632079
_cell_angle_alpha 90.000000
_cell_angle_beta 90.000000
_cell_angle_gamma 90.000000
_cell_volume 4210.710157
_symmetry_space_group_name_H-M "P M M M"
_symmetry_group_IT_number 47
_symmetry_cell_setting 'orthorhombic'
loop_
_space_group_symop_operation_xyz
x,y,z
-x,-y,z
x,-y,-z
-x,y,-z
-x,-y,-z
x,y,-z
-x,y,z
x,-y,z
loop_
_atom_site_type_symbol
_atom_site_label
_atom_site_fract_x
_atom_site_fract_y
_atom_site_fract_z
Si Si1 0.338822 0.391046 0.840956
Si Si2 0.209741 0.224901 0.336339
Si Si3 0.372863 0.228026 0.664827
Si Si4 0.708659 0.106176 0.335511
Si Si5 0.452295 0.893819 0.664726
Si Si6 0.047381 0.886994 0.843988
Si Si7 0.125107 0.109859 0.660974
Si Si8 0.239429 0.391363 0.160132
O O1 0.352645 0.500000 0.819942
O O2 0.368638 0.329024 0.740220
O O3 0.289173 0.377297 0.799129
O O4 0.346015 0.359933 0.000000
O O5 0.212966 0.244238 0.500000
O O6 0.249487 0.161737 0.281572
O O7 0.166568 0.169862 0.295859
O O8 0.210072 0.325324 0.257164
O O9 0.372680 0.244634 0.500000
O O10 0.334009 0.160363 0.713387
O O11 0.416878 0.180110 0.719559
O O12 0.710085 0.099310 0.500000
O O13 0.708438 0.000000 0.271458
O O14 0.449700 0.897647 0.500000
O O15 0.500000 0.860726 0.712494
O O16 0.442679 0.000000 0.722443
O O17 0.084215 0.847216 0.742737
O O18 0.000000 0.849773 0.797733
O O19 0.047357 0.000000 0.837462
O O20 0.057383 0.852203 0.000000
O O21 0.114443 0.120940 0.500000
O O22 0.134171 0.000000 0.699359
O O23 0.225522 0.500000 0.186997
O O24 0.232012 0.364068 0.000000
#
# Coordination Sequence:
#
# PCOD8193515 Si02
#       8
#     8   8   8   8   8   8   8   8
#     4   9  18  32  47  62  84 113 140 172 220 267
#     4  10  18  28  42  62  87 115 144 175 210 248
#     4  10  17  26  45  70  87 107 144 182 212 246
#     4   9  16  25  38  59  87 115 141 170 203 242
#     4   8  14  25  42  66  94 118 140 171 212 256
#     4   8  14  25  40  57  78 107 146 189 224 249
#     4   9  17  27  39  58  86 119 149 174 207 253
#     4   9  18  32  47  61  80 109 143 178 218 260
#
# _framework density 15.199336000000001
#
# number of rings (size 3 to 8) (size 9 to 14) (size 15 to 20)
#    0.000    3.000    1.250    2.250    0.000    4.250 
#    0.000    2.500    0.000    4.125    0.000    3.500 
#    0.000    0.500    0.000    5.500    0.000    4.250 
#
# Total GULP energy -793391.584795 kJ/mol
# GULP energy per Si atom -12396.743512 kJ/mol
# Density = 1.516474 g / cm^3
# Si number density = 15.199336 Si / 1000 Ang^3
#
#
#
# Elastic Constant Matrix: (Units=GPa)
#
#
# Indices 1 2 3 4 5 6 
#
# 1 124.4241 54.1558 45.9874 0.0000 0.0000 0.0000
# 2 54.1558 85.8782 40.0042 0.0000 0.0000 0.0000
# 3 45.9874 40.0042 43.5710 0.0000 0.0000 0.0000
# 4 0.0000 0.0000 0.0000 16.8784 0.0000 0.0000
# 5 0.0000 0.0000 0.0000 0.0000 16.9257 0.0000
# 6 0.0000 0.0000 0.0000 0.0000 0.0000 11.8278
#
#
#
# Elastic Compliance Matrix: (Units=1/GPa)
#
#
# Indices 1 2 3 4 5 6 
#
# 1 0.013701 -0.003326 -0.011406 0.000000 0.000000 0.000000
# 2 -0.003326 0.021154 -0.015911 0.000000 0.000000 0.000000
# 3 -0.011406 -0.015911 0.049599 0.000000 0.000000 0.000000
# 4 0.000000 0.000000 0.000000 0.059247 0.000000 0.000000
# 5 0.000000 0.000000 0.000000 0.000000 0.059082 0.000000
# 6 0.000000 0.000000 0.000000 0.000000 0.000000 0.084546
#
#
# Mechanical properties :
#
#
# Convention : Reuss Voigt Hill
#
# Bulk Modulus (GPa) = 43.16826 59.35201 51.26013
# Shear Modulus (GPa) = 14.03157 16.70812 15.36984
#
# Velocity S-wave (km/s) = 3.04167 3.31912 3.18342
# Velocity P-wave (km/s) = 6.38739 7.33639 6.87827
#
# Compressibility (1/GPa) = 0.02316517
#
# Stress axis : x y z
#
# Youngs Moduli (GPa) = 72.98899 47.27227 20.16169
#
# Poissons Ratio (x) = 0.15725 0.22997
# Poissons Ratio (y) = 0.24279 0.32080
# Poissons Ratio (z) = 0.83254 0.75217
#
# Static dielectric constant tensor:
#      x y z
#    x 3.052380 0.000000 0.000000 
#    y 0.000000 2.807070 0.000000 
#    z 0.000000 0.000000 2.691590 
# 
# 
# High freq. dielectric constant tensor:
#      x y z
#    x 1.575640 0.000000 0.000000 
#    y 0.000000 1.562950 0.000000 
#    z 0.000000 0.000000 1.558890 
# 
# From -- ./inp_files/14320.got.cif
#   From: 2010.03.12/outbox.cif.g09.slc.cpg/sg47_8_cif.got.tgz:14320.got - 2010.04.14 03:12:58.
