data_PCOD8193733
_publ_section_title
;
Structure prediction by ZEFSAII (Michael W. Deem and Ramdas Pophale) SiO2 
 PCOD8193733
Probable space group: P M M M
;
_chemical_formula_sum "Si O2"
_cell_formula_units_Z 52
_cell_length_a 13.979499
_cell_length_b 7.979821
_cell_length_c 28.342829
_cell_angle_alpha 90.000000
_cell_angle_beta 90.000000
_cell_angle_gamma 90.000000
_cell_volume 3161.753103
_symmetry_space_group_name_H-M "P M M M"
_symmetry_group_IT_number 47
_symmetry_cell_setting 'orthorhombic'
loop_
_space_group_symop_operation_xyz
x,y,z
-x,-y,z
x,-y,-z
-x,y,-z
-x,-y,-z
x,y,-z
-x,y,z
x,-y,z
loop_
_atom_site_type_symbol
_atom_site_label
_atom_site_fract_x
_atom_site_fract_y
_atom_site_fract_z
Si Si1 0.392680 0.807839 0.711364
Si Si2 0.605041 0.300987 0.894356
Si Si3 0.213431 0.300241 0.052004
Si Si4 0.613525 0.315283 0.388300
Si Si5 0.614250 0.000000 0.446526
Si Si6 0.712081 0.302241 0.801842
Si Si7 0.105800 0.699363 0.857148
O O1 0.500000 0.747010 0.726020
O O2 0.354175 0.707217 0.666007
O O3 0.318132 0.785325 0.753649
O O4 0.396444 0.000000 0.696037
O O5 0.500000 0.224368 0.904590
O O6 0.601157 0.500000 0.895382
O O7 0.680059 0.237570 0.933697
O O8 0.639508 0.243246 0.842655
O O9 0.211630 0.500000 0.051304
O O10 0.138467 0.233794 0.091140
O O11 0.187834 0.228803 0.000000
O O12 0.500000 0.303795 0.390413
O O13 0.648402 0.500000 0.405581
O O14 0.655777 0.167785 0.421344
O O15 0.500000 0.000000 0.444767
O O16 0.651842 0.000000 0.500000
O O17 0.707971 0.500000 0.794558
O O18 0.819282 0.243300 0.816809
O O19 0.104841 0.500000 0.858964
O O20 0.000000 0.770841 0.845740
#
# Coordination Sequence:
#
# PCOD8193733 Si02
#       7
#     8   8   8   8   4   8   8
#     4  10  18  27  39  56  80 105 131 170 215 254
#     4   8  13  20  29  43  66  93 121 156 194 237
#     4   8  13  19  27  43  67  95 126 155 189 240
#     4   9  16  26  39  55  78 110 147 185 225 263
#     4   9  16  26  38  54  80 112 151 197 230 253
#     4   9  16  25  38  55  72  96 132 163 195 248
#     4   8  14  24  36  50  70  95 124 162 203 244
#
# _framework density 16.446572
#
# number of rings (size 3 to 8) (size 9 to 14) (size 15 to 20)
#    0.000    3.308    0.769    2.769    0.000    2.462 
#    0.000    4.615    0.000    0.462    0.000    0.000 
#    0.000    9.846    0.000   39.385    0.000   36.000 
#
# Total GULP energy -644308.529026 kJ/mol
# GULP energy per Si atom -12390.548635 kJ/mol
# Density = 1.640914 g / cm^3
# Si number density = 16.446572 Si / 1000 Ang^3
#
#
#
# Elastic Constant Matrix: (Units=GPa)
#
#
# Indices 1 2 3 4 5 6 
#
# 1 91.3009 10.2337 34.9678 0.0000 0.0000 0.0000
# 2 10.2337 55.1763 35.1995 0.0000 0.0000 0.0000
# 3 34.9678 35.1995 111.1892 0.0000 0.0000 0.0000
# 4 0.0000 0.0000 0.0000 11.7433 0.0000 0.0000
# 5 0.0000 0.0000 0.0000 0.0000 10.6311 0.0000
# 6 0.0000 0.0000 0.0000 0.0000 0.0000 4.4143
#
#
#
# Elastic Compliance Matrix: (Units=1/GPa)
#
#
# Indices 1 2 3 4 5 6 
#
# 1 0.012455 0.000237 -0.003992 0.000000 0.000000 0.000000
# 2 0.000237 0.022715 -0.007265 0.000000 0.000000 0.000000
# 3 -0.003992 -0.007265 0.012549 0.000000 0.000000 0.000000
# 4 0.000000 0.000000 0.000000 0.085155 0.000000 0.000000
# 5 0.000000 0.000000 0.000000 0.000000 0.094063 0.000000
# 6 0.000000 0.000000 0.000000 0.000000 0.000000 0.226535
#
#
# Mechanical properties :
#
#
# Convention : Reuss Voigt Hill
#
# Bulk Modulus (GPa) = 38.94433 46.49650 42.72041
# Shear Modulus (GPa) = 10.32902 17.17545 13.75224
#
# Velocity S-wave (km/s) = 2.50878 3.23510 2.89481
# Velocity P-wave (km/s) = 5.66769 6.50285 6.09958
#
# Compressibility (1/GPa) = 0.02567768
#
# Stress axis : x y z
#
# Youngs Moduli (GPa) = 80.28803 44.02442 79.68724
#
# Poissons Ratio (x) = -0.01041 0.31810
# Poissons Ratio (y) = -0.01899 0.57895
# Poissons Ratio (z) = 0.32050 0.31985
#
# Static dielectric constant tensor:
#      x y z
#    x 3.095150 0.000000 0.000000 
#    y 0.000000 2.861100 0.000000 
#    z 0.000000 0.000000 3.086170 
# 
# 
# High freq. dielectric constant tensor:
#      x y z
#    x 1.586750 0.000000 0.000000 
#    y 0.000000 1.612160 0.000000 
#    z 0.000000 0.000000 1.620660 
# 
# From -- ./inp_files/33773.got.cif
#   From: 2010.03.12/outbox.cif.g09.slc.cpg/sg47_17_cif.got.tgz:33773.got - 2010.04.14 03:12:58.
