data_PCOD8193202
_publ_section_title
;
Structure prediction by ZEFSAII (Michael W. Deem and Ramdas Pophale) SiO2 
 PCOD8193202
Probable space group: I M A 2
;
_chemical_formula_sum "Si O2"
_cell_formula_units_Z 48
_cell_length_a 16.834056
_cell_length_b 14.436400
_cell_length_c 9.183556
_cell_angle_alpha 90.000000
_cell_angle_beta 90.000000
_cell_angle_gamma 90.000000
_cell_volume 2231.816855
_symmetry_space_group_name_H-M "I M A 2"
_symmetry_group_IT_number 46
_symmetry_cell_setting 'orthorhombic'
loop_
_space_group_symop_operation_xyz
x,y,z
-x,-y,z
1/2-x,y,z
1/2+x,-y,z
1/2+x,1/2+y,1/2+z
1/2-x,1/2-y,1/2+z
-x,1/2+y,1/2+z
x,1/2-y,1/2+z
loop_
_atom_site_type_symbol
_atom_site_label
_atom_site_fract_x
_atom_site_fract_y
_atom_site_fract_z
Si Si1 0.157623 0.138611 0.703440
Si Si2 0.526941 0.401574 0.782072
Si Si3 0.919923 0.771087 0.429593
Si Si4 0.416045 0.542923 0.299016
Si Si5 0.576040 0.316974 0.051635
Si Si6 0.659996 0.355552 0.558132
O O1 0.250000 0.146395 0.731777
O O2 0.140515 0.183805 0.546018
O O3 0.116694 0.183501 0.846866
O O4 0.130290 0.031606 0.700060
O O5 0.500000 0.500000 0.722141
O O6 0.445999 0.341136 0.798277
O O7 0.568231 0.404806 0.942459
O O8 0.595864 0.358442 0.685719
O O9 0.999904 0.747544 0.522883
O O10 0.500000 0.500000 0.349303
O O11 0.362135 0.569511 0.436282
O O12 0.427765 0.639521 0.212279
O O13 0.653360 0.253863 0.014800
O O14 0.750000 0.376427 0.608292
#
# Coordination Sequence:
#
# PCOD8193202 Si02
#       6
#     8   8   8   8   8   8
#     4  12  24  42  70 103 141 178 225 291 352 405
#     4  10  22  43  68  94 126 179 229 272 325 406
#     4  10  23  44  67  99 132 178 236 273 336 416
#     4  12  23  44  70  98 132 183 236 277 334 419
#     4  10  22  42  70  91 124 180 228 274 328 405
#     4  12  26  41  63 102 140 170 219 286 349 396
#
# _framework density 21.50714
#
# number of rings (size 3 to 8) (size 9 to 14) (size 15 to 20)
#    1.000    0.000    1.667    6.000    0.000    4.667 
#    0.000    5.000    0.000    0.000    0.000    0.000 
#    0.000    0.000    0.000    0.000    0.000    0.000 
#
# Total GULP energy -297315.211485 kJ/mol
# GULP energy per Si atom -12388.133812 kJ/mol
# Density = 2.145819 g / cm^3
# Si number density = 21.507140 Si / 1000 Ang^3
#
#
#
# Elastic Constant Matrix: (Units=GPa)
#
#
# Indices 1 2 3 4 5 6 
#
# 1 138.1874 47.3306 46.6202 0.0000 0.0000 0.0000
# 2 47.3306 86.8530 22.2097 0.0000 0.0000 0.0000
# 3 46.6202 22.2097 76.2846 0.0000 0.0000 0.0000
# 4 0.0000 0.0000 0.0000 29.2107 0.0000 0.0000
# 5 0.0000 0.0000 0.0000 0.0000 28.8243 0.0000
# 6 0.0000 0.0000 0.0000 0.0000 0.0000 25.4677
#
#
#
# Elastic Compliance Matrix: (Units=1/GPa)
#
#
# Indices 1 2 3 4 5 6 
#
# 1 0.010469 -0.004396 -0.005118 0.000000 0.000000 0.000000
# 2 -0.004396 0.014286 -0.001473 0.000000 0.000000 0.000000
# 3 -0.005118 -0.001473 0.016665 0.000000 0.000000 0.000000
# 4 0.000000 0.000000 0.000000 0.034234 0.000000 0.000000
# 5 0.000000 0.000000 0.000000 0.000000 0.034693 0.000000
# 6 0.000000 0.000000 0.000000 0.000000 0.000000 0.039265
#
#
# Mechanical properties :
#
#
# Convention : Reuss Voigt Hill
#
# Bulk Modulus (GPa) = 51.42282 59.29400 55.35841
# Shear Modulus (GPa) = 28.07904 29.04482 28.56193
#
# Velocity S-wave (km/s) = 3.61718 3.67887 3.64816
# Velocity P-wave (km/s) = 6.43482 6.75831 6.59855
#
# Compressibility (1/GPa) = 0.01944662
#
# Stress axis : x y z
#
# Youngs Moduli (GPa) = 95.52017 69.99835 60.00486
#
# Poissons Ratio (x) = 0.30774 0.30711
# Poissons Ratio (y) = 0.41994 0.08836
# Poissons Ratio (z) = 0.48887 0.10307
#
# Static dielectric constant tensor:
#      x y z
#    x 3.766980 0.000000 0.000000 
#    y 0.000000 3.736440 0.000000 
#    z 0.000000 0.000000 3.778960 
# 
# 
# High freq. dielectric constant tensor:
#      x y z
#    x 1.831600 0.000000 0.000000 
#    y 0.000000 1.840020 0.000000 
#    z 0.000000 0.000000 1.845940 
# 
# From -- ./inp_files/6607.got.cif
#   From: 2010.03.12/outbox.cif.g09.slc.cpg/sg46_4_cif.got.tgz:6607.got - 2010.04.14 02:56:35.
