data_PCOD8193720
_publ_section_title
;
Structure prediction by ZEFSAII (Michael W. Deem and Ramdas Pophale) SiO2 
 PCOD8193720
Probable space group: P M M M
;
_chemical_formula_sum "Si O2"
_cell_formula_units_Z 52
_cell_length_a 9.248698
_cell_length_b 17.938966
_cell_length_c 16.960754
_cell_angle_alpha 90.000000
_cell_angle_beta 90.000000
_cell_angle_gamma 90.000000
_cell_volume 2813.993957
_symmetry_space_group_name_H-M "P M M M"
_symmetry_group_IT_number 47
_symmetry_cell_setting 'orthorhombic'
loop_
_space_group_symop_operation_xyz
x,y,z
-x,-y,z
x,-y,-z
-x,y,-z
-x,-y,-z
x,y,-z
-x,y,z
x,-y,z
loop_
_atom_site_type_symbol
_atom_site_label
_atom_site_fract_x
_atom_site_fract_y
_atom_site_fract_z
Si Si1 0.830792 0.290032 0.409128
Si Si2 0.172265 0.000000 0.588722
Si Si3 0.667085 0.644394 0.847486
Si Si4 0.662585 0.819387 0.169846
Si Si5 0.828360 0.652655 0.000000
Si Si6 0.331896 0.414726 0.319098
Si Si7 0.665578 0.804025 0.000000
Si Si8 0.828777 0.856215 0.318261
O O1 0.794060 0.275427 0.500000
O O2 0.753062 0.364626 0.381091
O O3 0.772904 0.218916 0.360392
O O4 0.000000 0.300962 0.395489
O O5 0.230566 0.926816 0.633267
O O6 0.234075 0.000000 0.500000
O O7 0.000000 0.000000 0.586728
O O8 0.500000 0.627737 0.866397
O O9 0.694218 0.731509 0.832017
O O10 0.720099 0.600408 0.770166
O O11 0.762440 0.615041 0.921067
O O12 0.500000 0.835035 0.198743
O O13 0.769549 0.860639 0.229383
O O14 0.686789 0.851598 0.080525
O O15 0.782295 0.738668 0.000000
O O16 0.000000 0.644002 0.000000
O O17 0.500000 0.394614 0.326401
O O18 0.300309 0.500000 0.341189
O O19 0.500000 0.770553 0.000000
O O20 0.000000 0.858043 0.314364
#
# Coordination Sequence:
#
# PCOD8193720 Si02
#       8
#     8   4   8   8   4   8   4   8
#     4  10  21  36  54  77 105 135 168 211 266 322
#     4   9  18  34  55  78 107 142 176 211 255 311
#     4   9  17  32  50  70 100 137 172 210 260 311
#     4   9  16  29  51  75 102 136 172 211 258 306
#     4  10  18  26  45  75 103 132 171 216 256 301
#     4  10  21  37  56  76  99 133 178 222 261 306
#     4   8  16  30  46  70 104 142 174 207 253 304
#     4  10  19  32  54  81 106 135 175 215 254 306
#
# _framework density 18.479073
#
# number of rings (size 3 to 8) (size 9 to 14) (size 15 to 20)
#    0.000    2.538    1.538    2.077    0.000    5.846 
#    0.000    2.308    0.000    4.615    0.000    3.231 
#    0.000    0.000    0.000    0.000    0.000    0.000 
#
# Total GULP energy -644687.416469 kJ/mol
# GULP energy per Si atom -12397.834932 kJ/mol
# Density = 1.843701 g / cm^3
# Si number density = 18.479073 Si / 1000 Ang^3
#
#
#
# Elastic Constant Matrix: (Units=GPa)
#
#
# Indices 1 2 3 4 5 6 
#
# 1 49.4722 24.9640 41.6896 0.0000 0.0000 0.0000
# 2 24.9640 79.4454 52.5348 0.0000 0.0000 0.0000
# 3 41.6896 52.5348 138.8192 0.0000 0.0000 0.0000
# 4 0.0000 0.0000 0.0000 21.6298 0.0000 0.0000
# 5 0.0000 0.0000 0.0000 0.0000 34.4465 0.0000
# 6 0.0000 0.0000 0.0000 0.0000 0.0000 16.5296
#
#
#
# Elastic Compliance Matrix: (Units=1/GPa)
#
#
# Indices 1 2 3 4 5 6 
#
# 1 0.028141 -0.004340 -0.006809 0.000000 0.000000 0.000000
# 2 -0.004340 0.017458 -0.005303 0.000000 0.000000 0.000000
# 3 -0.006809 -0.005303 0.011255 0.000000 0.000000 0.000000
# 4 0.000000 0.000000 0.000000 0.046233 0.000000 0.000000
# 5 0.000000 0.000000 0.000000 0.000000 0.029031 0.000000
# 6 0.000000 0.000000 0.000000 0.000000 0.000000 0.060498
#
#
# Mechanical properties :
#
#
# Convention : Reuss Voigt Hill
#
# Bulk Modulus (GPa) = 41.75401 56.23484 48.99443
# Shear Modulus (GPa) = 21.41298 24.42441 22.91869
#
# Velocity S-wave (km/s) = 3.40776 3.63951 3.52554
# Velocity P-wave (km/s) = 6.17480 6.93967 6.56838
#
# Compressibility (1/GPa) = 0.02394979
#
# Stress axis : x y z
#
# Youngs Moduli (GPa) = 35.53514 57.28011 88.84657
#
# Poissons Ratio (x) = 0.24862 0.60493
# Poissons Ratio (y) = 0.15424 0.47118
# Poissons Ratio (z) = 0.24195 0.30378
#
# Static dielectric constant tensor:
#      x y z
#    x 3.151370 0.000000 0.000000 
#    y 0.000000 3.168860 0.000000 
#    z 0.000000 0.000000 3.703090 
# 
# 
# High freq. dielectric constant tensor:
#      x y z
#    x 1.695390 0.000000 0.000000 
#    y 0.000000 1.682780 0.000000 
#    z 0.000000 0.000000 1.735770 
# 
# From -- ./inp_files/26829.got.cif
#   From: 2010.03.12/outbox.cif.g09.slc.cpg/sg47_14_cif.got.tgz:26829.got - 2010.04.14 03:12:58.
