data_PCOD8193374
_publ_section_title
;
Structure prediction by ZEFSAII (Michael W. Deem and Ramdas Pophale) SiO2 
 PCOD8193374
Probable space group: I M A 2
;
_chemical_formula_sum "Si O2"
_cell_formula_units_Z 48
_cell_length_a 8.917095
_cell_length_b 23.178159
_cell_length_c 11.574245
_cell_angle_alpha 90.000000
_cell_angle_beta 90.000000
_cell_angle_gamma 90.000000
_cell_volume 2392.186320
_symmetry_space_group_name_H-M "I M A 2"
_symmetry_group_IT_number 46
_symmetry_cell_setting 'orthorhombic'
loop_
_space_group_symop_operation_xyz
x,y,z
-x,-y,z
1/2-x,y,z
1/2+x,-y,z
1/2+x,1/2+y,1/2+z
1/2-x,1/2-y,1/2+z
-x,1/2+y,1/2+z
x,1/2-y,1/2+z
loop_
_atom_site_type_symbol
_atom_site_label
_atom_site_fract_x
_atom_site_fract_y
_atom_site_fract_z
Si Si1 0.571027 0.436514 0.780600
Si Si2 0.085089 0.944540 0.847949
Si Si3 0.084368 0.657556 0.183393
Si Si4 0.574306 0.850702 0.448951
Si Si5 0.574027 0.265973 0.401489
Si Si6 0.427861 0.869929 0.051983
O O1 0.500000 0.500000 0.763381
O O2 0.750000 0.443082 0.785793
O O3 0.510313 0.406706 0.897015
O O4 0.520350 0.392544 0.677398
O O5 0.250000 0.963033 0.888360
O O6 0.092467 0.905703 0.735232
O O7 0.003812 0.913412 0.956292
O O8 0.000000 0.000000 0.806389
O O9 0.250000 0.674743 0.134609
O O10 0.035498 0.701019 0.283796
O O11 0.962046 0.656774 0.083508
O O12 0.750000 0.859471 0.430343
O O13 0.519634 0.792227 0.388853
O O14 0.750000 0.251485 0.408874
O O15 0.523593 0.304540 0.514426
O O16 0.250000 0.871204 0.040308
#
# Coordination Sequence:
#
# PCOD8193374 Si02
#       6
#     8   8   8   8   8   8
#     4  11  23  41  63  89 122 164 208 250 301 366
#     4   9  17  32  56  86 115 145 185 235 286 343
#     4   9  20  39  60  82 112 152 199 243 291 356
#     4  12  26  40  57  86 123 159 198 250 305 362
#     4   9  19  39  65  89 114 152 202 250 302 365
#     4   8  17  35  61  90 117 150 195 242 294 355
#
# _framework density 20.065327
#
# number of rings (size 3 to 8) (size 9 to 14) (size 15 to 20)
#    0.000    2.333    0.000    4.500    2.333    2.000 
#    0.000    5.833    0.000    0.000    0.000    0.000 
#    0.000    0.000    0.000    0.000    0.000    0.000 
#
# Total GULP energy -297445.619947 kJ/mol
# GULP energy per Si atom -12393.567498 kJ/mol
# Density = 2.001966 g / cm^3
# Si number density = 20.065327 Si / 1000 Ang^3
#
#
#
# Elastic Constant Matrix: (Units=GPa)
#
#
# Indices 1 2 3 4 5 6 
#
# 1 83.9075 40.5282 32.8395 -0.0001 0.0000 0.0000
# 2 40.5282 100.7711 31.2691 0.0000 0.0000 0.0000
# 3 32.8395 31.2691 92.5009 -0.0001 0.0000 -0.0001
# 4 -0.0001 0.0000 -0.0001 19.4122 0.0000 0.0000
# 5 0.0000 0.0000 0.0000 0.0000 22.5680 0.0000
# 6 0.0000 0.0000 -0.0001 0.0000 0.0000 33.5854
#
#
#
# Elastic Compliance Matrix: (Units=1/GPa)
#
#
# Indices 1 2 3 4 5 6 
#
# 1 0.015962 -0.005207 -0.003906 0.000000 0.000000 0.000000
# 2 -0.005207 0.012785 -0.002473 0.000000 0.000000 0.000000
# 3 -0.003906 -0.002473 0.013034 0.000000 0.000000 0.000000
# 4 0.000000 0.000000 0.000000 0.051514 0.000000 0.000000
# 5 0.000000 0.000000 0.000000 0.000000 0.044311 0.000000
# 6 0.000000 0.000000 0.000000 0.000000 0.000000 0.029775
#
#
# Mechanical properties :
#
#
# Convention : Reuss Voigt Hill
#
# Bulk Modulus (GPa) = 53.74423 54.05034 53.89729
# Shear Modulus (GPa) = 25.41206 26.61595 26.01401
#
# Velocity S-wave (km/s) = 3.56261 3.64602 3.60455
# Velocity P-wave (km/s) = 6.61556 6.68732 6.65154
#
# Compressibility (1/GPa) = 0.01860665
#
# Stress axis : x y z
#
# Youngs Moduli (GPa) = 62.64853 78.21520 76.72464
#
# Poissons Ratio (x) = 0.40730 0.29972
# Poissons Ratio (y) = 0.32624 0.18975
# Poissons Ratio (z) = 0.24474 0.19344
#
# Static dielectric constant tensor:
#      x y z
#    x 3.357810 0.000000 0.000000 
#    y 0.000000 3.713540 0.000000 
#    z 0.000000 0.000000 3.657400 
# 
# 
# High freq. dielectric constant tensor:
#      x y z
#    x 1.752360 0.000000 0.000000 
#    y 0.000000 1.792520 0.000000 
#    z 0.000000 0.000000 1.784310 
# 
# From -- ./inp_files/9302.got.cif
#   From: 2010.03.12/outbox.cif.g09.slc.cpg/sg46_5_cif.got.tgz:9302.got - 2010.04.14 02:56:35.
