data_PCOD8193731
_publ_section_title
;
Structure prediction by ZEFSAII (Michael W. Deem and Ramdas Pophale) SiO2 
 PCOD8193731
Probable space group: P M M M
;
_chemical_formula_sum "Si O2"
_cell_formula_units_Z 64
_cell_length_a 27.009924
_cell_length_b 9.108119
_cell_length_c 18.115553
_cell_angle_alpha 90.000000
_cell_angle_beta 90.000000
_cell_angle_gamma 90.000000
_cell_volume 4456.599983
_symmetry_space_group_name_H-M "P M M M"
_symmetry_group_IT_number 47
_symmetry_cell_setting 'orthorhombic'
loop_
_space_group_symop_operation_xyz
x,y,z
-x,-y,z
x,-y,-z
-x,y,-z
-x,-y,-z
x,y,-z
-x,y,z
x,-y,z
loop_
_atom_site_type_symbol
_atom_site_label
_atom_site_fract_x
_atom_site_fract_y
_atom_site_fract_z
Si Si1 0.253075 0.673589 0.170506
Si Si2 0.155139 0.327866 0.917432
Si Si3 0.895715 0.838181 0.201995
Si Si4 0.056006 0.172536 0.653435
Si Si5 0.552297 0.164252 0.912487
Si Si6 0.796352 0.164958 0.295604
Si Si7 0.659655 0.825368 0.914417
Si Si8 0.853542 0.331098 0.414330
O O1 0.257839 0.500000 0.180030
O O2 0.207820 0.716885 0.116857
O O3 0.245661 0.745884 0.251091
O O4 0.302416 0.738057 0.135688
O O5 0.148425 0.500000 0.918648
O O6 0.109549 0.265214 0.869250
O O7 0.152488 0.262389 0.000000
O O8 0.936897 0.781382 0.260282
O O9 0.844822 0.840701 0.246206
O O10 0.909407 0.000000 0.172878
O O11 0.092537 0.261862 0.600693
O O12 0.000000 0.208312 0.629436
O O13 0.068354 0.000000 0.645155
O O14 0.500000 0.244323 0.887572
O O15 0.604947 0.233816 0.888031
O O16 0.550397 0.000000 0.880600
O O17 0.553956 0.156870 0.000000
O O18 0.809560 0.248139 0.371375
O O19 0.777489 0.000000 0.313083
O O20 0.664484 0.000000 0.902176
O O21 0.669374 0.786503 0.000000
O O22 0.841172 0.316036 0.500000
O O23 0.854826 0.500000 0.388576
#
# Coordination Sequence:
#
# PCOD8193731 Si02
#       8
#     8   8   8   8   8   8   8   8
#     4  10  18  27  39  55  78 105 131 162 203 246
#     4   9  17  27  38  53  73  97 124 154 190 233
#     4   8  15  27  42  59  75  93 121 156 190 223
#     4   9  18  32  48  64  82 105 132 160 189 222
#     4   7  10  18  32  48  66  92 130 175 217 251
#     4   9  17  30  46  61  78 102 132 161 188 224
#     4   9  16  24  35  53  76 102 136 178 217 250
#     4  10  20  32  46  66  90 110 128 152 182 220
#
# _framework density 14.360723
#
# number of rings (size 3 to 8) (size 9 to 14) (size 15 to 20)
#    0.000    3.125    0.000    3.375    0.000    6.000 
#    0.000    1.250    0.000    0.750    0.000    4.375 
#    0.000    0.000    0.000    0.000    0.000    0.625 
#
# Total GULP energy -792941.224276 kJ/mol
# GULP energy per Si atom -12389.706629 kJ/mol
# Density = 1.432804 g / cm^3
# Si number density = 14.360723 Si / 1000 Ang^3
#
#
#
# Elastic Constant Matrix: (Units=GPa)
#
#
# Indices 1 2 3 4 5 6 
#
# 1 62.9629 32.0475 32.6419 0.0000 0.0000 0.0000
# 2 32.0475 61.2818 37.8263 0.0000 0.0000 0.0000
# 3 32.6419 37.8263 71.3787 0.0000 0.0000 0.0000
# 4 0.0000 0.0000 0.0000 22.0125 0.0000 0.0000
# 5 0.0000 0.0000 0.0000 0.0000 11.4604 0.0000
# 6 0.0000 0.0000 0.0000 0.0000 0.0000 11.5993
#
#
#
# Elastic Compliance Matrix: (Units=1/GPa)
#
#
# Indices 1 2 3 4 5 6 
#
# 1 0.023386 -0.008365 -0.006262 0.000000 0.000000 0.000000
# 2 -0.008365 0.027242 -0.010612 0.000000 0.000000 0.000000
# 3 -0.006262 -0.010612 0.022497 0.000000 0.000000 0.000000
# 4 0.000000 0.000000 0.000000 0.045429 0.000000 0.000000
# 5 0.000000 0.000000 0.000000 0.000000 0.087257 0.000000
# 6 0.000000 0.000000 0.000000 0.000000 0.000000 0.086212
#
#
# Mechanical properties :
#
#
# Convention : Reuss Voigt Hill
#
# Bulk Modulus (GPa) = 44.15172 44.51720 44.33446
# Shear Modulus (GPa) = 14.28368 15.22161 14.75265
#
# Velocity S-wave (km/s) = 3.15721 3.25922 3.20862
# Velocity P-wave (km/s) = 6.64094 6.72532 6.68326
#
# Compressibility (1/GPa) = 0.02264918
#
# Stress axis : x y z
#
# Youngs Moduli (GPa) = 42.76010 36.70747 44.45075
#
# Poissons Ratio (x) = 0.30705 0.27834
# Poissons Ratio (y) = 0.35768 0.47169
# Poissons Ratio (z) = 0.26776 0.38952
#
# Static dielectric constant tensor:
#      x y z
#    x 2.936160 0.000000 0.000000 
#    y 0.000000 2.798790 0.000000 
#    z 0.000000 0.000000 2.706200 
# 
# 
# High freq. dielectric constant tensor:
#      x y z
#    x 1.527310 0.000000 0.000000 
#    y 0.000000 1.544110 0.000000 
#    z 0.000000 0.000000 1.520200 
# 
# From -- ./inp_files/10261.got.cif
#   From: 2010.03.12/outbox.cif.g09.slc.cpg/sg47_6_cif.got.tgz:10261.got - 2010.04.14 03:12:58.
