data_PCOD8193578
_publ_section_title
;
Structure prediction by ZEFSAII (Michael W. Deem and Ramdas Pophale) SiO2 
 PCOD8193578
Probable space group: P M M M
;
_chemical_formula_sum "Si O2"
_cell_formula_units_Z 52
_cell_length_a 23.044230
_cell_length_b 9.092450
_cell_length_c 14.435075
_cell_angle_alpha 90.000000
_cell_angle_beta 90.000000
_cell_angle_gamma 90.000000
_cell_volume 3024.559743
_symmetry_space_group_name_H-M "P M M M"
_symmetry_group_IT_number 47
_symmetry_cell_setting 'orthorhombic'
loop_
_space_group_symop_operation_xyz
x,y,z
-x,-y,z
x,-y,-z
-x,y,-z
-x,-y,-z
x,y,-z
-x,y,z
x,-y,z
loop_
_atom_site_type_symbol
_atom_site_label
_atom_site_fract_x
_atom_site_fract_y
_atom_site_fract_z
Si Si1 0.722876 0.174399 0.603364
Si Si2 0.606639 0.825820 0.293723
Si Si3 0.834773 0.825445 0.287475
Si Si4 0.500000 0.326120 0.607484
Si Si5 0.651199 0.174362 0.101305
Si Si6 0.933460 0.328489 0.604945
Si Si7 0.781294 0.174526 0.101343
O O1 0.719224 0.240313 0.500000
O O2 0.666780 0.225225 0.660230
O O3 0.781223 0.234304 0.651184
O O4 0.724987 0.000000 0.600760
O O5 0.556044 0.739331 0.343569
O O6 0.609128 0.776560 0.185289
O O7 0.596022 0.000000 0.304672
O O8 0.894648 0.759496 0.322858
O O9 0.824166 0.769412 0.182048
O O10 0.839235 0.000000 0.293109
O O11 0.500000 0.500000 0.619293
O O12 0.500000 0.279492 0.500000
O O13 0.716210 0.237117 0.116940
O O14 0.655335 0.000000 0.102969
O O15 0.627416 0.227122 0.000000
O O16 0.918916 0.278833 0.500000
O O17 0.921171 0.500000 0.616480
O O18 0.000000 0.291662 0.628084
O O19 0.777789 0.000000 0.106674
O O20 0.804634 0.224970 0.000000
#
# Coordination Sequence:
#
# PCOD8193578 Si02
#       7
#     8   8   8   4   8   8   8
#     4   9  16  25  41  70 102 122 144 191 245 282
#     4  10  18  32  54  76  95 124 164 199 234 284
#     4  10  17  27  47  76 102 124 155 196 243 286
#     4  11  25  41  52  65  92 130 167 203 244 287
#     4   8  13  24  46  76 104 125 151 192 237 281
#     4   9  19  35  50  64  90 131 171 202 237 284
#     4   8  13  23  42  71 105 132 152 183 235 292
#
# _framework density 17.192584
#
# number of rings (size 3 to 8) (size 9 to 14) (size 15 to 20)
#    0.000    2.846    1.538    2.538    0.000    2.462 
#    0.000    1.923    0.000    6.462    0.000    5.385 
#    0.000    0.000    0.000    0.000    0.000    0.000 
#
# Total GULP energy -644445.676470 kJ/mol
# GULP energy per Si atom -12393.186086 kJ/mol
# Density = 1.715345 g / cm^3
# Si number density = 17.192584 Si / 1000 Ang^3
#
#
#
# Elastic Constant Matrix: (Units=GPa)
#
#
# Indices 1 2 3 4 5 6 
#
# 1 105.7573 31.5739 78.7194 0.0000 0.0000 0.0000
# 2 31.5739 26.2795 36.1133 0.0000 0.0000 0.0000
# 3 78.7194 36.1133 180.6597 0.0000 0.0000 0.0000
# 4 0.0000 0.0000 0.0000 11.6322 0.0000 0.0000
# 5 0.0000 0.0000 0.0000 0.0000 29.6019 0.0000
# 6 0.0000 0.0000 0.0000 0.0000 0.0000 -15.7809
#
#
#
# Elastic Compliance Matrix: (Units=1/GPa)
#
#
# Indices 1 2 3 4 5 6 
#
# 1 0.017154 -0.014254 -0.004625 0.000000 0.000000 0.000000
# 2 -0.014254 0.064308 -0.006644 0.000000 0.000000 0.000000
# 3 -0.004625 -0.006644 0.008879 0.000000 0.000000 0.000000
# 4 0.000000 0.000000 0.000000 0.085968 0.000000 0.000000
# 5 0.000000 0.000000 0.000000 0.000000 0.033782 0.000000
# 6 0.000000 0.000000 0.000000 0.000000 0.000000 -0.063368
#
#
# Mechanical properties :
#
#
# Convention : Reuss Voigt Hill
#
# Bulk Modulus (GPa) = 25.44882 67.27885 46.36384
# Shear Modulus (GPa) = 23.71161 16.17664 19.94412
#
# Velocity S-wave (km/s) = 3.71776 3.07075 3.40963
# Velocity P-wave (km/s) = 5.76743 7.19654 6.52125
#
# Compressibility (1/GPa) = 0.03929456
#
# Stress axis : x y z
#
# Youngs Moduli (GPa) = 58.29623 15.55012 112.62817
#
# Poissons Ratio (x) = 0.22165 0.52093
# Poissons Ratio (y) = 0.83094 0.74833
# Poissons Ratio (z) = 0.26963 0.10332
#
# Static dielectric constant tensor:
#      x y z
#    x 3.147570 0.000000 0.000000 
#    y 0.000000 2.685020 0.000000 
#    z 0.000000 0.000000 3.739560 
# 
# 
# High freq. dielectric constant tensor:
#      x y z
#    x 1.649030 0.000000 0.000000 
#    y 0.000000 1.608890 0.000000 
#    z 0.000000 0.000000 1.682050 
# 
# From -- ./inp_files/25023.got.cif
#   From: 2010.03.12/outbox.cif.g09.slc.cpg/sg47_13_cif.got.tgz:25023.got - 2010.04.14 03:12:58.
