data_PCOD8193341
_publ_section_title
;
Structure prediction by ZEFSAII (Michael W. Deem and Ramdas Pophale) SiO2 
 PCOD8193341
Probable space group: I M A 2
;
_chemical_formula_sum "Si O2"
_cell_formula_units_Z 48
_cell_length_a 18.125413
_cell_length_b 10.157540
_cell_length_c 13.001512
_cell_angle_alpha 90.000000
_cell_angle_beta 90.000000
_cell_angle_gamma 90.000000
_cell_volume 2393.703272
_symmetry_space_group_name_H-M "I M A 2"
_symmetry_group_IT_number 46
_symmetry_cell_setting 'orthorhombic'
loop_
_space_group_symop_operation_xyz
x,y,z
-x,-y,z
1/2-x,y,z
1/2+x,-y,z
1/2+x,1/2+y,1/2+z
1/2-x,1/2-y,1/2+z
-x,1/2+y,1/2+z
x,1/2-y,1/2+z
loop_
_atom_site_type_symbol
_atom_site_label
_atom_site_fract_x
_atom_site_fract_y
_atom_site_fract_z
Si Si1 0.250000 0.593160 0.827680
Si Si2 0.250000 0.608154 0.071357
Si Si3 0.866524 0.793941 0.899929
Si Si4 0.250000 0.316984 0.044735
Si Si5 0.133952 0.719287 0.684808
Si Si6 0.416899 0.954670 0.007146
Si Si7 0.020324 0.653672 0.323784
Si Si8 0.750000 0.708259 0.756057
O O1 0.177981 0.662253 0.781125
O O2 0.250000 0.438778 0.801889
O O3 0.250000 0.621553 0.948552
O O4 0.250000 0.455819 0.102449
O O5 0.322498 0.671542 0.120814
O O6 0.820446 0.792733 0.794381
O O7 0.949772 0.761275 0.862868
O O8 0.824826 0.691473 0.975872
O O9 0.865060 0.930929 0.961623
O O10 0.250000 0.204476 0.132436
O O11 0.119209 0.596806 0.610544
O O12 0.056637 0.781022 0.723633
O O13 0.500000 0.000000 0.032155
O O14 0.421285 0.843116 0.918137
O O15 0.000000 0.500000 0.300981
#
# Coordination Sequence:
#
# PCOD8193341 Si02
#       8
#     4   4   8   4   8   8   8   4
#     4  11  23  43  58  91 132 153 219 264 316 379
#     4  11  25  40  57  94 133 161 205 272 308 393
#     4   9  20  40  62  89 127 157 203 273 302 376
#     4  11  22  38  61  97 126 162 210 258 334 373
#     4  11  23  40  65  88 122 176 205 260 320 386
#     4   9  20  40  61  89 120 160 216 258 313 380
#     4   9  21  40  61  90 124 160 215 259 314 380
#     4  11  22  37  66  92 121 168 212 258 322 389
#
# _framework density 20.052612
#
# number of rings (size 3 to 8) (size 9 to 14) (size 15 to 20)
#    0.000    2.333    1.667    2.000    4.667    6.000 
#    0.000    0.000    3.667    0.000    0.000    0.000 
#    0.000    0.000    0.000    0.000    0.000    0.000 
#
# Total GULP energy -297394.865652 kJ/mol
# GULP energy per Si atom -12391.452735 kJ/mol
# Density = 2.000697 g / cm^3
# Si number density = 20.052612 Si / 1000 Ang^3
#
#
#
# Elastic Constant Matrix: (Units=GPa)
#
#
# Indices 1 2 3 4 5 6 
#
# 1 102.6148 56.9534 54.9069 0.0000 0.0000 0.0000
# 2 56.9534 81.4209 42.5966 0.0000 0.0000 0.0000
# 3 54.9069 42.5966 129.1182 0.0000 0.0000 0.0000
# 4 0.0000 0.0000 0.0000 40.1193 0.0000 0.0000
# 5 0.0000 0.0000 0.0000 0.0000 26.8920 0.0000
# 6 0.0000 0.0000 0.0000 0.0000 0.0000 23.2001
#
#
#
# Elastic Compliance Matrix: (Units=1/GPa)
#
#
# Indices 1 2 3 4 5 6 
#
# 1 0.017583 -0.010137 -0.004133 0.000000 0.000000 0.000000
# 2 -0.010137 0.020688 -0.002514 0.000000 0.000000 0.000000
# 3 -0.004133 -0.002514 0.010332 0.000000 0.000000 0.000000
# 4 0.000000 0.000000 0.000000 0.024926 0.000000 0.000000
# 5 0.000000 0.000000 0.000000 0.000000 0.037186 0.000000
# 6 0.000000 0.000000 0.000000 0.000000 0.000000 0.043103
#
#
# Mechanical properties :
#
#
# Convention : Reuss Voigt Hill
#
# Bulk Modulus (GPa) = 66.51405 69.11862 67.81634
# Shear Modulus (GPa) = 25.98798 28.62208 27.30503
#
# Velocity S-wave (km/s) = 3.60389 3.78213 3.69408
# Velocity P-wave (km/s) = 7.11050 7.32230 7.21718
#
# Compressibility (1/GPa) = 0.01503442
#
# Stress axis : x y z
#
# Youngs Moduli (GPa) = 56.87405 48.33733 96.78868
#
# Poissons Ratio (x) = 0.48999 0.40001
# Poissons Ratio (y) = 0.57652 0.24336
# Poissons Ratio (z) = 0.23505 0.12154
#
# Static dielectric constant tensor:
#      x y z
#    x 3.682640 0.000000 0.000000 
#    y 0.000000 3.445400 0.000000 
#    z 0.000000 0.000000 3.765110 
# 
# 
# High freq. dielectric constant tensor:
#      x y z
#    x 1.783020 0.000000 0.000000 
#    y 0.000000 1.765350 0.000000 
#    z 0.000000 0.000000 1.794970 
# 
# From -- ./inp_files/16611.got.cif
#   From: 2010.03.12/outbox.cif.g09.slc.cpg/sg46_9_cif.got.tgz:16611.got - 2010.04.14 02:56:35.
