data_PCOD8193216
_publ_section_title
;
Structure prediction by ZEFSAII (Michael W. Deem and Ramdas Pophale) SiO2 
 PCOD8193216
Probable space group: I M A 2
;
_chemical_formula_sum "Si O2"
_cell_formula_units_Z 52
_cell_length_a 18.333304
_cell_length_b 6.227997
_cell_length_c 22.557046
_cell_angle_alpha 90.000000
_cell_angle_beta 90.000000
_cell_angle_gamma 90.000000
_cell_volume 2575.558151
_symmetry_space_group_name_H-M "I M A 2"
_symmetry_group_IT_number 46
_symmetry_cell_setting 'orthorhombic'
loop_
_space_group_symop_operation_xyz
x,y,z
-x,-y,z
1/2-x,y,z
1/2+x,-y,z
1/2+x,1/2+y,1/2+z
1/2-x,1/2-y,1/2+z
-x,1/2+y,1/2+z
x,1/2-y,1/2+z
loop_
_atom_site_type_symbol
_atom_site_label
_atom_site_fract_x
_atom_site_fract_y
_atom_site_fract_z
Si Si1 0.667559 0.417302 0.508650
Si Si2 0.168089 0.217314 0.122115
Si Si3 0.932233 0.368432 0.293318
Si Si4 0.925396 0.103909 0.577904
Si Si5 0.574761 0.102385 0.187416
Si Si6 0.922291 0.609635 0.404703
Si Si7 0.500000 0.000000 0.369876
O O1 0.750000 0.340398 0.494881
O O2 0.666857 0.575593 0.563612
O O3 0.617858 0.209226 0.522717
O O4 0.637015 0.548467 0.453125
O O5 0.250000 0.279200 0.140344
O O6 0.124838 0.434499 0.111372
O O7 0.133679 0.084326 0.176615
O O8 0.890853 0.272208 0.235476
O O9 0.891306 0.529976 0.339657
O O10 0.955097 0.164659 0.331162
O O11 0.000000 0.500000 0.266315
O O12 0.946384 0.283964 0.625802
O O13 0.000000 0.000000 0.552951
O O14 0.500000 0.000000 0.213178
O O15 0.000000 0.500000 0.417919
O O16 0.938852 0.865854 0.407252
#
# Coordination Sequence:
#
# PCOD8193216 Si02
#       7
#     8   8   8   8   8   8   4
#     4  10  23  41  58  83 122 158 195 245 302 362
#     4  10  23  39  56  83 121 158 192 238 305 356
#     4   9  18  32  55  89 117 146 191 241 293 338
#     4  11  22  36  60  90 116 156 201 248 291 351
#     4  11  20  34  60  90 117 149 197 244 288 352
#     4   9  20  34  57  89 112 152 198 242 292 344
#     4   8  16  34  54  82 116 142 188 248 288 340
#
# _framework density 20.189798
#
# number of rings (size 3 to 8) (size 9 to 14) (size 15 to 20)
#    0.000    2.462    2.308    0.923    2.154    3.077 
#    1.385    0.769    0.000    2.769    0.000    0.000 
#    0.000    0.000    0.000    0.000    0.000    0.000 
#
# Total GULP energy -322182.614068 kJ/mol
# GULP energy per Si atom -12391.639003 kJ/mol
# Density = 2.014384 g / cm^3
# Si number density = 20.189798 Si / 1000 Ang^3
#
#
#
# Elastic Constant Matrix: (Units=GPa)
#
#
# Indices 1 2 3 4 5 6 
#
# 1 108.8941 43.6155 41.2823 0.0000 0.0000 0.0000
# 2 43.6155 119.8041 33.7986 0.0000 0.0000 0.0000
# 3 41.2823 33.7986 86.7182 0.0000 0.0000 0.0000
# 4 0.0000 0.0000 0.0000 21.5658 0.0000 0.0000
# 5 0.0000 0.0000 0.0000 0.0000 11.7221 0.0000
# 6 0.0000 0.0000 0.0000 0.0000 0.0000 27.2258
#
#
#
# Elastic Compliance Matrix: (Units=1/GPa)
#
#
# Indices 1 2 3 4 5 6 
#
# 1 0.012175 -0.003143 -0.004571 0.000000 0.000000 0.000000
# 2 -0.003143 0.010189 -0.002475 0.000000 0.000000 0.000000
# 3 -0.004571 -0.002475 0.014672 0.000000 0.000000 0.000000
# 4 0.000000 0.000000 0.000000 0.046370 0.000000 0.000000
# 5 0.000000 0.000000 0.000000 0.000000 0.085309 0.000000
# 6 0.000000 0.000000 0.000000 0.000000 0.000000 0.036730
#
#
# Mechanical properties :
#
#
# Convention : Reuss Voigt Hill
#
# Bulk Modulus (GPa) = 60.02874 61.42326 60.72600
# Shear Modulus (GPa) = 21.60986 25.21740 23.41363
#
# Velocity S-wave (km/s) = 3.27515 3.53798 3.40910
# Velocity P-wave (km/s) = 6.64070 6.86867 6.75565
#
# Compressibility (1/GPa) = 0.01665869
#
# Stress axis : x y z
#
# Youngs Moduli (GPa) = 82.13618 98.14101 68.15550
#
# Poissons Ratio (x) = 0.30844 0.31154
# Poissons Ratio (y) = 0.25814 0.16870
# Poissons Ratio (z) = 0.37544 0.24292
#
# Static dielectric constant tensor:
#      x y z
#    x 3.503620 0.000000 0.000000 
#    y 0.000000 4.187460 0.000000 
#    z 0.000000 0.000000 3.693270 
# 
# 
# High freq. dielectric constant tensor:
#      x y z
#    x 1.746220 0.000000 0.000000 
#    y 0.000000 1.807060 0.000000 
#    z 0.000000 0.000000 1.781690 
# 
# From -- ./inp_files/24674.got.cif
#   From: 2010.03.12/outbox.cif.g09.slc.cpg/sg46_13_cif.got.tgz:24674.got - 2010.04.14 02:56:35.
