data_PCOD8193860
_publ_section_title
;
Structure prediction by ZEFSAII (Michael W. Deem and Ramdas Pophale) SiO2 
 PCOD8193860
Probable space group: P M M M
;
_chemical_formula_sum "Si O2"
_cell_formula_units_Z 60
_cell_length_a 9.070477
_cell_length_b 18.263619
_cell_length_c 23.850611
_cell_angle_alpha 90.000000
_cell_angle_beta 90.000000
_cell_angle_gamma 90.000000
_cell_volume 3951.085924
_symmetry_space_group_name_H-M "P M M M"
_symmetry_group_IT_number 47
_symmetry_cell_setting 'orthorhombic'
loop_
_space_group_symop_operation_xyz
x,y,z
-x,-y,z
x,-y,-z
-x,y,-z
-x,-y,-z
x,y,-z
-x,y,z
x,-y,z
loop_
_atom_site_type_symbol
_atom_site_label
_atom_site_fract_x
_atom_site_fract_y
_atom_site_fract_z
Si Si1 0.826634 0.085547 0.887875
Si Si2 0.673273 0.832471 0.786759
Si Si3 0.326396 0.583723 0.670374
Si Si4 0.329794 0.328883 0.437653
Si Si5 0.165105 0.204030 0.615584
Si Si6 0.328437 0.082910 0.673342
Si Si7 0.666311 0.086766 0.000000
Si Si8 0.167084 0.707047 0.269823
O O1 0.753307 0.131790 0.839058
O O2 0.000000 0.100953 0.890068
O O3 0.793262 0.000000 0.877819
O O4 0.754377 0.113950 0.945484
O O5 0.500000 0.825184 0.798487
O O6 0.707116 0.884185 0.734066
O O7 0.740791 0.751665 0.776732
O O8 0.500000 0.593270 0.679454
O O9 0.276388 0.500000 0.675541
O O10 0.278998 0.611467 0.608302
O O11 0.243529 0.628783 0.718993
O O12 0.299811 0.360773 0.500000
O O13 0.500000 0.310026 0.428596
O O14 0.244105 0.252386 0.431617
O O15 0.245930 0.126682 0.624156
O O16 0.170388 0.247960 0.673190
O O17 0.000000 0.188157 0.595577
O O18 0.500000 0.087810 0.660082
O O19 0.270511 0.000000 0.672709
O O20 0.500000 0.118975 0.000000
O O21 0.660556 0.000000 0.000000
O O22 0.000000 0.694983 0.248657
#
# Coordination Sequence:
#
# PCOD8193860 Si02
#       8
#     8   8   8   8   8   8   4   8
#     4  10  19  29  41  59  85 116 150 188 227 262
#     4  10  18  28  43  62  84 110 142 178 214 252
#     4   9  17  29  45  65  88 112 137 165 198 239
#     4   9  17  29  45  63  82 106 135 165 198 238
#     4   9  17  28  42  59  79 104 132 163 201 245
#     4   9  17  28  42  60  81 104 131 166 208 252
#     4   9  17  29  43  57  77 111 154 193 226 261
#     4   9  17  29  43  60  83 110 139 168 203 248
#
# _framework density 15.185699
#
# number of rings (size 3 to 8) (size 9 to 14) (size 15 to 20)
#    0.000    2.733    0.000    2.200    0.000    6.933 
#    0.000    1.333    0.000    0.400    0.000    6.533 
#    0.000    0.000    0.000    0.600    0.000   11.067 
#
# Total GULP energy -743931.177282 kJ/mol
# GULP energy per Si atom -12398.852955 kJ/mol
# Density = 1.515114 g / cm^3
# Si number density = 15.185699 Si / 1000 Ang^3
#
#
#
# Elastic Constant Matrix: (Units=GPa)
#
#
# Indices 1 2 3 4 5 6 
#
# 1 85.6890 52.4140 41.1557 0.0000 0.0000 0.0000
# 2 52.4140 109.9969 42.8222 0.0000 0.0000 0.0000
# 3 41.1557 42.8222 59.5602 0.0000 0.0000 0.0000
# 4 0.0000 0.0000 0.0000 15.2169 0.0000 0.0000
# 5 0.0000 0.0000 0.0000 0.0000 21.9481 0.0000
# 6 0.0000 0.0000 0.0000 0.0000 0.0000 20.5296
#
#
#
# Elastic Compliance Matrix: (Units=1/GPa)
#
#
# Indices 1 2 3 4 5 6 
#
# 1 0.019734 -0.005686 -0.009548 0.000000 0.000000 0.000000
# 2 -0.005686 0.014263 -0.006326 0.000000 0.000000 0.000000
# 3 -0.009548 -0.006326 0.027935 0.000000 0.000000 0.000000
# 4 0.000000 0.000000 0.000000 0.065716 0.000000 0.000000
# 5 0.000000 0.000000 0.000000 0.000000 0.045562 0.000000
# 6 0.000000 0.000000 0.000000 0.000000 0.000000 0.048710
#
#
# Mechanical properties :
#
#
# Convention : Reuss Voigt Hill
#
# Bulk Modulus (GPa) = 53.15499 58.66996 55.91248
# Shear Modulus (GPa) = 18.42900 19.46255 18.94578
#
# Velocity S-wave (km/s) = 3.48742 3.58388 3.53598
# Velocity P-wave (km/s) = 7.16208 7.47292 7.31915
#
# Compressibility (1/GPa) = 0.01881291
#
# Stress axis : x y z
#
# Youngs Moduli (GPa) = 50.67386 70.10959 35.79717
#
# Poissons Ratio (x) = 0.39867 0.34178
# Poissons Ratio (y) = 0.28815 0.22644
# Poissons Ratio (z) = 0.48382 0.44349
#
# Static dielectric constant tensor:
#      x y z
#    x 3.064330 0.000000 0.000000 
#    y 0.000000 2.865680 0.000000 
#    z 0.000000 0.000000 2.763660 
# 
# 
# High freq. dielectric constant tensor:
#      x y z
#    x 1.594480 0.000000 0.000000 
#    y 0.000000 1.559150 0.000000 
#    z 0.000000 0.000000 1.552780 
# 
# From -- ./inp_files/28908.got.cif
#   From: 2010.03.12/outbox.cif.g09.slc.cpg/sg47_15_cif.got.tgz:28908.got - 2010.04.14 03:12:58.
