data_PCOD8193252
_publ_section_title
;
Structure prediction by ZEFSAII (Michael W. Deem and Ramdas Pophale) SiO2 
 PCOD8193252
Probable space group: I M A 2
;
_chemical_formula_sum "Si O2"
_cell_formula_units_Z 56
_cell_length_a 21.029461
_cell_length_b 8.736190
_cell_length_c 13.763958
_cell_angle_alpha 90.000000
_cell_angle_beta 90.000000
_cell_angle_gamma 90.000000
_cell_volume 2528.678122
_symmetry_space_group_name_H-M "I M A 2"
_symmetry_group_IT_number 46
_symmetry_cell_setting 'orthorhombic'
loop_
_space_group_symop_operation_xyz
x,y,z
-x,-y,z
1/2-x,y,z
1/2+x,-y,z
1/2+x,1/2+y,1/2+z
1/2-x,1/2-y,1/2+z
-x,1/2+y,1/2+z
x,1/2-y,1/2+z
loop_
_atom_site_type_symbol
_atom_site_label
_atom_site_fract_x
_atom_site_fract_y
_atom_site_fract_z
Si Si1 0.321426 0.417878 0.369610
Si Si2 0.179945 0.555267 0.158802
Si Si3 0.606552 0.870089 0.336238
Si Si4 0.426347 0.479644 0.510974
Si Si5 0.076585 0.367214 0.044259
Si Si6 0.994392 0.835056 0.729343
Si Si7 0.387315 0.648328 0.700783
O O1 0.250000 0.446419 0.411322
O O2 0.325972 0.469100 0.259442
O O3 0.334684 0.234394 0.372287
O O4 0.374524 0.518507 0.427252
O O5 0.250000 0.535600 0.113757
O O6 0.130341 0.479243 0.086071
O O7 0.169943 0.737558 0.175386
O O8 0.565860 0.921566 0.432042
O O9 0.564206 0.761759 0.268432
O O10 0.632950 0.014017 0.275055
O O11 0.500000 0.500000 0.475422
O O12 0.404657 0.310626 0.542394
O O13 0.417761 0.587723 0.602280
O O14 0.014435 0.370340 0.113400
O O15 0.057916 0.744691 0.753382
O O16 0.000000 0.000000 0.782600
#
# Coordination Sequence:
#
# PCOD8193252 Si02
#       7
#     8   8   8   8   8   8   8
#     4  10  23  44  68  96 135 184 234 279 346 418
#     4  11  25  46  67  93 134 187 235 282 344 416
#     4  11  24  41  68 103 132 176 233 282 346 407
#     4  11  22  40  70 104 139 174 229 288 342 416
#     4  11  23  43  66  99 135 183 223 282 341 416
#     4  12  22  43  66  98 141 182 221 276 355 417
#     4  12  23  42  67  99 142 175 225 293 347 409
#
# _framework density 22.145959000000001
#
# number of rings (size 3 to 8) (size 9 to 14) (size 15 to 20)
#    0.000    0.857    5.714    0.429    0.000   10.286 
#    0.000    1.429    0.000    0.000    0.000    0.000 
#    0.000    0.000    0.000    0.000    0.000    0.000 
#
# Total GULP energy -346978.366309 kJ/mol
# GULP energy per Si atom -12392.084511 kJ/mol
# Density = 2.209555 g / cm^3
# Si number density = 22.145959 Si / 1000 Ang^3
#
#
#
# Elastic Constant Matrix: (Units=GPa)
#
#
# Indices 1 2 3 4 5 6 
#
# 1 101.9203 26.0321 31.8264 0.0000 0.0000 0.0000
# 2 26.0321 119.5294 26.3392 0.0000 0.0000 0.0000
# 3 31.8264 26.3392 88.1420 0.0000 0.0000 0.0000
# 4 0.0000 0.0000 0.0000 3.3477 0.0000 0.0000
# 5 0.0000 0.0000 0.0000 0.0000 14.5343 0.0000
# 6 0.0000 0.0000 0.0000 0.0000 0.0000 24.1398
#
#
#
# Elastic Compliance Matrix: (Units=1/GPa)
#
#
# Indices 1 2 3 4 5 6 
#
# 1 0.011366 -0.001682 -0.003601 0.000000 0.000000 0.000000
# 2 -0.001682 0.009205 -0.002143 0.000000 0.000000 0.000000
# 3 -0.003601 -0.002143 0.013286 0.000000 0.000000 0.000000
# 4 0.000000 0.000000 0.000000 0.298708 0.000000 0.000000
# 5 0.000000 0.000000 0.000000 0.000000 0.068803 0.000000
# 6 0.000000 0.000000 0.000000 0.000000 0.000000 0.041425
#
#
# Mechanical properties :
#
#
# Convention : Reuss Voigt Hill
#
# Bulk Modulus (GPa) = 52.62145 53.10968 52.86556
# Shear Modulus (GPa) = 10.77630 23.43063 17.10346
#
# Velocity S-wave (km/s) = 2.20830 3.25623 2.78205
# Velocity P-wave (km/s) = 5.50590 6.17828 5.85175
#
# Compressibility (1/GPa) = 0.01900366
#
# Stress axis : x y z
#
# Youngs Moduli (GPa) = 87.98383 108.64001 75.26595
#
# Poissons Ratio (x) = 0.18270 0.27106
# Poissons Ratio (y) = 0.14796 0.16132
# Poissons Ratio (z) = 0.31686 0.23286
#
# Static dielectric constant tensor:
#      x y z
#    x 4.114930 0.000000 0.000000 
#    y 0.000000 4.155220 0.000000 
#    z 0.000000 0.000000 4.192340 
# 
# 
# High freq. dielectric constant tensor:
#      x y z
#    x 1.852640 0.000000 0.000000 
#    y 0.000000 1.879440 0.000000 
#    z 0.000000 0.000000 1.875510 
# 
# From -- ./inp_files/17095.got.cif
#   From: 2010.03.12/outbox.cif.g09.slc.cpg/sg46_9_cif.got.tgz:17095.got - 2010.04.14 02:56:35.
