data_PCOD8193712
_publ_section_title
;
Structure prediction by ZEFSAII (Michael W. Deem and Ramdas Pophale) SiO2 
 PCOD8193712
Probable space group: P M M M
;
_chemical_formula_sum "Si O2"
_cell_formula_units_Z 64
_cell_length_a 29.073517
_cell_length_b 14.424798
_cell_length_c 9.184135
_cell_angle_alpha 90.000000
_cell_angle_beta 90.000000
_cell_angle_gamma 90.000000
_cell_volume 3851.638953
_symmetry_space_group_name_H-M "P M M M"
_symmetry_group_IT_number 47
_symmetry_cell_setting 'orthorhombic'
loop_
_space_group_symop_operation_xyz
x,y,z
-x,-y,z
x,-y,-z
-x,y,-z
-x,-y,-z
x,y,-z
-x,y,z
x,-y,z
loop_
_atom_site_type_symbol
_atom_site_label
_atom_site_fract_x
_atom_site_fract_y
_atom_site_fract_z
Si Si1 0.448414 0.231191 0.667857
Si Si2 0.147467 0.604787 0.325496
Si Si3 0.271990 0.105387 0.171168
Si Si4 0.409259 0.394107 0.828887
Si Si5 0.682444 0.393269 0.333571
Si Si6 0.951337 0.609999 0.337205
Si Si7 0.623511 0.108483 0.165336
Si Si8 0.230929 0.728738 0.328531
O O1 0.436626 0.248521 0.500000
O O2 0.500000 0.191431 0.687247
O O3 0.446468 0.329148 0.751772
O O4 0.412109 0.158759 0.730186
O O5 0.146517 0.603881 0.500000
O O6 0.158478 0.500000 0.270483
O O7 0.097329 0.640440 0.264074
O O8 0.185753 0.676312 0.267775
O O9 0.324426 0.129951 0.216629
O O10 0.236048 0.171541 0.253154
O O11 0.260614 0.000000 0.216685
O O12 0.266024 0.118335 0.000000
O O13 0.420579 0.500000 0.787144
O O14 0.359144 0.364669 0.771192
O O15 0.410703 0.378005 0.000000
O O16 0.668003 0.372927 0.500000
O O17 0.696210 0.500000 0.313065
O O18 0.725861 0.333844 0.284930
O O19 0.952994 0.650822 0.500000
O O20 0.949568 0.500000 0.345068
O O21 0.000000 0.640850 0.258255
O O22 0.613726 0.000000 0.175390
O O23 0.616100 0.143344 0.000000
O O24 0.227485 0.743993 0.500000
#
# Coordination Sequence:
#
# PCOD8193712 Si02
#       8
#     8   8   8   8   8   8   8   8
#     4  11  24  38  52  73  99 123 145 173 214 262
#     4   8  13  21  33  53  86 123 153 182 217 257
#     4   9  19  35  51  66  86 113 144 178 217 259
#     4  10  21  36  53  71  90 116 153 192 223 252
#     4   9  17  29  45  66  93 122 148 173 207 257
#     4   7   9  14  26  45  72 111 155 189 215 248
#     4   9  19  37  59  78  94 115 144 177 214 258
#     4  10  18  26  41  66  92 118 147 178 215 258
#
# _framework density 16.616302999999998
#
# number of rings (size 3 to 8) (size 9 to 14) (size 15 to 20)
#    0.000    2.875    0.000    3.750    0.000    7.250 
#    0.000    3.750    0.000    1.125    0.000    0.000 
#    0.000    1.000    0.000    9.375    0.000    3.750 
#
# Total GULP energy -793134.877372 kJ/mol
# GULP energy per Si atom -12392.732459 kJ/mol
# Density = 1.657848 g / cm^3
# Si number density = 16.616303 Si / 1000 Ang^3
#
#
#
# Elastic Constant Matrix: (Units=GPa)
#
#
# Indices 1 2 3 4 5 6 
#
# 1 114.5809 58.3877 35.7517 0.0000 0.0000 0.0000
# 2 58.3877 73.4086 25.6498 0.0000 0.0000 0.0000
# 3 35.7517 25.6498 44.8664 0.0000 0.0000 0.0000
# 4 0.0000 0.0000 0.0000 25.1623 0.0000 0.0000
# 5 0.0000 0.0000 0.0000 0.0000 6.1694 0.0000
# 6 0.0000 0.0000 0.0000 0.0000 0.0000 17.2511
#
#
#
# Elastic Compliance Matrix: (Units=1/GPa)
#
#
# Indices 1 2 3 4 5 6 
#
# 1 0.016240 -0.010491 -0.006943 0.000000 0.000000 0.000000
# 2 -0.010491 0.023800 -0.005247 0.000000 0.000000 0.000000
# 3 -0.006943 -0.005247 0.030820 0.000000 0.000000 0.000000
# 4 0.000000 0.000000 0.000000 0.039742 0.000000 0.000000
# 5 0.000000 0.000000 0.000000 0.000000 0.162090 0.000000
# 6 0.000000 0.000000 0.000000 0.000000 0.000000 0.057967
#
#
# Mechanical properties :
#
#
# Convention : Reuss Voigt Hill
#
# Bulk Modulus (GPa) = 39.21724 52.49270 45.85497
# Shear Modulus (GPa) = 13.00322 17.25433 15.12878
#
# Velocity S-wave (km/s) = 2.80046 3.22591 3.02069
# Velocity P-wave (km/s) = 5.84035 6.74796 6.31049
#
# Compressibility (1/GPa) = 0.02549899
#
# Stress axis : x y z
#
# Youngs Moduli (GPa) = 61.57763 42.01735 32.44597
#
# Poissons Ratio (x) = 0.44079 0.22528
# Poissons Ratio (y) = 0.64599 0.17023
# Poissons Ratio (z) = 0.42754 0.22045
#
# Static dielectric constant tensor:
#      x y z
#    x 3.437290 0.000000 0.000000 
#    y 0.000000 3.031870 0.000000 
#    z 0.000000 0.000000 2.857870 
# 
# 
# High freq. dielectric constant tensor:
#      x y z
#    x 1.637490 0.000000 0.000000 
#    y 0.000000 1.621670 0.000000 
#    z 0.000000 0.000000 1.612480 
# 
# From -- ./inp_files/14293.got.cif
#   From: 2010.03.12/outbox.cif.g09.slc.cpg/sg47_8_cif.got.tgz:14293.got - 2010.04.14 03:12:58.
