data_PCOD8193120
_publ_section_title
;
Structure prediction by ZEFSAII (Michael W. Deem and Ramdas Pophale) SiO2 
 PCOD8193120
Probable space group: I M A 2
;
_chemical_formula_sum "Si O2"
_cell_formula_units_Z 44
_cell_length_a 21.116714
_cell_length_b 11.731434
_cell_length_c 8.022640
_cell_angle_alpha 90.000000
_cell_angle_beta 90.000000
_cell_angle_gamma 90.000000
_cell_volume 1987.443285
_symmetry_space_group_name_H-M "I M A 2"
_symmetry_group_IT_number 46
_symmetry_cell_setting 'orthorhombic'
loop_
_space_group_symop_operation_xyz
x,y,z
-x,-y,z
1/2-x,y,z
1/2+x,-y,z
1/2+x,1/2+y,1/2+z
1/2-x,1/2-y,1/2+z
-x,1/2+y,1/2+z
x,1/2-y,1/2+z
loop_
_atom_site_type_symbol
_atom_site_label
_atom_site_fract_x
_atom_site_fract_y
_atom_site_fract_z
Si Si1 0.555004 0.274675 0.434450
Si Si2 0.750000 0.539780 0.198723
Si Si3 0.250000 0.195456 0.281724
Si Si4 0.642077 0.920976 0.471967
Si Si5 0.980551 0.875206 0.661998
Si Si6 0.750000 0.027722 0.072065
Si Si7 0.622502 0.110638 0.215527
O O1 0.534113 0.163859 0.534506
O O2 0.490965 0.305669 0.332734
O O3 0.612979 0.228758 0.318834
O O4 0.576230 0.380055 0.553413
O O5 0.750000 0.677064 0.215401
O O6 0.812250 0.503619 0.092740
O O7 0.750000 0.473047 0.372239
O O8 0.314099 0.176152 0.388517
O O9 0.250000 0.103868 0.130735
O O10 0.589773 0.860568 0.588495
O O11 0.608385 0.000264 0.331878
O O12 0.000000 0.000000 0.711770
O O13 0.692536 0.100195 0.145001
#
# Coordination Sequence:
#
# PCOD8193120 Si02
#       7
#     8   4   4   8   8   4   8
#     4  10  24  44  66  96 132 166 228 270 333 396
#     4  11  23  39  64  98 128 170 221 277 317 401
#     4   9  21  43  61  93 133 172 218 282 315 392
#     4  10  22  41  65  91 134 168 216 267 340 380
#     4  11  23  44  65  98 130 178 216 275 332 400
#     4  10  22  38  65  93 125 176 215 261 348 371
#     4  10  22  44  64  92 127 168 215 277 317 403
#
# _framework density 22.138995999999999
#
# number of rings (size 3 to 8) (size 9 to 14) (size 15 to 20)
#    0.000    1.818    1.818    1.636    5.091    0.727 
#    6.545    0.000    0.000    0.000    0.000    0.000 
#    0.000    0.000    0.000    0.000    0.000    0.000 
#
# Total GULP energy -272604.838969 kJ/mol
# GULP energy per Si atom -12391.129044 kJ/mol
# Density = 2.208861 g / cm^3
# Si number density = 22.138996 Si / 1000 Ang^3
#
#
#
# Elastic Constant Matrix: (Units=GPa)
#
#
# Indices 1 2 3 4 5 6 
#
# 1 112.0851 22.3893 49.4107 0.0000 0.0000 0.0000
# 2 22.3893 65.4052 29.9404 0.0000 0.0000 0.0000
# 3 49.4107 29.9404 131.8449 0.0000 0.0000 0.0000
# 4 0.0000 0.0000 0.0000 26.5038 0.0000 0.0000
# 5 0.0000 0.0000 0.0000 0.0000 41.2378 0.0000
# 6 0.0000 0.0000 0.0000 0.0000 0.0000 23.0380
#
#
#
# Elastic Compliance Matrix: (Units=1/GPa)
#
#
# Indices 1 2 3 4 5 6 
#
# 1 0.010936 -0.002084 -0.003625 0.000000 0.000000 0.000000
# 2 -0.002084 0.017460 -0.003184 0.000000 0.000000 0.000000
# 3 -0.003625 -0.003184 0.009666 0.000000 0.000000 0.000000
# 4 0.000000 0.000000 0.000000 0.037730 0.000000 0.000000
# 5 0.000000 0.000000 0.000000 0.000000 0.024250 0.000000
# 6 0.000000 0.000000 0.000000 0.000000 0.000000 0.043407
#
#
# Mechanical properties :
#
#
# Convention : Reuss Voigt Hill
#
# Bulk Modulus (GPa) = 49.31901 56.97954 53.14928
# Shear Modulus (GPa) = 29.76284 31.99557 30.87921
#
# Velocity S-wave (km/s) = 3.67053 3.80572 3.73874
# Velocity P-wave (km/s) = 6.34737 6.71598 6.53427
#
# Compressibility (1/GPa) = 0.02027616
#
# Stress axis : x y z
#
# Youngs Moduli (GPa) = 91.43928 57.27297 103.45210
#
# Poissons Ratio (x) = 0.11937 0.37504
# Poissons Ratio (y) = 0.19057 0.32939
# Poissons Ratio (z) = 0.33149 0.18235
#
# Static dielectric constant tensor:
#      x y z
#    x 3.975720 0.000000 0.000000 
#    y 0.000000 3.587610 0.000000 
#    z 0.000000 0.000000 4.394800 
# 
# 
# High freq. dielectric constant tensor:
#      x y z
#    x 1.863770 0.000000 0.000000 
#    y 0.000000 1.843060 0.000000 
#    z 0.000000 0.000000 1.895730 
# 
# From -- ./inp_files/7812.got.cif
#   From: 2010.03.12/outbox.cif.g09.slc.cpg/sg46_4_cif.got.tgz:7812.got - 2010.04.14 02:56:35.
