data_PCOD8193027
_publ_section_title
;
Structure prediction by ZEFSAII (Michael W. Deem and Ramdas Pophale) SiO2 
 PCOD8193027
Probable space group: I M A 2
;
_chemical_formula_sum "Si O2"
_cell_formula_units_Z 40
_cell_length_a 24.089175
_cell_length_b 4.832704
_cell_length_c 14.920643
_cell_angle_alpha 90.000000
_cell_angle_beta 90.000000
_cell_angle_gamma 90.000000
_cell_volume 1736.999373
_symmetry_space_group_name_H-M "I M A 2"
_symmetry_group_IT_number 46
_symmetry_cell_setting 'orthorhombic'
loop_
_space_group_symop_operation_xyz
x,y,z
-x,-y,z
1/2-x,y,z
1/2+x,-y,z
1/2+x,1/2+y,1/2+z
1/2-x,1/2-y,1/2+z
-x,1/2+y,1/2+z
x,1/2-y,1/2+z
loop_
_atom_site_type_symbol
_atom_site_label
_atom_site_fract_x
_atom_site_fract_y
_atom_site_fract_z
Si Si1 0.250000 0.607864 0.802070
Si Si2 0.435705 0.502442 0.922208
Si Si3 0.348733 0.259092 0.053406
Si Si4 0.750000 0.607864 0.424535
Si Si5 0.435705 0.497558 0.304397
Si Si6 0.151267 0.740909 0.173200
O O1 0.250000 0.292441 0.835056
O O2 0.304885 0.655167 0.745198
O O3 0.250000 0.792441 0.891549
O O4 0.500000 0.500000 0.949314
O O5 0.420909 0.812171 0.890909
O O6 0.420909 0.312171 0.835697
O O7 0.401717 0.404257 0.008030
O O8 0.320527 0.500001 0.113303
O O9 0.368480 0.000001 0.113303
O O10 0.304885 0.155167 0.981408
O O11 0.500000 0.500000 0.277291
O O12 0.401717 0.595744 0.218576
#
# Coordination Sequence:
#
# PCOD8193027 Si02
#       6
#     4   8   8   4   8   8
#     4  12  24  42  66  90 124 170 216 254 308 384
#     4  10  21  40  63  87 119 163 211 253 301 369
#     4  12  24  40  62  94 130 162 205 264 323 372
#     4  12  24  42  66  90 124 170 216 254 308 384
#     4  10  21  40  63  87 119 163 211 253 301 369
#     4  12  24  40  62  94 130 162 205 264 323 372
#
# _framework density 23.028220000000001
#
# number of rings (size 3 to 8) (size 9 to 14) (size 15 to 20)
#    0.000    0.800    0.000    8.400    0.000    0.800 
#    0.000    2.000    0.000    0.000    0.000    0.000 
#    0.000    0.000    0.000    0.000    0.000    0.000 
#
# Total GULP energy -248094.566436 kJ/mol
# GULP energy per Si atom -12404.728322 kJ/mol
# Density = 2.297581 g / cm^3
# Si number density = 23.028220 Si / 1000 Ang^3
#
#
#
# Elastic Constant Matrix: (Units=GPa)
#
#
# Indices 1 2 3 4 5 6 
#
# 1 111.6199 19.6329 50.5862 0.0000 0.0000 0.0000
# 2 19.6329 85.3207 19.2786 0.0000 0.0000 0.0000
# 3 50.5862 19.2786 100.2991 0.0000 0.0000 0.0000
# 4 0.0000 0.0000 0.0000 58.7162 0.0000 0.0000
# 5 0.0000 0.0000 0.0000 0.0000 4.3730 0.0000
# 6 0.0000 0.0000 0.0000 0.0000 0.0000 26.4798
#
#
#
# Elastic Compliance Matrix: (Units=1/GPa)
#
#
# Indices 1 2 3 4 5 6 
#
# 1 0.011778 -0.001430 -0.005665 0.000000 0.000000 0.000000
# 2 -0.001430 0.012426 -0.001667 0.000000 0.000000 0.000000
# 3 -0.005665 -0.001667 0.013148 0.000000 0.000000 0.000000
# 4 0.000000 0.000000 0.000000 0.017031 0.000000 0.000000
# 5 0.000000 0.000000 0.000000 0.000000 0.228674 0.000000
# 6 0.000000 0.000000 0.000000 0.000000 0.000000 0.037765
#
#
# Mechanical properties :
#
#
# Convention : Reuss Voigt Hill
#
# Bulk Modulus (GPa) = 50.43647 52.91501 51.67574
# Shear Modulus (GPa) = 14.49459 31.76329 23.12894
#
# Velocity S-wave (km/s) = 2.51156 3.71795 3.17262
# Velocity P-wave (km/s) = 5.51001 6.43887 5.99246
#
# Compressibility (1/GPa) = 0.01982692
#
# Stress axis : x y z
#
# Youngs Moduli (GPa) = 84.90330 80.47470 76.05708
#
# Poissons Ratio (x) = 0.11509 0.43090
# Poissons Ratio (y) = 0.12142 0.12680
# Poissons Ratio (z) = 0.48102 0.13417
#
# Static dielectric constant tensor:
#      x y z
#    x 3.984590 0.000000 0.000000 
#    y 0.000000 4.560600 0.000000 
#    z 0.000000 0.000000 4.118450 
# 
# 
# High freq. dielectric constant tensor:
#      x y z
#    x 1.905840 0.000000 0.000000 
#    y 0.000000 1.935440 0.000000 
#    z 0.000000 0.000000 1.910860 
# 
# From -- ./inp_files/12957.got.cif
#   From: 2010.03.12/outbox.cif.g09.slc.cpg/sg46_7_cif.got.tgz:12957.got - 2010.04.14 02:56:35.
