data_PCOD8193230
_publ_section_title
;
Structure prediction by ZEFSAII (Michael W. Deem and Ramdas Pophale) SiO2 
 PCOD8193230
Probable space group: I M A 2
;
_chemical_formula_sum "Si O2"
_cell_formula_units_Z 64
_cell_length_a 20.642319
_cell_length_b 16.141554
_cell_length_c 9.445392
_cell_angle_alpha 90.000000
_cell_angle_beta 90.000000
_cell_angle_gamma 90.000000
_cell_volume 3147.196178
_symmetry_space_group_name_H-M "I M A 2"
_symmetry_group_IT_number 46
_symmetry_cell_setting 'orthorhombic'
loop_
_space_group_symop_operation_xyz
x,y,z
-x,-y,z
1/2-x,y,z
1/2+x,-y,z
1/2+x,1/2+y,1/2+z
1/2-x,1/2-y,1/2+z
-x,1/2+y,1/2+z
x,1/2-y,1/2+z
loop_
_atom_site_type_symbol
_atom_site_label
_atom_site_fract_x
_atom_site_fract_y
_atom_site_fract_z
Si Si1 0.369423 0.202045 0.456070
Si Si2 0.435550 0.888947 0.996179
Si Si3 0.647115 0.649293 0.258068
Si Si4 0.679006 0.994777 0.957522
Si Si5 0.523566 0.205506 0.495231
Si Si6 0.943391 0.440086 0.805507
Si Si7 0.505629 0.590280 0.223298
Si Si8 0.825789 0.950536 0.272126
O O1 0.341495 0.284284 0.381795
O O2 0.329206 0.183552 0.603009
O O3 0.446380 0.217952 0.474768
O O4 0.355315 0.130741 0.342780
O O5 0.457492 0.929813 0.140600
O O6 0.435428 0.789462 0.002622
O O7 0.489220 0.918146 0.886529
O O8 0.367362 0.925843 0.941775
O O9 0.677792 0.564722 0.318976
O O10 0.575438 0.628288 0.213137
O O11 0.750000 0.034047 0.967726
O O12 0.664215 0.943428 0.102105
O O13 0.551997 0.151476 0.368124
O O14 0.539637 0.154643 0.638887
O O15 0.870613 0.474598 0.831594
O O16 0.000000 0.500000 0.867343
O O17 0.500000 0.500000 0.150092
O O18 0.750000 0.964781 0.311860
#
# Coordination Sequence:
#
# PCOD8193230 Si02
#       8
#     8   8   8   8   8   8   8   8
#     4  11  23  37  61  93 129 165 202 254 318 375
#     4  11  22  37  61  92 123 159 205 260 313 366
#     4  11  23  37  61  91 128 162 205 252 309 377
#     4  10  23  43  64  85 119 169 217 254 303 372
#     4  11  23  36  58  93 131 157 201 262 317 367
#     4  11  22  37  65  90 121 164 211 256 310 372
#     4  11  21  35  57  90 127 155 197 254 317 370
#     4  10  23  42  62  88 124 165 212 261 312 376
#
# _framework density 20.335560000000001
#
# number of rings (size 3 to 8) (size 9 to 14) (size 15 to 20)
#    0.000    1.250    3.750    2.250    5.250    1.000 
#    0.000    0.625    0.000    2.250    0.000    0.000 
#    0.000    0.000    0.000    0.000    0.000    0.000 
#
# Total GULP energy -396518.674557 kJ/mol
# GULP energy per Si atom -12391.208580 kJ/mol
# Density = 2.028928 g / cm^3
# Si number density = 20.335560 Si / 1000 Ang^3
#
#
#
# Elastic Constant Matrix: (Units=GPa)
#
#
# Indices 1 2 3 4 5 6 
#
# 1 49.7753 30.4176 12.1194 0.0000 0.0000 0.0000
# 2 30.4176 136.5543 27.2676 0.0000 0.0000 0.0000
# 3 12.1194 27.2676 62.5294 0.0000 0.0000 0.0000
# 4 0.0000 0.0000 0.0000 38.2958 0.0000 0.0000
# 5 0.0000 0.0000 0.0000 0.0000 21.8867 0.0000
# 6 0.0000 0.0000 0.0000 0.0000 0.0000 -56.9122
#
#
#
# Elastic Compliance Matrix: (Units=1/GPa)
#
#
# Indices 1 2 3 4 5 6 
#
# 1 0.023607 -0.004759 -0.002500 0.000000 0.000000 0.000000
# 2 -0.004759 0.008981 -0.002994 0.000000 0.000000 0.000000
# 3 -0.002500 -0.002994 0.017783 0.000000 0.000000 0.000000
# 4 0.000000 0.000000 0.000000 0.026113 0.000000 0.000000
# 5 0.000000 0.000000 0.000000 0.000000 0.045690 0.000000
# 6 0.000000 0.000000 0.000000 0.000000 0.000000 -0.017571
#
#
# Mechanical properties :
#
#
# Convention : Reuss Voigt Hill
#
# Bulk Modulus (GPa) = 33.48485 43.16312 38.32399
# Shear Modulus (GPa) = 37.01938 12.59102 24.80520
#
# Velocity S-wave (km/s) = 4.27127 2.49100 3.49634
# Velocity P-wave (km/s) = 6.38960 5.43553 5.93177
#
# Compressibility (1/GPa) = 0.02986425
#
# Stress axis : x y z
#
# Youngs Moduli (GPa) = 42.35952 111.34506 56.23454
#
# Poissons Ratio (x) = 0.52993 0.14059
# Poissons Ratio (y) = 0.20160 0.16837
# Poissons Ratio (z) = 0.10591 0.33337
#
# Static dielectric constant tensor:
#      x y z
#    x 3.483180 0.000000 0.000000 
#    y 0.000000 3.783330 0.000000 
#    z 0.000000 0.000000 4.022190 
# 
# 
# High freq. dielectric constant tensor:
#      x y z
#    x 1.767920 0.000000 0.000000 
#    y 0.000000 1.794890 0.000000 
#    z 0.000000 0.000000 1.811400 
# 
# From -- ./inp_files/7967.got.cif
#   From: 2010.03.12/outbox.cif.g09.slc.cpg/sg46_4_cif.got.tgz:7967.got - 2010.04.14 02:56:35.
