data_PCOD8193303
_publ_section_title
;
Structure prediction by ZEFSAII (Michael W. Deem and Ramdas Pophale) SiO2 
 PCOD8193303
Probable space group: I M A 2
;
_chemical_formula_sum "Si O2"
_cell_formula_units_Z 64
_cell_length_a 14.334412
_cell_length_b 10.881516
_cell_length_c 18.038252
_cell_angle_alpha 90.000000
_cell_angle_beta 90.000000
_cell_angle_gamma 90.000000
_cell_volume 2813.608956
_symmetry_space_group_name_H-M "I M A 2"
_symmetry_group_IT_number 46
_symmetry_cell_setting 'orthorhombic'
loop_
_space_group_symop_operation_xyz
x,y,z
-x,-y,z
1/2-x,y,z
1/2+x,-y,z
1/2+x,1/2+y,1/2+z
1/2-x,1/2-y,1/2+z
-x,1/2+y,1/2+z
x,1/2-y,1/2+z
loop_
_atom_site_type_symbol
_atom_site_label
_atom_site_fract_x
_atom_site_fract_y
_atom_site_fract_z
Si Si1 0.609451 0.495025 0.032320
Si Si2 0.110020 0.496137 0.200452
Si Si3 0.474212 0.862984 0.177572
Si Si4 0.648024 0.758806 0.255032
Si Si5 0.971360 0.365559 0.418832
Si Si6 0.854932 0.262992 0.285761
Si Si7 0.853272 0.711156 0.923567
Si Si8 0.855156 0.279383 0.544208
O O1 0.500000 0.500000 0.025792
O O2 0.643529 0.528126 0.115665
O O3 0.644194 0.358490 0.011794
O O4 0.651140 0.586547 0.971116
O O5 0.147957 0.390019 0.255042
O O6 0.151856 0.624953 0.227746
O O7 0.000000 0.500000 0.204881
O O8 0.571737 0.798472 0.195446
O O9 0.401485 0.856294 0.246288
O O10 0.425815 0.786737 0.112534
O O11 0.500000 0.000000 0.153992
O O12 0.750000 0.806013 0.229463
O O13 0.625968 0.812652 0.336456
O O14 0.925608 0.293657 0.351201
O O15 0.893516 0.373605 0.482650
O O16 0.000000 0.500000 0.391167
O O17 0.063554 0.298602 0.452059
O O18 0.750000 0.230876 0.313294
O O19 0.750000 0.773304 0.930436
O O20 0.750000 0.318891 0.566247
#
# Coordination Sequence:
#
# PCOD8193303 Si02
#       8
#     8   8   8   8   8   8   8   8
#     4  11  22  42  74 104 142 183 234 306 373 428
#     4  11  20  41  73 107 141 178 232 305 360 420
#     4  12  26  47  71 101 145 191 234 297 361 434
#     4  11  24  42  66 101 144 187 233 291 359 434
#     4  12  26  47  70 103 147 197 239 300 367 444
#     4  12  24  43  76 109 140 185 243 300 364 429
#     4  11  24  42  67 104 145 188 236 296 363 433
#     4  12  26  48  73 103 142 187 245 309 373 442
#
# _framework density 22.746587999999999
#
# number of rings (size 3 to 8) (size 9 to 14) (size 15 to 20)
#    0.000    0.500    5.000    3.750    0.000    6.000 
#    0.000    1.250    0.000    0.000    0.000    0.000 
#    0.000    0.000    0.000    0.000    0.000    0.000 
#
# Total GULP energy -396786.880468 kJ/mol
# GULP energy per Si atom -12399.590015 kJ/mol
# Density = 2.269482 g / cm^3
# Si number density = 22.746588 Si / 1000 Ang^3
#
#
#
# Elastic Constant Matrix: (Units=GPa)
#
#
# Indices 1 2 3 4 5 6 
#
# 1 168.2705 34.2071 41.3104 0.0000 0.0000 0.0000
# 2 34.2071 77.7207 20.3633 0.0000 0.0000 0.0000
# 3 41.3104 20.3633 112.1283 0.0000 0.0000 0.0000
# 4 0.0000 0.0000 0.0000 40.2498 0.0000 0.0000
# 5 0.0000 0.0000 0.0000 0.0000 -6.0760 0.0000
# 6 0.0000 0.0000 0.0000 0.0000 0.0000 18.8629
#
#
#
# Elastic Compliance Matrix: (Units=1/GPa)
#
#
# Indices 1 2 3 4 5 6 
#
# 1 0.006973 -0.002516 -0.002112 0.000000 0.000000 0.000000
# 2 -0.002516 0.014417 -0.001691 0.000000 0.000000 0.000000
# 3 -0.002112 -0.001691 0.010004 0.000000 0.000000 0.000000
# 4 0.000000 0.000000 0.000000 0.024845 0.000000 0.000000
# 5 0.000000 0.000000 0.000000 0.000000 -0.164583 0.000000
# 6 0.000000 0.000000 0.000000 0.000000 0.000000 0.053014
#
#
# Mechanical properties :
#
#
# Convention : Reuss Voigt Hill
#
# Bulk Modulus (GPa) = 53.31846 61.09791 57.20819
# Shear Modulus (GPa) = -137.20768 28.08994 -54.55887
#
# Velocity S-wave (km/s) = -7.77503 3.51794 -4.90281
# Velocity P-wave (km/s) = 7.55714 6.58937 2.61635
#
# Compressibility (1/GPa) = 0.01875523
#
# Stress axis : x y z
#
# Youngs Moduli (GPa) = 143.41670 69.36306 99.96350
#
# Poissons Ratio (x) = 0.17448 0.21113
# Poissons Ratio (y) = 0.36077 0.16908
# Poissons Ratio (z) = 0.30290 0.11732
#
# Static dielectric constant tensor:
#      x y z
#    x 5.720970 0.000000 0.000000 
#    y 0.000000 3.993880 0.000000 
#    z 0.000000 0.000000 4.213660 
# 
# 
# High freq. dielectric constant tensor:
#      x y z
#    x 1.922620 0.000000 0.000000 
#    y 0.000000 1.872750 0.000000 
#    z 0.000000 0.000000 1.894390 
# 
# From -- ./inp_files/19639.got.cif
#   From: 2010.03.12/outbox.cif.g09.slc.cpg/sg46_10_cif.got.tgz:19639.got - 2010.04.14 02:56:35.
