data_PCOD8193103
_publ_section_title
;
Structure prediction by ZEFSAII (Michael W. Deem and Ramdas Pophale) SiO2 
 PCOD8193103
Probable space group: I M A 2
;
_chemical_formula_sum "Si O2"
_cell_formula_units_Z 64
_cell_length_a 9.277907
_cell_length_b 24.135244
_cell_length_c 14.680297
_cell_angle_alpha 90.000000
_cell_angle_beta 90.000000
_cell_angle_gamma 90.000000
_cell_volume 3287.278889
_symmetry_space_group_name_H-M "I M A 2"
_symmetry_group_IT_number 46
_symmetry_cell_setting 'orthorhombic'
loop_
_space_group_symop_operation_xyz
x,y,z
-x,-y,z
1/2-x,y,z
1/2+x,-y,z
1/2+x,1/2+y,1/2+z
1/2-x,1/2-y,1/2+z
-x,1/2+y,1/2+z
x,1/2-y,1/2+z
loop_
_atom_site_type_symbol
_atom_site_label
_atom_site_fract_x
_atom_site_fract_y
_atom_site_fract_z
Si Si1 0.914437 0.885254 0.274030
Si Si2 0.579819 0.443134 0.408592
Si Si3 0.917077 0.241010 0.087643
Si Si4 0.415504 0.345396 0.078510
Si Si5 0.587420 0.855607 0.793562
Si Si6 0.412617 0.237162 0.266680
Si Si7 0.079315 0.055731 0.453580
Si Si8 0.082873 0.618511 0.589047
O O1 0.750000 0.898267 0.249948
O O2 0.928671 0.822493 0.315342
O O3 0.970490 0.926140 0.352382
O O4 0.999432 0.895869 0.181135
O O5 0.500000 0.500000 0.385085
O O6 0.750000 0.450544 0.394911
O O7 0.526637 0.395849 0.339861
O O8 0.541137 0.425707 0.511751
O O9 0.750000 0.255085 0.078985
O O10 0.953981 0.179727 0.048478
O O11 0.003618 0.290775 0.039563
O O12 0.962686 0.238876 0.192467
O O13 0.250000 0.336130 0.054145
O O14 0.441740 0.354685 0.185478
O O15 0.474473 0.398888 0.025923
O O16 0.750000 0.876401 0.814598
O O17 0.566441 0.791805 0.830302
O O18 0.250000 0.241641 0.222960
O O19 0.250000 0.047043 0.458653
O O20 0.000000 0.000000 0.481257
O O21 0.250000 0.615651 0.614367
#
# Coordination Sequence:
#
# PCOD8193103 Si02
#       8
#     8   8   8   8   8   8   8   8
#     4   9  18  34  57  82 107 138 175 214 257 308
#     4  11  24  40  55  74 103 139 181 224 263 308
#     4   9  16  29  52  81 108 134 169 210 257 315
#     4   9  19  36  56  79 109 141 172 212 261 312
#     4   9  18  34  56  81 107 135 169 213 264 314
#     4   8  15  30  52  79 109 137 168 207 256 315
#     4  10  22  38  54  76 106 140 181 222 259 305
#     4   9  20  37  55  78 109 140 170 212 265 315
#
# _framework density 19.468990000000002
#
# number of rings (size 3 to 8) (size 9 to 14) (size 15 to 20)
#    0.000    2.750    0.000    1.500    0.000    6.500 
#    0.000    5.000    0.000    0.000    0.000    0.000 
#    0.000    0.000    0.000    0.000    0.000    0.000 
#
# Total GULP energy -396580.510277 kJ/mol
# GULP energy per Si atom -12393.140946 kJ/mol
# Density = 1.942468 g / cm^3
# Si number density = 19.468990 Si / 1000 Ang^3
#
#
#
# Elastic Constant Matrix: (Units=GPa)
#
#
# Indices 1 2 3 4 5 6 
#
# 1 55.2050 24.4616 14.3598 0.0002 0.0000 0.0000
# 2 24.4616 72.1001 1.7015 0.0001 0.0000 0.0000
# 3 14.3598 1.7015 30.2987 0.0008 -0.0001 -0.0002
# 4 0.0002 0.0001 0.0008 32.1004 0.0000 0.0000
# 5 0.0000 0.0000 -0.0001 0.0000 22.5811 0.0001
# 6 0.0000 0.0000 -0.0002 0.0000 0.0001 31.4468
#
#
#
# Elastic Compliance Matrix: (Units=1/GPa)
#
#
# Indices 1 2 3 4 5 6 
#
# 1 0.024614 -0.008086 -0.011211 0.000000 0.000000 0.000000
# 2 -0.008086 0.016544 0.002903 0.000000 0.000000 0.000000
# 3 -0.011211 0.002903 0.038155 -0.000001 0.000000 0.000000
# 4 0.000000 0.000000 -0.000001 0.031152 0.000000 0.000000
# 5 0.000000 0.000000 0.000000 0.000000 0.044285 0.000000
# 6 0.000000 0.000000 0.000000 0.000000 0.000000 0.031800
#
#
# Mechanical properties :
#
#
# Convention : Reuss Voigt Hill
#
# Bulk Modulus (GPa) = 21.49386 26.51663 24.00525
# Shear Modulus (GPa) = 21.29048 25.03105 23.16076
#
# Velocity S-wave (km/s) = 3.31049 3.58954 3.45283
# Velocity P-wave (km/s) = 5.06719 5.55241 5.31534
#
# Compressibility (1/GPa) = 0.04652492
#
# Stress axis : x y z
#
# Youngs Moduli (GPa) = 40.62804 60.44308 26.20874
#
# Poissons Ratio (x) = 0.48875 0.29383
# Poissons Ratio (y) = 0.32852 -0.07609
# Poissons Ratio (z) = 0.45549 -0.17548
#
# Static dielectric constant tensor:
#      x y z
#    x 3.455190 0.000000 0.000000 
#    y 0.000000 3.819660 0.000000 
#    z 0.000000 0.000000 3.245900 
# 
# 
# High freq. dielectric constant tensor:
#      x y z
#    x 1.752640 0.000000 0.000000 
#    y 0.000000 1.769850 0.000000 
#    z 0.000000 0.000000 1.731340 
# 
# From -- ./inp_files/14539.got.cif
#   From: 2010.03.12/outbox.cif.g09.slc.cpg/sg46_8_cif.got.tgz:14539.got - 2010.04.14 02:56:35.
