data_PCOD8193443
_publ_section_title
;
Structure prediction by ZEFSAII (Michael W. Deem and Ramdas Pophale) SiO2 
 PCOD8193443
Probable space group: P M M M
;
_chemical_formula_sum "Si O2"
_cell_formula_units_Z 60
_cell_length_a 13.333530
_cell_length_b 13.849898
_cell_length_c 22.394151
_cell_angle_alpha 90.000000
_cell_angle_beta 90.000000
_cell_angle_gamma 90.000000
_cell_volume 4135.483759
_symmetry_space_group_name_H-M "P M M M"
_symmetry_group_IT_number 47
_symmetry_cell_setting 'orthorhombic'
loop_
_space_group_symop_operation_xyz
x,y,z
-x,-y,z
x,-y,-z
-x,y,-z
-x,-y,-z
x,y,-z
-x,y,z
x,-y,z
loop_
_atom_site_type_symbol
_atom_site_label
_atom_site_fract_x
_atom_site_fract_y
_atom_site_fract_z
Si Si1 0.383477 0.791627 0.244971
Si Si2 0.615610 0.891813 0.121394
Si Si3 0.500000 0.114260 0.433488
Si Si4 0.891168 0.607247 0.070636
Si Si5 0.384427 0.394135 0.821879
Si Si6 0.304997 0.884917 0.360468
Si Si7 0.888371 0.885524 0.432895
Si Si8 0.695835 0.708434 0.931097
O O1 0.500000 0.788318 0.264982
O O2 0.370691 0.865232 0.190398
O O3 0.342252 0.685809 0.224636
O O4 0.313697 0.830431 0.297663
O O5 0.500000 0.882002 0.102691
O O6 0.678999 0.822092 0.078342
O O7 0.655238 0.000000 0.111142
O O8 0.500000 0.158860 0.500000
O O9 0.600956 0.148875 0.400570
O O10 0.500000 0.000000 0.437078
O O11 0.862646 0.500000 0.094148
O O12 0.808519 0.684232 0.091134
O O13 0.000000 0.638236 0.096542
O O14 0.896847 0.604484 0.000000
O O15 0.500000 0.405555 0.807553
O O16 0.332405 0.500000 0.814164
O O17 0.376926 0.355395 0.889831
O O18 0.200858 0.848163 0.390114
O O19 0.306217 0.000000 0.350513
O O20 0.870362 0.845675 0.500000
O O21 0.000000 0.852946 0.410358
O O22 0.883218 0.000000 0.434709
O O23 0.677533 0.679927 0.000000
#
# Coordination Sequence:
#
# PCOD8193443 Si02
#       8
#     8   8   4   8   8   8   8   8
#     4   9  16  27  41  57  76 101 139 174 201 239
#     4   9  18  30  42  56  80 113 144 173 201 236
#     4   9  16  22  30  54  89 111 122 151 203 243
#     4   8  14  25  41  60  79  97 120 154 197 247
#     4   9  18  30  42  58  82 107 129 161 206 256
#     4  10  16  22  37  58  80 108 139 170 198 230
#     4   8  14  24  36  52  80 118 150 169 192 232
#     4  10  18  27  42  63  83 103 131 167 207 252
#
# _framework density 14.50858
#
# number of rings (size 3 to 8) (size 9 to 14) (size 15 to 20)
#    0.000    3.000    0.667    3.200    0.000    4.267 
#    0.000    1.333    0.000    3.600    0.000    1.867 
#    0.000    2.667    0.000    1.467    0.000    0.133 
#
# Total GULP energy -743461.476197 kJ/mol
# GULP energy per Si atom -12391.024603 kJ/mol
# Density = 1.447556 g / cm^3
# Si number density = 14.508580 Si / 1000 Ang^3
#
#
#
# Elastic Constant Matrix: (Units=GPa)
#
#
# Indices 1 2 3 4 5 6 
#
# 1 80.4821 32.9298 35.1591 0.0000 0.0000 0.0000
# 2 32.9298 89.1322 26.6895 0.0000 0.0000 0.0000
# 3 35.1591 26.6895 70.0767 0.0000 0.0000 0.0000
# 4 0.0000 0.0000 0.0000 12.8578 0.0000 0.0000
# 5 0.0000 0.0000 0.0000 0.0000 18.8617 0.0000
# 6 0.0000 0.0000 0.0000 0.0000 0.0000 15.6211
#
#
#
# Elastic Compliance Matrix: (Units=1/GPa)
#
#
# Indices 1 2 3 4 5 6 
#
# 1 0.017239 -0.004266 -0.007025 0.000000 0.000000 0.000000
# 2 -0.004266 0.013719 -0.003085 0.000000 0.000000 0.000000
# 3 -0.007025 -0.003085 0.018969 0.000000 0.000000 0.000000
# 4 0.000000 0.000000 0.000000 0.077774 0.000000 0.000000
# 5 0.000000 0.000000 0.000000 0.000000 0.053018 0.000000
# 6 0.000000 0.000000 0.000000 0.000000 0.000000 0.064016
#
#
# Mechanical properties :
#
#
# Convention : Reuss Voigt Hill
#
# Bulk Modulus (GPa) = 47.22041 47.69418 47.45730
# Shear Modulus (GPa) = 17.82253 19.12898 18.47575
#
# Velocity S-wave (km/s) = 3.50867 3.63500 3.57240
# Velocity P-wave (km/s) = 7.00226 7.11070 7.05669
#
# Compressibility (1/GPa) = 0.02117728
#
# Stress axis : x y z
#
# Youngs Moduli (GPa) = 58.00745 72.89205 52.71641
#
# Poissons Ratio (x) = 0.31092 0.37032
# Poissons Ratio (y) = 0.24743 0.16262
# Poissons Ratio (z) = 0.40748 0.22486
#
# Static dielectric constant tensor:
#      x y z
#    x 3.017560 0.000000 0.000000 
#    y 0.000000 2.862760 0.000000 
#    z 0.000000 0.000000 2.703810 
# 
# 
# High freq. dielectric constant tensor:
#      x y z
#    x 1.544080 0.000000 0.000000 
#    y 0.000000 1.525710 0.000000 
#    z 0.000000 0.000000 1.537040 
# 
# From -- ./inp_files/32585.got.cif
#   From: 2010.03.12/outbox.cif.g09.slc.cpg/sg47_17_cif.got.tgz:32585.got - 2010.04.14 03:12:58.
