data_PCOD8193580
_publ_section_title
;
Structure prediction by ZEFSAII (Michael W. Deem and Ramdas Pophale) SiO2 
 PCOD8193580
Probable space group: P M M M
;
_chemical_formula_sum "Si O2"
_cell_formula_units_Z 64
_cell_length_a 20.188806
_cell_length_b 9.145940
_cell_length_c 20.176517
_cell_angle_alpha 90.000000
_cell_angle_beta 90.000000
_cell_angle_gamma 90.000000
_cell_volume 3725.505256
_symmetry_space_group_name_H-M "P M M M"
_symmetry_group_IT_number 47
_symmetry_cell_setting 'orthorhombic'
loop_
_space_group_symop_operation_xyz
x,y,z
-x,-y,z
x,-y,-z
-x,y,-z
-x,-y,-z
x,y,-z
-x,y,z
x,-y,z
loop_
_atom_site_type_symbol
_atom_site_label
_atom_site_fract_x
_atom_site_fract_y
_atom_site_fract_z
Si Si1 0.395166 0.832810 0.740578
Si Si2 0.074285 0.673640 0.074101
Si Si3 0.293196 0.671675 0.928748
Si Si4 0.244614 0.166620 0.290719
Si Si5 0.573641 0.670116 0.388693
Si Si6 0.572466 0.665716 0.131965
Si Si7 0.813521 0.326336 0.173315
Si Si8 0.701196 0.830565 0.572634
O O1 0.316122 0.814861 0.742470
O O2 0.427518 0.732588 0.685021
O O3 0.425680 0.779510 0.808690
O O4 0.415593 0.000000 0.728020
O O5 0.076519 0.500000 0.073869
O O6 0.122088 0.731018 0.132856
O O7 0.000000 0.729533 0.089558
O O8 0.096031 0.727871 0.000000
O O9 0.280336 0.500000 0.930794
O O10 0.370629 0.708753 0.919826
O O11 0.248905 0.734092 0.869104
O O12 0.271800 0.738753 0.000000
O O13 0.191526 0.258438 0.247342
O O14 0.250764 0.225038 0.367566
O O15 0.219862 0.000000 0.290345
O O16 0.500000 0.693948 0.419905
O O17 0.591505 0.500000 0.386552
O O18 0.630588 0.749667 0.430667
O O19 0.500000 0.677141 0.097728
O O20 0.585002 0.500000 0.158098
O O21 0.814120 0.500000 0.181799
O O22 0.735194 0.809997 0.500000
O O23 0.685391 0.000000 0.587673
#
# Coordination Sequence:
#
# PCOD8193580 Si02
#       8
#     8   8   8   8   8   8   8   8
#     4  10  19  31  46  62  82 111 148 189 234 283
#     4   8  14  25  43  71 105 134 160 192 227 263
#     4   9  17  28  42  62  86 112 147 189 228 270
#     4   9  18  31  47  67  90 115 145 187 232 270
#     4  10  20  31  44  64  89 114 143 183 233 287
#     4  10  19  29  42  60  82 108 141 188 244 288
#     4  10  17  27  48  72  92 120 156 191 224 264
#     4   9  19  35  51  66  87 118 153 187 228 281
#
# _framework density 17.178878999999998
#
# number of rings (size 3 to 8) (size 9 to 14) (size 15 to 20)
#    0.000    2.625    1.250    2.625    0.000    7.000 
#    0.000    2.500    0.000    3.000    0.000    1.750 
#    0.000    0.500    0.000    6.250    0.000    0.000 
#
# Total GULP energy -792982.855312 kJ/mol
# GULP energy per Si atom -12390.357114 kJ/mol
# Density = 1.713978 g / cm^3
# Si number density = 17.178879 Si / 1000 Ang^3
#
#
#
# Elastic Constant Matrix: (Units=GPa)
#
#
# Indices 1 2 3 4 5 6 
#
# 1 80.4553 21.2777 49.5281 0.0000 0.0000 0.0000
# 2 21.2777 41.3320 30.0309 0.0000 0.0000 0.0000
# 3 49.5281 30.0309 125.6921 0.0000 0.0000 0.0000
# 4 0.0000 0.0000 0.0000 17.8741 0.0000 0.0000
# 5 0.0000 0.0000 0.0000 0.0000 14.7614 0.0000
# 6 0.0000 0.0000 0.0000 0.0000 0.0000 11.1352
#
#
#
# Elastic Compliance Matrix: (Units=1/GPa)
#
#
# Indices 1 2 3 4 5 6 
#
# 1 0.017144 -0.004740 -0.005623 0.000000 0.000000 0.000000
# 2 -0.004740 0.030587 -0.005440 0.000000 0.000000 0.000000
# 3 -0.005623 -0.005440 0.011471 0.000000 0.000000 0.000000
# 4 0.000000 0.000000 0.000000 0.055947 0.000000 0.000000
# 5 0.000000 0.000000 0.000000 0.000000 0.067744 0.000000
# 6 0.000000 0.000000 0.000000 0.000000 0.000000 0.089806
#
#
# Mechanical properties :
#
#
# Convention : Reuss Voigt Hill
#
# Bulk Modulus (GPa) = 36.23699 49.90586 43.07142
# Shear Modulus (GPa) = 15.94866 18.53032 17.23949
#
# Velocity S-wave (km/s) = 3.05025 3.28787 3.17129
# Velocity P-wave (km/s) = 5.79181 6.59752 6.20775
#
# Compressibility (1/GPa) = 0.02759611
#
# Stress axis : x y z
#
# Youngs Moduli (GPa) = 58.32781 32.69323 87.17286
#
# Poissons Ratio (x) = 0.15498 0.49018
# Poissons Ratio (y) = 0.27650 0.47423
# Poissons Ratio (z) = 0.32798 0.17786
#
# Static dielectric constant tensor:
#      x y z
#    x 3.130910 0.000000 0.000000 
#    y 0.000000 2.946720 0.000000 
#    z 0.000000 0.000000 3.301880 
# 
# 
# High freq. dielectric constant tensor:
#      x y z
#    x 1.628230 0.000000 0.000000 
#    y 0.000000 1.635440 0.000000 
#    z 0.000000 0.000000 1.660830 
# 
# From -- ./inp_files/31342.got.cif
#   From: 2010.03.12/outbox.cif.g09.slc.cpg/sg47_16_cif.got.tgz:31342.got - 2010.04.14 03:12:58.
