data_PCOD8193590
_publ_section_title
;
Structure prediction by ZEFSAII (Michael W. Deem and Ramdas Pophale) SiO2 
 PCOD8193590
Probable space group: P M M M
;
_chemical_formula_sum "Si O2"
_cell_formula_units_Z 52
_cell_length_a 10.166616
_cell_length_b 18.742579
_cell_length_c 15.837315
_cell_angle_alpha 90.000000
_cell_angle_beta 90.000000
_cell_angle_gamma 90.000000
_cell_volume 3017.778257
_symmetry_space_group_name_H-M "P M M M"
_symmetry_group_IT_number 47
_symmetry_cell_setting 'orthorhombic'
loop_
_space_group_symop_operation_xyz
x,y,z
-x,-y,z
x,-y,-z
-x,y,-z
-x,-y,-z
x,y,-z
-x,y,z
x,-y,z
loop_
_atom_site_type_symbol
_atom_site_label
_atom_site_fract_x
_atom_site_fract_y
_atom_site_fract_z
Si Si1 0.844215 0.171763 0.653973
Si Si2 0.350455 0.584676 0.904475
Si Si3 0.154844 0.077593 0.500000
Si Si4 0.751270 0.084476 0.196112
Si Si5 0.155325 0.672509 0.404486
Si Si6 0.000000 0.083623 0.090781
Si Si7 0.847766 0.415720 0.757789
Si Si8 0.500000 0.083817 0.907573
O O1 0.799228 0.120920 0.579762
O O2 0.756200 0.139130 0.727403
O O3 0.797930 0.251047 0.630489
O O4 0.000000 0.167692 0.673756
O O5 0.500000 0.609827 0.882291
O O6 0.344922 0.500000 0.903381
O O7 0.245864 0.613552 0.834120
O O8 0.312954 0.611030 0.000000
O O9 0.000000 0.068728 0.500000
O O10 0.222956 0.000000 0.500000
O O11 0.625523 0.107805 0.144051
O O12 0.872652 0.107440 0.139792
O O13 0.753471 0.000000 0.221928
O O14 0.213008 0.657257 0.500000
O O15 0.199323 0.615235 0.333389
O O16 0.000000 0.672731 0.413567
O O17 0.000000 0.000000 0.077824
O O18 0.000000 0.122012 0.000000
O O19 0.834608 0.500000 0.749862
O O20 0.000000 0.393579 0.776848
O O21 0.500000 0.000000 0.920116
O O22 0.500000 0.120448 0.000000
#
# Coordination Sequence:
#
# PCOD8193590 Si02
#       8
#     8   8   4   8   8   4   8   4
#     4  10  17  28  45  69  96 123 156 193 238 288
#     4   8  14  26  46  72 100 129 159 191 233 286
#     4   9  16  24  40  67  98 122 146 193 241 281
#     4  10  18  28  46  71  95 119 154 197 235 277
#     4   9  17  30  47  68  97 131 163 192 238 295
#     4   9  16  26  42  67  95 119 148 194 241 273
#     4   9  17  28  46  75 102 125 160 204 241 273
#     4   9  18  32  48  67  93 127 162 192 231 287
#
# _framework density 17.231218999999999
#
# number of rings (size 3 to 8) (size 9 to 14) (size 15 to 20)
#    0.000    2.846    1.538    1.385    0.000    3.077 
#    0.000    3.077    1.692    2.769    0.000    4.308 
#    0.000    0.000    0.000    0.000    0.000    0.000 
#
# Total GULP energy -644184.148907 kJ/mol
# GULP energy per Si atom -12388.156710 kJ/mol
# Density = 1.719200 g / cm^3
# Si number density = 17.231219 Si / 1000 Ang^3
#
#
#
# Elastic Constant Matrix: (Units=GPa)
#
#
# Indices 1 2 3 4 5 6 
#
# 1 91.4021 20.3526 67.8640 0.0000 0.0000 0.0000
# 2 20.3526 47.9639 42.9384 0.0000 0.0000 0.0000
# 3 67.8640 42.9384 170.7314 0.0000 0.0000 0.0000
# 4 0.0000 0.0000 0.0000 35.5337 0.0000 0.0000
# 5 0.0000 0.0000 0.0000 0.0000 -40.5772 0.0000
# 6 0.0000 0.0000 0.0000 0.0000 0.0000 11.2257
#
#
#
# Elastic Compliance Matrix: (Units=1/GPa)
#
#
# Indices 1 2 3 4 5 6 
#
# 1 0.015592 -0.001378 -0.005851 0.000000 0.000000 0.000000
# 2 -0.001378 0.027029 -0.006250 0.000000 0.000000 0.000000
# 3 -0.005851 -0.006250 0.009755 0.000000 0.000000 0.000000
# 4 0.000000 0.000000 0.000000 0.028142 0.000000 0.000000
# 5 0.000000 0.000000 0.000000 0.000000 -0.024644 0.000000
# 6 0.000000 0.000000 0.000000 0.000000 0.000000 0.089081
#
#
# Mechanical properties :
#
#
# Convention : Reuss Voigt Hill
#
# Bulk Modulus (GPa) = 39.34327 63.60082 51.47205
# Shear Modulus (GPa) = 27.71852 13.16594 20.44223
#
# Velocity S-wave (km/s) = 4.01511 2.76719 3.44808
# Velocity P-wave (km/s) = 6.66160 6.87024 6.76672
#
# Compressibility (1/GPa) = 0.02541730
#
# Stress axis : x y z
#
# Youngs Moduli (GPa) = 64.13652 36.99750 102.51509
#
# Poissons Ratio (x) = 0.05099 0.59981
# Poissons Ratio (y) = 0.08839 0.64070
# Poissons Ratio (z) = 0.37526 0.23123
#
# Static dielectric constant tensor:
#      x y z
#    x 3.366420 0.000000 0.000000 
#    y 0.000000 3.015790 0.000000 
#    z 0.000000 0.000000 3.992110 
# 
# 
# High freq. dielectric constant tensor:
#      x y z
#    x 1.631540 0.000000 0.000000 
#    y 0.000000 1.631770 0.000000 
#    z 0.000000 0.000000 1.683200 
# 
# From -- ./inp_files/26819.got.cif
#   From: 2010.03.12/outbox.cif.g09.slc.cpg/sg47_14_cif.got.tgz:26819.got - 2010.04.14 03:12:58.
