data_PCOD8193140
_publ_section_title
;
Structure prediction by ZEFSAII (Michael W. Deem and Ramdas Pophale) SiO2 
 PCOD8193140
Probable space group: I M A 2
;
_chemical_formula_sum "Si O2"
_cell_formula_units_Z 64
_cell_length_a 21.640381
_cell_length_b 8.735309
_cell_length_c 15.584975
_cell_angle_alpha 90.000000
_cell_angle_beta 90.000000
_cell_angle_gamma 90.000000
_cell_volume 2946.112216
_symmetry_space_group_name_H-M "I M A 2"
_symmetry_group_IT_number 46
_symmetry_cell_setting 'orthorhombic'
loop_
_space_group_symop_operation_xyz
x,y,z
-x,-y,z
1/2-x,y,z
1/2+x,-y,z
1/2+x,1/2+y,1/2+z
1/2-x,1/2-y,1/2+z
-x,1/2+y,1/2+z
x,1/2-y,1/2+z
loop_
_atom_site_type_symbol
_atom_site_label
_atom_site_fract_x
_atom_site_fract_y
_atom_site_fract_z
Si Si1 0.877926 0.337750 0.783410
Si Si2 0.121678 0.682259 0.596142
Si Si3 0.319646 0.355613 0.751506
Si Si4 0.992413 0.324841 0.034165
Si Si5 0.112905 0.328104 0.583089
Si Si6 0.495796 0.820696 0.856919
Si Si7 0.180447 0.649775 0.422912
Si Si8 0.631533 0.666957 0.391294
O O1 0.850569 0.285822 0.690682
O O2 0.870766 0.521081 0.782623
O O3 0.832075 0.287920 0.858708
O O4 0.948861 0.277241 0.796607
O O5 0.067362 0.807238 0.592967
O O6 0.096635 0.508030 0.589079
O O7 0.171298 0.707513 0.520631
O O8 0.250000 0.421056 0.739701
O O9 0.340836 0.282518 0.660198
O O10 0.316455 0.228356 0.826603
O O11 0.000000 0.500000 0.003813
O O12 0.050291 0.269264 0.090592
O O13 0.976149 0.212200 0.954885
O O14 0.143125 0.283811 0.490512
O O15 0.567142 0.765928 0.853147
O O16 0.500000 0.000000 0.834102
O O17 0.250000 0.588818 0.414819
O O18 0.132708 0.518258 0.392414
#
# Coordination Sequence:
#
# PCOD8193140 Si02
#       8
#     8   8   8   8   8   8   8   8
#     4  11  24  39  66  96 125 176 217 279 333 390
#     4  10  22  41  62  92 128 171 219 266 336 394
#     4  11  25  43  63  95 135 171 225 278 332 401
#     4  11  22  37  64  98 133 163 217 278 333 399
#     4   9  22  41  64  90 125 178 218 268 331 403
#     4  11  21  41  66  93 134 169 217 272 337 406
#     4  11  22  41  66  92 128 175 225 267 325 402
#     4  10  22  39  66  93 125 174 218 266 337 393
#
# _framework density 21.723544
#
# number of rings (size 3 to 8) (size 9 to 14) (size 15 to 20)
#    0.000    1.500    2.500    2.625    5.250    7.000 
#    0.000    0.000    0.000    3.750    0.000    0.000 
#    0.000    0.000    0.000    0.000    0.000    0.000 
#
# Total GULP energy -396504.464921 kJ/mol
# GULP energy per Si atom -12390.764529 kJ/mol
# Density = 2.167410 g / cm^3
# Si number density = 21.723544 Si / 1000 Ang^3
#
#
#
# Elastic Constant Matrix: (Units=GPa)
#
#
# Indices 1 2 3 4 5 6 
#
# 1 94.9764 22.7939 54.3951 0.0000 0.0000 0.0000
# 2 22.7939 59.4828 44.4550 0.0000 0.0000 0.0000
# 3 54.3951 44.4550 155.6188 0.0000 0.0000 0.0000
# 4 0.0000 0.0000 0.0000 31.6140 0.0000 0.0000
# 5 0.0000 0.0000 0.0000 0.0000 28.4701 0.0000
# 6 0.0000 0.0000 0.0000 0.0000 0.0000 25.8196
#
#
#
# Elastic Compliance Matrix: (Units=1/GPa)
#
#
# Indices 1 2 3 4 5 6 
#
# 1 0.013362 -0.002072 -0.004079 0.000000 0.000000 0.000000
# 2 -0.002072 0.021696 -0.005474 0.000000 0.000000 0.000000
# 3 -0.004079 -0.005474 0.009415 0.000000 0.000000 0.000000
# 4 0.000000 0.000000 0.000000 0.031632 0.000000 0.000000
# 5 0.000000 0.000000 0.000000 0.000000 0.035125 0.000000
# 6 0.000000 0.000000 0.000000 0.000000 0.000000 0.038730
#
#
# Mechanical properties :
#
#
# Convention : Reuss Voigt Hill
#
# Bulk Modulus (GPa) = 47.11446 61.48511 54.29979
# Shear Modulus (GPa) = 27.73402 29.74303 28.73852
#
# Velocity S-wave (km/s) = 3.57694 3.70423 3.64114
# Velocity P-wave (km/s) = 6.22853 6.83081 6.53661
#
# Compressibility (1/GPa) = 0.02122490
#
# Stress axis : x y z
#
# Youngs Moduli (GPa) = 74.83803 46.09064 106.21068
#
# Poissons Ratio (x) = 0.09551 0.43320
# Poissons Ratio (y) = 0.15508 0.58136
# Poissons Ratio (z) = 0.30524 0.25228
#
# Static dielectric constant tensor:
#      x y z
#    x 3.768490 0.000000 0.000000 
#    y 0.000000 3.592880 0.000000 
#    z 0.000000 0.000000 4.098070 
# 
# 
# High freq. dielectric constant tensor:
#      x y z
#    x 1.841790 0.000000 0.000000 
#    y 0.000000 1.830900 0.000000 
#    z 0.000000 0.000000 1.863270 
# 
# From -- ./inp_files/17396.got.cif
#   From: 2010.03.12/outbox.cif.g09.slc.cpg/sg46_9_cif.got.tgz:17396.got - 2010.04.14 02:56:35.
