data_PCOD8193705
_publ_section_title
;
Structure prediction by ZEFSAII (Michael W. Deem and Ramdas Pophale) SiO2 
 PCOD8193705
Probable space group: P M M M
;
_chemical_formula_sum "Si O2"
_cell_formula_units_Z 64
_cell_length_a 14.507650
_cell_length_b 9.243813
_cell_length_c 28.932098
_cell_angle_alpha 90.000000
_cell_angle_beta 90.000000
_cell_angle_gamma 90.000000
_cell_volume 3879.968041
_symmetry_space_group_name_H-M "P M M M"
_symmetry_group_IT_number 47
_symmetry_cell_setting 'orthorhombic'
loop_
_space_group_symop_operation_xyz
x,y,z
-x,-y,z
x,-y,-z
-x,y,-z
-x,-y,-z
x,y,-z
-x,y,z
x,-y,z
loop_
_atom_site_type_symbol
_atom_site_label
_atom_site_fract_x
_atom_site_fract_y
_atom_site_fract_z
Si Si1 0.603494 0.667279 0.281752
Si Si2 0.105407 0.835571 0.691090
Si Si3 0.890617 0.661710 0.951080
Si Si4 0.607743 0.833505 0.374226
Si Si5 0.783813 0.668274 0.234342
Si Si6 0.727557 0.334407 0.447444
Si Si7 0.894540 0.834414 0.584630
Si Si8 0.104517 0.673160 0.147987
O O1 0.500000 0.707864 0.265209
O O2 0.608897 0.500000 0.296863
O O3 0.634112 0.761975 0.325485
O O4 0.673945 0.698351 0.239270
O O5 0.168149 0.732062 0.720912
O O6 0.134640 0.818158 0.637990
O O7 0.000000 0.788554 0.697811
O O8 0.119765 0.000000 0.707387
O O9 0.849842 0.500000 0.952808
O O10 0.860510 0.735798 0.902263
O O11 0.000000 0.653467 0.949159
O O12 0.860201 0.740185 0.000000
O O13 0.500000 0.817016 0.383898
O O14 0.658901 0.756574 0.416025
O O15 0.638981 0.000000 0.372212
O O16 0.806220 0.500000 0.234355
O O17 0.825736 0.734840 0.187001
O O18 0.692335 0.323630 0.500000
O O19 0.729148 0.500000 0.430514
O O20 0.830546 0.270103 0.445248
O O21 0.000000 0.786741 0.577017
O O22 0.881100 0.000000 0.568681
O O23 0.106559 0.500000 0.145287
O O24 0.000000 0.725074 0.159439
#
# Coordination Sequence:
#
# PCOD8193705 Si02
#       8
#     8   8   8   8   8   8   8   8
#     4   9  18  32  48  66  89 115 142 173 211 257
#     4   9  18  31  45  63  88 115 141 170 205 246
#     4   7   9  14  25  41  65 101 139 172 212 257
#     4  10  21  37  57  77  93 112 142 179 217 259
#     4  10  18  26  40  62  86 113 143 174 211 254
#     4  11  24  38  52  73  99 123 145 173 214 262
#     4   9  19  36  55  72  91 119 155 190 219 248
#     4   8  13  20  30  49  79 109 138 176 216 252
#
# _framework density 16.494982
#
# number of rings (size 3 to 8) (size 9 to 14) (size 15 to 20)
#    0.000    2.875    0.000    3.750    0.000    6.250 
#    0.000    3.750    0.000    0.000    0.000    0.000 
#    0.000    1.000    0.000   11.625    0.000    4.000 
#
# Total GULP energy -793054.307624 kJ/mol
# GULP energy per Si atom -12391.473557 kJ/mol
# Density = 1.645744 g / cm^3
# Si number density = 16.494982 Si / 1000 Ang^3
#
#
#
# Elastic Constant Matrix: (Units=GPa)
#
#
# Indices 1 2 3 4 5 6 
#
# 1 67.7058 29.0157 56.0369 0.0000 0.0000 0.0000
# 2 29.0157 51.3601 35.1572 0.0000 0.0000 0.0000
# 3 56.0369 35.1572 101.4154 0.0000 0.0000 0.0000
# 4 0.0000 0.0000 0.0000 3.1192 0.0000 0.0000
# 5 0.0000 0.0000 0.0000 0.0000 16.0227 0.0000
# 6 0.0000 0.0000 0.0000 0.0000 0.0000 19.6865
#
#
#
# Elastic Compliance Matrix: (Units=1/GPa)
#
#
# Indices 1 2 3 4 5 6 
#
# 1 0.029074 -0.007117 -0.013597 0.000000 0.000000 0.000000
# 2 -0.007117 0.027271 -0.005521 0.000000 0.000000 0.000000
# 3 -0.013597 -0.005521 0.019288 0.000000 0.000000 0.000000
# 4 0.000000 0.000000 0.000000 0.320592 0.000000 0.000000
# 5 0.000000 0.000000 0.000000 0.000000 0.062411 0.000000
# 6 0.000000 0.000000 0.000000 0.000000 0.000000 0.050796
#
#
# Mechanical properties :
#
#
# Convention : Reuss Voigt Hill
#
# Bulk Modulus (GPa) = 43.17713 51.21119 47.19416
# Shear Modulus (GPa) = 8.77773 14.45045 11.61409
#
# Velocity S-wave (km/s) = 2.30933 2.96303 2.65636
# Velocity P-wave (km/s) = 5.77438 6.54370 6.17104
#
# Compressibility (1/GPa) = 0.02316041
#
# Stress axis : x y z
#
# Youngs Moduli (GPa) = 34.39514 36.66943 51.84683
#
# Poissons Ratio (x) = 0.26099 0.70498
# Poissons Ratio (y) = 0.24481 0.28625
# Poissons Ratio (z) = 0.46768 0.20245
#
# Static dielectric constant tensor:
#      x y z
#    x 3.107680 0.000000 0.000000 
#    y 0.000000 2.904100 0.000000 
#    z 0.000000 0.000000 3.405500 
# 
# 
# High freq. dielectric constant tensor:
#      x y z
#    x 1.618650 0.000000 0.000000 
#    y 0.000000 1.609090 0.000000 
#    z 0.000000 0.000000 1.629810 
# 
# From -- ./inp_files/22207.got.cif
#   From: 2010.03.12/outbox.cif.g09.slc.cpg/sg47_12_cif.got.tgz:22207.got - 2010.04.14 03:12:58.
