data_PCOD8193434
_publ_section_title
;
Structure prediction by ZEFSAII (Michael W. Deem and Ramdas Pophale) SiO2 
 PCOD8193434
Probable space group: I M A 2
;
_chemical_formula_sum "Si O2"
_cell_formula_units_Z 48
_cell_length_a 13.737616
_cell_length_b 12.114968
_cell_length_c 11.536407
_cell_angle_alpha 90.000000
_cell_angle_beta 90.000000
_cell_angle_gamma 90.000000
_cell_volume 1920.013195
_symmetry_space_group_name_H-M "I M A 2"
_symmetry_group_IT_number 46
_symmetry_cell_setting 'orthorhombic'
loop_
_space_group_symop_operation_xyz
x,y,z
-x,-y,z
1/2-x,y,z
1/2+x,-y,z
1/2+x,1/2+y,1/2+z
1/2-x,1/2-y,1/2+z
-x,1/2+y,1/2+z
x,1/2-y,1/2+z
loop_
_atom_site_type_symbol
_atom_site_label
_atom_site_fract_x
_atom_site_fract_y
_atom_site_fract_z
Si Si1 0.358036 0.837976 0.635670
Si Si2 0.858933 0.821893 0.712773
Si Si3 0.639598 0.932635 0.281305
Si Si4 0.470768 0.135850 0.487824
Si Si5 0.968406 0.355870 0.361906
Si Si6 0.138729 0.917622 0.072864
O O1 0.250000 0.883498 0.610861
O O2 0.435329 0.910852 0.560113
O O3 0.380328 0.846243 0.771225
O O4 0.368076 0.710314 0.603812
O O5 0.750000 0.868116 0.731184
O O6 0.865648 0.694164 0.744817
O O7 0.887100 0.828848 0.578040
O O8 0.932564 0.894279 0.794078
O O9 0.750000 0.968712 0.308638
O O10 0.575071 0.952096 0.397084
O O11 0.597566 0.009368 0.178812
O O12 0.509686 0.238203 0.415807
O O13 0.930734 0.439973 0.461470
O O14 0.250000 0.952533 0.045088
#
# Coordination Sequence:
#
# PCOD8193434 Si02
#       6
#     8   8   8   8   8   8
#     4   9  17  30  50  77 111 155 201 241 289 352
#     4   9  17  30  50  77 111 155 201 241 289 352
#     4   9  17  30  51  82 118 152 189 239 294 347
#     4   9  17  30  48  77 112 150 193 238 290 349
#     4   9  17  30  48  77 112 150 193 238 290 349
#     4   9  17  30  51  82 118 152 189 239 294 347
#
# _framework density 24.999827
#
# number of rings (size 3 to 8) (size 9 to 14) (size 15 to 20)
#    0.000    3.000    0.000    1.000    0.000    1.333 
#    0.000   13.333    0.000    1.000    0.000   39.667 
#    0.000   98.667    0.000    0.000    0.000    0.667 
#
# Total GULP energy -297464.568773 kJ/mol
# GULP energy per Si atom -12394.357032 kJ/mol
# Density = 2.494293 g / cm^3
# Si number density = 24.999827 Si / 1000 Ang^3
#
#
#
# Elastic Constant Matrix: (Units=GPa)
#
#
# Indices 1 2 3 4 5 6 
#
# 1 184.3083 35.7522 99.2311 0.0000 0.0000 0.0000
# 2 35.7522 28.0033 36.8863 0.0000 0.0000 0.0000
# 3 99.2311 36.8863 199.1559 0.0000 0.0000 0.0000
# 4 0.0000 0.0000 0.0000 42.6028 0.0000 0.0000
# 5 0.0000 0.0000 0.0000 0.0000 40.8046 0.0000
# 6 0.0000 0.0000 0.0000 0.0000 0.0000 24.0439
#
#
#
# Elastic Compliance Matrix: (Units=1/GPa)
#
#
# Indices 1 2 3 4 5 6 
#
# 1 0.008291 -0.006804 -0.002871 0.000000 0.000000 0.000000
# 2 -0.006804 0.052816 -0.006392 0.000000 0.000000 0.000000
# 3 -0.002871 -0.006392 0.007636 0.000000 0.000000 0.000000
# 4 0.000000 0.000000 0.000000 0.023473 0.000000 0.000000
# 5 0.000000 0.000000 0.000000 0.000000 0.024507 0.000000
# 6 0.000000 0.000000 0.000000 0.000000 0.000000 0.041591
#
#
# Mechanical properties :
#
#
# Convention : Reuss Voigt Hill
#
# Bulk Modulus (GPa) = 27.31554 83.91187 55.61371
# Shear Modulus (GPa) = 24.67297 37.46346 31.06821
#
# Velocity S-wave (km/s) = 3.14495 3.87531 3.52907
# Velocity P-wave (km/s) = 4.91300 7.32543 6.23696
#
# Compressibility (1/GPa) = 0.03660920
#
# Stress axis : x y z
#
# Youngs Moduli (GPa) = 120.60914 18.93348 130.96475
#
# Poissons Ratio (x) = 0.12882 0.37600
# Poissons Ratio (y) = 0.82060 0.83716
# Poissons Ratio (z) = 0.34627 0.12103
#
# Static dielectric constant tensor:
#      x y z
#    x 5.113810 0.000000 0.000000 
#    y 0.000000 4.091670 0.000000 
#    z 0.000000 0.000000 5.060290 
# 
# 
# High freq. dielectric constant tensor:
#      x y z
#    x 2.010580 0.000000 0.000000 
#    y 0.000000 1.979080 0.000000 
#    z 0.000000 0.000000 2.011780 
# 
# From -- ./inp_files/11073.got.cif
#   From: 2010.03.12/outbox.cif.g09.slc.cpg/sg46_6_cif.got.tgz:11073.got - 2010.04.14 02:56:35.
