data_PCOD8193836
_publ_section_title
;
Structure prediction by ZEFSAII (Michael W. Deem and Ramdas Pophale) SiO2 
 PCOD8193836
Probable space group: P M M M
;
_chemical_formula_sum "Si O2"
_cell_formula_units_Z 40
_cell_length_a 17.284050
_cell_length_b 19.635220
_cell_length_c 7.927232
_cell_angle_alpha 90.000000
_cell_angle_beta 90.000000
_cell_angle_gamma 90.000000
_cell_volume 2690.313272
_symmetry_space_group_name_H-M "P M M M"
_symmetry_group_IT_number 47
_symmetry_cell_setting 'orthorhombic'
loop_
_space_group_symop_operation_xyz
x,y,z
-x,-y,z
x,-y,-z
-x,y,-z
-x,-y,-z
x,y,-z
-x,y,z
x,-y,z
loop_
_atom_site_type_symbol
_atom_site_label
_atom_site_fract_x
_atom_site_fract_y
_atom_site_fract_z
Si Si1 0.849564 0.649555 0.692851
Si Si2 0.414016 0.580442 0.000000
Si Si3 0.000000 0.422885 0.298376
Si Si4 0.912313 0.216022 0.807507
Si Si5 0.908612 0.926788 0.306896
Si Si6 0.694703 0.419876 0.695786
O O1 0.848683 0.627823 0.500000
O O2 0.856671 0.731200 0.711466
O O3 0.769528 0.620762 0.766277
O O4 0.924287 0.614170 0.778782
O O5 0.372406 0.603267 0.825509
O O6 0.419541 0.500000 0.000000
O O7 0.500000 0.612787 0.000000
O O8 0.000000 0.500000 0.234993
O O9 0.000000 0.417616 0.500000
O O10 0.876881 0.139614 0.790600
O O11 0.000000 0.218967 0.732014
O O12 0.913238 0.237788 0.000000
O O13 0.884188 0.918701 0.500000
O O14 0.000000 0.928740 0.285695
O O15 0.875952 0.000000 0.237585
O O16 0.673049 0.401313 0.500000
O O17 0.712095 0.500000 0.710109
#
# Coordination Sequence:
#
# PCOD8193836 Si02
#       6
#     8   4   4   8   8   8
#     4  10  18  28  42  57  77 108 142 177 213 246
#     4   9  18  32  50  69  85 105 132 166 215 267
#     4   9  16  26  41  57  72  99 142 183 213 243
#     4  10  19  27  36  53  78 105 137 176 214 250
#     4   8  14  25  40  54  68  91 128 173 215 252
#     4   9  18  31  46  65  87 110 139 176 216 258
#
# _framework density 14.868157999999999
#
# number of rings (size 3 to 8) (size 9 to 14) (size 15 to 20)
#    0.000    2.800    1.000    1.800    1.400    4.000 
#    0.000    4.000    0.000    0.600    0.000    0.000 
#    0.000    0.000    0.000    0.000    0.000    2.000 
#
# Total GULP energy -495599.050251 kJ/mol
# GULP energy per Si atom -12389.976256 kJ/mol
# Density = 1.483432 g / cm^3
# Si number density = 14.868158 Si / 1000 Ang^3
#
#
#
# Elastic Constant Matrix: (Units=GPa)
#
#
# Indices 1 2 3 4 5 6 
#
# 1 92.8049 36.8632 34.4313 0.0000 0.0000 0.0000
# 2 36.8632 90.1562 16.2957 0.0000 0.0000 0.0000
# 3 34.4313 16.2957 49.2978 0.0000 0.0000 0.0000
# 4 0.0000 0.0000 0.0000 11.7427 0.0000 0.0000
# 5 0.0000 0.0000 0.0000 0.0000 14.5333 0.0000
# 6 0.0000 0.0000 0.0000 0.0000 0.0000 6.9546
#
#
#
# Elastic Compliance Matrix: (Units=1/GPa)
#
#
# Indices 1 2 3 4 5 6 
#
# 1 0.016367 -0.004920 -0.009805 0.000000 0.000000 0.000000
# 2 -0.004920 0.013276 -0.000952 0.000000 0.000000 0.000000
# 3 -0.009805 -0.000952 0.027448 0.000000 0.000000 0.000000
# 4 0.000000 0.000000 0.000000 0.085160 0.000000 0.000000
# 5 0.000000 0.000000 0.000000 0.000000 0.068808 0.000000
# 6 0.000000 0.000000 0.000000 0.000000 0.000000 0.143790
#
#
# Mechanical properties :
#
#
# Convention : Reuss Voigt Hill
#
# Bulk Modulus (GPa) = 38.85551 45.27104 42.06327
# Shear Modulus (GPa) = 12.66522 16.29067 14.47795
#
# Velocity S-wave (km/s) = 2.92179 3.31369 3.12389
# Velocity P-wave (km/s) = 6.12965 6.71976 6.43147
#
# Compressibility (1/GPa) = 0.02573638
#
# Stress axis : x y z
#
# Youngs Moduli (GPa) = 61.09706 75.32587 36.43265
#
# Poissons Ratio (x) = 0.37061 0.35723
# Poissons Ratio (y) = 0.30060 0.03469
# Poissons Ratio (z) = 0.59907 0.07171
#
# Static dielectric constant tensor:
#      x y z
#    x 2.692180 0.000000 0.000000 
#    y 0.000000 2.850350 0.000000 
#    z 0.000000 0.000000 2.812460 
# 
# 
# High freq. dielectric constant tensor:
#      x y z
#    x 1.509770 0.000000 0.000000 
#    y 0.000000 1.562060 0.000000 
#    z 0.000000 0.000000 1.568290 
# 
# From -- ./inp_files/9335.got.cif
#   From: 2010.03.12/outbox.cif.g09.slc.cpg/sg47_5_cif.got.tgz:9335.got - 2010.04.14 03:12:58.
