data_PCOD8193569
_publ_section_title
;
Structure prediction by ZEFSAII (Michael W. Deem and Ramdas Pophale) SiO2 
 PCOD8193569
Probable space group: P M M M
;
_chemical_formula_sum "Si O2"
_cell_formula_units_Z 52
_cell_length_a 23.683968
_cell_length_b 14.485927
_cell_length_c 9.290568
_cell_angle_alpha 90.000000
_cell_angle_beta 90.000000
_cell_angle_gamma 90.000000
_cell_volume 3187.447383
_symmetry_space_group_name_H-M "P M M M"
_symmetry_group_IT_number 47
_symmetry_cell_setting 'orthorhombic'
loop_
_space_group_symop_operation_xyz
x,y,z
-x,-y,z
x,-y,-z
-x,y,-z
-x,-y,-z
x,y,-z
-x,y,z
x,-y,z
loop_
_atom_site_type_symbol
_atom_site_label
_atom_site_fract_x
_atom_site_fract_y
_atom_site_fract_z
Si Si1 0.398454 0.396083 0.167561
Si Si2 0.270872 0.400425 0.170571
Si Si3 0.879197 0.896500 0.171971
Si Si4 0.000000 0.109757 0.157935
Si Si5 0.437579 0.773051 0.665609
Si Si6 0.230829 0.206777 0.171415
Si Si7 0.667999 0.107138 0.331270
O O1 0.420535 0.500000 0.196499
O O2 0.334526 0.385713 0.225742
O O3 0.436723 0.323572 0.250786
O O4 0.401751 0.372205 0.000000
O O5 0.247506 0.500000 0.228589
O O6 0.233337 0.313878 0.222209
O O7 0.272201 0.404450 0.000000
O O8 0.940531 0.862038 0.235254
O O9 0.829562 0.829986 0.226831
O O10 0.865595 0.000000 0.226511
O O11 0.883126 0.896097 0.000000
O O12 0.000000 0.000000 0.142419
O O13 0.000000 0.155657 0.000000
O O14 0.426658 0.750048 0.500000
O O15 0.500000 0.817063 0.688524
O O16 0.390011 0.844292 0.720668
O O17 0.280149 0.148388 0.243219
O O18 0.237256 0.196520 0.000000
O O19 0.679030 0.122509 0.500000
O O20 0.662173 0.000000 0.293063
#
# Coordination Sequence:
#
# PCOD8193569 Si02
#       7
#     8   8   8   4   8   8   8
#     4   9  17  31  50  69  89 113 139 169 212 266
#     4   8  14  25  42  64  88 111 135 167 211 258
#     4   8  13  20  33  58  88 115 143 175 211 248
#     4   7  10  18  30  48  84 122 142 167 209 249
#     4  10  21  35  49  65  85 111 145 180 212 253
#     4  10  17  27  47  70  88 109 143 184 216 248
#     4  10  21  35  48  63  86 114 141 173 218 264
#
# _framework density 16.313994999999998
#
# number of rings (size 3 to 8) (size 9 to 14) (size 15 to 20)
#    0.000    3.000    1.538    2.308    0.000    2.154 
#    0.000    3.077    0.000    0.462    0.000    3.231 
#    0.000    7.385    0.000    0.000    0.000    1.538 
#
# Total GULP energy -644266.304780 kJ/mol
# GULP energy per Si atom -12389.736630 kJ/mol
# Density = 1.627686 g / cm^3
# Si number density = 16.313995 Si / 1000 Ang^3
#
#
#
# Elastic Constant Matrix: (Units=GPa)
#
#
# Indices 1 2 3 4 5 6 
#
# 1 141.7627 70.0619 24.7077 0.0000 0.0000 0.0000
# 2 70.0619 112.3185 24.5431 0.0000 0.0000 0.0000
# 3 24.7077 24.5431 21.0939 0.0000 0.0000 0.0000
# 4 0.0000 0.0000 0.0000 17.3695 0.0000 0.0000
# 5 0.0000 0.0000 0.0000 0.0000 11.5538 0.0000
# 6 0.0000 0.0000 0.0000 0.0000 0.0000 23.1910
#
#
#
# Elastic Compliance Matrix: (Units=1/GPa)
#
#
# Indices 1 2 3 4 5 6 
#
# 1 0.010817 -0.005335 -0.006463 0.000000 0.000000 0.000000
# 2 -0.005335 0.014570 -0.010703 0.000000 0.000000 0.000000
# 3 -0.006463 -0.010703 0.067430 0.000000 0.000000 0.000000
# 4 0.000000 0.000000 0.000000 0.057572 0.000000 0.000000
# 5 0.000000 0.000000 0.000000 0.000000 0.086551 0.000000
# 6 0.000000 0.000000 0.000000 0.000000 0.000000 0.043120
#
#
# Mechanical properties :
#
#
# Convention : Reuss Voigt Hill
#
# Bulk Modulus (GPa) = 20.91391 57.08894 39.00142
# Shear Modulus (GPa) = 14.66269 20.81371 17.73820
#
# Velocity S-wave (km/s) = 3.00122 3.57574 3.30100
# Velocity P-wave (km/s) = 4.98570 7.21926 6.20382
#
# Compressibility (1/GPa) = 0.04781508
#
# Stress axis : x y z
#
# Youngs Moduli (GPa) = 92.44467 68.63364 14.83021
#
# Poissons Ratio (x) = 0.36619 0.09584
# Poissons Ratio (y) = 0.49323 0.15873
# Poissons Ratio (z) = 0.59744 0.73459
#
# Static dielectric constant tensor:
#      x y z
#    x 3.335420 0.000000 0.000000 
#    y 0.000000 3.314890 0.000000 
#    z 0.000000 0.000000 2.680370 
# 
# 
# High freq. dielectric constant tensor:
#      x y z
#    x 1.624880 0.000000 0.000000 
#    y 0.000000 1.620690 0.000000 
#    z 0.000000 0.000000 1.583480 
# 
# From -- ./inp_files/12500.got.cif
#   From: 2010.03.12/outbox.cif.g09.slc.cpg/sg47_7_cif.got.tgz:12500.got - 2010.04.14 03:12:58.
