data_PCOD8193749
_publ_section_title
;
Structure prediction by ZEFSAII (Michael W. Deem and Ramdas Pophale) SiO2 
 PCOD8193749
Probable space group: P M M M
;
_chemical_formula_sum "Si O2"
_cell_formula_units_Z 60
_cell_length_a 9.156660
_cell_length_b 18.214399
_cell_length_c 24.185197
_cell_angle_alpha 90.000000
_cell_angle_beta 90.000000
_cell_angle_gamma 90.000000
_cell_volume 4033.681132
_symmetry_space_group_name_H-M "P M M M"
_symmetry_group_IT_number 47
_symmetry_cell_setting 'orthorhombic'
loop_
_space_group_symop_operation_xyz
x,y,z
-x,-y,z
x,-y,-z
-x,y,-z
-x,-y,-z
x,y,-z
-x,y,z
x,-y,z
loop_
_atom_site_type_symbol
_atom_site_label
_atom_site_fract_x
_atom_site_fract_y
_atom_site_fract_z
Si Si1 0.825763 0.084569 0.880067
Si Si2 0.671683 0.827959 0.784794
Si Si3 0.328460 0.584164 0.666816
Si Si4 0.331822 0.324440 0.438288
Si Si5 0.163837 0.202145 0.616086
Si Si6 0.330110 0.083558 0.674897
Si Si7 0.841547 0.086435 0.000000
Si Si8 0.165541 0.704891 0.272653
O O1 0.742126 0.137646 0.838950
O O2 0.000000 0.096093 0.876055
O O3 0.786407 0.000000 0.866596
O O4 0.764725 0.106986 0.941647
O O5 0.500000 0.816645 0.793433
O O6 0.706365 0.882478 0.734421
O O7 0.745232 0.748639 0.774301
O O8 0.500000 0.593965 0.677165
O O9 0.279613 0.500000 0.669752
O O10 0.283852 0.613991 0.605985
O O11 0.243527 0.627341 0.715090
O O12 0.303432 0.355594 0.500000
O O13 0.500000 0.303857 0.429180
O O14 0.242666 0.249094 0.431281
O O15 0.245154 0.125185 0.626022
O O16 0.168561 0.248044 0.672042
O O17 0.000000 0.185420 0.596720
O O18 0.500000 0.090290 0.661530
O O19 0.276108 0.000000 0.675602
O O20 0.000000 0.124872 0.000000
O O21 0.865702 0.000000 0.000000
O O22 0.000000 0.691099 0.252412
#
# Coordination Sequence:
#
# PCOD8193749 Si02
#       8
#     8   8   8   8   8   8   4   8
#     4   9  16  26  40  57  79 110 148 185 217 249
#     4  10  18  27  40  59  83 108 136 172 212 249
#     4   9  17  29  45  65  88 111 133 159 193 232
#     4   9  17  29  45  63  82 106 134 160 188 228
#     4   9  17  28  42  59  78 101 129 162 199 237
#     4   9  17  28  41  57  78 103 129 160 202 250
#     4   7  12  24  39  53  73 107 148 183 214 249
#     4   9  17  29  43  59  80 107 138 166 196 239
#
# _framework density 14.874751
#
# number of rings (size 3 to 8) (size 9 to 14) (size 15 to 20)
#    0.000    3.000    0.000    2.400    0.000    5.600 
#    0.000    1.667    0.000    1.600    0.000    6.533 
#    0.000    0.000    0.000    0.600    0.000   11.600 
#
# Total GULP energy -743693.234353 kJ/mol
# GULP energy per Si atom -12394.887239 kJ/mol
# Density = 1.484089 g / cm^3
# Si number density = 14.874751 Si / 1000 Ang^3
#
#
#
# Elastic Constant Matrix: (Units=GPa)
#
#
# Indices 1 2 3 4 5 6 
#
# 1 68.3118 50.4205 38.0188 0.0000 0.0000 0.0000
# 2 50.4205 109.1453 51.2947 0.0000 0.0000 0.0000
# 3 38.0188 51.2947 71.8559 0.0000 0.0000 0.0000
# 4 0.0000 0.0000 0.0000 16.9031 0.0000 0.0000
# 5 0.0000 0.0000 0.0000 0.0000 15.2654 0.0000
# 6 0.0000 0.0000 0.0000 0.0000 0.0000 20.8264
#
#
#
# Elastic Compliance Matrix: (Units=1/GPa)
#
#
# Indices 1 2 3 4 5 6 
#
# 1 0.024556 -0.007882 -0.007366 0.000000 0.000000 0.000000
# 2 -0.007882 0.016318 -0.007478 0.000000 0.000000 0.000000
# 3 -0.007366 -0.007478 0.023152 0.000000 0.000000 0.000000
# 4 0.000000 0.000000 0.000000 0.059161 0.000000 0.000000
# 5 0.000000 0.000000 0.000000 0.000000 0.065507 0.000000
# 6 0.000000 0.000000 0.000000 0.000000 0.000000 0.048016
#
#
# Mechanical properties :
#
#
# Convention : Reuss Voigt Hill
#
# Bulk Modulus (GPa) = 53.83895 58.75344 56.29620
# Shear Modulus (GPa) = 17.33983 17.90426 17.62205
#
# Velocity S-wave (km/s) = 3.41797 3.47316 3.44567
# Velocity P-wave (km/s) = 7.20070 7.46112 7.33207
#
# Compressibility (1/GPa) = 0.01857391
#
# Stress axis : x y z
#
# Youngs Moduli (GPa) = 40.72333 61.28282 43.19231
#
# Poissons Ratio (x) = 0.48304 0.31815
# Poissons Ratio (y) = 0.32099 0.32300
# Poissons Ratio (z) = 0.29996 0.45828
#
# Static dielectric constant tensor:
#      x y z
#    x 2.897400 0.000000 0.000000 
#    y 0.000000 2.791840 0.000000 
#    z 0.000000 0.000000 2.818320 
# 
# 
# High freq. dielectric constant tensor:
#      x y z
#    x 1.570310 0.000000 0.000000 
#    y 0.000000 1.547000 0.000000 
#    z 0.000000 0.000000 1.543390 
# 
# From -- ./inp_files/12889.got.cif
#   From: 2010.03.12/outbox.cif.g09.slc.cpg/sg47_7_cif.got.tgz:12889.got - 2010.04.14 03:12:58.
