data_PCOD8193353
_publ_section_title
;
Structure prediction by ZEFSAII (Michael W. Deem and Ramdas Pophale) SiO2 
 PCOD8193353
Probable space group: I M A 2
;
_chemical_formula_sum "Si O2"
_cell_formula_units_Z 48
_cell_length_a 16.318820
_cell_length_b 15.152404
_cell_length_c 8.941013
_cell_angle_alpha 90.000000
_cell_angle_beta 90.000000
_cell_angle_gamma 90.000000
_cell_volume 2210.838504
_symmetry_space_group_name_H-M "I M A 2"
_symmetry_group_IT_number 46
_symmetry_cell_setting 'orthorhombic'
loop_
_space_group_symop_operation_xyz
x,y,z
-x,-y,z
1/2-x,y,z
1/2+x,-y,z
1/2+x,1/2+y,1/2+z
1/2-x,1/2-y,1/2+z
-x,1/2+y,1/2+z
x,1/2-y,1/2+z
loop_
_atom_site_type_symbol
_atom_site_label
_atom_site_fract_x
_atom_site_fract_y
_atom_site_fract_z
Si Si1 0.590812 0.159849 0.137450
Si Si2 0.094964 0.503609 0.238651
Si Si3 0.343862 0.021250 0.062521
Si Si4 0.905820 0.682132 0.738272
Si Si5 0.655446 0.656174 0.062514
Si Si6 0.343607 0.685223 0.320345
O O1 0.498751 0.168498 0.191407
O O2 0.648709 0.224047 0.231835
O O3 0.620401 0.059396 0.160716
O O4 0.597362 0.186398 0.963881
O O5 0.106682 0.469434 0.408109
O O6 0.143859 0.442752 0.122390
O O7 0.128966 0.602857 0.217073
O O8 0.000000 0.500000 0.196677
O O9 0.250000 0.002047 0.021832
O O10 0.349723 0.109795 0.157567
O O11 0.874734 0.778509 0.692524
O O12 0.898639 0.673092 0.915920
O O13 0.750000 0.672655 0.023065
O O14 0.250000 0.672814 0.372144
#
# Coordination Sequence:
#
# PCOD8193353 Si02
#       6
#     8   8   8   8   8   8
#     4  11  23  41  63  91 127 166 207 258 311 369
#     4  11  23  41  64  92 126 166 207 256 312 370
#     4  11  22  41  65  93 126 167 210 256 308 367
#     4  12  25  42  64  92 125 166 209 258 314 372
#     4  12  25  43  64  92 124 162 208 260 313 373
#     4  11  22  40  64  94 126 165 209 256 308 367
#
# _framework density 21.711219
#
# number of rings (size 3 to 8) (size 9 to 14) (size 15 to 20)
#    0.000    0.667    0.000   11.000    0.000    2.667 
#    0.000    3.333    0.000    0.000    0.000    0.000 
#    0.000    0.000    0.000    0.000    0.000    0.000 
#
# Total GULP energy -297796.458074 kJ/mol
# GULP energy per Si atom -12408.185753 kJ/mol
# Density = 2.166180 g / cm^3
# Si number density = 21.711219 Si / 1000 Ang^3
#
#
#
# Elastic Constant Matrix: (Units=GPa)
#
#
# Indices 1 2 3 4 5 6 
#
# 1 137.3562 31.0865 25.6031 0.0000 0.0000 0.0000
# 2 31.0865 82.3512 43.8022 0.0000 0.0000 0.0000
# 3 25.6031 43.8022 100.2555 0.0000 0.0000 0.0000
# 4 0.0000 0.0000 0.0000 45.7059 0.0000 0.0000
# 5 0.0000 0.0000 0.0000 0.0000 29.3314 0.0000
# 6 0.0000 0.0000 0.0000 0.0000 0.0000 35.7502
#
#
#
# Elastic Compliance Matrix: (Units=1/GPa)
#
#
# Indices 1 2 3 4 5 6 
#
# 1 0.008029 -0.002528 -0.000946 0.000000 0.000000 0.000000
# 2 -0.002528 0.016615 -0.006614 0.000000 0.000000 0.000000
# 3 -0.000946 -0.006614 0.013106 0.000000 0.000000 0.000000
# 4 0.000000 0.000000 0.000000 0.021879 0.000000 0.000000
# 5 0.000000 0.000000 0.000000 0.000000 0.034093 0.000000
# 6 0.000000 0.000000 0.000000 0.000000 0.000000 0.027972
#
#
# Mechanical properties :
#
#
# Convention : Reuss Voigt Hill
#
# Bulk Modulus (GPa) = 56.89966 57.88295 57.39130
# Shear Modulus (GPa) = 33.84636 36.78890 35.31763
#
# Velocity S-wave (km/s) = 3.95262 4.12085 4.03761
# Velocity P-wave (km/s) = 6.86260 7.02568 6.94462
#
# Compressibility (1/GPa) = 0.01757480
#
# Stress axis : x y z
#
# Youngs Moduli (GPa) = 124.55286 60.18650 76.30273
#
# Poissons Ratio (x) = 0.15212 0.07219
# Poissons Ratio (y) = 0.31481 0.50465
# Poissons Ratio (z) = 0.11784 0.39806
#
# Static dielectric constant tensor:
#      x y z
#    x 3.949570 0.000000 0.000000 
#    y 0.000000 4.189940 0.000000 
#    z 0.000000 0.000000 3.736980 
# 
# 
# High freq. dielectric constant tensor:
#      x y z
#    x 1.868110 0.000000 0.000000 
#    y 0.000000 1.869000 0.000000 
#    z 0.000000 0.000000 1.842600 
# 
# From -- ./inp_files/5706.got.cif
#   From: 2010.03.12/outbox.cif.g09.slc.cpg/sg46_3_cif.got.tgz:5706.got - 2010.04.14 02:56:35.
