data_PCOD8193633
_publ_section_title
;
Structure prediction by ZEFSAII (Michael W. Deem and Ramdas Pophale) SiO2 
 PCOD8193633
Probable space group: P M M M
;
_chemical_formula_sum "Si O2"
_cell_formula_units_Z 56
_cell_length_a 8.502153
_cell_length_b 15.601451
_cell_length_c 20.516811
_cell_angle_alpha 90.000000
_cell_angle_beta 90.000000
_cell_angle_gamma 90.000000
_cell_volume 2721.471341
_symmetry_space_group_name_H-M "P M M M"
_symmetry_group_IT_number 47
_symmetry_cell_setting 'orthorhombic'
loop_
_space_group_symop_operation_xyz
x,y,z
-x,-y,z
x,-y,-z
-x,y,-z
-x,-y,-z
x,y,-z
-x,y,z
x,-y,z
loop_
_atom_site_type_symbol
_atom_site_label
_atom_site_fract_x
_atom_site_fract_y
_atom_site_fract_z
Si Si1 0.187284 0.272119 0.427751
Si Si2 0.682577 0.309465 0.204821
Si Si3 0.186249 0.092546 0.378977
Si Si4 0.182463 0.728899 0.071963
Si Si5 0.680942 0.093791 0.103149
Si Si6 0.816437 0.596822 0.318546
Si Si7 0.817514 0.132263 0.765239
O O1 0.241620 0.301109 0.500000
O O2 0.256480 0.175976 0.415436
O O3 0.252065 0.339468 0.374337
O O4 0.000000 0.270456 0.423138
O O5 0.500000 0.287146 0.210702
O O6 0.722263 0.322274 0.127895
O O7 0.726350 0.390770 0.249541
O O8 0.788948 0.233910 0.234098
O O9 0.235871 0.095059 0.303650
O O10 0.000000 0.097041 0.385406
O O11 0.245783 0.000000 0.407516
O O12 0.214050 0.831245 0.072591
O O13 0.000000 0.713888 0.085487
O O14 0.229414 0.693955 0.000000
O O15 0.500000 0.117607 0.090438
O O16 0.711859 0.087287 0.180280
O O17 0.719708 0.000000 0.072453
O O18 0.785092 0.500000 0.342193
O O19 0.000000 0.613560 0.306929
O O20 0.000000 0.113413 0.779255
#
# Coordination Sequence:
#
# PCOD8193633 Si02
#       7
#     8   8   8   8   8   8   8
#     4   9  17  30  49  77 114 149 183 228 279 330
#     4  11  21  34  56  82 110 142 178 223 277 331
#     4   9  16  25  42  71 106 143 182 227 277 324
#     4  10  21  36  55  78 105 142 186 228 274 331
#     4  10  20  31  44  68 104 143 185 234 285 334
#     4  10  20  36  59  85 112 143 181 226 277 332
#     4  10  17  29  49  71 101 139 185 234 280 329
#
# _framework density 20.577106000000001
#
# number of rings (size 3 to 8) (size 9 to 14) (size 15 to 20)
#    0.000    2.143    1.429    4.714    0.000    4.000 
#    0.000    4.286    0.000    0.857    0.000    4.000 
#    0.000    1.143    0.000    0.000    0.000    0.000 
#
# Total GULP energy -694008.128542 kJ/mol
# GULP energy per Si atom -12393.002295 kJ/mol
# Density = 2.053027 g / cm^3
# Si number density = 20.577106 Si / 1000 Ang^3
#
#
#
# Elastic Constant Matrix: (Units=GPa)
#
#
# Indices 1 2 3 4 5 6 
#
# 1 34.3520 11.7735 26.0773 0.0000 0.0000 0.0000
# 2 11.7735 101.3612 59.0968 0.0000 0.0000 0.0000
# 3 26.0773 59.0968 131.9403 0.0000 0.0000 0.0000
# 4 0.0000 0.0000 0.0000 -10.4235 0.0000 0.0000
# 5 0.0000 0.0000 0.0000 0.0000 3.6301 0.0000
# 6 0.0000 0.0000 0.0000 0.0000 0.0000 14.3598
#
#
#
# Elastic Compliance Matrix: (Units=1/GPa)
#
#
# Indices 1 2 3 4 5 6 
#
# 1 0.034249 -0.000043 -0.006750 0.000000 0.000000 0.000000
# 2 -0.000043 0.013353 -0.005972 0.000000 0.000000 0.000000
# 3 -0.006750 -0.005972 0.011588 0.000000 0.000000 0.000000
# 4 0.000000 0.000000 0.000000 -0.095937 0.000000 0.000000
# 5 0.000000 0.000000 0.000000 0.000000 0.275473 0.000000
# 6 0.000000 0.000000 0.000000 0.000000 0.000000 0.069639
#
#
# Mechanical properties :
#
#
# Convention : Reuss Voigt Hill
#
# Bulk Modulus (GPa) = 29.70880 51.28317 40.49599
# Shear Modulus (GPa) = 14.48792 12.89368 13.69080
#
# Velocity S-wave (km/s) = 2.65633 2.50592 2.58222
# Velocity P-wave (km/s) = 4.88643 5.77489 5.34914
#
# Compressibility (1/GPa) = 0.03366006
#
# Stress axis : x y z
#
# Youngs Moduli (GPa) = 29.19789 74.89107 86.29377
#
# Poissons Ratio (x) = 0.00320 0.58248
# Poissons Ratio (y) = 0.00125 0.51537
# Poissons Ratio (z) = 0.19709 0.44727
#
# Static dielectric constant tensor:
#      x y z
#    x 3.304850 0.000000 0.000000 
#    y 0.000000 3.689220 0.000000 
#    z 0.000000 0.000000 3.872820 
# 
# 
# High freq. dielectric constant tensor:
#      x y z
#    x 1.767790 0.000000 0.000000 
#    y 0.000000 1.784800 0.000000 
#    z 0.000000 0.000000 1.807040 
# 
# From -- ./inp_files/29701.got.cif
#   From: 2010.03.12/outbox.cif.g09.slc.cpg/sg47_15_cif.got.tgz:29701.got - 2010.04.14 03:12:58.
