data_PCOD8193136
_publ_section_title
;
Structure prediction by ZEFSAII (Michael W. Deem and Ramdas Pophale) SiO2 
 PCOD8193136
Probable space group: I M A 2
;
_chemical_formula_sum "Si O2"
_cell_formula_units_Z 64
_cell_length_a 18.822349
_cell_length_b 11.680421
_cell_length_c 14.871906
_cell_angle_alpha 90.000000
_cell_angle_beta 90.000000
_cell_angle_gamma 90.000000
_cell_volume 3269.632563
_symmetry_space_group_name_H-M "I M A 2"
_symmetry_group_IT_number 46
_symmetry_cell_setting 'orthorhombic'
loop_
_space_group_symop_operation_xyz
x,y,z
-x,-y,z
1/2-x,y,z
1/2+x,-y,z
1/2+x,1/2+y,1/2+z
1/2-x,1/2-y,1/2+z
-x,1/2+y,1/2+z
x,1/2-y,1/2+z
loop_
_atom_site_type_symbol
_atom_site_label
_atom_site_fract_x
_atom_site_fract_y
_atom_site_fract_z
Si Si1 0.167306 0.779956 0.793470
Si Si2 0.831730 0.042774 0.215478
Si Si3 0.416822 0.315765 0.393558
Si Si4 0.080935 0.006616 0.745868
Si Si5 0.581510 0.501457 0.544429
Si Si6 0.666006 0.582884 0.895135
Si Si7 0.424024 0.964612 0.539843
Si Si8 0.426049 0.766103 0.953805
O O1 0.250000 0.809349 0.806660
O O2 0.157288 0.680603 0.718761
O O3 0.125390 0.894563 0.769670
O O4 0.134859 0.727430 0.884427
O O5 0.750000 0.012668 0.200821
O O6 0.873377 0.985826 0.134052
O O7 0.859685 0.983560 0.306332
O O8 0.394007 0.381858 0.301364
O O9 0.399635 0.393795 0.479640
O O10 0.365743 0.208634 0.396246
O O11 0.499095 0.276479 0.400489
O O12 0.085416 0.019224 0.638694
O O13 0.000000 0.000000 0.779268
O O14 0.500000 0.500000 0.574032
O O15 0.599932 0.385797 0.492853
O O16 0.750000 0.590700 0.901301
O O17 0.639579 0.514104 0.981669
O O18 0.425468 0.826072 0.535141
O O19 0.500000 0.000000 0.498980
#
# Coordination Sequence:
#
# PCOD8193136 Si02
#       8
#     8   8   8   8   8   8   8   8
#     4  11  22  38  65  94 121 161 208 260 320 369
#     4  10  23  42  61  89 125 160 206 259 314 367
#     4  11  22  41  64  90 128 168 206 252 308 378
#     4  11  22  41  65  95 127 163 204 261 316 378
#     4  10  22  39  64  94 121 159 207 257 308 371
#     4  11  25  43  62  89 126 170 212 258 310 375
#     4  11  23  39  67  96 123 164 214 258 317 376
#     4  11  20  40  65  93 125 160 208 259 310 371
#
# _framework density 19.574065000000001
#
# number of rings (size 3 to 8) (size 9 to 14) (size 15 to 20)
#    0.000    1.250    5.000    1.125    0.000    4.500 
#    2.250    1.250    0.000    0.000    0.000    0.000 
#    0.000    0.000    0.000    0.000    0.000    0.000 
#
# Total GULP energy -396757.462091 kJ/mol
# GULP energy per Si atom -12398.670690 kJ/mol
# Density = 1.952951 g / cm^3
# Si number density = 19.574065 Si / 1000 Ang^3
#
#
#
# Elastic Constant Matrix: (Units=GPa)
#
#
# Indices 1 2 3 4 5 6 
#
# 1 94.4553 52.7281 56.2537 0.0000 0.0000 0.0000
# 2 52.7281 124.4103 42.3003 0.0000 0.0000 0.0000
# 3 56.2537 42.3003 108.5422 0.0000 0.0000 0.0000
# 4 0.0000 0.0000 0.0000 18.5755 0.0000 0.0000
# 5 0.0000 0.0000 0.0000 0.0000 22.6864 0.0000
# 6 0.0000 0.0000 0.0000 0.0000 0.0000 32.8479
#
#
#
# Elastic Compliance Matrix: (Units=1/GPa)
#
#
# Indices 1 2 3 4 5 6 
#
# 1 0.017697 -0.005051 -0.007203 0.000000 0.000000 0.000000
# 2 -0.005051 0.010707 -0.001555 0.000000 0.000000 0.000000
# 3 -0.007203 -0.001555 0.013552 0.000000 0.000000 0.000000
# 4 0.000000 0.000000 0.000000 0.053834 0.000000 0.000000
# 5 0.000000 0.000000 0.000000 0.000000 0.044079 0.000000
# 6 0.000000 0.000000 0.000000 0.000000 0.000000 0.030443
#
#
# Mechanical properties :
#
#
# Convention : Reuss Voigt Hill
#
# Bulk Modulus (GPa) = 69.74592 69.99687 69.87139
# Shear Modulus (GPa) = 24.66571 26.56369 25.61470
#
# Velocity S-wave (km/s) = 3.55367 3.68786 3.62139
# Velocity P-wave (km/s) = 7.24895 7.34652 7.29790
#
# Compressibility (1/GPa) = 0.01433776
#
# Stress axis : x y z
#
# Youngs Moduli (GPa) = 56.50816 93.39318 73.78936
#
# Poissons Ratio (x) = 0.47174 0.53151
# Poissons Ratio (y) = 0.28543 0.11474
# Poissons Ratio (z) = 0.40703 0.14522
#
# Static dielectric constant tensor:
#      x y z
#    x 3.529630 0.000000 0.000000 
#    y 0.000000 3.661990 0.000000 
#    z 0.000000 0.000000 3.621990 
# 
# 
# High freq. dielectric constant tensor:
#      x y z
#    x 1.758480 0.000000 0.000000 
#    y 0.000000 1.773070 0.000000 
#    z 0.000000 0.000000 1.762900 
# 
# From -- ./inp_files/16767.got.cif
#   From: 2010.03.12/outbox.cif.g09.slc.cpg/sg46_9_cif.got.tgz:16767.got - 2010.04.14 02:56:35.
