data_PCOD8193367
_publ_section_title
;
Structure prediction by ZEFSAII (Michael W. Deem and Ramdas Pophale) SiO2 
 PCOD8193367
Probable space group: I M A 2
;
_chemical_formula_sum "Si O2"
_cell_formula_units_Z 40
_cell_length_a 8.702560
_cell_length_b 29.578070
_cell_length_c 7.559711
_cell_angle_alpha 90.000000
_cell_angle_beta 90.000000
_cell_angle_gamma 90.000000
_cell_volume 1945.906872
_symmetry_space_group_name_H-M "I M A 2"
_symmetry_group_IT_number 46
_symmetry_cell_setting 'orthorhombic'
loop_
_space_group_symop_operation_xyz
x,y,z
-x,-y,z
1/2-x,y,z
1/2+x,-y,z
1/2+x,1/2+y,1/2+z
1/2-x,1/2-y,1/2+z
-x,1/2+y,1/2+z
x,1/2-y,1/2+z
loop_
_atom_site_type_symbol
_atom_site_label
_atom_site_fract_x
_atom_site_fract_y
_atom_site_fract_z
Si Si1 0.566801 0.385102 0.390430
Si Si2 0.581395 0.211434 0.856175
Si Si3 0.432081 0.951790 0.202004
Si Si4 0.420721 0.693996 0.948520
Si Si5 0.569065 0.603319 0.007548
O O1 0.750000 0.384143 0.364909
O O2 0.508531 0.333831 0.445022
O O3 0.514126 0.417965 0.546661
O O4 0.493528 0.401460 0.206442
O O5 0.750000 0.220344 0.941284
O O6 0.494695 0.259713 0.878987
O O7 0.596398 0.197984 0.655552
O O8 0.250000 0.954179 0.215622
O O9 0.499149 0.936917 0.390900
O O10 0.500000 0.000000 0.150096
O O11 0.250000 0.686919 0.862974
O O12 0.524093 0.650348 0.909796
O O13 0.750000 0.598660 0.013058
#
# Coordination Sequence:
#
# PCOD8193367 Si02
#       5
#     8   8   8   8   8
#     4   9  20  40  64  88 116 156 204 253 301 354
#     4   8  15  28  52  82 109 145 198 248 289 343
#     4  11  24  42  67  93 119 152 201 254 306 361
#     4   9  17  31  53  81 113 152 203 249 291 347
#     4  11  23  39  59  86 126 165 199 243 299 360
#
# _framework density 20.555969999999999
#
# number of rings (size 3 to 8) (size 9 to 14) (size 15 to 20)
#    0.000    2.400    0.000    3.600    2.800    2.400 
#    0.000    6.000    0.000    0.000    0.000    0.000 
#    0.000    0.000    0.000    0.000    0.000    0.000 
#
# Total GULP energy -247824.642632 kJ/mol
# GULP energy per Si atom -12391.232132 kJ/mol
# Density = 2.050918 g / cm^3
# Si number density = 20.555970 Si / 1000 Ang^3
#
#
#
# Elastic Constant Matrix: (Units=GPa)
#
#
# Indices 1 2 3 4 5 6 
#
# 1 73.9210 26.4147 25.9307 0.0005 -0.0008 -0.0002
# 2 26.4147 105.3702 21.4506 -0.0019 0.0005 0.0030
# 3 25.9307 21.4506 51.3700 0.0103 -0.0044 -0.0041
# 4 0.0005 -0.0019 0.0103 41.0256 -0.0020 -0.0015
# 5 -0.0008 0.0005 -0.0044 -0.0020 17.8020 0.0047
# 6 -0.0002 0.0030 -0.0041 -0.0015 0.0047 23.2635
#
#
#
# Elastic Compliance Matrix: (Units=1/GPa)
#
#
# Indices 1 2 3 4 5 6 
#
# 1 0.017149 -0.002772 -0.007499 0.000002 -0.000001 -0.000001
# 2 -0.002772 0.010820 -0.003119 0.000001 -0.000001 -0.000002
# 3 -0.007499 -0.003119 0.024554 -0.000006 0.000006 0.000005
# 4 0.000002 0.000001 -0.000006 0.024375 0.000003 0.000002
# 5 -0.000001 -0.000001 0.000006 0.000003 0.056174 -0.000011
# 6 -0.000001 -0.000002 0.000005 0.000002 -0.000011 0.042986
#
#
# Mechanical properties :
#
#
# Convention : Reuss Voigt Hill
#
# Bulk Modulus (GPa) = 38.84483 42.02814 40.43649
# Shear Modulus (GPa) = 23.64967 26.87589 25.26278
#
# Velocity S-wave (km/s) = 3.39558 3.61979 3.50948
# Velocity P-wave (km/s) = 5.85760 6.16122 6.01132
#
# Compressibility (1/GPa) = 0.02574345
#
# Stress axis : x y z
#
# Youngs Moduli (GPa) = 58.31173 92.41930 40.72617
#
# Poissons Ratio (x) = 0.25623 0.30540
# Poissons Ratio (y) = 0.16167 0.12701
# Poissons Ratio (z) = 0.43728 0.28823
#
# Static dielectric constant tensor:
#      x y z
#    x 3.410930 0.000000 0.000000 
#    y 0.000000 4.276720 0.000000 
#    z 0.000000 0.000000 3.624660 
# 
# 
# High freq. dielectric constant tensor:
#      x y z
#    x 1.760500 0.000000 0.000000 
#    y 0.000000 1.821110 0.000000 
#    z 0.000000 0.000000 1.802110 
# 
# From -- ./inp_files/3665.got.cif
#   From: 2010.03.12/outbox.cif.g09.slc.cpg/sg46_2_cif.got.tgz:3665.got - 2010.04.14 02:56:35.
