data_PCOD8193033
_publ_section_title
;
Structure prediction by ZEFSAII (Michael W. Deem and Ramdas Pophale) SiO2 
 PCOD8193033
Probable space group: I M A 2
;
_chemical_formula_sum "Si O2"
_cell_formula_units_Z 56
_cell_length_a 15.073275
_cell_length_b 4.954980
_cell_length_c 33.064675
_cell_angle_alpha 90.000000
_cell_angle_beta 90.000000
_cell_angle_gamma 90.000000
_cell_volume 2469.527045
_symmetry_space_group_name_H-M "I M A 2"
_symmetry_group_IT_number 46
_symmetry_cell_setting 'orthorhombic'
loop_
_space_group_symop_operation_xyz
x,y,z
-x,-y,z
1/2-x,y,z
1/2+x,-y,z
1/2+x,1/2+y,1/2+z
1/2-x,1/2-y,1/2+z
-x,1/2+y,1/2+z
x,1/2-y,1/2+z
loop_
_atom_site_type_symbol
_atom_site_label
_atom_site_fract_x
_atom_site_fract_y
_atom_site_fract_z
Si Si1 0.591002 0.872312 0.385630
Si Si2 0.847903 0.155338 0.929248
Si Si3 0.000000 0.000000 0.127288
Si Si4 0.151043 0.421400 0.797608
Si Si5 0.351717 0.366483 0.564120
Si Si6 0.650732 0.410147 0.244294
Si Si7 0.500000 0.500000 0.182674
Si Si8 0.150135 0.621104 0.011366
O O1 0.598697 0.575560 0.405188
O O2 0.591771 0.874420 0.337169
O O3 0.500000 0.000000 0.401521
O O4 0.665041 0.080484 0.401398
O O5 0.750000 0.037654 0.939100
O O6 0.896481 0.255788 0.971072
O O7 0.916811 0.883560 0.102151
O O8 0.026589 0.754670 0.155757
O O9 0.250000 0.521430 0.809653
O O10 0.110861 0.639690 0.765732
O O11 0.156759 0.129391 0.778813
O O12 0.250000 0.285298 0.576717
O O13 0.352787 0.663365 0.546629
O O14 0.390937 0.153311 0.530790
O O15 0.750000 0.353347 0.226493
O O16 0.587315 0.532601 0.210025
O O17 0.250000 0.547837 0.998142
#
# Coordination Sequence:
#
# PCOD8193033 Si02
#       8
#     8   8   4   8   8   8   4   8
#     4  12  25  38  59  95 136 170 216 277 338 383
#     4  11  22  41  64  89 127 175 224 272 326 388
#     4  12  26  42  64 102 125 168 205 248 336 404
#     4  10  21  40  64  89 119 167 221 261 311 380
#     4  10  21  41  65  94 128 161 211 263 311 385
#     4  10  23  41  65  93 123 166 217 262 316 384
#     4  12  26  42  66  92 133 160 207 258 326 400
#     4   9  19  38  66  91 118 168 216 258 314 373
#
# _framework density 22.676406
#
# number of rings (size 3 to 8) (size 9 to 14) (size 15 to 20)
#    0.000    1.429    0.000    5.143    2.000    4.571 
#    5.143    0.000    0.000    0.000    0.000    0.000 
#    0.000    0.000    0.000    0.000    0.000    0.000 
#
# Total GULP energy -347023.254704 kJ/mol
# GULP energy per Si atom -12393.687668 kJ/mol
# Density = 2.262479 g / cm^3
# Si number density = 22.676406 Si / 1000 Ang^3
#
#
#
# Elastic Constant Matrix: (Units=GPa)
#
#
# Indices 1 2 3 4 5 6 
#
# 1 76.4519 17.3611 48.3150 0.0000 0.0000 0.0000
# 2 17.3611 126.7580 38.2666 0.0000 0.0000 0.0000
# 3 48.3150 38.2666 120.4008 0.0000 0.0000 0.0000
# 4 0.0000 0.0000 0.0000 55.0240 0.0000 0.0000
# 5 0.0000 0.0000 0.0000 0.0000 30.6464 0.0000
# 6 0.0000 0.0000 0.0000 0.0000 0.0000 24.3100
#
#
#
# Elastic Compliance Matrix: (Units=1/GPa)
#
#
# Indices 1 2 3 4 5 6 
#
# 1 0.017535 -0.000307 -0.006939 0.000000 0.000000 0.000000
# 2 -0.000307 0.008732 -0.002652 0.000000 0.000000 0.000000
# 3 -0.006939 -0.002652 0.011933 0.000000 0.000000 0.000000
# 4 0.000000 0.000000 0.000000 0.018174 0.000000 0.000000
# 5 0.000000 0.000000 0.000000 0.000000 0.032630 0.000000
# 6 0.000000 0.000000 0.000000 0.000000 0.000000 0.041135
#
#
# Mechanical properties :
#
#
# Convention : Reuss Voigt Hill
#
# Bulk Modulus (GPa) = 54.33623 59.05514 56.69569
# Shear Modulus (GPa) = 32.03697 36.64059 34.33878
#
# Velocity S-wave (km/s) = 3.76279 4.02407 3.89562
# Velocity P-wave (km/s) = 6.54917 6.90579 6.72984
#
# Compressibility (1/GPa) = 0.01840393
#
# Stress axis : x y z
#
# Youngs Moduli (GPa) = 57.02868 114.52533 83.80117
#
# Poissons Ratio (x) = 0.03514 0.58150
# Poissons Ratio (y) = 0.01750 0.22224
# Poissons Ratio (z) = 0.39572 0.30373
#
# Static dielectric constant tensor:
#      x y z
#    x 4.035910 0.000000 0.000000 
#    y 0.000000 4.076740 0.000000 
#    z 0.000000 0.000000 3.991070 
# 
# 
# High freq. dielectric constant tensor:
#      x y z
#    x 1.879570 0.000000 0.000000 
#    y 0.000000 1.911690 0.000000 
#    z 0.000000 0.000000 1.889360 
# 
# From -- ./inp_files/25456.got.cif
#   From: 2010.03.12/outbox.cif.g09.slc.cpg/sg46_13_cif.got.tgz:25456.got - 2010.04.14 02:56:35.
