data_PCOD8193029
_publ_section_title
;
Structure prediction by ZEFSAII (Michael W. Deem and Ramdas Pophale) SiO2 
 PCOD8193029
Probable space group: I M A 2
;
_chemical_formula_sum "Si O2"
_cell_formula_units_Z 36
_cell_length_a 17.956079
_cell_length_b 17.202506
_cell_length_c 5.014842
_cell_angle_alpha 90.000000
_cell_angle_beta 90.000000
_cell_angle_gamma 90.000000
_cell_volume 1549.032322
_symmetry_space_group_name_H-M "I M A 2"
_symmetry_group_IT_number 46
_symmetry_cell_setting 'orthorhombic'
loop_
_space_group_symop_operation_xyz
x,y,z
-x,-y,z
1/2-x,y,z
1/2+x,-y,z
1/2+x,1/2+y,1/2+z
1/2-x,1/2-y,1/2+z
-x,1/2+y,1/2+z
x,1/2-y,1/2+z
loop_
_atom_site_type_symbol
_atom_site_label
_atom_site_fract_x
_atom_site_fract_y
_atom_site_fract_z
Si Si1 0.577589 0.464324 0.389830
Si Si2 0.750000 0.203113 0.926137
Si Si3 0.338788 0.474755 0.903286
Si Si4 0.909693 0.301385 0.539628
Si Si5 0.838313 0.796343 0.480296
O O1 0.500000 0.500000 0.301651
O O2 0.619462 0.507252 0.629588
O O3 0.545966 0.378841 0.473395
O O4 0.632384 0.467090 0.133640
O O5 0.750000 0.217718 0.608541
O O6 0.674166 0.161181 0.012793
O O7 0.250000 0.484349 0.866906
O O8 0.360971 0.386547 0.982840
O O9 0.924500 0.269089 0.834296
O O10 0.750000 0.788982 0.476676
O O11 0.872638 0.750968 0.732048
#
# Coordination Sequence:
#
# PCOD8193029 Si02
#       5
#     8   4   8   8   8
#     4  12  26  45  66  95 141 176 213 273 346 402
#     4   8  16  30  54  86 116 148 198 262 316 354
#     4  11  24  42  68  98 128 173 227 272 332 398
#     4  10  21  40  63  92 128 170 219 272 325 397
#     4   9  17  33  58  89 126 160 206 270 318 367
#
# _framework density 23.240314999999999
#
# number of rings (size 3 to 8) (size 9 to 14) (size 15 to 20)
#    0.000    1.778    0.000    4.000    3.111    3.556 
#    4.000    6.667    0.000    0.000    0.000    0.000 
#    0.000    0.000    0.000    0.000    0.000    0.000 
#
# Total GULP energy -223069.505114 kJ/mol
# GULP energy per Si atom -12392.750284 kJ/mol
# Density = 2.318742 g / cm^3
# Si number density = 23.240315 Si / 1000 Ang^3
#
#
#
# Elastic Constant Matrix: (Units=GPa)
#
#
# Indices 1 2 3 4 5 6 
#
# 1 56.2790 7.1007 10.5431 0.0000 0.0000 0.0000
# 2 7.1007 70.3787 -8.0638 0.0000 0.0000 0.0000
# 3 10.5431 -8.0638 117.5119 0.0000 0.0000 0.0000
# 4 0.0000 0.0000 0.0000 39.7429 0.0000 0.0000
# 5 0.0000 0.0000 0.0000 0.0000 17.5451 0.0000
# 6 0.0000 0.0000 0.0000 0.0000 0.0000 25.6133
#
#
#
# Elastic Compliance Matrix: (Units=1/GPa)
#
#
# Indices 1 2 3 4 5 6 
#
# 1 0.018363 -0.002058 -0.001789 0.000000 0.000000 0.000000
# 2 -0.002058 0.014552 0.001183 0.000000 0.000000 0.000000
# 3 -0.001789 0.001183 0.008751 0.000000 0.000000 0.000000
# 4 0.000000 0.000000 0.000000 0.025162 0.000000 0.000000
# 5 0.000000 0.000000 0.000000 0.000000 0.056996 0.000000
# 6 0.000000 0.000000 0.000000 0.000000 0.000000 0.039042
#
#
# Mechanical properties :
#
#
# Convention : Reuss Voigt Hill
#
# Bulk Modulus (GPa) = 27.51762 29.25883 28.38823
# Shear Modulus (GPa) = 27.73050 32.21955 29.97502
#
# Velocity S-wave (km/s) = 3.45803 3.72743 3.59525
# Velocity P-wave (km/s) = 5.27353 5.58050 5.42919
#
# Compressibility (1/GPa) = 0.03634035
#
# Stress axis : x y z
#
# Youngs Moduli (GPa) = 54.45632 68.71894 114.26673
#
# Poissons Ratio (x) = 0.14140 0.20439
# Poissons Ratio (y) = 0.11205 -0.13520
# Poissons Ratio (z) = 0.09741 -0.08131
#
# Static dielectric constant tensor:
#      x y z
#    x 4.022200 0.000000 0.000000 
#    y 0.000000 4.140740 0.000000 
#    z 0.000000 0.000000 4.301530 
# 
# 
# High freq. dielectric constant tensor:
#      x y z
#    x 1.899590 0.000000 0.000000 
#    y 0.000000 1.917760 0.000000 
#    z 0.000000 0.000000 1.931590 
# 
# From -- ./inp_files/1957.got.cif
#   From: 2010.03.12/outbox.cif.g09.slc.cpg/sg46_1_cif.got.tgz:1957.got - 2010.04.14 02:56:35.
