data_PCOD8193966
_publ_section_title
;
Structure prediction by ZEFSAII (Michael W. Deem and Ramdas Pophale) SiO2 
 PCOD8193966
Probable space group: P M M M
;
_chemical_formula_sum "Si O2"
_cell_formula_units_Z 48
_cell_length_a 8.676784
_cell_length_b 15.618029
_cell_length_c 19.590778
_cell_angle_alpha 90.000000
_cell_angle_beta 90.000000
_cell_angle_gamma 90.000000
_cell_volume 2654.829865
_symmetry_space_group_name_H-M "P M M M"
_symmetry_group_IT_number 47
_symmetry_cell_setting 'orthorhombic'
loop_
_space_group_symop_operation_xyz
x,y,z
-x,-y,z
x,-y,-z
-x,y,-z
-x,-y,-z
x,y,-z
-x,y,z
x,-y,z
loop_
_atom_site_type_symbol
_atom_site_label
_atom_site_fract_x
_atom_site_fract_y
_atom_site_fract_z
Si Si1 0.318333 0.264227 0.819632
Si Si2 0.322493 0.401771 0.578863
Si Si3 0.321518 0.907612 0.325116
Si Si4 0.819980 0.739539 0.669834
Si Si5 0.683170 0.404499 0.923964
Si Si6 0.179787 0.906950 0.821779
O O1 0.500000 0.272080 0.811424
O O2 0.242556 0.275968 0.745852
O O3 0.250226 0.337310 0.869326
O O4 0.275004 0.172172 0.853835
O O5 0.285765 0.383880 0.500000
O O6 0.500000 0.380981 0.595070
O O7 0.285618 0.500000 0.597090
O O8 0.214134 0.342833 0.624358
O O9 0.500000 0.893968 0.305681
O O10 0.260224 0.823881 0.365560
O O11 0.218938 0.910539 0.257759
O O12 0.300985 0.000000 0.363938
O O13 0.000000 0.755586 0.672859
O O14 0.500000 0.400132 0.924110
O O15 0.737982 0.500000 0.903264
O O16 0.744282 0.381951 0.000000
O O17 0.000000 0.888437 0.831152
O O18 0.223239 0.000000 0.854749
#
# Coordination Sequence:
#
# PCOD8193966 Si02
#       6
#     8   8   8   8   8   8
#     4  10  18  28  47  73  97 123 158 199 239 278
#     4   9  19  37  58  75  93 123 163 203 241 283
#     4   9  16  27  45  68  94 125 162 201 237 276
#     4  11  21  31  47  73 105 134 158 192 238 286
#     4   8  15  29  48  69  92 119 154 196 241 286
#     4   9  16  26  41  62  91 125 156 189 234 284
#
# _framework density 18.080254
#
# number of rings (size 3 to 8) (size 9 to 14) (size 15 to 20)
#    0.000    2.667    0.000    6.000    0.000    3.333 
#    0.000    2.500    0.000    4.500    0.000   11.667 
#    0.000    0.000    0.000    0.000    0.000    0.000 
#
# Total GULP energy -594713.442116 kJ/mol
# GULP energy per Si atom -12389.863377 kJ/mol
# Density = 1.803910 g / cm^3
# Si number density = 18.080254 Si / 1000 Ang^3
#
#
#
# Elastic Constant Matrix: (Units=GPa)
#
#
# Indices 1 2 3 4 5 6 
#
# 1 66.7470 44.5533 26.9305 0.0000 0.0000 0.0000
# 2 44.5533 163.4636 62.6434 0.0000 0.0000 0.0000
# 3 26.9305 62.6434 55.2635 0.0000 0.0000 0.0000
# 4 0.0000 0.0000 0.0000 3.8834 0.0000 0.0000
# 5 0.0000 0.0000 0.0000 0.0000 1.1921 0.0000
# 6 0.0000 0.0000 0.0000 0.0000 0.0000 22.0777
#
#
#
# Elastic Compliance Matrix: (Units=1/GPa)
#
#
# Indices 1 2 3 4 5 6 
#
# 1 0.019419 -0.002946 -0.006124 0.000000 0.000000 0.000000
# 2 -0.002946 0.011263 -0.011331 0.000000 0.000000 0.000000
# 3 -0.006124 -0.011331 0.033924 0.000000 0.000000 0.000000
# 4 0.000000 0.000000 0.000000 0.257507 0.000000 0.000000
# 5 0.000000 0.000000 0.000000 0.000000 0.838858 0.000000
# 6 0.000000 0.000000 0.000000 0.000000 0.000000 0.045294
#
#
# Mechanical properties :
#
#
# Convention : Reuss Voigt Hill
#
# Bulk Modulus (GPa) = 42.01023 61.52541 51.76782
# Shear Modulus (GPa) = 3.98406 15.52045 9.75225
#
# Velocity S-wave (km/s) = 1.48604 2.93306 2.32499
# Velocity P-wave (km/s) = 5.12155 6.75081 5.99181
#
# Compressibility (1/GPa) = 0.02380373
#
# Stress axis : x y z
#
# Youngs Moduli (GPa) = 51.49556 88.78581 29.47779
#
# Poissons Ratio (x) = 0.26157 0.18051
# Poissons Ratio (y) = 0.15171 0.33403
# Poissons Ratio (z) = 0.31534 1.00607
#
# Static dielectric constant tensor:
#      x y z
#    x 3.176930 0.000000 0.000000 
#    y 0.000000 4.176330 0.000000 
#    z 0.000000 0.000000 2.988440 
# 
# 
# High freq. dielectric constant tensor:
#      x y z
#    x 1.692790 0.000000 0.000000 
#    y 0.000000 1.727770 0.000000 
#    z 0.000000 0.000000 1.643640 
# 
# From -- ./inp_files/29460.got.cif
#   From: 2010.03.12/outbox.cif.g09.slc.cpg/sg47_15_cif.got.tgz:29460.got - 2010.04.14 03:12:58.
