data_PCOD8193880
_publ_section_title
;
Structure prediction by ZEFSAII (Michael W. Deem and Ramdas Pophale) SiO2 
 PCOD8193880
Probable space group: P M M M
;
_chemical_formula_sum "Si O2"
_cell_formula_units_Z 52
_cell_length_a 27.996891
_cell_length_b 9.230137
_cell_length_c 12.638503
_cell_angle_alpha 90.000000
_cell_angle_beta 90.000000
_cell_angle_gamma 90.000000
_cell_volume 3265.980516
_symmetry_space_group_name_H-M "P M M M"
_symmetry_group_IT_number 47
_symmetry_cell_setting 'orthorhombic'
loop_
_space_group_symop_operation_xyz
x,y,z
-x,-y,z
x,-y,-z
-x,y,-z
-x,-y,-z
x,y,-z
-x,y,z
x,-y,z
loop_
_atom_site_type_symbol
_atom_site_label
_atom_site_fract_x
_atom_site_fract_y
_atom_site_fract_z
Si Si1 0.324825 0.330892 0.793667
Si Si2 0.318886 0.171640 0.000000
Si Si3 0.500000 0.658142 0.625402
Si Si4 0.856082 0.830106 0.377782
Si Si5 0.052359 0.662867 0.625599
Si Si6 0.786672 0.336444 0.230186
Si Si7 0.777004 0.664709 0.000000
Si Si8 0.397564 0.326758 0.382050
O O1 0.333584 0.500000 0.815796
O O2 0.342570 0.240473 0.895316
O O3 0.269481 0.300803 0.767877
O O4 0.356014 0.272865 0.695604
O O5 0.263427 0.214110 0.000000
O O6 0.325411 0.000000 0.000000
O O7 0.500000 0.500000 0.679736
O O8 0.500000 0.639574 0.500000
O O9 0.449698 0.736444 0.656345
O O10 0.848096 0.785418 0.500000
O O11 0.905645 0.765717 0.331759
O O12 0.812194 0.771963 0.309694
O O13 0.858904 0.000000 0.363929
O O14 0.051858 0.667194 0.500000
O O15 0.062526 0.500000 0.665581
O O16 0.000000 0.714705 0.667130
O O17 0.796242 0.500000 0.269359
O O18 0.806808 0.316354 0.109172
O O19 0.754518 0.500000 0.000000
O O20 0.385112 0.270051 0.500000
O O21 0.400734 0.500000 0.383243
#
# Coordination Sequence:
#
# PCOD8193880 Si02
#       8
#     8   4   4   8   8   8   4   8
#     4   9  17  29  45  64  86 112 143 178 213 253
#     4  10  18  28  44  63  83 109 142 178 216 255
#     4   7  10  18  34  59  89 112 132 169 218 259
#     4  10  20  30  40  60  92 124 148 172 207 252
#     4   8  14  26  44  63  82 108 145 184 216 249
#     4   9  17  29  45  63  84 111 143 179 215 253
#     4   8  16  32  50  66  82 104 142 188 225 254
#     4   8  13  22  39  64  90 113 138 172 217 263
#
# _framework density 15.921711999999999
#
# number of rings (size 3 to 8) (size 9 to 14) (size 15 to 20)
#    0.000    3.308    0.000    3.462    0.000    4.308 
#    0.000    3.077    0.000    0.923    0.000    4.308 
#    0.000    6.154    0.000    0.000    0.000    0.000 
#
# Total GULP energy -644190.407965 kJ/mol
# GULP energy per Si atom -12388.277076 kJ/mol
# Density = 1.588547 g / cm^3
# Si number density = 15.921712 Si / 1000 Ang^3
#
#
#
# Elastic Constant Matrix: (Units=GPa)
#
#
# Indices 1 2 3 4 5 6 
#
# 1 93.4010 39.0170 58.6681 0.0000 0.0000 0.0000
# 2 39.0170 58.1651 42.1443 0.0000 0.0000 0.0000
# 3 58.6681 42.1443 92.6937 0.0000 0.0000 0.0000
# 4 0.0000 0.0000 0.0000 17.0586 0.0000 0.0000
# 5 0.0000 0.0000 0.0000 0.0000 2.6184 0.0000
# 6 0.0000 0.0000 0.0000 0.0000 0.0000 7.7017
#
#
#
# Elastic Compliance Matrix: (Units=1/GPa)
#
#
# Indices 1 2 3 4 5 6 
#
# 1 0.019098 -0.006043 -0.009340 0.000000 0.000000 0.000000
# 2 -0.006043 0.027551 -0.008701 0.000000 0.000000 0.000000
# 3 -0.009340 -0.008701 0.020656 0.000000 0.000000 0.000000
# 4 0.000000 0.000000 0.000000 0.058622 0.000000 0.000000
# 5 0.000000 0.000000 0.000000 0.000000 0.381920 0.000000
# 6 0.000000 0.000000 0.000000 0.000000 0.000000 0.129842
#
#
# Mechanical properties :
#
#
# Convention : Reuss Voigt Hill
#
# Bulk Modulus (GPa) = 52.25902 58.21318 55.23610
# Shear Modulus (GPa) = 7.22299 12.43775 9.83037
#
# Velocity S-wave (km/s) = 2.13223 2.79800 2.48749
# Velocity P-wave (km/s) = 6.24144 6.86148 6.55879
#
# Compressibility (1/GPa) = 0.01913545
#
# Stress axis : x y z
#
# Youngs Moduli (GPa) = 52.36266 36.29621 48.41292
#
# Poissons Ratio (x) = 0.21936 0.45216
# Poissons Ratio (y) = 0.31645 0.42126
# Poissons Ratio (z) = 0.48904 0.31583
#
# Static dielectric constant tensor:
#      x y z
#    x 3.196220 0.000000 0.000000 
#    y 0.000000 2.756380 0.000000 
#    z 0.000000 0.000000 3.034670 
# 
# 
# High freq. dielectric constant tensor:
#      x y z
#    x 1.601050 0.000000 0.000000 
#    y 0.000000 1.584570 0.000000 
#    z 0.000000 0.000000 1.590240 
# 
# From -- ./inp_files/20078.got.cif
#   From: 2010.03.12/outbox.cif.g09.slc.cpg/sg47_11_cif.got.tgz:20078.got - 2010.04.14 03:12:58.
