data_PCOD8193899
_publ_section_title
;
Structure prediction by ZEFSAII (Michael W. Deem and Ramdas Pophale) SiO2 
 PCOD8193899
Probable space group: P M M M
;
_chemical_formula_sum "Si O2"
_cell_formula_units_Z 52
_cell_length_a 27.845868
_cell_length_b 13.839276
_cell_length_c 8.038308
_cell_angle_alpha 90.000000
_cell_angle_beta 90.000000
_cell_angle_gamma 90.000000
_cell_volume 3097.695847
_symmetry_space_group_name_H-M "P M M M"
_symmetry_group_IT_number 47
_symmetry_cell_setting 'orthorhombic'
loop_
_space_group_symop_operation_xyz
x,y,z
-x,-y,z
x,-y,-z
-x,y,-z
-x,-y,-z
x,y,-z
-x,y,z
x,-y,z
loop_
_atom_site_type_symbol
_atom_site_label
_atom_site_fract_x
_atom_site_fract_y
_atom_site_fract_z
Si Si1 0.053675 0.108881 0.803594
Si Si2 0.853678 0.794040 0.309286
Si Si3 0.709729 0.708101 0.807928
Si Si4 0.446426 0.385536 0.000000
Si Si5 0.616397 0.387699 0.687605
Si Si6 0.800979 0.607250 0.305968
Si Si7 0.763049 0.105502 0.807611
O O1 0.090804 0.183775 0.724424
O O2 0.000000 0.138463 0.746297
O O3 0.065025 0.000000 0.742242
O O4 0.057811 0.113939 0.000000
O O5 0.841198 0.810632 0.500000
O O6 0.843091 0.682813 0.257806
O O7 0.818981 0.866294 0.209865
O O8 0.664838 0.674045 0.699765
O O9 0.752705 0.631277 0.794403
O O10 0.728350 0.811200 0.732990
O O11 0.694103 0.715792 0.000000
O O12 0.420352 0.350631 0.170075
O O13 0.449249 0.500000 0.000000
O O14 0.500000 0.341002 0.000000
O O15 0.595180 0.373137 0.500000
O O16 0.628751 0.500000 0.718717
O O17 0.788337 0.613461 0.500000
O O18 0.818617 0.500000 0.256066
O O19 0.753622 0.000000 0.724059
O O20 0.751229 0.097986 0.000000
#
# Coordination Sequence:
#
# PCOD8193899 Si02
#       7
#     8   8   8   4   8   8   8
#     4   9  18  32  48  64  83 109 139 171 213 268
#     4  10  19  29  44  66  88 111 142 181 223 264
#     4  10  18  28  44  66  92 121 156 195 228 265
#     4   9  18  32  48  68  95 127 165 203 235 276
#     4  10  19  30  46  68  96 129 160 195 239 280
#     4   9  18  31  44  60  86 119 151 182 218 264
#     4   9  18  31  45  62  89 125 156 181 218 272
#
# _framework density 16.786670999999998
#
# number of rings (size 3 to 8) (size 9 to 14) (size 15 to 20)
#    0.000    2.538    0.769    2.308    0.000    6.462 
#    0.000    2.308    0.000    0.462    0.000    3.231 
#    0.000    1.231    0.000    1.385    0.000    0.154 
#
# Total GULP energy -644555.580128 kJ/mol
# GULP energy per Si atom -12395.299618 kJ/mol
# Density = 1.674846 g / cm^3
# Si number density = 16.786671 Si / 1000 Ang^3
#
#
#
# Elastic Constant Matrix: (Units=GPa)
#
#
# Indices 1 2 3 4 5 6 
#
# 1 111.2869 52.0910 32.1570 0.0000 0.0000 0.0000
# 2 52.0910 109.1818 25.5828 0.0000 0.0000 0.0000
# 3 32.1570 25.5828 60.1101 0.0000 0.0000 0.0000
# 4 0.0000 0.0000 0.0000 17.3515 0.0000 0.0000
# 5 0.0000 0.0000 0.0000 0.0000 18.6885 0.0000
# 6 0.0000 0.0000 0.0000 0.0000 0.0000 18.8948
#
#
#
# Elastic Compliance Matrix: (Units=1/GPa)
#
#
# Indices 1 2 3 4 5 6 
#
# 1 0.012646 -0.004941 -0.004662 0.000000 0.000000 0.000000
# 2 -0.004941 0.012104 -0.002508 0.000000 0.000000 0.000000
# 3 -0.004662 -0.002508 0.020198 0.000000 0.000000 0.000000
# 4 0.000000 0.000000 0.000000 0.057632 0.000000 0.000000
# 5 0.000000 0.000000 0.000000 0.000000 0.053509 0.000000
# 6 0.000000 0.000000 0.000000 0.000000 0.000000 0.052925
#
#
# Mechanical properties :
#
#
# Convention : Reuss Voigt Hill
#
# Bulk Modulus (GPa) = 48.25129 55.58226 51.91678
# Shear Modulus (GPa) = 20.82084 22.37014 21.59549
#
# Velocity S-wave (km/s) = 3.52564 3.65446 3.59063
# Velocity P-wave (km/s) = 6.73645 7.14070 6.94152
#
# Compressibility (1/GPa) = 0.02072484
#
# Stress axis : x y z
#
# Youngs Moduli (GPa) = 79.07845 82.61681 49.51035
#
# Poissons Ratio (x) = 0.40820 0.23083
# Poissons Ratio (y) = 0.39072 0.12419
# Poissons Ratio (z) = 0.36868 0.20723
#
# Static dielectric constant tensor:
#      x y z
#    x 3.128700 0.000000 0.000000 
#    y 0.000000 3.352760 0.000000 
#    z 0.000000 0.000000 3.144210 
# 
# 
# High freq. dielectric constant tensor:
#      x y z
#    x 1.622520 0.000000 0.000000 
#    y 0.000000 1.627510 0.000000 
#    z 0.000000 0.000000 1.650890 
# 
# From -- ./inp_files/12557.got.cif
#   From: 2010.03.12/outbox.cif.g09.slc.cpg/sg47_7_cif.got.tgz:12557.got - 2010.04.14 03:12:58.
