data_PCOD8193322
_publ_section_title
;
Structure prediction by ZEFSAII (Michael W. Deem and Ramdas Pophale) SiO2 
 PCOD8193322
Probable space group: I M A 2
;
_chemical_formula_sum "Si O2"
_cell_formula_units_Z 64
_cell_length_a 19.393401
_cell_length_b 17.280006
_cell_length_c 9.669903
_cell_angle_alpha 90.000000
_cell_angle_beta 90.000000
_cell_angle_gamma 90.000000
_cell_volume 3240.559382
_symmetry_space_group_name_H-M "I M A 2"
_symmetry_group_IT_number 46
_symmetry_cell_setting 'orthorhombic'
loop_
_space_group_symop_operation_xyz
x,y,z
-x,-y,z
1/2-x,y,z
1/2+x,-y,z
1/2+x,1/2+y,1/2+z
1/2-x,1/2-y,1/2+z
-x,1/2+y,1/2+z
x,1/2-y,1/2+z
loop_
_atom_site_type_symbol
_atom_site_label
_atom_site_fract_x
_atom_site_fract_y
_atom_site_fract_z
Si Si1 0.173352 0.349184 0.698690
Si Si2 0.673492 0.724980 0.982735
Si Si3 0.468426 0.831036 0.025714
Si Si4 0.173492 0.724980 0.482737
Si Si5 0.964922 0.419427 0.259114
Si Si6 0.535078 0.580573 0.759113
Si Si7 0.173352 0.650816 0.198692
Si Si8 0.031574 0.168963 0.525713
O O1 0.250000 0.386207 0.709099
O O2 0.163072 0.311551 0.545868
O O3 0.117607 0.417225 0.727321
O O4 0.165322 0.280629 0.815290
O O5 0.750000 0.695238 0.026322
O O6 0.614012 0.672328 0.049104
O O7 0.385989 0.827671 0.049106
O O8 0.503121 0.850756 0.169594
O O9 0.500000 0.750000 0.971288
O O10 0.483201 0.899372 0.916550
O O11 0.250000 0.695238 0.526324
O O12 0.165322 0.719371 0.315292
O O13 0.163072 0.811551 0.545869
O O14 0.882393 0.417224 0.227322
O O15 0.000000 0.500000 0.218483
O O16 0.996879 0.350756 0.169594
O O17 0.500000 0.500000 0.718481
O O18 0.516800 0.600627 0.916550
O O19 0.250000 0.613792 0.209101
#
# Coordination Sequence:
#
# PCOD8193322 Si02
#       8
#     8   8   8   8   8   8   8   8
#     4   9  18  34  56  81 111 144 182 230 279 331
#     4   9  18  32  54  83 109 138 183 236 276 319
#     4  11  21  36  59  82 110 145 192 232 274 332
#     4   9  18  32  54  83 109 138 183 236 276 319
#     4  11  23  37  55  83 118 150 183 230 284 334
#     4  11  23  37  55  83 118 150 183 230 284 334
#     4   9  18  34  56  81 111 144 182 230 279 331
#     4  11  21  36  59  82 110 145 192 232 274 332
#
# _framework density 19.749677999999999
#
# number of rings (size 3 to 8) (size 9 to 14) (size 15 to 20)
#    0.000    2.000    2.500    1.500    3.500    0.000 
#    0.000    1.250    0.000    6.000    0.000    0.000 
#    0.000    0.000    0.000    0.000    0.000    0.000 
#
# Total GULP energy -396477.207580 kJ/mol
# GULP energy per Si atom -12389.912737 kJ/mol
# Density = 1.970473 g / cm^3
# Si number density = 19.749678 Si / 1000 Ang^3
#
#
#
# Elastic Constant Matrix: (Units=GPa)
#
#
# Indices 1 2 3 4 5 6 
#
# 1 142.2553 48.6048 40.2712 0.0000 0.0000 0.0000
# 2 48.6048 77.3101 22.2782 0.0000 0.0000 0.0000
# 3 40.2712 22.2782 53.3215 0.0000 0.0000 0.0000
# 4 0.0000 0.0000 0.0000 22.8771 0.0000 0.0000
# 5 0.0000 0.0000 0.0000 0.0000 26.2444 0.0000
# 6 0.0000 0.0000 0.0000 0.0000 0.0000 29.6080
#
#
#
# Elastic Compliance Matrix: (Units=1/GPa)
#
#
# Indices 1 2 3 4 5 6 
#
# 1 0.010310 -0.004818 -0.005774 0.000000 0.000000 0.000000
# 2 -0.004818 0.016957 -0.003446 0.000000 0.000000 0.000000
# 3 -0.005774 -0.003446 0.024555 0.000000 0.000000 0.000000
# 4 0.000000 0.000000 0.000000 0.043712 0.000000 0.000000
# 5 0.000000 0.000000 0.000000 0.000000 0.038103 0.000000
# 6 0.000000 0.000000 0.000000 0.000000 0.000000 0.033775
#
#
# Mechanical properties :
#
#
# Convention : Reuss Voigt Hill
#
# Bulk Modulus (GPa) = 42.11194 55.02169 48.56682
# Shear Modulus (GPa) = 24.58170 26.52809 25.55490
#
# Velocity S-wave (km/s) = 3.53181 3.66897 3.60104
# Velocity P-wave (km/s) = 6.16447 6.77263 6.47569
#
# Compressibility (1/GPa) = 0.02374623
#
# Stress axis : x y z
#
# Youngs Moduli (GPa) = 96.98919 58.97217 40.72561
#
# Poissons Ratio (x) = 0.28415 0.23514
# Poissons Ratio (y) = 0.46733 0.14033
# Poissons Ratio (z) = 0.56000 0.20321
#
# Static dielectric constant tensor:
#      x y z
#    x 4.070490 0.000000 0.000000 
#    y 0.000000 2.965460 0.000000 
#    z 0.000000 0.000000 3.650680 
# 
# 
# High freq. dielectric constant tensor:
#      x y z
#    x 1.798360 0.000000 0.000000 
#    y 0.000000 1.705710 0.000000 
#    z 0.000000 0.000000 1.774310 
# 
# From -- ./inp_files/7546.got.cif
#   From: 2010.03.12/outbox.cif.g09.slc.cpg/sg46_4_cif.got.tgz:7546.got - 2010.04.14 02:56:35.
