data_PCOD8193967
_publ_section_title
;
Structure prediction by ZEFSAII (Michael W. Deem and Ramdas Pophale) SiO2 
 PCOD8193967
Probable space group: P M M M
;
_chemical_formula_sum "Si O2"
_cell_formula_units_Z 40
_cell_length_a 9.185942
_cell_length_b 12.328331
_cell_length_c 20.110026
_cell_angle_alpha 90.000000
_cell_angle_beta 90.000000
_cell_angle_gamma 90.000000
_cell_volume 2277.406822
_symmetry_space_group_name_H-M "P M M M"
_symmetry_group_IT_number 47
_symmetry_cell_setting 'orthorhombic'
loop_
_space_group_symop_operation_xyz
x,y,z
-x,-y,z
x,-y,-z
-x,y,-z
-x,-y,-z
x,y,-z
-x,y,z
x,-y,z
loop_
_atom_site_type_symbol
_atom_site_label
_atom_site_fract_x
_atom_site_fract_y
_atom_site_fract_z
Si Si1 0.830810 0.788923 0.258920
Si Si2 0.664648 0.629102 0.500000
Si Si3 0.328255 0.374930 0.000000
Si Si4 0.165651 0.236426 0.894654
Si Si5 0.169291 0.376071 0.371441
Si Si6 0.165280 0.000000 0.118519
Si Si7 0.328303 0.000000 0.747482
O O1 0.791403 0.758714 0.182973
O O2 0.788026 0.687928 0.304912
O O3 0.000000 0.818572 0.264691
O O4 0.739142 0.891823 0.285236
O O5 0.674247 0.500000 0.500000
O O6 0.500000 0.671707 0.500000
O O7 0.743831 0.673460 0.434016
O O8 0.268797 0.317467 0.065980
O O9 0.278845 0.500000 0.000000
O O10 0.500000 0.363692 0.000000
O O11 0.185160 0.112126 0.922506
O O12 0.000000 0.274776 0.905765
O O13 0.213876 0.500000 0.357918
O O14 0.000000 0.365280 0.388564
O O15 0.285683 0.000000 0.175394
O O16 0.000000 0.000000 0.149382
O O17 0.500000 0.000000 0.737874
#
# Coordination Sequence:
#
# PCOD8193967 Si02
#       7
#     8   4   4   8   8   4   4
#     4   9  18  33  53  76 101 128 161 204 249 289
#     4   9  17  29  45  68 101 136 165 197 241 291
#     4  11  25  40  49  64  98 139 170 199 242 293
#     4   9  18  34  56  77  96 123 161 204 247 293
#     4   9  17  30  50  75 100 128 164 204 245 290
#     4   8  16  33  55  78 100 119 149 200 255 295
#     4  10  18  28  47  74 103 134 164 194 236 292
#
# _framework density 17.563836999999999
#
# number of rings (size 3 to 8) (size 9 to 14) (size 15 to 20)
#    0.000    2.800    0.000    2.700    0.000    7.200 
#    0.000    4.000    0.000    3.000    0.000    4.200 
#    0.000    0.000    0.000    0.000    0.000    0.000 
#
# Total GULP energy -495823.538894 kJ/mol
# GULP energy per Si atom -12395.588472 kJ/mol
# Density = 1.752386 g / cm^3
# Si number density = 17.563837 Si / 1000 Ang^3
#
#
#
# Elastic Constant Matrix: (Units=GPa)
#
#
# Indices 1 2 3 4 5 6 
#
# 1 82.9629 59.0024 48.7123 0.0000 0.0000 0.0000
# 2 59.0024 123.7680 65.5345 0.0000 0.0000 0.0000
# 3 48.7123 65.5345 104.4517 0.0000 0.0000 0.0000
# 4 0.0000 0.0000 0.0000 2.0350 0.0000 0.0000
# 5 0.0000 0.0000 0.0000 0.0000 18.3295 0.0000
# 6 0.0000 0.0000 0.0000 0.0000 0.0000 24.2836
#
#
#
# Elastic Compliance Matrix: (Units=1/GPa)
#
#
# Indices 1 2 3 4 5 6 
#
# 1 0.019818 -0.006819 -0.004964 0.000000 0.000000 0.000000
# 2 -0.006819 0.014446 -0.005883 0.000000 0.000000 0.000000
# 3 -0.004964 -0.005883 0.015580 0.000000 0.000000 0.000000
# 4 0.000000 0.000000 0.000000 0.491391 0.000000 0.000000
# 5 0.000000 0.000000 0.000000 0.000000 0.054557 0.000000
# 6 0.000000 0.000000 0.000000 0.000000 0.000000 0.041180
#
#
# Mechanical properties :
#
#
# Convention : Reuss Voigt Hill
#
# Bulk Modulus (GPa) = 68.91326 73.07567 70.99447
# Shear Modulus (GPa) = 7.38399 18.12520 12.75460
#
# Velocity S-wave (km/s) = 2.05261 3.21590 2.69771
# Velocity P-wave (km/s) = 6.70363 7.44885 7.08605
#
# Compressibility (1/GPa) = 0.01451100
#
# Stress axis : x y z
#
# Youngs Moduli (GPa) = 50.45949 69.22548 64.18519
#
# Poissons Ratio (x) = 0.47206 0.31861
# Poissons Ratio (y) = 0.34409 0.37761
# Poissons Ratio (z) = 0.25047 0.40726
#
# Static dielectric constant tensor:
#      x y z
#    x 3.163590 0.000000 0.000000 
#    y 0.000000 3.388160 0.000000 
#    z 0.000000 0.000000 3.133550 
# 
# 
# High freq. dielectric constant tensor:
#      x y z
#    x 1.672660 0.000000 0.000000 
#    y 0.000000 1.671900 0.000000 
#    z 0.000000 0.000000 1.661560 
# 
# From -- ./inp_files/4147.got.cif
#   From: 2010.03.12/outbox.cif.g09.slc.cpg/sg47_3_cif.got.tgz:4147.got - 2010.04.14 03:12:58.
