data_PCOD8193116
_publ_section_title
;
Structure prediction by ZEFSAII (Michael W. Deem and Ramdas Pophale) SiO2 
 PCOD8193116
Probable space group: I M A 2
;
_chemical_formula_sum "Si O2"
_cell_formula_units_Z 60
_cell_length_a 14.595802
_cell_length_b 9.788945
_cell_length_c 21.123982
_cell_angle_alpha 90.000000
_cell_angle_beta 90.000000
_cell_angle_gamma 90.000000
_cell_volume 3018.141802
_symmetry_space_group_name_H-M "I M A 2"
_symmetry_group_IT_number 46
_symmetry_cell_setting 'orthorhombic'
loop_
_space_group_symop_operation_xyz
x,y,z
-x,-y,z
1/2-x,y,z
1/2+x,-y,z
1/2+x,1/2+y,1/2+z
1/2-x,1/2-y,1/2+z
-x,1/2+y,1/2+z
x,1/2-y,1/2+z
loop_
_atom_site_type_symbol
_atom_site_label
_atom_site_fract_x
_atom_site_fract_y
_atom_site_fract_z
Si Si1 0.142703 0.042430 0.756360
Si Si2 0.353009 0.237991 0.356168
Si Si3 0.893087 0.010838 0.277410
Si Si4 0.500000 0.500000 0.150120
Si Si5 0.353720 0.789535 0.840053
Si Si6 0.989187 0.208686 0.089637
Si Si7 0.145700 0.481489 0.637093
Si Si8 0.504406 0.338442 0.443237
O O1 0.250000 0.038675 0.740036
O O2 0.113556 0.177727 0.794685
O O3 0.088652 0.036835 0.691160
O O4 0.111232 0.917676 0.800050
O O5 0.250000 0.278450 0.374218
O O6 0.410904 0.270998 0.418403
O O7 0.360913 0.080308 0.336681
O O8 0.863391 0.162857 0.293398
O O9 0.844883 0.965333 0.212622
O O10 0.000000 0.000000 0.266224
O O11 0.520550 0.366914 0.108082
O O12 0.250000 0.810546 0.862416
O O13 0.413243 0.773857 0.902961
O O14 0.087706 0.145444 0.109198
O O15 0.905869 0.123214 0.120688
O O16 0.978993 0.203205 0.014721
O O17 0.250000 0.480131 0.609350
O O18 0.500000 0.500000 0.435612
#
# Coordination Sequence:
#
# PCOD8193116 Si02
#       8
#     8   8   8   4   8   8   8   8
#     4  10  22  38  63  95 124 158 198 246 315 378
#     4  11  23  39  64  96 125 161 202 252 315 374
#     4  12  22  38  64  96 131 159 200 261 322 372
#     4  12  24  40  64  90 134 160 198 268 316 374
#     4  11  23  39  64  96 125 161 202 252 315 374
#     4  11  26  43  63  96 122 171 222 252 316 366
#     4  11  23  44  68  91 128 172 217 260 302 379
#     4  12  23  43  65  88 122 163 214 259 296 366
#
# _framework density 19.879781999999999
#
# number of rings (size 3 to 8) (size 9 to 14) (size 15 to 20)
#    0.000    0.800    5.333    3.600    0.000    5.333 
#    0.000    0.000    0.000    0.000    0.000    0.000 
#    0.000    0.000    0.000    0.000    0.000    0.000 
#
# Total GULP energy -372141.602698 kJ/mol
# GULP energy per Si atom -12404.720090 kJ/mol
# Density = 1.983453 g / cm^3
# Si number density = 19.879782 Si / 1000 Ang^3
#
#
#
# Elastic Constant Matrix: (Units=GPa)
#
#
# Indices 1 2 3 4 5 6 
#
# 1 85.2294 8.9188 5.7056 0.0000 0.0000 0.0000
# 2 8.9188 78.4379 3.0930 0.0000 0.0000 0.0000
# 3 5.7056 3.0930 77.2226 0.0000 0.0000 0.0000
# 4 0.0000 0.0000 0.0000 12.4227 0.0000 0.0000
# 5 0.0000 0.0000 0.0000 0.0000 3.6122 0.0000
# 6 0.0000 0.0000 0.0000 0.0000 0.0000 21.8850
#
#
#
# Elastic Compliance Matrix: (Units=1/GPa)
#
#
# Indices 1 2 3 4 5 6 
#
# 1 0.011927 -0.001324 -0.000828 0.000000 0.000000 0.000000
# 2 -0.001324 0.012916 -0.000420 0.000000 0.000000 0.000000
# 3 -0.000828 -0.000420 0.013028 0.000000 0.000000 0.000000
# 4 0.000000 0.000000 0.000000 0.080498 0.000000 0.000000
# 5 0.000000 0.000000 0.000000 0.000000 0.276837 0.000000
# 6 0.000000 0.000000 0.000000 0.000000 0.000000 0.045693
#
#
# Mechanical properties :
#
#
# Convention : Reuss Voigt Hill
#
# Bulk Modulus (GPa) = 30.55487 30.70276 30.62881
# Shear Modulus (GPa) = 10.94210 22.46216 16.70213
#
# Velocity S-wave (km/s) = 2.34863 3.36505 2.90169
# Velocity P-wave (km/s) = 4.77053 5.52954 5.16400
#
# Compressibility (1/GPa) = 0.03272801
#
# Stress axis : x y z
#
# Youngs Moduli (GPa) = 83.84353 77.42357 76.76026
#
# Poissons Ratio (x) = 0.10247 0.06357
# Poissons Ratio (y) = 0.11097 0.03220
# Poissons Ratio (z) = 0.06944 0.03248
#
# Static dielectric constant tensor:
#      x y z
#    x 3.774060 0.000000 0.000000 
#    y 0.000000 3.714890 0.000000 
#    z 0.000000 0.000000 3.465120 
# 
# 
# High freq. dielectric constant tensor:
#      x y z
#    x 1.787940 0.000000 0.000000 
#    y 0.000000 1.782750 0.000000 
#    z 0.000000 0.000000 1.761370 
# 
# From -- ./inp_files/23626.got.cif
#   From: 2010.03.12/outbox.cif.g09.slc.cpg/sg46_12_cif.got.tgz:23626.got - 2010.04.14 02:56:35.
