data_PCOD8193780
_publ_section_title
;
Structure prediction by ZEFSAII (Michael W. Deem and Ramdas Pophale) SiO2 
 PCOD8193780
Probable space group: P M M M
;
_chemical_formula_sum "Si O2"
_cell_formula_units_Z 64
_cell_length_a 23.929380
_cell_length_b 18.964217
_cell_length_c 9.074922
_cell_angle_alpha 90.000000
_cell_angle_beta 90.000000
_cell_angle_gamma 90.000000
_cell_volume 4118.217345
_symmetry_space_group_name_H-M "P M M M"
_symmetry_group_IT_number 47
_symmetry_cell_setting 'orthorhombic'
loop_
_space_group_symop_operation_xyz
x,y,z
-x,-y,z
x,-y,-z
-x,y,-z
-x,-y,-z
x,y,-z
-x,y,z
x,-y,z
loop_
_atom_site_type_symbol
_atom_site_label
_atom_site_fract_x
_atom_site_fract_y
_atom_site_fract_z
Si Si1 0.062696 0.698665 0.830477
Si Si2 0.228659 0.921493 0.170631
Si Si3 0.123512 0.579833 0.330453
Si Si4 0.561327 0.920621 0.675099
Si Si5 0.328669 0.151434 0.326128
Si Si6 0.267956 0.289676 0.326860
Si Si7 0.168569 0.216061 0.169871
Si Si8 0.240428 0.420862 0.827408
O O1 0.075721 0.631241 0.729644
O O2 0.104446 0.763772 0.795685
O O3 0.000000 0.724768 0.794990
O O4 0.068501 0.675058 0.000000
O O5 0.284226 0.902095 0.258586
O O6 0.178518 0.866635 0.206545
O O7 0.208736 0.000000 0.216286
O O8 0.244741 0.918239 0.000000
O O9 0.137159 0.597373 0.500000
O O10 0.101477 0.500000 0.313300
O O11 0.178967 0.591564 0.235972
O O12 0.561444 0.920224 0.500000
O O13 0.500000 0.895568 0.732139
O O14 0.609599 0.868247 0.734478
O O15 0.573388 0.000000 0.731555
O O16 0.324842 0.141508 0.500000
O O17 0.314943 0.232232 0.281876
O O18 0.265915 0.301817 0.500000
O O19 0.207576 0.263547 0.272654
O O20 0.282122 0.364286 0.248408
O O21 0.184036 0.232019 0.000000
O O22 0.261733 0.500000 0.791732
O O23 0.238305 0.406734 0.000000
#
# Coordination Sequence:
#
# PCOD8193780 Si02
#       8
#     8   8   8   8   8   8   8   8
#     4  10  20  32  46  62  80 107 143 178 209 249
#     4   9  17  28  43  63  85 110 140 175 216 258
#     4  10  20  32  46  64  85 108 135 170 209 248
#     4   8  13  22  38  60  87 121 157 186 209 237
#     4   9  17  27  41  64  91 116 145 181 214 247
#     4  10  18  27  42  64  88 111 137 173 215 253
#     4   9  17  30  45  59  80 109 138 170 210 256
#     4  10  19  30  45  63  84 112 142 169 203 252
#
# _framework density 15.540706
#
# number of rings (size 3 to 8) (size 9 to 14) (size 15 to 20)
#    0.000    2.625    1.250    1.875    0.000    3.250 
#    0.000    1.250    0.000    0.750    0.000    4.375 
#    0.000    0.500    0.000   13.625    0.000    8.750 
#
# Total GULP energy -793312.206483 kJ/mol
# GULP energy per Si atom -12395.503226 kJ/mol
# Density = 1.550533 g / cm^3
# Si number density = 15.540706 Si / 1000 Ang^3
#
#
#
# Elastic Constant Matrix: (Units=GPa)
#
#
# Indices 1 2 3 4 5 6 
#
# 1 102.7540 66.6560 27.8529 0.0000 0.0000 0.0000
# 2 66.6560 131.0668 42.6778 0.0000 0.0000 0.0000
# 3 27.8529 42.6778 48.4380 0.0000 0.0000 0.0000
# 4 0.0000 0.0000 0.0000 21.4576 0.0000 0.0000
# 5 0.0000 0.0000 0.0000 0.0000 12.2330 0.0000
# 6 0.0000 0.0000 0.0000 0.0000 0.0000 24.2423
#
#
#
# Elastic Compliance Matrix: (Units=1/GPa)
#
#
# Indices 1 2 3 4 5 6 
#
# 1 0.014758 -0.006650 -0.002627 0.000000 0.000000 0.000000
# 2 -0.006650 0.013696 -0.008243 0.000000 0.000000 0.000000
# 3 -0.002627 -0.008243 0.029418 0.000000 0.000000 0.000000
# 4 0.000000 0.000000 0.000000 0.046604 0.000000 0.000000
# 5 0.000000 0.000000 0.000000 0.000000 0.081746 0.000000
# 6 0.000000 0.000000 0.000000 0.000000 0.000000 0.041250
#
#
# Mechanical properties :
#
#
# Convention : Reuss Voigt Hill
#
# Bulk Modulus (GPa) = 43.79848 61.84804 52.82326
# Shear Modulus (GPa) = 18.51009 21.25805 19.88407
#
# Velocity S-wave (km/s) = 3.45493 3.70252 3.58087
# Velocity P-wave (km/s) = 6.64527 7.62640 7.15268
#
# Compressibility (1/GPa) = 0.02283184
#
# Stress axis : x y z
#
# Youngs Moduli (GPa) = 67.76064 73.01525 33.99227
#
# Poissons Ratio (x) = 0.48555 0.08930
# Poissons Ratio (y) = 0.45060 0.28021
# Poissons Ratio (z) = 0.17800 0.60188
#
# Static dielectric constant tensor:
#      x y z
#    x 2.939540 0.000000 0.000000 
#    y 0.000000 3.262690 0.000000 
#    z 0.000000 0.000000 2.931310 
# 
# 
# High freq. dielectric constant tensor:
#      x y z
#    x 1.560900 0.000000 0.000000 
#    y 0.000000 1.597730 0.000000 
#    z 0.000000 0.000000 1.592610 
# 
# From -- ./inp_files/12928.got.cif
#   From: 2010.03.12/outbox.cif.g09.slc.cpg/sg47_7_cif.got.tgz:12928.got - 2010.04.14 03:12:58.
