data_PCOD8193963
_publ_section_title
;
Structure prediction by ZEFSAII (Michael W. Deem and Ramdas Pophale) SiO2 
 PCOD8193963
Probable space group: P M M M
;
_chemical_formula_sum "Si O2"
_cell_formula_units_Z 64
_cell_length_a 27.768033
_cell_length_b 14.403380
_cell_length_c 9.314291
_cell_angle_alpha 90.000000
_cell_angle_beta 90.000000
_cell_angle_gamma 90.000000
_cell_volume 3725.283576
_symmetry_space_group_name_H-M "P M M M"
_symmetry_group_IT_number 47
_symmetry_cell_setting 'orthorhombic'
loop_
_space_group_symop_operation_xyz
x,y,z
-x,-y,z
x,-y,-z
-x,y,-z
-x,-y,-z
x,y,-z
-x,y,z
x,-y,z
loop_
_atom_site_type_symbol
_atom_site_label
_atom_site_fract_x
_atom_site_fract_y
_atom_site_fract_z
Si Si1 0.777185 0.602334 0.329613
Si Si2 0.055411 0.395147 0.832350
Si Si3 0.630009 0.226925 0.170086
Si Si4 0.669575 0.607931 0.667672
Si Si5 0.721247 0.893619 0.833195
Si Si6 0.556271 0.106099 0.335907
Si Si7 0.867245 0.282541 0.332882
Si Si8 0.815632 0.103826 0.333828
O O1 0.776563 0.600707 0.500000
O O2 0.789323 0.500000 0.269813
O O3 0.723870 0.632021 0.278440
O O4 0.818547 0.670253 0.271787
O O5 0.069469 0.500000 0.785231
O O6 0.086383 0.319373 0.749049
O O7 0.000000 0.376073 0.794249
O O8 0.064687 0.382507 0.000000
O O9 0.633281 0.329113 0.240017
O O10 0.676633 0.168182 0.217541
O O11 0.583215 0.175317 0.229309
O O12 0.625310 0.236299 0.000000
O O13 0.663139 0.630883 0.500000
O O14 0.657894 0.500000 0.697047
O O15 0.768818 0.860947 0.750221
O O16 0.708804 0.000000 0.795397
O O17 0.731962 0.880472 0.000000
O O18 0.571961 0.125241 0.500000
O O19 0.500000 0.125034 0.316899
O O20 0.568549 0.000000 0.294081
O O21 0.874495 0.305184 0.500000
O O22 0.860704 0.172375 0.304184
O O23 0.801219 0.107613 0.500000
O O24 0.831104 0.000000 0.286304
#
# Coordination Sequence:
#
# PCOD8193963 Si02
#       8
#     8   8   8   8   8   8   8   8
#     4   8  14  25  42  66  94 121 152 193 237 276
#     4   9  19  35  51  68  93 121 147 182 232 286
#     4  11  21  31  48  74 103 133 162 197 244 293
#     4   9  18  33  51  69  94 132 173 207 238 277
#     4   9  18  31  45  66  99 134 165 195 229 276
#     4   9  19  36  56  77 100 126 159 199 240 286
#     4  10  18  28  47  72  95 121 155 194 233 276
#     4   9  18  31  46  67  96 128 161 197 235 272
#
# _framework density 17.179898999999999
#
# number of rings (size 3 to 8) (size 9 to 14) (size 15 to 20)
#    0.000    2.750    0.000    3.375    0.000    4.750 
#    0.000    3.125    0.000    1.500    0.000    5.250 
#    0.000    0.000    0.000    0.000    0.000    0.000 
#
# Total GULP energy -793491.618127 kJ/mol
# GULP energy per Si atom -12398.306533 kJ/mol
# Density = 1.714080 g / cm^3
# Si number density = 17.179899 Si / 1000 Ang^3
#
#
#
# Elastic Constant Matrix: (Units=GPa)
#
#
# Indices 1 2 3 4 5 6 
#
# 1 80.8652 60.2813 44.3756 0.0000 0.0000 0.0000
# 2 60.2813 101.2118 47.4631 0.0000 0.0000 0.0000
# 3 44.3756 47.4631 58.6463 0.0000 0.0000 0.0000
# 4 0.0000 0.0000 0.0000 22.9320 0.0000 0.0000
# 5 0.0000 0.0000 0.0000 0.0000 28.4490 0.0000
# 6 0.0000 0.0000 0.0000 0.0000 0.0000 30.2986
#
#
#
# Elastic Compliance Matrix: (Units=1/GPa)
#
#
# Indices 1 2 3 4 5 6 
#
# 1 0.026432 -0.010256 -0.011700 0.000000 0.000000 0.000000
# 2 -0.010256 0.019903 -0.008347 0.000000 0.000000 0.000000
# 3 -0.011700 -0.008347 0.032660 0.000000 0.000000 0.000000
# 4 0.000000 0.000000 0.000000 0.043607 0.000000 0.000000
# 5 0.000000 0.000000 0.000000 0.000000 0.035151 0.000000
# 6 0.000000 0.000000 0.000000 0.000000 0.000000 0.033005
#
#
# Mechanical properties :
#
#
# Convention : Reuss Voigt Hill
#
# Bulk Modulus (GPa) = 54.38213 60.55149 57.46681
# Shear Modulus (GPa) = 19.41786 22.24281 20.83034
#
# Velocity S-wave (km/s) = 3.36559 3.60210 3.48585
# Velocity P-wave (km/s) = 6.84296 7.25412 7.05154
#
# Compressibility (1/GPa) = 0.01838839
#
# Stress axis : x y z
#
# Youngs Moduli (GPa) = 37.83255 50.24255 30.61863
#
# Poissons Ratio (x) = 0.51531 0.35823
# Poissons Ratio (y) = 0.38802 0.25559
# Poissons Ratio (z) = 0.44263 0.41940
#
# Static dielectric constant tensor:
#      x y z
#    x 3.029980 0.000000 0.000000 
#    y 0.000000 3.318170 0.000000 
#    z 0.000000 0.000000 2.999500 
# 
# 
# High freq. dielectric constant tensor:
#      x y z
#    x 1.642170 0.000000 0.000000 
#    y 0.000000 1.666900 0.000000 
#    z 0.000000 0.000000 1.648410 
# 
# From -- ./inp_files/12711.got.cif
#   From: 2010.03.12/outbox.cif.g09.slc.cpg/sg47_7_cif.got.tgz:12711.got - 2010.04.14 03:12:58.
