data_PCOD8193938
_publ_section_title
;
Structure prediction by ZEFSAII (Michael W. Deem and Ramdas Pophale) SiO2 
 PCOD8193938
Probable space group: P M M M
;
_chemical_formula_sum "Si O2"
_cell_formula_units_Z 52
_cell_length_a 27.663975
_cell_length_b 12.687439
_cell_length_c 9.186984
_cell_angle_alpha 90.000000
_cell_angle_beta 90.000000
_cell_angle_gamma 90.000000
_cell_volume 3224.493536
_symmetry_space_group_name_H-M "P M M M"
_symmetry_group_IT_number 47
_symmetry_cell_setting 'orthorhombic'
loop_
_space_group_symop_operation_xyz
x,y,z
-x,-y,z
x,-y,-z
-x,y,-z
-x,-y,-z
x,y,-z
-x,y,z
x,-y,z
loop_
_atom_site_type_symbol
_atom_site_label
_atom_site_fract_x
_atom_site_fract_y
_atom_site_fract_z
Si Si1 0.623302 0.271826 0.335548
Si Si2 0.634378 0.500000 0.664489
Si Si3 0.735112 0.293223 0.669507
Si Si4 0.553924 0.118245 0.171920
Si Si5 0.000000 0.125802 0.664754
Si Si6 0.187905 0.879449 0.669455
Si Si7 0.268399 0.500000 0.827837
Si Si8 0.906967 0.874670 0.164166
O O1 0.616293 0.231910 0.500000
O O2 0.603543 0.392581 0.317611
O O3 0.679578 0.267711 0.290763
O O4 0.593185 0.197661 0.232072
O O5 0.657663 0.500000 0.500000
O O6 0.675383 0.500000 0.786250
O O7 0.740206 0.320573 0.500000
O O8 0.766163 0.191036 0.712578
O O9 0.754902 0.393776 0.760021
O O10 0.500000 0.148996 0.226060
O O11 0.566364 0.000000 0.224814
O O12 0.556001 0.124120 0.000000
O O13 0.047189 0.170069 0.747415
O O14 0.000000 0.168936 0.500000
O O15 0.000000 0.000000 0.664911
O O16 0.174910 0.870025 0.500000
O O17 0.142019 0.836608 0.758532
O O18 0.200542 0.000000 0.710905
O O19 0.261067 0.500000 0.000000
O O20 0.909040 0.000000 0.163810
O O21 0.908461 0.830238 0.000000
#
# Coordination Sequence:
#
# PCOD8193938 Si02
#       8
#     8   4   8   8   4   8   4   8
#     4   9  17  30  50  72  90 112 145 183 221 263
#     4   8  16  32  49  67  94 119 137 169 222 271
#     4   9  18  32  48  66  92 122 148 180 224 269
#     4   9  19  35  50  64  88 121 151 181 220 262
#     4   9  15  23  37  55  75 106 151 192 221 261
#     4   9  17  29  44  62  87 121 155 182 215 265
#     4  10  18  28  46  69  89 113 151 191 220 255
#     4   9  16  25  37  55  82 114 146 184 228 266
#
# _framework density 16.126563000000001
#
# number of rings (size 3 to 8) (size 9 to 14) (size 15 to 20)
#    0.000    3.000    0.000    2.769    0.000    7.077 
#    0.000    2.692    0.000    4.154    0.000    0.000 
#    0.000    0.615    0.000    6.462    0.000    4.923 
#
# Total GULP energy -644534.679889 kJ/mol
# GULP energy per Si atom -12394.897690 kJ/mol
# Density = 1.608986 g / cm^3
# Si number density = 16.126563 Si / 1000 Ang^3
#
#
#
# Elastic Constant Matrix: (Units=GPa)
#
#
# Indices 1 2 3 4 5 6 
#
# 1 94.9622 60.0139 47.5961 0.0000 0.0000 0.0000
# 2 60.0139 91.4708 43.8625 0.0000 0.0000 0.0000
# 3 47.5961 43.8625 80.3870 0.0000 0.0000 0.0000
# 4 0.0000 0.0000 0.0000 22.1612 0.0000 0.0000
# 5 0.0000 0.0000 0.0000 0.0000 26.2306 0.0000
# 6 0.0000 0.0000 0.0000 0.0000 0.0000 0.0844
#
#
#
# Elastic Compliance Matrix: (Units=1/GPa)
#
#
# Indices 1 2 3 4 5 6 
#
# 1 0.020153 -0.010158 -0.006389 0.000000 0.000000 0.000000
# 2 -0.010158 0.019927 -0.004858 0.000000 0.000000 0.000000
# 3 -0.006389 -0.004858 0.018874 0.000000 0.000000 0.000000
# 4 0.000000 0.000000 0.000000 0.045124 0.000000 0.000000
# 5 0.000000 0.000000 0.000000 0.000000 0.038123 0.000000
# 6 0.000000 0.000000 0.000000 0.000000 0.000000 11.844659
#
#
# Mechanical properties :
#
#
# Convention : Reuss Voigt Hill
#
# Bulk Modulus (GPa) = 61.95247 63.30721 62.62984
# Shear Modulus (GPa) = 0.41545 17.38508 8.90027
#
# Velocity S-wave (km/s) = 0.50811 3.28691 2.35181
# Velocity P-wave (km/s) = 6.23250 7.33122 6.80407
#
# Compressibility (1/GPa) = 0.01614141
#
# Stress axis : x y z
#
# Youngs Moduli (GPa) = 49.62094 50.18299 52.98343
#
# Poissons Ratio (x) = 0.50978 0.33853
# Poissons Ratio (y) = 0.50407 0.25741
# Poissons Ratio (z) = 0.31705 0.24381
#
# Static dielectric constant tensor:
#      x y z
#    x 2.967580 0.000000 0.000000 
#    y 0.000000 3.020850 0.000000 
#    z 0.000000 0.000000 3.042070 
# 
# 
# High freq. dielectric constant tensor:
#      x y z
#    x 1.603060 0.000000 0.000000 
#    y 0.000000 1.594720 0.000000 
#    z 0.000000 0.000000 1.621710 
# 
# From -- ./inp_files/14152.got.cif
#   From: 2010.03.12/outbox.cif.g09.slc.cpg/sg47_8_cif.got.tgz:14152.got - 2010.04.14 03:12:58.
