data_PCOD8193472
_publ_section_title
;
Structure prediction by ZEFSAII (Michael W. Deem and Ramdas Pophale) SiO2 
 PCOD8193472
Probable space group: P M M M
;
_chemical_formula_sum "Si O2"
_cell_formula_units_Z 64
_cell_length_a 18.313992
_cell_length_b 9.171927
_cell_length_c 26.214821
_cell_angle_alpha 90.000000
_cell_angle_beta 90.000000
_cell_angle_gamma 90.000000
_cell_volume 4403.424011
_symmetry_space_group_name_H-M "P M M M"
_symmetry_group_IT_number 47
_symmetry_cell_setting 'orthorhombic'
loop_
_space_group_symop_operation_xyz
x,y,z
-x,-y,z
x,-y,-z
-x,y,-z
-x,-y,-z
x,y,-z
-x,y,z
x,-y,z
loop_
_atom_site_type_symbol
_atom_site_label
_atom_site_fract_x
_atom_site_fract_y
_atom_site_fract_z
Si Si1 0.667555 0.329778 0.143970
Si Si2 0.081423 0.672883 0.556372
Si Si3 0.168760 0.673761 0.653459
Si Si4 0.582960 0.831588 0.058672
Si Si5 0.415908 0.329514 0.753867
Si Si6 0.703557 0.835794 0.299712
Si Si7 0.212389 0.838937 0.193514
Si Si8 0.916213 0.169784 0.741040
O O1 0.672305 0.500000 0.135886
O O2 0.637817 0.261513 0.092298
O O3 0.614384 0.286029 0.190447
O O4 0.749678 0.272523 0.154556
O O5 0.106516 0.726500 0.500000
O O6 0.078185 0.500000 0.557590
O O7 0.138645 0.727194 0.598653
O O8 0.000000 0.733739 0.568361
O O9 0.175939 0.500000 0.658018
O O10 0.248629 0.745570 0.659527
O O11 0.111422 0.728886 0.695429
O O12 0.500000 0.779639 0.068432
O O13 0.591019 0.000000 0.073603
O O14 0.604263 0.806329 0.000000
O O15 0.500000 0.283487 0.751716
O O16 0.404286 0.500000 0.744014
O O17 0.374153 0.242663 0.709237
O O18 0.746686 0.836446 0.247184
O O19 0.690302 0.000000 0.319789
O O20 0.128744 0.795229 0.206720
O O21 0.216596 0.000000 0.169001
O O22 0.000000 0.206035 0.752469
O O23 0.904234 0.000000 0.725920
#
# Coordination Sequence:
#
# PCOD8193472 Si02
#       8
#     8   8   8   8   8   8   8   8
#     4  10  18  27  41  60  81 105 132 163 198 231
#     4   8  14  24  37  55  79 104 132 167 201 232
#     4  10  17  25  40  59  78 104 137 168 200 236
#     4   9  18  31  44  58  78 105 136 167 196 228
#     4   9  17  28  41  59  83 107 132 164 199 234
#     4   9  17  28  40  55  77 105 135 165 197 234
#     4   8  15  27  40  54  75 105 135 160 190 230
#     4   9  17  28  41  58  81 107 134 165 200 237
#
# _framework density 14.534145000000001
#
# number of rings (size 3 to 8) (size 9 to 14) (size 15 to 20)
#    0.000    3.000    0.000    3.375    0.000    5.500 
#    0.000    0.625    0.000    1.500    0.000    4.375 
#    0.000    1.000    0.000   11.500    0.000    3.250 
#
# Total GULP energy -793324.815829 kJ/mol
# GULP energy per Si atom -12395.700247 kJ/mol
# Density = 1.450106 g / cm^3
# Si number density = 14.534145 Si / 1000 Ang^3
#
#
#
# Elastic Constant Matrix: (Units=GPa)
#
#
# Indices 1 2 3 4 5 6 
#
# 1 100.3849 43.8353 48.9446 0.0000 0.0000 0.0000
# 2 43.8353 66.1255 41.8781 0.0000 0.0000 0.0000
# 3 48.9446 41.8781 73.2800 0.0000 0.0000 0.0000
# 4 0.0000 0.0000 0.0000 14.7186 0.0000 0.0000
# 5 0.0000 0.0000 0.0000 0.0000 26.0985 0.0000
# 6 0.0000 0.0000 0.0000 0.0000 0.0000 20.6119
#
#
#
# Elastic Compliance Matrix: (Units=1/GPa)
#
#
# Indices 1 2 3 4 5 6 
#
# 1 0.016200 -0.006091 -0.007339 0.000000 0.000000 0.000000
# 2 -0.006091 0.025991 -0.010785 0.000000 0.000000 0.000000
# 3 -0.007339 -0.010785 0.024712 0.000000 0.000000 0.000000
# 4 0.000000 0.000000 0.000000 0.067941 0.000000 0.000000
# 5 0.000000 0.000000 0.000000 0.000000 0.038316 0.000000
# 6 0.000000 0.000000 0.000000 0.000000 0.000000 0.048516
#
#
# Mechanical properties :
#
#
# Convention : Reuss Voigt Hill
#
# Bulk Modulus (GPa) = 54.13621 56.56737 55.35179
# Shear Modulus (GPa) = 18.09867 19.29460 18.69664
#
# Velocity S-wave (km/s) = 3.53264 3.64749 3.59052
# Velocity P-wave (km/s) = 7.34628 7.53284 7.44015
#
# Compressibility (1/GPa) = 0.01847192
#
# Stress axis : x y z
#
# Youngs Moduli (GPa) = 61.72917 38.47505 40.46690
#
# Poissons Ratio (x) = 0.23435 0.29699
# Poissons Ratio (y) = 0.37600 0.43643
# Poissons Ratio (z) = 0.45304 0.41495
#
# Static dielectric constant tensor:
#      x y z
#    x 2.961760 0.000000 0.000000 
#    y 0.000000 2.821760 0.000000 
#    z 0.000000 0.000000 2.692180 
# 
# 
# High freq. dielectric constant tensor:
#      x y z
#    x 1.547140 0.000000 0.000000 
#    y 0.000000 1.555560 0.000000 
#    z 0.000000 0.000000 1.520740 
# 
# From -- ./inp_files/13490.got.cif
#   From: 2010.03.12/outbox.cif.g09.slc.cpg/sg47_7_cif.got.tgz:13490.got - 2010.04.14 03:12:58.
