data_PCOD8193087
_publ_section_title
;
Structure prediction by ZEFSAII (Michael W. Deem and Ramdas Pophale) SiO2 
 PCOD8193087
Probable space group: I M A 2
;
_chemical_formula_sum "Si O2"
_cell_formula_units_Z 48
_cell_length_a 14.810066
_cell_length_b 16.124895
_cell_length_c 10.025680
_cell_angle_alpha 90.000000
_cell_angle_beta 90.000000
_cell_angle_gamma 90.000000
_cell_volume 2394.240252
_symmetry_space_group_name_H-M "I M A 2"
_symmetry_group_IT_number 46
_symmetry_cell_setting 'orthorhombic'
loop_
_space_group_symop_operation_xyz
x,y,z
-x,-y,z
1/2-x,y,z
1/2+x,-y,z
1/2+x,1/2+y,1/2+z
1/2-x,1/2-y,1/2+z
-x,1/2+y,1/2+z
x,1/2-y,1/2+z
loop_
_atom_site_type_symbol
_atom_site_label
_atom_site_fract_x
_atom_site_fract_y
_atom_site_fract_z
Si Si1 0.750000 0.916676 0.454260
Si Si2 0.250000 0.265932 0.124171
Si Si3 0.750000 0.464843 0.705508
Si Si4 0.944769 0.922274 0.550363
Si Si5 0.038211 0.760301 0.453825
Si Si6 0.601756 0.651485 0.304753
Si Si7 0.150166 0.804205 0.203936
Si Si8 0.250000 0.092932 0.987920
O O1 0.750000 0.815645 0.479896
O O2 0.840370 0.946743 0.526658
O O3 0.750000 0.956821 0.307266
O O4 0.339432 0.286839 0.210043
O O5 0.250000 0.169345 0.091626
O O6 0.661159 0.405116 0.715174
O O7 0.750000 0.505411 0.560835
O O8 0.957895 0.905979 0.707762
O O9 0.982776 0.844835 0.468876
O O10 0.000000 0.000000 0.500747
O O11 0.116625 0.770995 0.345791
O O12 0.081027 0.725213 0.590147
O O13 0.963557 0.696940 0.405414
O O14 0.663151 0.593132 0.394460
O O15 0.250000 0.765337 0.176472
#
# Coordination Sequence:
#
# PCOD8193087 Si02
#       8
#     4   4   4   8   8   8   8   4
#     4  10  21  43  64  99 137 170 233 282 347 408
#     4   9  21  38  64  95 130 178 219 273 346 419
#     4  10  25  41  66  97 134 180 226 286 340 404
#     4  11  24  41  66 102 135 181 230 295 348 413
#     4  12  22  45  70  99 133 180 233 287 336 434
#     4  10  22  39  63  96 132 174 226 271 343 416
#     4  10  25  45  68  98 132 182 233 280 355 406
#     4  11  23  38  62  95 137 176 216 279 355 409
#
# _framework density 20.048112
#
# number of rings (size 3 to 8) (size 9 to 14) (size 15 to 20)
#    0.500    1.000    1.667    4.000    4.667    1.333 
#    1.500    1.667    0.000    0.000    0.000    0.000 
#    0.000    0.000    0.000    0.000    0.000    0.000 
#
# Total GULP energy -297409.506166 kJ/mol
# GULP energy per Si atom -12392.062757 kJ/mol
# Density = 2.000248 g / cm^3
# Si number density = 20.048112 Si / 1000 Ang^3
#
#
#
# Elastic Constant Matrix: (Units=GPa)
#
#
# Indices 1 2 3 4 5 6 
#
# 1 112.1264 31.1607 29.2061 0.0000 0.0000 0.0000
# 2 31.1607 69.8116 26.9505 0.0000 0.0000 0.0000
# 3 29.2061 26.9505 101.1007 0.0000 0.0000 0.0000
# 4 0.0000 0.0000 0.0000 27.8621 0.0000 0.0000
# 5 0.0000 0.0000 0.0000 0.0000 31.4029 0.0000
# 6 0.0000 0.0000 0.0000 0.0000 0.0000 14.6069
#
#
#
# Elastic Compliance Matrix: (Units=1/GPa)
#
#
# Indices 1 2 3 4 5 6 
#
# 1 0.010530 -0.003930 -0.001994 0.000000 0.000000 0.000000
# 2 -0.003930 0.017434 -0.003512 0.000000 0.000000 0.000000
# 3 -0.001994 -0.003512 0.011403 0.000000 0.000000 0.000000
# 4 0.000000 0.000000 0.000000 0.035891 0.000000 0.000000
# 5 0.000000 0.000000 0.000000 0.000000 0.031844 0.000000
# 6 0.000000 0.000000 0.000000 0.000000 0.000000 0.068461
#
#
# Mechanical properties :
#
#
# Convention : Reuss Voigt Hill
#
# Bulk Modulus (GPa) = 48.79314 50.85259 49.82286
# Shear Modulus (GPa) = 24.84235 27.82249 26.33242
#
# Velocity S-wave (km/s) = 3.52396 3.72934 3.62810
# Velocity P-wave (km/s) = 6.39911 6.63056 6.51586
#
# Compressibility (1/GPa) = 0.02049469
#
# Stress axis : x y z
#
# Youngs Moduli (GPa) = 94.96471 57.35781 87.69273
#
# Poissons Ratio (x) = 0.22544 0.17488
# Poissons Ratio (y) = 0.37324 0.30799
# Poissons Ratio (z) = 0.18939 0.20145
#
# Static dielectric constant tensor:
#      x y z
#    x 3.783160 0.000000 0.000000 
#    y 0.000000 3.521390 0.000000 
#    z 0.000000 0.000000 3.703160 
# 
# 
# High freq. dielectric constant tensor:
#      x y z
#    x 1.790670 0.000000 0.000000 
#    y 0.000000 1.763330 0.000000 
#    z 0.000000 0.000000 1.791540 
# 
# From -- ./inp_files/5763.got.cif
#   From: 2010.03.12/outbox.cif.g09.slc.cpg/sg46_3_cif.got.tgz:5763.got - 2010.04.14 02:56:35.
