data_PCOD8193909
_publ_section_title
;
Structure prediction by ZEFSAII (Michael W. Deem and Ramdas Pophale) SiO2 
 PCOD8193909
Probable space group: P M M M
;
_chemical_formula_sum "Si O2"
_cell_formula_units_Z 52
_cell_length_a 23.805182
_cell_length_b 14.492684
_cell_length_c 9.325870
_cell_angle_alpha 90.000000
_cell_angle_beta 90.000000
_cell_angle_gamma 90.000000
_cell_volume 3217.434292
_symmetry_space_group_name_H-M "P M M M"
_symmetry_group_IT_number 47
_symmetry_cell_setting 'orthorhombic'
loop_
_space_group_symop_operation_xyz
x,y,z
-x,-y,z
x,-y,-z
-x,y,-z
-x,-y,-z
x,y,-z
-x,y,z
x,-y,z
loop_
_atom_site_type_symbol
_atom_site_label
_atom_site_fract_x
_atom_site_fract_y
_atom_site_fract_z
Si Si1 0.561240 0.287997 0.669848
Si Si2 0.273549 0.898510 0.163843
Si Si3 0.879824 0.603589 0.828717
Si Si4 0.613669 0.898236 0.667802
Si Si5 0.670792 0.607198 0.669121
Si Si6 0.770917 0.293152 0.167312
Si Si7 0.000000 0.609667 0.842710
O O1 0.559824 0.295773 0.500000
O O2 0.500000 0.318434 0.731568
O O3 0.570826 0.181360 0.716943
O O4 0.611187 0.353231 0.727410
O O5 0.327119 0.878932 0.259933
O O6 0.228723 0.817355 0.193741
O O7 0.247279 0.000000 0.198269
O O8 0.293946 0.894415 0.000000
O O9 0.866004 0.500000 0.775374
O O10 0.830441 0.670088 0.773004
O O11 0.940856 0.637577 0.765233
O O12 0.884083 0.604992 0.000000
O O13 0.625068 0.891506 0.500000
O O14 0.589915 0.000000 0.709434
O O15 0.677115 0.624633 0.500000
O O16 0.673091 0.500000 0.708172
O O17 0.720754 0.658929 0.748281
O O18 0.763732 0.317849 0.000000
O O19 0.000000 0.500000 0.858679
O O20 0.000000 0.655687 0.000000
#
# Coordination Sequence:
#
# PCOD8193909 Si02
#       7
#     8   8   8   8   8   8   4
#     4   9  17  29  44  62  83 106 135 170 207 250
#     4   9  17  28  42  61  85 111 136 164 204 252
#     4   8  13  21  35  58  85 110 137 169 204 240
#     4   9  16  27  45  65  82 102 130 168 212 253
#     4  10  20  32  45  62  85 111 139 173 211 248
#     4  10  18  28  45  66  86 110 140 174 209 246
#     4   7  10  18  32  52  82 112 134 165 205 237
#
# _framework density 16.161946
#
# number of rings (size 3 to 8) (size 9 to 14) (size 15 to 20)
#    0.000    3.000    1.538    1.385    0.000    1.538 
#    0.000    3.077    0.000    1.846    0.000    4.308 
#    0.000    7.385    0.000    0.000    0.000    8.846 
#
# Total GULP energy -644186.527764 kJ/mol
# GULP energy per Si atom -12388.202457 kJ/mol
# Density = 1.612516 g / cm^3
# Si number density = 16.161946 Si / 1000 Ang^3
#
#
#
# Elastic Constant Matrix: (Units=GPa)
#
#
# Indices 1 2 3 4 5 6 
#
# 1 146.7912 72.8245 16.6049 0.0000 0.0000 0.0000
# 2 72.8245 103.5719 18.8659 0.0000 0.0000 0.0000
# 3 16.6049 18.8659 13.5929 0.0000 0.0000 0.0000
# 4 0.0000 0.0000 0.0000 15.0861 0.0000 0.0000
# 5 0.0000 0.0000 0.0000 0.0000 21.3555 0.0000
# 6 0.0000 0.0000 0.0000 0.0000 0.0000 18.7575
#
#
#
# Elastic Compliance Matrix: (Units=1/GPa)
#
#
# Indices 1 2 3 4 5 6 
#
# 1 0.010583 -0.006808 -0.003480 0.000000 0.000000 0.000000
# 2 -0.006808 0.017301 -0.015696 0.000000 0.000000 0.000000
# 3 -0.003480 -0.015696 0.099604 0.000000 0.000000 0.000000
# 4 0.000000 0.000000 0.000000 0.066286 0.000000 0.000000
# 5 0.000000 0.000000 0.000000 0.000000 0.046826 0.000000
# 6 0.000000 0.000000 0.000000 0.000000 0.000000 0.053312
#
#
# Mechanical properties :
#
#
# Convention : Reuss Voigt Hill
#
# Bulk Modulus (GPa) = 13.24145 53.39408 33.31777
# Shear Modulus (GPa) = 13.47514 21.41721 17.44618
#
# Velocity S-wave (km/s) = 2.89062 3.64423 3.28908
# Velocity P-wave (km/s) = 4.39905 7.12852 5.92315
#
# Compressibility (1/GPa) = 0.07552042
#
# Stress axis : x y z
#
# Youngs Moduli (GPa) = 94.48792 57.80069 10.03977
#
# Poissons Ratio (x) = 0.39348 0.03494
# Poissons Ratio (y) = 0.64323 0.15759
# Poissons Ratio (z) = 0.32883 0.90725
#
# Static dielectric constant tensor:
#      x y z
#    x 3.366260 0.000000 0.000000 
#    y 0.000000 3.305330 0.000000 
#    z 0.000000 0.000000 2.723720 
# 
# 
# High freq. dielectric constant tensor:
#      x y z
#    x 1.613780 0.000000 0.000000 
#    y 0.000000 1.619950 0.000000 
#    z 0.000000 0.000000 1.578590 
# 
# From -- ./inp_files/12501.got.cif
#   From: 2010.03.12/outbox.cif.g09.slc.cpg/sg47_7_cif.got.tgz:12501.got - 2010.04.14 03:12:58.
