data_PCOD8193129
_publ_section_title
;
Structure prediction by ZEFSAII (Michael W. Deem and Ramdas Pophale) SiO2 
 PCOD8193129
Probable space group: I M A 2
;
_chemical_formula_sum "Si O2"
_cell_formula_units_Z 48
_cell_length_a 16.632347
_cell_length_b 5.024125
_cell_length_c 27.390714
_cell_angle_alpha 90.000000
_cell_angle_beta 90.000000
_cell_angle_gamma 90.000000
_cell_volume 2288.849970
_symmetry_space_group_name_H-M "I M A 2"
_symmetry_group_IT_number 46
_symmetry_cell_setting 'orthorhombic'
loop_
_space_group_symop_operation_xyz
x,y,z
-x,-y,z
1/2-x,y,z
1/2+x,-y,z
1/2+x,1/2+y,1/2+z
1/2-x,1/2-y,1/2+z
-x,1/2+y,1/2+z
x,1/2-y,1/2+z
loop_
_atom_site_type_symbol
_atom_site_label
_atom_site_fract_x
_atom_site_fract_y
_atom_site_fract_z
Si Si1 0.555963 0.750388 0.761860
Si Si2 0.158076 0.201440 0.356558
Si Si3 0.341157 0.784108 0.919490
Si Si4 0.945864 0.254763 0.013851
Si Si5 0.409473 0.592718 0.118951
Si Si6 0.156942 0.392347 0.669042
O O1 0.500000 0.500000 0.768153
O O2 0.604845 0.793944 0.811397
O O3 0.620437 0.713590 0.719291
O O4 0.500000 0.000000 0.749854
O O5 0.250000 0.160460 0.338808
O O6 0.151775 0.425834 0.397221
O O7 0.123312 0.931920 0.381283
O O8 0.250000 0.699838 0.930517
O O9 0.385210 0.801793 0.970668
O O10 0.896677 0.325528 0.062771
O O11 0.000000 0.500000 0.997203
O O12 0.000000 0.000000 0.025546
O O13 0.500000 0.500000 0.129852
O O14 0.351379 0.342800 0.129266
O O15 0.389895 0.842507 0.153235
O O16 0.250000 0.464346 0.676293
#
# Coordination Sequence:
#
# PCOD8193129 Si02
#       6
#     8   8   8   8   8   8
#     4  12  25  40  63  91 120 158 202 250 304 364
#     4  10  22  41  60  85 121 159 198 247 301 356
#     4  10  22  39  61  87 121 159 197 246 302 356
#     4  11  23  39  62  90 121 159 201 249 301 357
#     4  11  23  43  65  90 126 165 205 253 308 365
#     4  12  25  42  65  93 124 162 205 255 308 368
#
# _framework density 20.971232000000001
#
# number of rings (size 3 to 8) (size 9 to 14) (size 15 to 20)
#    0.000    1.000    0.000    8.000    0.000    5.333 
#    0.000    6.667    0.000    0.000    0.000    0.000 
#    0.000    0.000    0.000    0.000    0.000    0.000 
#
# Total GULP energy -297740.385490 kJ/mol
# GULP energy per Si atom -12405.849395 kJ/mol
# Density = 2.092350 g / cm^3
# Si number density = 20.971232 Si / 1000 Ang^3
#
#
#
# Elastic Constant Matrix: (Units=GPa)
#
#
# Indices 1 2 3 4 5 6 
#
# 1 94.4116 33.3784 66.3878 0.0000 0.0000 0.0000
# 2 33.3784 124.4736 26.0951 0.0000 0.0000 0.0000
# 3 66.3878 26.0951 121.4967 0.0000 0.0000 0.0000
# 4 0.0000 0.0000 0.0000 33.8878 0.0000 0.0000
# 5 0.0000 0.0000 0.0000 0.0000 37.4172 0.0000
# 6 0.0000 0.0000 0.0000 0.0000 0.0000 28.0201
#
#
#
# Elastic Compliance Matrix: (Units=1/GPa)
#
#
# Indices 1 2 3 4 5 6 
#
# 1 0.018162 -0.002921 -0.009296 0.000000 0.000000 0.000000
# 2 -0.002921 0.008882 -0.000312 0.000000 0.000000 0.000000
# 3 -0.009296 -0.000312 0.013377 0.000000 0.000000 0.000000
# 4 0.000000 0.000000 0.000000 0.029509 0.000000 0.000000
# 5 0.000000 0.000000 0.000000 0.000000 0.026726 0.000000
# 6 0.000000 0.000000 0.000000 0.000000 0.000000 0.035689
#
#
# Mechanical properties :
#
#
# Convention : Reuss Voigt Hill
#
# Bulk Modulus (GPa) = 65.09128 65.78939 65.44034
# Shear Modulus (GPa) = 30.76459 34.16639 32.46549
#
# Velocity S-wave (km/s) = 3.83429 4.04072 3.93885
# Velocity P-wave (km/s) = 7.12096 7.29447 7.20823
#
# Compressibility (1/GPa) = 0.01536304
#
# Stress axis : x y z
#
# Youngs Moduli (GPa) = 55.06096 112.58092 74.75342
#
# Poissons Ratio (x) = 0.32887 0.69494
# Poissons Ratio (y) = 0.16085 0.02329
# Poissons Ratio (z) = 0.51187 0.03508
#
# Static dielectric constant tensor:
#      x y z
#    x 3.769690 0.000000 0.000000 
#    y 0.000000 4.023830 0.000000 
#    z 0.000000 0.000000 3.794420 
# 
# 
# High freq. dielectric constant tensor:
#      x y z
#    x 1.816670 0.000000 0.000000 
#    y 0.000000 1.843800 0.000000 
#    z 0.000000 0.000000 1.830610 
# 
# From -- ./inp_files/24581.got.cif
#   From: 2010.03.12/outbox.cif.g09.slc.cpg/sg46_13_cif.got.tgz:24581.got - 2010.04.14 02:56:35.
