data_PCOD8193548
_publ_section_title
;
Structure prediction by ZEFSAII (Michael W. Deem and Ramdas Pophale) SiO2 
 PCOD8193548
Probable space group: P M M M
;
_chemical_formula_sum "Si O2"
_cell_formula_units_Z 52
_cell_length_a 9.679703
_cell_length_b 14.839413
_cell_length_c 22.683774
_cell_angle_alpha 90.000000
_cell_angle_beta 90.000000
_cell_angle_gamma 90.000000
_cell_volume 3258.322488
_symmetry_space_group_name_H-M "P M M M"
_symmetry_group_IT_number 47
_symmetry_cell_setting 'orthorhombic'
loop_
_space_group_symop_operation_xyz
x,y,z
-x,-y,z
x,-y,-z
-x,y,-z
-x,-y,-z
x,y,-z
-x,y,z
x,-y,z
loop_
_atom_site_type_symbol
_atom_site_label
_atom_site_fract_x
_atom_site_fract_y
_atom_site_fract_z
Si Si1 0.162830 0.598200 0.340375
Si Si2 0.160613 0.605234 0.792831
Si Si3 0.837828 0.741348 0.567717
Si Si4 0.663736 0.099253 0.933741
Si Si5 0.664373 0.711932 0.885810
Si Si6 0.336670 0.398601 0.000000
Si Si7 0.652715 0.098687 0.430110
O O1 0.229770 0.500000 0.350724
O O2 0.196276 0.631651 0.274496
O O3 0.222714 0.663133 0.390734
O O4 0.000000 0.590859 0.348084
O O5 0.194741 0.500000 0.804544
O O6 0.257226 0.670120 0.830580
O O7 0.000000 0.623883 0.807022
O O8 0.798586 0.719268 0.500000
O O9 0.766840 0.831642 0.592028
O O10 0.000000 0.755048 0.575200
O O11 0.500000 0.102746 0.937172
O O12 0.712701 0.183369 0.893425
O O13 0.710795 0.000000 0.909018
O O14 0.722608 0.111710 0.000000
O O15 0.500000 0.704505 0.875914
O O16 0.713280 0.655420 0.942675
O O17 0.273518 0.500000 0.000000
O O18 0.500000 0.404354 0.000000
O O19 0.654980 0.094166 0.500000
O O20 0.500000 0.128291 0.408518
O O21 0.689171 0.000000 0.404294
#
# Coordination Sequence:
#
# PCOD8193548 Si02
#       7
#     8   8   8   8   8   4   8
#     4   8  15  29  46  62  84 115 146 174 211 263
#     4   9  18  32  47  61  82 117 153 178 207 255
#     4   9  16  25  42  69  91 106 135 183 228 258
#     4   8  13  23  41  65  90 113 140 174 211 255
#     4  10  17  27  45  68  89 112 143 179 219 254
#     4   9  16  24  36  60  92 115 131 165 218 261
#     4   8  14  25  40  58  84 118 146 165 199 257
#
# _framework density 15.959133
#
# number of rings (size 3 to 8) (size 9 to 14) (size 15 to 20)
#    0.000    3.308    0.769    2.308    0.000    1.538 
#    0.000    4.231    0.000    4.154    0.000    7.538 
#    0.000    0.000    0.000    0.000    0.000    0.000 
#
# Total GULP energy -644288.418299 kJ/mol
# GULP energy per Si atom -12390.161890 kJ/mol
# Density = 1.592281 g / cm^3
# Si number density = 15.959133 Si / 1000 Ang^3
#
#
#
# Elastic Constant Matrix: (Units=GPa)
#
#
# Indices 1 2 3 4 5 6 
#
# 1 34.9898 43.3208 33.3808 0.0000 0.0000 0.0000
# 2 43.3208 145.9613 70.4459 0.0000 0.0000 0.0000
# 3 33.3808 70.4459 82.3950 0.0000 0.0000 0.0000
# 4 0.0000 0.0000 0.0000 11.9442 0.0000 0.0000
# 5 0.0000 0.0000 0.0000 0.0000 16.1206 0.0000
# 6 0.0000 0.0000 0.0000 0.0000 0.0000 14.9657
#
#
#
# Elastic Compliance Matrix: (Units=1/GPa)
#
#
# Indices 1 2 3 4 5 6 
#
# 1 0.052860 -0.009114 -0.013623 0.000000 0.000000 0.000000
# 2 -0.009114 0.013236 -0.007624 0.000000 0.000000 0.000000
# 3 -0.013623 -0.007624 0.024174 0.000000 0.000000 0.000000
# 4 0.000000 0.000000 0.000000 0.083723 0.000000 0.000000
# 5 0.000000 0.000000 0.000000 0.000000 0.062033 0.000000
# 6 0.000000 0.000000 0.000000 0.000000 0.000000 0.066820
#
#
# Mechanical properties :
#
#
# Convention : Reuss Voigt Hill
#
# Bulk Modulus (GPa) = 33.84305 61.96010 47.90158
# Shear Modulus (GPa) = 13.38988 16.35266 14.87127
#
# Velocity S-wave (km/s) = 2.89971 3.20450 3.05591
# Velocity P-wave (km/s) = 5.69765 7.25260 6.52164
#
# Compressibility (1/GPa) = 0.02954816
#
# Stress axis : x y z
#
# Youngs Moduli (GPa) = 18.91782 75.55392 41.36638
#
# Poissons Ratio (x) = 0.68857 0.56355
# Poissons Ratio (y) = 0.17241 0.31537
# Poissons Ratio (z) = 0.25773 0.57602
#
# Static dielectric constant tensor:
#      x y z
#    x 2.699250 0.000000 0.000000 
#    y 0.000000 3.652010 0.000000 
#    z 0.000000 0.000000 2.893670 
# 
# 
# High freq. dielectric constant tensor:
#      x y z
#    x 1.573980 0.000000 0.000000 
#    y 0.000000 1.624250 0.000000 
#    z 0.000000 0.000000 1.588190 
# 
# From -- ./inp_files/7690.got.cif
#   From: 2010.03.12/outbox.cif.g09.slc.cpg/sg47_4_cif.got.tgz:7690.got - 2010.04.14 03:12:58.
