data_PCOD8193611
_publ_section_title
;
Structure prediction by ZEFSAII (Michael W. Deem and Ramdas Pophale) SiO2 
 PCOD8193611
Probable space group: P M M M
;
_chemical_formula_sum "Si O2"
_cell_formula_units_Z 56
_cell_length_a 19.351705
_cell_length_b 8.854994
_cell_length_c 18.859728
_cell_angle_alpha 90.000000
_cell_angle_beta 90.000000
_cell_angle_gamma 90.000000
_cell_volume 3231.788499
_symmetry_space_group_name_H-M "P M M M"
_symmetry_group_IT_number 47
_symmetry_cell_setting 'orthorhombic'
loop_
_space_group_symop_operation_xyz
x,y,z
-x,-y,z
x,-y,-z
-x,y,-z
-x,-y,-z
x,y,-z
-x,y,z
x,-y,z
loop_
_atom_site_type_symbol
_atom_site_label
_atom_site_fract_x
_atom_site_fract_y
_atom_site_fract_z
Si Si1 0.708009 0.678440 0.706947
Si Si2 0.782748 0.822213 0.419253
Si Si3 0.925789 0.821181 0.197114
Si Si4 0.337526 0.322318 0.920601
Si Si5 0.575986 0.678053 0.788960
Si Si6 0.924666 0.179258 0.356582
Si Si7 0.220323 0.821439 0.160149
O O1 0.719221 0.500000 0.711477
O O2 0.726122 0.738552 0.629071
O O3 0.628140 0.721197 0.725234
O O4 0.756779 0.757504 0.764068
O O5 0.764441 0.782767 0.500000
O O6 0.860331 0.760528 0.403117
O O7 0.777953 0.000000 0.404330
O O8 0.915905 0.758231 0.276785
O O9 0.860222 0.772966 0.149152
O O10 0.000000 0.762608 0.166032
O O11 0.927845 0.000000 0.202086
O O12 0.327371 0.500000 0.912059
O O13 0.393981 0.261665 0.864314
O O14 0.263569 0.247169 0.904536
O O15 0.361321 0.278674 0.000000
O O16 0.500000 0.750515 0.775663
O O17 0.568511 0.500000 0.794500
O O18 0.000000 0.233280 0.386672
O O19 0.922802 0.000000 0.357291
O O20 0.229958 0.000000 0.161292
#
# Coordination Sequence:
#
# PCOD8193611 Si02
#       7
#     8   8   8   8   8   8   8
#     4  10  19  31  48  69  94 121 151 189 233 279
#     4  10  19  30  46  68  93 123 159 196 233 274
#     4   8  13  22  40  65  88 112 149 199 242 267
#     4   9  18  31  47  71 102 129 150 178 221 272
#     4   8  15  29  50  74  94 116 151 190 224 261
#     4   8  13  23  40  63  90 117 150 194 237 271
#     4  10  17  28  49  70  91 121 158 196 230 268
#
# _framework density 17.327867000000001
#
# number of rings (size 3 to 8) (size 9 to 14) (size 15 to 20)
#    0.000    3.000    1.429    2.571    0.000    1.143 
#    0.000    2.857    0.000   14.571    0.000   11.000 
#    0.000    0.000    0.000    0.000    0.000    0.000 
#
# Total GULP energy -693818.201119 kJ/mol
# GULP energy per Si atom -12389.610734 kJ/mol
# Density = 1.728843 g / cm^3
# Si number density = 17.327867 Si / 1000 Ang^3
#
#
#
# Elastic Constant Matrix: (Units=GPa)
#
#
# Indices 1 2 3 4 5 6 
#
# 1 156.7561 21.0900 60.1052 0.0000 0.0000 0.0000
# 2 21.0900 24.7515 19.2616 0.0000 0.0000 0.0000
# 3 60.1052 19.2616 83.3925 0.0000 0.0000 0.0000
# 4 0.0000 0.0000 0.0000 22.1953 0.0000 0.0000
# 5 0.0000 0.0000 0.0000 0.0000 20.5681 0.0000
# 6 0.0000 0.0000 0.0000 0.0000 0.0000 34.9183
#
#
#
# Elastic Compliance Matrix: (Units=1/GPa)
#
#
# Indices 1 2 3 4 5 6 
#
# 1 0.009019 -0.003202 -0.005761 0.000000 0.000000 0.000000
# 2 -0.003202 0.050392 -0.009332 0.000000 0.000000 0.000000
# 3 -0.005761 -0.009332 0.018299 0.000000 0.000000 0.000000
# 4 0.000000 0.000000 0.000000 0.045055 0.000000 0.000000
# 5 0.000000 0.000000 0.000000 0.000000 0.048619 0.000000
# 6 0.000000 0.000000 0.000000 0.000000 0.000000 0.028638
#
#
# Mechanical properties :
#
#
# Convention : Reuss Voigt Hill
#
# Bulk Modulus (GPa) = 24.31838 51.75710 38.03774
# Shear Modulus (GPa) = 19.97465 26.49920 23.23692
#
# Velocity S-wave (km/s) = 3.39890 3.91485 3.66596
# Velocity P-wave (km/s) = 5.42845 7.09710 6.31810
#
# Compressibility (1/GPa) = 0.04112117
#
# Stress axis : x y z
#
# Youngs Moduli (GPa) = 110.87670 19.84459 54.64752
#
# Poissons Ratio (x) = 0.06354 0.31482
# Poissons Ratio (y) = 0.35499 0.50995
# Poissons Ratio (z) = 0.63876 0.18518
#
# Static dielectric constant tensor:
#      x y z
#    x 3.792150 0.000000 0.000000 
#    y 0.000000 2.872930 0.000000 
#    z 0.000000 0.000000 3.075930 
# 
# 
# High freq. dielectric constant tensor:
#      x y z
#    x 1.676590 0.000000 0.000000 
#    y 0.000000 1.630360 0.000000 
#    z 0.000000 0.000000 1.641150 
# 
# From -- ./inp_files/11728.got.cif
#   From: 2010.03.12/outbox.cif.g09.slc.cpg/sg47_6_cif.got.tgz:11728.got - 2010.04.14 03:12:58.
