data_PCOD8193630
_publ_section_title
;
Structure prediction by ZEFSAII (Michael W. Deem and Ramdas Pophale) SiO2 
 PCOD8193630
Probable space group: P M M M
;
_chemical_formula_sum "Si O2"
_cell_formula_units_Z 40
_cell_length_a 9.364827
_cell_length_b 12.005365
_cell_length_c 19.489685
_cell_angle_alpha 90.000000
_cell_angle_beta 90.000000
_cell_angle_gamma 90.000000
_cell_volume 2191.189546
_symmetry_space_group_name_H-M "P M M M"
_symmetry_group_IT_number 47
_symmetry_cell_setting 'orthorhombic'
loop_
_space_group_symop_operation_xyz
x,y,z
-x,-y,z
x,-y,-z
-x,y,-z
-x,-y,-z
x,y,-z
-x,y,z
x,-y,z
loop_
_atom_site_type_symbol
_atom_site_label
_atom_site_fract_x
_atom_site_fract_y
_atom_site_fract_z
Si Si1 0.838574 0.257150 0.426231
Si Si2 0.329572 0.283695 0.201170
Si Si3 0.343443 0.500000 0.723580
Si Si4 0.163447 0.629703 0.921523
Si Si5 0.744480 0.500000 0.424038
Si Si6 0.832957 0.130130 0.704099
O O1 0.763966 0.228445 0.500000
O O2 0.840376 0.390281 0.415598
O O3 0.766278 0.191022 0.363508
O O4 0.000000 0.215222 0.429512
O O5 0.500000 0.270278 0.201771
O O6 0.270646 0.387588 0.247447
O O7 0.272948 0.299129 0.124007
O O8 0.257135 0.172614 0.231058
O O9 0.500000 0.500000 0.756389
O O10 0.361480 0.500000 0.640878
O O11 0.197930 0.500000 0.911567
O O12 0.000000 0.654552 0.900073
O O13 0.188779 0.665212 0.000000
O O14 0.668313 0.500000 0.500000
O O15 0.000000 0.158851 0.714646
O O16 0.807327 0.000000 0.695604
#
# Coordination Sequence:
#
# PCOD8193630 Si02
#       6
#     8   8   4   8   4   8
#     4   9  17  29  47  73 102 132 170 219 274 326
#     4  11  21  35  54  78 111 144 177 218 264 316
#     4  10  20  32  46  73 105 138 179 218 259 316
#     4   9  18  33  54  83 117 147 174 206 251 312
#     4  10  17  29  48  70 101 138 175 218 265 320
#     4  10  21  36  54  76 101 136 185 232 272 316
#
# _framework density 18.254925
#
# number of rings (size 3 to 8) (size 9 to 14) (size 15 to 20)
#    0.000    2.200    3.000    1.500    0.000    2.600 
#    0.000    3.000    0.000    1.200    0.000    5.600 
#    0.000    0.000    0.000    0.000    0.000    0.000 
#
# Total GULP energy -495689.124229 kJ/mol
# GULP energy per Si atom -12392.228106 kJ/mol
# Density = 1.821338 g / cm^3
# Si number density = 18.254925 Si / 1000 Ang^3
#
#
#
# Elastic Constant Matrix: (Units=GPa)
#
#
# Indices 1 2 3 4 5 6 
#
# 1 66.2377 35.4690 46.3820 0.0000 0.0000 0.0000
# 2 35.4690 93.4760 53.7979 0.0000 0.0000 0.0000
# 3 46.3820 53.7979 130.1822 0.0000 0.0000 0.0000
# 4 0.0000 0.0000 0.0000 18.7424 0.0000 0.0000
# 5 0.0000 0.0000 0.0000 0.0000 18.5811 0.0000
# 6 0.0000 0.0000 0.0000 0.0000 0.0000 18.7566
#
#
#
# Elastic Compliance Matrix: (Units=1/GPa)
#
#
# Indices 1 2 3 4 5 6 
#
# 1 0.021747 -0.004976 -0.005692 0.000000 0.000000 0.000000
# 2 -0.004976 0.015175 -0.004498 0.000000 0.000000 0.000000
# 3 -0.005692 -0.004498 0.011568 0.000000 0.000000 0.000000
# 4 0.000000 0.000000 0.000000 0.053355 0.000000 0.000000
# 5 0.000000 0.000000 0.000000 0.000000 0.053818 0.000000
# 6 0.000000 0.000000 0.000000 0.000000 0.000000 0.053314
#
#
# Mechanical properties :
#
#
# Convention : Reuss Voigt Hill
#
# Bulk Modulus (GPa) = 55.07102 62.35487 58.71295
# Shear Modulus (GPa) = 20.37795 21.49916 20.93856
#
# Velocity S-wave (km/s) = 3.34473 3.43551 3.39043
# Velocity P-wave (km/s) = 6.71934 7.06887 6.89632
#
# Compressibility (1/GPa) = 0.01815837
#
# Stress axis : x y z
#
# Youngs Moduli (GPa) = 45.98247 65.89845 86.44284
#
# Poissons Ratio (x) = 0.32792 0.49203
# Poissons Ratio (y) = 0.22881 0.38883
# Poissons Ratio (z) = 0.26173 0.29642
#
# Static dielectric constant tensor:
#      x y z
#    x 2.995000 0.000000 0.000000 
#    y 0.000000 3.167740 0.000000 
#    z 0.000000 0.000000 3.522410 
# 
# 
# High freq. dielectric constant tensor:
#      x y z
#    x 1.675850 0.000000 0.000000 
#    y 0.000000 1.684800 0.000000 
#    z 0.000000 0.000000 1.717240 
# 
# From -- ./inp_files/4090.got.cif
#   From: 2010.03.12/outbox.cif.g09.slc.cpg/sg47_3_cif.got.tgz:4090.got - 2010.04.14 03:12:58.
