data_PCOD8193270
_publ_section_title
;
Structure prediction by ZEFSAII (Michael W. Deem and Ramdas Pophale) SiO2 
 PCOD8193270
Probable space group: I M A 2
;
_chemical_formula_sum "Si O2"
_cell_formula_units_Z 40
_cell_length_a 13.851950
_cell_length_b 15.931634
_cell_length_c 7.907796
_cell_angle_alpha 90.000000
_cell_angle_beta 90.000000
_cell_angle_gamma 90.000000
_cell_volume 1745.125615
_symmetry_space_group_name_H-M "I M A 2"
_symmetry_group_IT_number 46
_symmetry_cell_setting 'orthorhombic'
loop_
_space_group_symop_operation_xyz
x,y,z
-x,-y,z
1/2-x,y,z
1/2+x,-y,z
1/2+x,1/2+y,1/2+z
1/2-x,1/2-y,1/2+z
-x,1/2+y,1/2+z
x,1/2-y,1/2+z
loop_
_atom_site_type_symbol
_atom_site_label
_atom_site_fract_x
_atom_site_fract_y
_atom_site_fract_z
Si Si1 0.463888 0.264338 0.115780
Si Si2 0.052195 0.586002 0.261429
Si Si3 0.363887 0.136074 0.329837
Si Si4 0.360164 0.659234 0.573675
Si Si5 0.863760 0.049882 0.397841
O O1 0.477917 0.334561 0.264122
O O2 0.413276 0.177342 0.167191
O O3 0.571786 0.240621 0.050134
O O4 0.392031 0.304762 0.983331
O O5 0.131125 0.599322 0.409009
O O6 0.000000 0.500000 0.306315
O O7 0.096540 0.584768 0.073812
O O8 0.250000 0.133694 0.304117
O O9 0.407053 0.043036 0.360892
O O10 0.250000 0.690597 0.588019
O O11 0.392494 0.611054 0.744479
O O12 0.750000 0.041025 0.413533
#
# Coordination Sequence:
#
# PCOD8193270 Si02
#       5
#     8   8   8   8   8
#     4  12  24  44  68 101 138 181 224 284 347 404
#     4  12  25  43  70 100 140 178 229 282 339 412
#     4  11  24  45  70 100 136 178 230 285 344 407
#     4  11  27  46  70 105 141 181 230 282 346 415
#     4  10  24  46  71  96 134 183 225 279 342 405
#
# _framework density 22.920985000000002
#
# number of rings (size 3 to 8) (size 9 to 14) (size 15 to 20)
#    0.000    0.800    4.000    2.400    2.800    1.600 
#    0.000    0.000    0.000    0.000    0.000    0.000 
#    0.000    0.000    0.000    0.000    0.000    0.000 
#
# Total GULP energy -248006.673462 kJ/mol
# GULP energy per Si atom -12400.333673 kJ/mol
# Density = 2.286882 g / cm^3
# Si number density = 22.920985 Si / 1000 Ang^3
#
#
#
# Elastic Constant Matrix: (Units=GPa)
#
#
# Indices 1 2 3 4 5 6 
#
# 1 68.6087 39.4208 18.4880 0.0000 0.0000 0.0000
# 2 39.4208 110.9924 4.9987 0.0000 0.0000 0.0000
# 3 18.4880 4.9987 84.4193 0.0000 0.0000 0.0000
# 4 0.0000 0.0000 0.0000 23.2255 0.0000 0.0000
# 5 0.0000 0.0000 0.0000 0.0000 35.6642 0.0000
# 6 0.0000 0.0000 0.0000 0.0000 0.0000 40.2029
#
#
#
# Elastic Compliance Matrix: (Units=1/GPa)
#
#
# Indices 1 2 3 4 5 6 
#
# 1 0.019497 -0.006750 -0.003870 0.000000 0.000000 0.000000
# 2 -0.006750 0.011371 0.000805 0.000000 0.000000 0.000000
# 3 -0.003870 0.000805 0.012646 0.000000 0.000000 0.000000
# 4 0.000000 0.000000 0.000000 0.043056 0.000000 0.000000
# 5 0.000000 0.000000 0.000000 0.000000 0.028039 0.000000
# 6 0.000000 0.000000 0.000000 0.000000 0.000000 0.024874
#
#
# Mechanical properties :
#
#
# Convention : Reuss Voigt Hill
#
# Bulk Modulus (GPa) = 41.87188 43.31504 42.59346
# Shear Modulus (GPa) = 29.92684 33.22606 31.57645
#
# Velocity S-wave (km/s) = 3.61730 3.81148 3.71566
# Velocity P-wave (km/s) = 5.97947 6.18938 6.08533
#
# Compressibility (1/GPa) = 0.02388238
#
# Stress axis : x y z
#
# Youngs Moduli (GPa) = 51.29027 87.94404 79.07929
#
# Poissons Ratio (x) = 0.59365 0.30605
# Poissons Ratio (y) = 0.34623 -0.06366
# Poissons Ratio (z) = 0.19850 -0.07080
#
# Static dielectric constant tensor:
#      x y z
#    x 4.075450 0.000000 0.000000 
#    y 0.000000 4.523830 0.000000 
#    z 0.000000 0.000000 4.127970 
# 
# 
# High freq. dielectric constant tensor:
#      x y z
#    x 1.906100 0.000000 0.000000 
#    y 0.000000 1.922570 0.000000 
#    z 0.000000 0.000000 1.907950 
# 
# From -- ./inp_files/5396.got.cif
#   From: 2010.03.12/outbox.cif.g09.slc.cpg/sg46_3_cif.got.tgz:5396.got - 2010.04.14 02:56:35.
