data_PCOD8193631
_publ_section_title
;
Structure prediction by ZEFSAII (Michael W. Deem and Ramdas Pophale) SiO2 
 PCOD8193631
Probable space group: P M M M
;
_chemical_formula_sum "Si O2"
_cell_formula_units_Z 52
_cell_length_a 17.116767
_cell_length_b 18.181541
_cell_length_c 8.719076
_cell_angle_alpha 90.000000
_cell_angle_beta 90.000000
_cell_angle_gamma 90.000000
_cell_volume 2713.456675
_symmetry_space_group_name_H-M "P M M M"
_symmetry_group_IT_number 47
_symmetry_cell_setting 'orthorhombic'
loop_
_space_group_symop_operation_xyz
x,y,z
-x,-y,z
x,-y,-z
-x,y,-z
-x,-y,-z
x,y,-z
-x,y,z
x,-y,z
loop_
_atom_site_type_symbol
_atom_site_label
_atom_site_fract_x
_atom_site_fract_y
_atom_site_fract_z
Si Si1 0.000000 0.649716 0.329653
Si Si2 0.676788 0.138118 0.818158
Si Si3 0.685559 0.580778 0.180552
Si Si4 0.157699 0.658616 0.820651
Si Si5 0.411989 0.283407 0.817109
Si Si6 0.167713 0.816735 0.683373
Si Si7 0.000000 0.175296 0.668757
Si Si8 0.592145 0.000000 0.322511
O O1 0.922955 0.623439 0.239488
O O2 0.000000 0.737007 0.340644
O O3 0.000000 0.615137 0.500000
O O4 0.636280 0.212940 0.758704
O O5 0.764077 0.132023 0.749686
O O6 0.625841 0.071320 0.758840
O O7 0.681910 0.135265 0.000000
O O8 0.666899 0.500000 0.250896
O O9 0.775160 0.600054 0.217168
O O10 0.627689 0.642515 0.250246
O O11 0.672235 0.578578 0.000000
O O12 0.181362 0.733737 0.737311
O O13 0.151125 0.675850 0.000000
O O14 0.500000 0.278590 0.753303
O O15 0.411348 0.284358 0.000000
O O16 0.167415 0.818507 0.500000
O O17 0.082860 0.846970 0.747793
O O18 0.000000 0.140201 0.500000
O O19 0.500000 0.000000 0.299139
O O20 0.616040 0.000000 0.500000
#
# Coordination Sequence:
#
# PCOD8193631 Si02
#       8
#     4   8   8   8   8   8   4   4
#     4   9  17  29  46  70 100 137 179 226 279 335
#     4  11  21  36  58  86 116 149 187 229 277 330
#     4   9  17  29  46  72 107 142 180 230 282 330
#     4  10  17  29  48  74 104 139 183 231 280 332
#     4   9  17  30  50  77 107 138 177 226 277 328
#     4  10  18  31  53  80 112 149 186 228 276 329
#     4   7  14  27  45  73 105 137 177 220 266 318
#     4  11  25  43  61  86 119 152 187 227 280 347
#
# _framework density 19.163747999999998
#
# number of rings (size 3 to 8) (size 9 to 14) (size 15 to 20)
#    0.000    2.385    1.538    3.231    0.000    1.538 
#    0.000    3.077    0.000    4.615    0.000    3.231 
#    0.000    1.231    0.000    0.000    0.000    0.000 
#
# Total GULP energy -644515.024643 kJ/mol
# GULP energy per Si atom -12394.519705 kJ/mol
# Density = 1.912013 g / cm^3
# Si number density = 19.163748 Si / 1000 Ang^3
#
#
#
# Elastic Constant Matrix: (Units=GPa)
#
#
# Indices 1 2 3 4 5 6 
#
# 1 159.2701 56.2052 40.4548 0.0000 0.0000 0.0000
# 2 56.2052 96.2565 24.6444 0.0000 0.0000 0.0000
# 3 40.4548 24.6444 64.8974 0.0000 0.0000 0.0000
# 4 0.0000 0.0000 0.0000 9.7317 0.0000 0.0000
# 5 0.0000 0.0000 0.0000 0.0000 23.8805 0.0000
# 6 0.0000 0.0000 0.0000 0.0000 0.0000 26.3244
#
#
#
# Elastic Compliance Matrix: (Units=1/GPa)
#
#
# Indices 1 2 3 4 5 6 
#
# 1 0.008707 -0.004092 -0.003873 0.000000 0.000000 0.000000
# 2 -0.004092 0.013431 -0.002549 0.000000 0.000000 0.000000
# 3 -0.003873 -0.002549 0.018792 0.000000 0.000000 0.000000
# 4 0.000000 0.000000 0.000000 0.102757 0.000000 0.000000
# 5 0.000000 0.000000 0.000000 0.000000 0.041875 0.000000
# 6 0.000000 0.000000 0.000000 0.000000 0.000000 0.037988
#
#
# Mechanical properties :
#
#
# Convention : Reuss Voigt Hill
#
# Bulk Modulus (GPa) = 50.25317 62.55921 56.40619
# Shear Modulus (GPa) = 19.90345 25.26195 22.58270
#
# Velocity S-wave (km/s) = 3.22623 3.63466 3.43652
# Velocity P-wave (km/s) = 6.33704 7.09435 6.72636
#
# Compressibility (1/GPa) = 0.01989924
#
# Stress axis : x y z
#
# Youngs Moduli (GPa) = 114.85548 74.45406 53.21515
#
# Poissons Ratio (x) = 0.30468 0.20612
# Poissons Ratio (y) = 0.47001 0.13567
# Poissons Ratio (z) = 0.44488 0.18982
#
# Static dielectric constant tensor:
#      x y z
#    x 3.994710 0.000000 0.000000 
#    y 0.000000 3.346220 0.000000 
#    z 0.000000 0.000000 3.271130 
# 
# 
# High freq. dielectric constant tensor:
#      x y z
#    x 1.768350 0.000000 0.000000 
#    y 0.000000 1.715580 0.000000 
#    z 0.000000 0.000000 1.714970 
# 
# From -- ./inp_files/9609.got.cif
#   From: 2010.03.12/outbox.cif.g09.slc.cpg/sg47_5_cif.got.tgz:9609.got - 2010.04.14 03:12:58.
