data_PCOD8193324
_publ_section_title
;
Structure prediction by ZEFSAII (Michael W. Deem and Ramdas Pophale) SiO2 
 PCOD8193324
Probable space group: I M A 2
;
_chemical_formula_sum "Si O2"
_cell_formula_units_Z 56
_cell_length_a 14.303208
_cell_length_b 21.410194
_cell_length_c 9.431808
_cell_angle_alpha 90.000000
_cell_angle_beta 90.000000
_cell_angle_gamma 90.000000
_cell_volume 2888.344612
_symmetry_space_group_name_H-M "I M A 2"
_symmetry_group_IT_number 46
_symmetry_cell_setting 'orthorhombic'
loop_
_space_group_symop_operation_xyz
x,y,z
-x,-y,z
1/2-x,y,z
1/2+x,-y,z
1/2+x,1/2+y,1/2+z
1/2-x,1/2-y,1/2+z
-x,1/2+y,1/2+z
x,1/2-y,1/2+z
loop_
_atom_site_type_symbol
_atom_site_label
_atom_site_fract_x
_atom_site_fract_y
_atom_site_fract_z
Si Si1 0.146119 0.500000 0.094080
Si Si2 0.000000 0.898263 0.671328
Si Si3 0.000005 0.827302 0.959050
Si Si4 0.609434 0.999998 0.273287
Si Si5 0.499998 0.315919 0.906183
Si Si6 0.856405 0.865073 0.188506
Si Si7 0.356404 0.865075 0.188523
O O1 0.250000 0.500002 0.161012
O O2 0.092842 0.438347 0.145180
O O3 0.092844 0.561660 0.145143
O O4 0.158649 0.499991 0.924998
O O5 0.000012 0.876232 0.832199
O O6 0.999987 0.838512 0.568160
O O7 0.000008 0.758207 0.896845
O O8 0.092989 0.837244 0.051199
O O9 0.907011 0.837245 0.051178
O O10 0.639852 0.940179 0.182213
O O11 0.500000 0.000000 0.303812
O O12 0.639858 0.059818 0.182223
O O13 0.407128 0.341913 0.830814
O O14 0.592869 0.341923 0.830833
O O15 0.750000 0.841118 0.189139
O O16 0.250000 0.841118 0.189163
#
# Coordination Sequence:
#
# PCOD8193324 Si02
#       7
#     8   8   8   8   8   8   8
#     4  11  21  36  62  93 120 152 199 256 309 358
#     4  11  22  39  62  91 123 157 198 248 311 369
#     4  11  26  42  59  88 135 166 198 247 311 367
#     4  12  18  39  68  94 119 156 206 263 309 361
#     4  11  22  43  65  87 120 168 210 251 296 357
#     4  11  23  41  68  94 119 160 211 257 305 362
#     4  11  23  41  68  94 119 160 211 257 305 362
#
# _framework density 19.388269999999999
#
# number of rings (size 3 to 8) (size 9 to 14) (size 15 to 20)
#    0.000    0.857    7.143    3.000    0.000    4.571 
#    0.000    2.857    0.000    0.000    0.000    0.000 
#    0.000    0.000    0.000    0.000    0.000    0.000 
#
# Total GULP energy -347353.273422 kJ/mol
# GULP energy per Si atom -12405.474051 kJ/mol
# Density = 1.934414 g / cm^3
# Si number density = 19.388270 Si / 1000 Ang^3
#
#
#
# Elastic Constant Matrix: (Units=GPa)
#
#
# Indices 1 2 3 4 5 6 
#
# 1 177.8185 28.9437 34.2923 0.0000 0.0000 0.0000
# 2 28.9437 105.4503 13.2224 0.0000 0.0000 0.0000
# 3 34.2923 13.2224 80.7601 0.0007 0.0000 -0.0001
# 4 0.0000 0.0000 0.0007 27.1299 0.0000 0.0000
# 5 0.0000 0.0000 0.0000 0.0000 7.2412 -0.0001
# 6 0.0000 0.0000 -0.0001 0.0000 -0.0001 5.7119
#
#
#
# Elastic Compliance Matrix: (Units=1/GPa)
#
#
# Indices 1 2 3 4 5 6 
#
# 1 0.006330 -0.001430 -0.002454 0.000000 0.000000 0.000000
# 2 -0.001430 0.010005 -0.001031 0.000000 0.000000 0.000000
# 3 -0.002454 -0.001031 0.013593 0.000000 0.000000 0.000000
# 4 0.000000 0.000000 0.000000 0.036860 0.000000 0.000000
# 5 0.000000 0.000000 0.000000 0.000000 0.138099 0.000001
# 6 0.000000 0.000000 0.000000 0.000000 0.000001 0.175072
#
#
# Mechanical properties :
#
#
# Convention : Reuss Voigt Hill
#
# Bulk Modulus (GPa) = 49.75389 57.43842 53.59616
# Shear Modulus (GPa) = 12.61078 27.18796 19.89937
#
# Velocity S-wave (km/s) = 2.55313 3.74878 3.20716
# Velocity P-wave (km/s) = 5.86590 6.95898 6.43569
#
# Compressibility (1/GPa) = 0.02009893
#
# Stress axis : x y z
#
# Youngs Moduli (GPa) = 157.98790 99.95177 73.56738
#
# Poissons Ratio (x) = 0.14290 0.18050
# Poissons Ratio (y) = 0.22587 0.07585
# Poissons Ratio (z) = 0.38764 0.10305
#
# Static dielectric constant tensor:
#      x y z
#    x 3.661480 0.000000 0.000000 
#    y 0.000000 3.566570 0.000000 
#    z 0.000000 0.000000 3.379710 
# 
# 
# High freq. dielectric constant tensor:
#      x y z
#    x 1.760920 0.000000 0.000000 
#    y 0.000000 1.760190 0.000000 
#    z 0.000000 0.000000 1.745400 
# 
# From -- ./inp_files/5946.got.cif
#   From: 2010.03.12/outbox.cif.g09.slc.cpg/sg46_3_cif.got.tgz:5946.got - 2010.04.14 02:56:35.
