data_PCOD8193926
_publ_section_title
;
Structure prediction by ZEFSAII (Michael W. Deem and Ramdas Pophale) SiO2 
 PCOD8193926
Probable space group: P M M M
;
_chemical_formula_sum "Si O2"
_cell_formula_units_Z 64
_cell_length_a 19.839244
_cell_length_b 20.860936
_cell_length_c 9.228588
_cell_angle_alpha 90.000000
_cell_angle_beta 90.000000
_cell_angle_gamma 90.000000
_cell_volume 3819.391413
_symmetry_space_group_name_H-M "P M M M"
_symmetry_group_IT_number 47
_symmetry_cell_setting 'orthorhombic'
loop_
_space_group_symop_operation_xyz
x,y,z
-x,-y,z
x,-y,-z
-x,y,-z
-x,-y,-z
x,y,-z
-x,y,z
x,-y,z
loop_
_atom_site_type_symbol
_atom_site_label
_atom_site_fract_x
_atom_site_fract_y
_atom_site_fract_z
Si Si1 0.786161 0.815679 0.328409
Si Si2 0.297393 0.309983 0.671597
Si Si3 0.073091 0.622096 0.672360
Si Si4 0.711783 0.072438 0.829977
Si Si5 0.926641 0.766264 0.328146
Si Si6 0.427353 0.124191 0.828334
Si Si7 0.788561 0.429617 0.327612
Si Si8 0.576177 0.269769 0.168650
O O1 0.781603 0.824523 0.500000
O O2 0.743363 0.753494 0.279346
O O3 0.760266 0.879828 0.253770
O O4 0.863504 0.808238 0.273274
O O5 0.304592 0.312035 0.500000
O O6 0.259451 0.373287 0.731511
O O7 0.371540 0.312240 0.740912
O O8 0.075642 0.623413 0.500000
O O9 0.081399 0.694309 0.732041
O O10 0.135131 0.580125 0.732384
O O11 0.000000 0.594310 0.723025
O O12 0.634665 0.081007 0.773534
O O13 0.734470 0.000000 0.796130
O O14 0.716011 0.087896 0.000000
O O15 0.923532 0.763536 0.500000
O O16 0.000000 0.794515 0.278357
O O17 0.500000 0.098946 0.767664
O O18 0.415943 0.196885 0.776293
O O19 0.431072 0.123177 0.000000
O O20 0.789470 0.425981 0.500000
O O21 0.763415 0.500000 0.275536
O O22 0.500000 0.294184 0.198051
O O23 0.594113 0.275390 0.000000
#
# Coordination Sequence:
#
# PCOD8193926 Si02
#       8
#     8   8   8   8   8   8   8   8
#     4  10  18  29  47  69  92 120 153 189 227 267
#     4  10  18  28  45  70  95 121 153 187 227 272
#     4   8  12  19  33  56  88 123 155 185 219 263
#     4  10  20  32  47  68  93 121 152 185 225 273
#     4   8  13  23  41  64  89 116 149 189 227 263
#     4   8  14  26  44  66  90 114 143 177 212 257
#     4   9  16  25  37  58  93 130 157 184 223 273
#     4   9  17  30  49  70  90 115 150 191 231 269
#
# _framework density 16.756595999999998
#
# number of rings (size 3 to 8) (size 9 to 14) (size 15 to 20)
#    0.000    3.000    2.500    1.500    0.000    1.000 
#    0.000    2.500    0.000    1.875    0.000    6.125 
#    0.000    0.500    0.000    1.125    0.000    1.250 
#
# Total GULP energy -792961.625548 kJ/mol
# GULP energy per Si atom -12390.025399 kJ/mol
# Density = 1.671846 g / cm^3
# Si number density = 16.756596 Si / 1000 Ang^3
#
#
#
# Elastic Constant Matrix: (Units=GPa)
#
#
# Indices 1 2 3 4 5 6 
#
# 1 131.4992 65.2799 26.6191 0.0000 0.0000 0.0000
# 2 65.2799 104.0981 22.2007 0.0000 0.0000 0.0000
# 3 26.6191 22.2007 16.5823 0.0000 0.0000 0.0000
# 4 0.0000 0.0000 0.0000 10.9280 0.0000 0.0000
# 5 0.0000 0.0000 0.0000 0.0000 12.0699 0.0000
# 6 0.0000 0.0000 0.0000 0.0000 0.0000 24.5177
#
#
#
# Elastic Compliance Matrix: (Units=1/GPa)
#
#
# Indices 1 2 3 4 5 6 
#
# 1 0.012995 -0.005179 -0.013926 0.000000 0.000000 0.000000
# 2 -0.005179 0.015509 -0.012451 0.000000 0.000000 0.000000
# 3 -0.013926 -0.012451 0.099330 0.000000 0.000000 0.000000
# 4 0.000000 0.000000 0.000000 0.091508 0.000000 0.000000
# 5 0.000000 0.000000 0.000000 0.000000 0.082851 0.000000
# 6 0.000000 0.000000 0.000000 0.000000 0.000000 0.040787
#
#
# Mechanical properties :
#
#
# Convention : Reuss Voigt Hill
#
# Bulk Modulus (GPa) = 15.45064 53.37546 34.41305
# Shear Modulus (GPa) = 11.69137 18.70843 15.19990
#
# Velocity S-wave (km/s) = 2.64430 3.34500 3.01508
# Velocity P-wave (km/s) = 4.30857 6.84407 5.71861
#
# Compressibility (1/GPa) = 0.06472224
#
# Stress axis : x y z
#
# Youngs Moduli (GPa) = 76.95474 64.47739 10.06746
#
# Poissons Ratio (x) = 0.33392 0.14020
# Poissons Ratio (y) = 0.39854 0.12535
# Poissons Ratio (z) = 1.07170 0.80278
#
# Static dielectric constant tensor:
#      x y z
#    x 3.592910 0.000000 0.000000 
#    y 0.000000 3.053410 0.000000 
#    z 0.000000 0.000000 2.592230 
# 
# 
# High freq. dielectric constant tensor:
#      x y z
#    x 1.659150 0.000000 0.000000 
#    y 0.000000 1.623520 0.000000 
#    z 0.000000 0.000000 1.586520 
# 
# From -- ./inp_files/18799.got.cif
#   From: 2010.03.12/outbox.cif.g09.slc.cpg/sg47_10_cif.got.tgz:18799.got - 2010.04.14 03:12:58.
