data_PCOD8193197
_publ_section_title
;
Structure prediction by ZEFSAII (Michael W. Deem and Ramdas Pophale) SiO2 
 PCOD8193197
Probable space group: I M A 2
;
_chemical_formula_sum "Si O2"
_cell_formula_units_Z 64
_cell_length_a 22.733340
_cell_length_b 14.987676
_cell_length_c 8.901184
_cell_angle_alpha 90.000000
_cell_angle_beta 90.000000
_cell_angle_gamma 90.000000
_cell_volume 3032.810828
_symmetry_space_group_name_H-M "I M A 2"
_symmetry_group_IT_number 46
_symmetry_cell_setting 'orthorhombic'
loop_
_space_group_symop_operation_xyz
x,y,z
-x,-y,z
1/2-x,y,z
1/2+x,-y,z
1/2+x,1/2+y,1/2+z
1/2-x,1/2-y,1/2+z
-x,1/2+y,1/2+z
x,1/2-y,1/2+z
loop_
_atom_site_type_symbol
_atom_site_label
_atom_site_fract_x
_atom_site_fract_y
_atom_site_fract_z
Si Si1 0.518867 0.600998 0.141680
Si Si2 0.817287 0.499921 0.691094
Si Si3 0.510420 0.604599 0.485145
Si Si4 0.094915 0.840039 0.504996
Si Si5 0.394680 0.835057 0.151300
Si Si6 0.862471 0.841373 0.021138
Si Si7 0.815967 0.674408 0.199279
Si Si8 0.635070 0.965354 0.513629
O O1 0.500000 0.500000 0.138112
O O2 0.517148 0.635683 0.312638
O O3 0.473877 0.661957 0.048353
O O4 0.581488 0.602458 0.056774
O O5 0.750000 0.475756 0.731344
O O6 0.848099 0.413240 0.617622
O O7 0.819214 0.579044 0.571248
O O8 0.851956 0.535641 0.837015
O O9 0.500000 0.500000 0.500790
O O10 0.455972 0.650906 0.566084
O O11 0.570650 0.633694 0.567849
O O12 0.097534 0.828105 0.328174
O O13 0.129481 0.759331 0.587498
O O14 0.124419 0.932235 0.562920
O O15 0.857646 0.834208 0.842477
O O16 0.842898 0.749746 0.093708
O O17 0.750000 0.700475 0.248556
O O18 0.812419 0.579954 0.108420
#
# Coordination Sequence:
#
# PCOD8193197 Si02
#       8
#     8   8   8   8   8   8   8   8
#     4   9  19  37  61  94 130 164 208 263 328 394
#     4  11  24  45  68  95 131 177 227 278 334 400
#     4  11  22  40  66 100 133 170 216 274 338 406
#     4  10  23  39  63  95 133 170 215 272 336 396
#     4  11  24  40  67  96 133 173 219 277 336 400
#     4  12  26  43  67  95 132 174 221 275 339 396
#     4  12  25  43  65  96 133 177 225 274 329 401
#     4  10  22  42  67  94 127 176 220 274 330 395
#
# _framework density 21.102536000000001
#
# number of rings (size 3 to 8) (size 9 to 14) (size 15 to 20)
#    0.000    1.250    2.500    3.000    3.500    2.500 
#    0.000    3.125    0.000    0.000    0.000    0.000 
#    0.000    0.000    0.000    0.000    0.000    0.000 
#
# Total GULP energy -396783.256920 kJ/mol
# GULP energy per Si atom -12399.476779 kJ/mol
# Density = 2.105451 g / cm^3
# Si number density = 21.102536 Si / 1000 Ang^3
#
#
#
# Elastic Constant Matrix: (Units=GPa)
#
#
# Indices 1 2 3 4 5 6 
#
# 1 106.3331 43.1767 29.7859 0.0000 0.0000 0.0000
# 2 43.1767 140.9800 62.9837 0.0000 0.0000 0.0000
# 3 29.7859 62.9837 98.7469 0.0000 0.0000 0.0000
# 4 0.0000 0.0000 0.0000 35.0934 0.0000 0.0000
# 5 0.0000 0.0000 0.0000 0.0000 27.4075 0.0000
# 6 0.0000 0.0000 0.0000 0.0000 0.0000 23.1689
#
#
#
# Elastic Compliance Matrix: (Units=1/GPa)
#
#
# Indices 1 2 3 4 5 6 
#
# 1 0.010923 -0.002620 -0.001624 0.000000 0.000000 0.000000
# 2 -0.002620 0.010548 -0.005938 0.000000 0.000000 0.000000
# 3 -0.001624 -0.005938 0.014404 0.000000 0.000000 0.000000
# 4 0.000000 0.000000 0.000000 0.028495 0.000000 0.000000
# 5 0.000000 0.000000 0.000000 0.000000 0.036486 0.000000
# 6 0.000000 0.000000 0.000000 0.000000 0.000000 0.043161
#
#
# Mechanical properties :
#
#
# Convention : Reuss Voigt Hill
#
# Bulk Modulus (GPa) = 64.46416 68.66139 66.56278
# Shear Modulus (GPa) = 29.48945 31.14154 30.31549
#
# Velocity S-wave (km/s) = 3.74229 3.84568 3.79434
# Velocity P-wave (km/s) = 7.02049 7.23372 7.12790
#
# Compressibility (1/GPa) = 0.01551250
#
# Stress axis : x y z
#
# Youngs Moduli (GPa) = 91.54935 94.80199 69.42527
#
# Poissons Ratio (x) = 0.24837 0.11273
# Poissons Ratio (y) = 0.23985 0.41223
# Poissons Ratio (z) = 0.14866 0.56291
#
# Static dielectric constant tensor:
#      x y z
#    x 3.886920 0.000000 0.000000 
#    y 0.000000 4.006510 0.000000 
#    z 0.000000 0.000000 3.749380 
# 
# 
# High freq. dielectric constant tensor:
#      x y z
#    x 1.818070 0.000000 0.000000 
#    y 0.000000 1.838370 0.000000 
#    z 0.000000 0.000000 1.827850 
# 
# From -- ./inp_files/7978.got.cif
#   From: 2010.03.12/outbox.cif.g09.slc.cpg/sg46_4_cif.got.tgz:7978.got - 2010.04.14 02:56:35.
