data_PCOD8193908
_publ_section_title
;
Structure prediction by ZEFSAII (Michael W. Deem and Ramdas Pophale) SiO2 
 PCOD8193908
Probable space group: P M M M
;
_chemical_formula_sum "Si O2"
_cell_formula_units_Z 64
_cell_length_a 18.557378
_cell_length_b 9.514982
_cell_length_c 21.975953
_cell_angle_alpha 90.000000
_cell_angle_beta 90.000000
_cell_angle_gamma 90.000000
_cell_volume 3880.362534
_symmetry_space_group_name_H-M "P M M M"
_symmetry_group_IT_number 47
_symmetry_cell_setting 'orthorhombic'
loop_
_space_group_symop_operation_xyz
x,y,z
-x,-y,z
x,-y,-z
-x,y,-z
-x,-y,-z
x,y,-z
-x,y,z
x,-y,z
loop_
_atom_site_type_symbol
_atom_site_label
_atom_site_fract_x
_atom_site_fract_y
_atom_site_fract_z
Si Si1 0.081946 0.660588 0.428073
Si Si2 0.286880 0.338045 0.733343
Si Si3 0.190159 0.161083 0.349671
Si Si4 0.163880 0.342018 0.166952
Si Si5 0.419529 0.661240 0.185852
Si Si6 0.779300 0.846762 0.067894
Si Si7 0.921957 0.152933 0.243075
Si Si8 0.610937 0.838301 0.932048
O O1 0.088765 0.668867 0.500000
O O2 0.093981 0.500000 0.405535
O O3 0.146952 0.757322 0.402668
O O4 0.000000 0.708666 0.409172
O O5 0.292726 0.500000 0.711188
O O6 0.262093 0.243246 0.674885
O O7 0.230091 0.322771 0.787396
O O8 0.362842 0.283848 0.762637
O O9 0.135481 0.159048 0.295211
O O10 0.210064 0.000000 0.369589
O O11 0.143022 0.500000 0.154796
O O12 0.181105 0.275405 0.102749
O O13 0.092780 0.269004 0.192621
O O14 0.500000 0.673261 0.213912
O O15 0.399350 0.500000 0.170600
O O16 0.420731 0.744751 0.122179
O O17 0.695400 0.815701 0.068140
O O18 0.793761 0.000000 0.097900
O O19 0.809903 0.845480 0.000000
O O20 0.000000 0.183253 0.272060
O O21 0.919527 0.000000 0.211579
O O22 0.590008 0.000000 0.919239
O O23 0.581845 0.795404 0.000000
#
# Coordination Sequence:
#
# PCOD8193908 Si02
#       8
#     8   8   8   8   8   8   8   8
#     4   9  18  32  49  71 103 142 175 198 226 267
#     4   9  18  32  46  64  90 120 155 191 232 281
#     4  10  19  30  48  72  96 125 161 201 234 261
#     4  10  18  28  45  66  85 108 140 182 228 270
#     4  10  20  33  48  66  91 122 155 194 239 286
#     4   9  17  29  45  63  82 107 140 177 220 273
#     4   9  18  31  45  63  89 119 148 180 222 270
#     4   9  18  31  46  64  87 116 150 188 230 282
#
# _framework density 16.493304999999999
#
# number of rings (size 3 to 8) (size 9 to 14) (size 15 to 20)
#    0.000    2.625    1.250    2.250    0.000    3.750 
#    0.000    3.125    0.000    0.375    0.000    2.625 
#    0.000    0.500    0.000    5.750    0.000    1.625 
#
# Total GULP energy -792911.627527 kJ/mol
# GULP energy per Si atom -12389.244180 kJ/mol
# Density = 1.645577 g / cm^3
# Si number density = 16.493305 Si / 1000 Ang^3
#
#
#
# Elastic Constant Matrix: (Units=GPa)
#
#
# Indices 1 2 3 4 5 6 
#
# 1 65.8608 35.7604 28.3918 0.0000 0.0000 0.0000
# 2 35.7604 89.6660 36.9237 0.0000 0.0000 0.0000
# 3 28.3918 36.9237 49.5447 0.0000 0.0000 0.0000
# 4 0.0000 0.0000 0.0000 27.8521 0.0000 0.0000
# 5 0.0000 0.0000 0.0000 0.0000 21.2945 0.0000
# 6 0.0000 0.0000 0.0000 0.0000 0.0000 22.4899
#
#
#
# Elastic Compliance Matrix: (Units=1/GPa)
#
#
# Indices 1 2 3 4 5 6 
#
# 1 0.021664 -0.005090 -0.008621 0.000000 0.000000 0.000000
# 2 -0.005090 0.017286 -0.009966 0.000000 0.000000 0.000000
# 3 -0.008621 -0.009966 0.032552 0.000000 0.000000 0.000000
# 4 0.000000 0.000000 0.000000 0.035904 0.000000 0.000000
# 5 0.000000 0.000000 0.000000 0.000000 0.046961 0.000000
# 6 0.000000 0.000000 0.000000 0.000000 0.000000 0.044464
#
#
# Mechanical properties :
#
#
# Convention : Reuss Voigt Hill
#
# Bulk Modulus (GPa) = 41.41241 45.24702 43.32971
# Shear Modulus (GPa) = 19.66693 21.26032 20.46363
#
# Velocity S-wave (km/s) = 3.45689 3.59420 3.52621
# Velocity P-wave (km/s) = 6.41066 6.68711 6.55034
#
# Compressibility (1/GPa) = 0.02414735
#
# Stress axis : x y z
#
# Youngs Moduli (GPa) = 46.16038 57.84921 30.72044
#
# Poissons Ratio (x) = 0.29443 0.26485
# Poissons Ratio (y) = 0.23494 0.30616
# Poissons Ratio (z) = 0.39796 0.57653
#
# Static dielectric constant tensor:
#      x y z
#    x 0.754350 0.000000 0.000000 
#    y 0.000000 3.403150 0.000000 
#    z 0.000000 0.000000 2.329740 
# 
# 
# High freq. dielectric constant tensor:
#      x y z
#    x 1.617830 0.000000 0.000000 
#    y 0.000000 1.642230 0.000000 
#    z 0.000000 0.000000 1.603570 
# 
# From -- ./inp_files/31349.got.cif
#   From: 2010.03.12/outbox.cif.g09.slc.cpg/sg47_16_cif.got.tgz:31349.got - 2010.04.14 03:12:58.
