data_PCOD8193237
_publ_section_title
;
Structure prediction by ZEFSAII (Michael W. Deem and Ramdas Pophale) SiO2 
 PCOD8193237
Probable space group: I M A 2
;
_chemical_formula_sum "Si O2"
_cell_formula_units_Z 48
_cell_length_a 16.541330
_cell_length_b 15.931717
_cell_length_c 9.142835
_cell_angle_alpha 90.000000
_cell_angle_beta 90.000000
_cell_angle_gamma 90.000000
_cell_volume 2409.427658
_symmetry_space_group_name_H-M "I M A 2"
_symmetry_group_IT_number 46
_symmetry_cell_setting 'orthorhombic'
loop_
_space_group_symop_operation_xyz
x,y,z
-x,-y,z
1/2-x,y,z
1/2+x,-y,z
1/2+x,1/2+y,1/2+z
1/2-x,1/2-y,1/2+z
-x,1/2+y,1/2+z
x,1/2-y,1/2+z
loop_
_atom_site_type_symbol
_atom_site_label
_atom_site_fract_x
_atom_site_fract_y
_atom_site_fract_z
Si Si1 0.544354 0.914449 0.793920
Si Si2 0.566207 0.256768 0.209615
Si Si3 0.844030 0.337982 0.965718
Si Si4 0.658058 0.975652 0.539237
Si Si5 0.160089 0.323578 0.848716
Si Si6 0.081302 0.191266 0.046755
O O1 0.482469 0.838949 0.761323
O O2 0.607056 0.928313 0.663178
O O3 0.500000 0.000000 0.827168
O O4 0.590589 0.890499 0.943862
O O5 0.599935 0.201277 0.341228
O O6 0.508391 0.197554 0.113270
O O7 0.642958 0.285187 0.113548
O O8 0.750000 0.336201 0.920697
O O9 0.875279 0.432611 0.997589
O O10 0.750000 0.982810 0.596895
O O11 0.652430 0.921123 0.391637
O O12 0.250000 0.289542 0.881911
O O13 0.145594 0.313983 0.676612
O O14 0.096395 0.271903 0.944368
#
# Coordination Sequence:
#
# PCOD8193237 Si02
#       6
#     8   8   8   8   8   8
#     4  12  24  40  65  94 125 166 218 270 322 385
#     4  12  22  42  66  94 126 165 215 265 323 389
#     4  11  24  43  68  94 127 172 217 268 322 384
#     4  10  23  42  65  94 130 173 216 262 325 389
#     4  11  22  39  62  92 129 170 212 257 315 384
#     4  12  23  39  63  94 126 167 213 264 319 383
#
# _framework density 19.921744
#
# number of rings (size 3 to 8) (size 9 to 14) (size 15 to 20)
#    0.000    0.667    6.667    1.000    0.000    4.000 
#    0.000    0.000    0.000    0.000    0.000    0.000 
#    0.000    0.000    0.000    0.000    0.000    0.000 
#
# Total GULP energy -297624.438356 kJ/mol
# GULP energy per Si atom -12401.018265 kJ/mol
# Density = 1.987640 g / cm^3
# Si number density = 19.921744 Si / 1000 Ang^3
#
#
#
# Elastic Constant Matrix: (Units=GPa)
#
#
# Indices 1 2 3 4 5 6 
#
# 1 84.0564 42.7151 45.2808 0.0000 0.0000 0.0000
# 2 42.7151 114.5386 64.6357 0.0000 0.0000 0.0000
# 3 45.2808 64.6357 142.4595 0.0000 0.0000 0.0000
# 4 0.0000 0.0000 0.0000 38.4148 0.0000 0.0000
# 5 0.0000 0.0000 0.0000 0.0000 38.1908 0.0000
# 6 0.0000 0.0000 0.0000 0.0000 0.0000 34.5942
#
#
#
# Elastic Compliance Matrix: (Units=1/GPa)
#
#
# Indices 1 2 3 4 5 6 
#
# 1 0.015651 -0.004072 -0.003127 0.000000 0.000000 0.000000
# 2 -0.004072 0.012795 -0.004511 0.000000 0.000000 0.000000
# 3 -0.003127 -0.004511 0.010060 0.000000 0.000000 0.000000
# 4 0.000000 0.000000 0.000000 0.026032 0.000000 0.000000
# 5 0.000000 0.000000 0.000000 0.000000 0.026184 0.000000
# 6 0.000000 0.000000 0.000000 0.000000 0.000000 0.028907
#
#
# Mechanical properties :
#
#
# Convention : Reuss Voigt Hill
#
# Bulk Modulus (GPa) = 66.28793 71.81307 69.05050
# Shear Modulus (GPa) = 33.76636 34.80147 34.28391
#
# Velocity S-wave (km/s) = 4.12144 4.18414 4.15291
# Velocity P-wave (km/s) = 7.48297 7.71158 7.59814
#
# Compressibility (1/GPa) = 0.01508570
#
# Stress axis : x y z
#
# Youngs Moduli (GPa) = 63.89551 78.15673 99.40247
#
# Poissons Ratio (x) = 0.31825 0.31083
# Poissons Ratio (y) = 0.26018 0.44839
# Poissons Ratio (z) = 0.19980 0.35256
#
# Static dielectric constant tensor:
#      x y z
#    x 3.670410 0.000000 0.000000 
#    y 0.000000 3.741270 0.000000 
#    z 0.000000 0.000000 3.784900 
# 
# 
# High freq. dielectric constant tensor:
#      x y z
#    x 1.779710 0.000000 0.000000 
#    y 0.000000 1.777560 0.000000 
#    z 0.000000 0.000000 1.784660 
# 
# From -- ./inp_files/6588.got.cif
#   From: 2010.03.12/outbox.cif.g09.slc.cpg/sg46_4_cif.got.tgz:6588.got - 2010.04.14 02:56:35.
