data_PCOD8193898
_publ_section_title
;
Structure prediction by ZEFSAII (Michael W. Deem and Ramdas Pophale) SiO2 
 PCOD8193898
Probable space group: P M M M
;
_chemical_formula_sum "Si O2"
_cell_formula_units_Z 56
_cell_length_a 8.225255
_cell_length_b 30.512834
_cell_length_c 13.644860
_cell_angle_alpha 90.000000
_cell_angle_beta 90.000000
_cell_angle_gamma 90.000000
_cell_volume 3424.530206
_symmetry_space_group_name_H-M "P M M M"
_symmetry_group_IT_number 47
_symmetry_cell_setting 'orthorhombic'
loop_
_space_group_symop_operation_xyz
x,y,z
-x,-y,z
x,-y,-z
-x,y,-z
-x,-y,-z
x,y,-z
-x,y,z
x,-y,z
loop_
_atom_site_type_symbol
_atom_site_label
_atom_site_fract_x
_atom_site_fract_y
_atom_site_fract_z
Si Si1 0.815603 0.103565 0.114672
Si Si2 0.311165 0.242156 0.390150
Si Si3 0.810855 0.272570 0.109962
Si Si4 0.186262 0.326005 0.293176
Si Si5 0.810548 0.500000 0.611242
Si Si6 0.500000 0.950955 0.883883
Si Si7 0.313263 0.811446 0.204846
Si Si8 0.687297 0.589910 0.608377
O O1 0.669361 0.071749 0.151526
O O2 0.801652 0.148682 0.174144
O O3 0.000000 0.084561 0.133241
O O4 0.791755 0.113541 0.000000
O O5 0.271426 0.225768 0.500000
O O6 0.500000 0.253681 0.376877
O O7 0.213356 0.286580 0.369666
O O8 0.261700 0.203800 0.314403
O O9 0.756006 0.310621 0.184980
O O10 0.709573 0.228665 0.130016
O O11 0.000000 0.261390 0.126431
O O12 0.775271 0.288975 0.000000
O O13 0.284276 0.368958 0.321710
O O14 0.000000 0.339611 0.293769
O O15 0.743872 0.500000 0.500000
O O16 0.749560 0.545191 0.660943
O O17 0.000000 0.500000 0.617184
O O18 0.500000 0.000000 0.840040
O O19 0.500000 0.952420 0.000000
O O20 0.500000 0.827008 0.200503
O O21 0.769954 0.596693 0.500000
O O22 0.500000 0.584483 0.591912
#
# Coordination Sequence:
#
# PCOD8193898 Si02
#       8
#     8   8   8   8   4   4   8   8
#     4  10  19  30  46  68  95 126 157 191 232 275
#     4   9  18  31  44  60  87 122 155 187 225 267
#     4   9  18  31  44  60  85 116 150 188 227 264
#     4  10  19  29  43  63  85 113 149 184 219 262
#     4   9  17  29  45  65  86 107 136 175 213 250
#     4   9  18  32  48  68  95 125 159 195 230 275
#     4  10  18  28  44  65  90 120 155 193 228 268
#     4  10  19  30  44  62  87 116 142 170 210 261
#
# _framework density 16.352608
#
# number of rings (size 3 to 8) (size 9 to 14) (size 15 to 20)
#    0.000    2.429    0.714    2.357    0.000    7.143 
#    0.000    1.429    0.000    0.000    0.000    0.500 
#    0.000    5.143    0.000    1.286    0.000    0.143 
#
# Total GULP energy -694154.876234 kJ/mol
# GULP energy per Si atom -12395.622790 kJ/mol
# Density = 1.631539 g / cm^3
# Si number density = 16.352608 Si / 1000 Ang^3
#
#
#
# Elastic Constant Matrix: (Units=GPa)
#
#
# Indices 1 2 3 4 5 6 
#
# 1 72.7384 42.4339 20.7559 0.0000 0.0000 0.0000
# 2 42.4339 106.4568 38.7111 0.0000 0.0000 0.0000
# 3 20.7559 38.7111 82.8515 0.0000 0.0000 0.0000
# 4 0.0000 0.0000 0.0000 20.3616 0.0000 0.0000
# 5 0.0000 0.0000 0.0000 0.0000 16.4743 0.0000
# 6 0.0000 0.0000 0.0000 0.0000 0.0000 24.1382
#
#
#
# Elastic Compliance Matrix: (Units=1/GPa)
#
#
# Indices 1 2 3 4 5 6 
#
# 1 0.018047 -0.006685 -0.001397 0.000000 0.000000 0.000000
# 2 -0.006685 0.013793 -0.004770 0.000000 0.000000 0.000000
# 3 -0.001397 -0.004770 0.014648 0.000000 0.000000 0.000000
# 4 0.000000 0.000000 0.000000 0.049112 0.000000 0.000000
# 5 0.000000 0.000000 0.000000 0.000000 0.060701 0.000000
# 6 0.000000 0.000000 0.000000 0.000000 0.000000 0.041428
#
#
# Mechanical properties :
#
#
# Convention : Reuss Voigt Hill
#
# Bulk Modulus (GPa) = 48.11612 51.76094 49.93853
# Shear Modulus (GPa) = 21.70507 22.87120 22.28814
#
# Velocity S-wave (km/s) = 3.64719 3.74388 3.69585
# Velocity P-wave (km/s) = 6.87197 7.10004 6.98694
#
# Compressibility (1/GPa) = 0.02078306
#
# Stress axis : x y z
#
# Youngs Moduli (GPa) = 55.41173 72.50246 68.26682
#
# Poissons Ratio (x) = 0.48470 0.09540
# Poissons Ratio (y) = 0.37044 0.32561
# Poissons Ratio (z) = 0.07743 0.34581
#
# Static dielectric constant tensor:
#      x y z
#    x 3.174340 0.000000 0.000000 
#    y 0.000000 2.963470 0.000000 
#    z 0.000000 0.000000 2.957140 
# 
# 
# High freq. dielectric constant tensor:
#      x y z
#    x 1.641600 0.000000 0.000000 
#    y 0.000000 1.612570 0.000000 
#    z 0.000000 0.000000 1.594400 
# 
# From -- ./inp_files/22114.got.cif
#   From: 2010.03.12/outbox.cif.g09.slc.cpg/sg47_12_cif.got.tgz:22114.got - 2010.04.14 03:12:58.
