data_PCOD8193471
_publ_section_title
;
Structure prediction by ZEFSAII (Michael W. Deem and Ramdas Pophale) SiO2 
 PCOD8193471
Probable space group: P M M M
;
_chemical_formula_sum "Si O2"
_cell_formula_units_Z 64
_cell_length_a 21.946496
_cell_length_b 21.628847
_cell_length_c 9.032080
_cell_angle_alpha 90.000000
_cell_angle_beta 90.000000
_cell_angle_gamma 90.000000
_cell_volume 4287.324289
_symmetry_space_group_name_H-M "P M M M"
_symmetry_group_IT_number 47
_symmetry_cell_setting 'orthorhombic'
loop_
_space_group_symop_operation_xyz
x,y,z
-x,-y,z
x,-y,-z
-x,y,-z
-x,-y,-z
x,y,-z
-x,y,z
x,-y,z
loop_
_atom_site_type_symbol
_atom_site_label
_atom_site_fract_x
_atom_site_fract_y
_atom_site_fract_z
Si Si1 0.570038 0.175642 0.325276
Si Si2 0.659496 0.259247 0.174754
Si Si3 0.342375 0.932310 0.328222
Si Si4 0.849786 0.247282 0.336275
Si Si5 0.832056 0.429200 0.173710
Si Si6 0.252870 0.167183 0.671432
Si Si7 0.742597 0.653165 0.667557
Si Si8 0.067873 0.332931 0.174364
O O1 0.579738 0.184524 0.500000
O O2 0.500000 0.166566 0.282451
O O3 0.595069 0.237206 0.243887
O O4 0.606394 0.114897 0.266574
O O5 0.708630 0.207176 0.213640
O O6 0.681964 0.324177 0.246178
O O7 0.653229 0.267788 0.000000
O O8 0.355384 0.941531 0.500000
O O9 0.274103 0.903762 0.303843
O O10 0.346041 0.000000 0.250031
O O11 0.878521 0.247336 0.500000
O O12 0.819557 0.179771 0.298532
O O13 0.793125 0.293681 0.325850
O O14 0.903189 0.267459 0.225426
O O15 0.845390 0.500000 0.213939
O O16 0.770411 0.407608 0.254473
O O17 0.890497 0.389857 0.230353
O O18 0.822442 0.419053 0.000000
O O19 0.267800 0.186956 0.500000
O O20 0.724701 0.636313 0.500000
O O21 0.000000 0.340618 0.241194
O O22 0.064512 0.331652 0.000000
#
# Coordination Sequence:
#
# PCOD8193471 Si02
#       8
#     8   8   8   8   8   8   8   8
#     4   9  17  28  40  55  79 110 140 168 197 231
#     4  10  17  25  40  59  77  98 128 166 206 243
#     4   8  13  22  38  59  80 103 134 169 199 230
#     4   8  14  24  38  54  72  96 125 160 201 241
#     4   9  17  28  41  58  81 108 137 166 194 228
#     4   8  14  25  39  56  77  99 126 161 202 244
#     4   9  16  27  42  58  77 100 128 163 203 243
#     4   9  17  27  38  54  77 105 136 167 197 231
#
# _framework density 14.927726
#
# number of rings (size 3 to 8) (size 9 to 14) (size 15 to 20)
#    0.000    3.250    0.000    3.000    0.000    4.250 
#    0.000    2.500    0.000    6.000    0.000    7.000 
#    0.000    1.000    0.000   11.500    0.000    4.000 
#
# Total GULP energy -792862.640639 kJ/mol
# GULP energy per Si atom -12388.478760 kJ/mol
# Density = 1.489375 g / cm^3
# Si number density = 14.927726 Si / 1000 Ang^3
#
#
#
# Elastic Constant Matrix: (Units=GPa)
#
#
# Indices 1 2 3 4 5 6 
#
# 1 83.7360 69.6781 30.6643 0.0000 0.0000 0.0000
# 2 69.6781 65.0913 27.3872 0.0000 0.0000 0.0000
# 3 30.6643 27.3872 48.7524 0.0000 0.0000 0.0000
# 4 0.0000 0.0000 0.0000 13.1870 0.0000 0.0000
# 5 0.0000 0.0000 0.0000 0.0000 19.4990 0.0000
# 6 0.0000 0.0000 0.0000 0.0000 0.0000 17.1703
#
#
#
# Elastic Compliance Matrix: (Units=1/GPa)
#
#
# Indices 1 2 3 4 5 6 
#
# 1 0.109902 -0.115974 -0.003977 0.000000 0.000000 0.000000
# 2 -0.115974 0.142499 -0.007105 0.000000 0.000000 0.000000
# 3 -0.003977 -0.007105 0.027004 0.000000 0.000000 0.000000
# 4 0.000000 0.000000 0.000000 0.075832 0.000000 0.000000
# 5 0.000000 0.000000 0.000000 0.000000 0.051285 0.000000
# 6 0.000000 0.000000 0.000000 0.000000 0.000000 0.058240
#
#
# Mechanical properties :
#
#
# Convention : Reuss Voigt Hill
#
# Bulk Modulus (GPa) = 39.53464 50.33766 44.93615
# Shear Modulus (GPa) = 6.87470 14.62794 10.75132
#
# Velocity S-wave (km/s) = 2.14833 3.13376 2.68661
# Velocity P-wave (km/s) = 5.71798 6.84748 6.30806
#
# Compressibility (1/GPa) = 0.02529427
#
# Stress axis : x y z
#
# Youngs Moduli (GPa) = 9.09900 7.01761 37.03088
#
# Poissons Ratio (x) = 0.81386 0.14726
# Poissons Ratio (y) = 1.05524 0.26311
# Poissons Ratio (z) = 0.03618 0.04986
#
# Static dielectric constant tensor:
#      x y z
#    x 2.972210 0.000000 0.000000 
#    y 0.000000 2.974660 0.000000 
#    z 0.000000 0.000000 2.764870 
# 
# 
# High freq. dielectric constant tensor:
#      x y z
#    x 1.548550 0.000000 0.000000 
#    y 0.000000 1.543410 0.000000 
#    z 0.000000 0.000000 1.560180 
# 
# From -- ./inp_files/11947.got.cif
#   From: 2010.03.12/outbox.cif.g09.slc.cpg/sg47_6_cif.got.tgz:11947.got - 2010.04.14 03:12:58.
