data_PCOD8193674
_publ_section_title
;
Structure prediction by ZEFSAII (Michael W. Deem and Ramdas Pophale) SiO2 
 PCOD8193674
Probable space group: P M M M
;
_chemical_formula_sum "Si O2"
_cell_formula_units_Z 52
_cell_length_a 9.010257
_cell_length_b 16.402277
_cell_length_c 19.302843
_cell_angle_alpha 90.000000
_cell_angle_beta 90.000000
_cell_angle_gamma 90.000000
_cell_volume 2852.742675
_symmetry_space_group_name_H-M "P M M M"
_symmetry_group_IT_number 47
_symmetry_cell_setting 'orthorhombic'
loop_
_space_group_symop_operation_xyz
x,y,z
-x,-y,z
x,-y,-z
-x,y,-z
-x,-y,-z
x,y,-z
-x,y,z
x,-y,z
loop_
_atom_site_type_symbol
_atom_site_label
_atom_site_fract_x
_atom_site_fract_y
_atom_site_fract_z
Si Si1 0.677197 0.500000 0.421814
Si Si2 0.325426 0.825196 0.687683
Si Si3 0.832546 0.594843 0.801461
Si Si4 0.676113 0.651067 0.332798
Si Si5 0.327054 0.323618 0.079431
Si Si6 0.326592 0.158560 0.844997
Si Si7 0.675663 0.000000 0.309575
Si Si8 0.824456 0.000000 0.838863
O O1 0.500000 0.500000 0.420774
O O2 0.737978 0.500000 0.500000
O O3 0.740311 0.581867 0.384534
O O4 0.500000 0.817101 0.688892
O O5 0.268927 0.743720 0.646549
O O6 0.268837 0.822702 0.767014
O O7 0.281552 0.913580 0.652132
O O8 0.829311 0.500000 0.786098
O O9 0.730294 0.638246 0.745039
O O10 0.766803 0.611077 0.877406
O O11 0.000000 0.628740 0.796687
O O12 0.500000 0.644086 0.333002
O O13 0.500000 0.342761 0.089614
O O14 0.287857 0.233527 0.105702
O O15 0.278737 0.331528 0.000000
O O16 0.500000 0.137835 0.845077
O O17 0.237931 0.081126 0.876042
O O18 0.500000 0.000000 0.293567
O O19 0.763004 0.000000 0.238666
O O20 0.000000 0.000000 0.840168
#
# Coordination Sequence:
#
# PCOD8193674 Si02
#       8
#     4   8   8   8   8   8   4   4
#     4   9  18  30  49  81 114 137 164 213 263 294
#     4   8  13  23  44  69  89 121 161 204 250 294
#     4  11  23  36  51  73 102 131 163 203 256 312
#     4  10  17  30  53  76  99 132 175 211 245 298
#     4  10  21  37  56  74  92 122 170 220 261 306
#     4   9  16  30  48  66  92 121 159 207 258 303
#     4   8  14  26  40  61  96 124 156 208 257 292
#     4  10  18  26  41  67  94 124 163 198 247 308
#
# _framework density 18.228072000000001
#
# number of rings (size 3 to 8) (size 9 to 14) (size 15 to 20)
#    0.000    2.538    2.308    2.077    0.000    2.154 
#    0.000    1.923    0.000    3.231    0.000    0.538 
#    0.000    4.308    0.000    0.000    0.000   10.308 
#
# Total GULP energy -644180.564747 kJ/mol
# GULP energy per Si atom -12388.087784 kJ/mol
# Density = 1.818658 g / cm^3
# Si number density = 18.228072 Si / 1000 Ang^3
#
#
#
# Elastic Constant Matrix: (Units=GPa)
#
#
# Indices 1 2 3 4 5 6 
#
# 1 35.3614 20.3065 6.8877 0.0000 0.0000 0.0000
# 2 20.3065 148.8681 48.0278 0.0000 0.0000 0.0000
# 3 6.8877 48.0278 62.7690 0.0000 0.0000 0.0000
# 4 0.0000 0.0000 0.0000 16.3024 0.0000 0.0000
# 5 0.0000 0.0000 0.0000 0.0000 5.2554 0.0000
# 6 0.0000 0.0000 0.0000 0.0000 0.0000 15.5122
#
#
#
# Elastic Compliance Matrix: (Units=1/GPa)
#
#
# Indices 1 2 3 4 5 6 
#
# 1 0.030685 -0.004115 -0.000218 0.000000 0.000000 0.000000
# 2 -0.004115 0.009471 -0.006795 0.000000 0.000000 0.000000
# 3 -0.000218 -0.006795 0.021155 0.000000 0.000000 0.000000
# 4 0.000000 0.000000 0.000000 0.061341 0.000000 0.000000
# 5 0.000000 0.000000 0.000000 0.000000 0.190280 0.000000
# 6 0.000000 0.000000 0.000000 0.000000 0.000000 0.064465
#
#
# Mechanical properties :
#
#
# Convention : Reuss Voigt Hill
#
# Bulk Modulus (GPa) = 25.60597 44.16026 34.88312
# Shear Modulus (GPa) = 12.11615 18.86577 15.49096
#
# Velocity S-wave (km/s) = 2.58097 3.22061 2.91837
# Velocity P-wave (km/s) = 4.79165 6.17324 5.52579
#
# Compressibility (1/GPa) = 0.03905340
#
# Stress axis : x y z
#
# Youngs Moduli (GPa) = 32.58911 105.58618 47.27078
#
# Poissons Ratio (x) = 0.43451 0.01032
# Poissons Ratio (y) = 0.13411 0.32121
# Poissons Ratio (z) = 0.00712 0.71747
#
# Static dielectric constant tensor:
#      x y z
#    x 3.085790 0.000000 0.000000 
#    y 0.000000 4.163100 0.000000 
#    z 0.000000 0.000000 3.007630 
# 
# 
# High freq. dielectric constant tensor:
#      x y z
#    x 1.672940 0.000000 0.000000 
#    y 0.000000 1.737160 0.000000 
#    z 0.000000 0.000000 1.649330 
# 
# From -- ./inp_files/26833.got.cif
#   From: 2010.03.12/outbox.cif.g09.slc.cpg/sg47_14_cif.got.tgz:26833.got - 2010.04.14 03:12:58.
