data_PCOD8193061
_publ_section_title
;
Structure prediction by ZEFSAII (Michael W. Deem and Ramdas Pophale) SiO2 
 PCOD8193061
Probable space group: I M A 2
;
_chemical_formula_sum "Si O2"
_cell_formula_units_Z 56
_cell_length_a 31.115698
_cell_length_b 18.303945
_cell_length_c 5.119052
_cell_angle_alpha 90.000000
_cell_angle_beta 90.000000
_cell_angle_gamma 90.000000
_cell_volume 2915.505003
_symmetry_space_group_name_H-M "I M A 2"
_symmetry_group_IT_number 46
_symmetry_cell_setting 'orthorhombic'
loop_
_space_group_symop_operation_xyz
x,y,z
-x,-y,z
1/2-x,y,z
1/2+x,-y,z
1/2+x,1/2+y,1/2+z
1/2-x,1/2-y,1/2+z
-x,1/2+y,1/2+z
x,1/2-y,1/2+z
loop_
_atom_site_type_symbol
_atom_site_label
_atom_site_fract_x
_atom_site_fract_y
_atom_site_fract_z
Si Si1 0.117333 0.067334 0.843540
Si Si2 0.658559 0.519947 0.829811
Si Si3 0.750000 0.048089 0.389078
Si Si4 0.604089 0.081707 0.028746
Si Si5 0.341250 0.794241 0.817159
Si Si6 0.250000 0.854265 0.883556
Si Si7 0.437750 0.205760 0.988911
Si Si8 0.961700 0.295096 0.520934
O O1 0.140314 0.069818 0.563689
O O2 0.085110 0.133103 0.892210
O O3 0.154281 0.068553 0.066753
O O4 0.090566 0.991068 0.867694
O O5 0.629977 0.445215 0.790282
O O6 0.708250 0.502212 0.867107
O O7 0.750000 0.112219 0.174306
O O8 0.750000 0.080306 0.678127
O O9 0.637340 0.126953 0.850445
O O10 0.561856 0.128886 0.088623
O O11 0.356871 0.739629 0.044729
O O12 0.290236 0.801976 0.836057
O O13 0.424802 0.268185 0.778773
O O14 0.488072 0.188445 0.004100
O O15 0.947670 0.262886 0.241951
#
# Coordination Sequence:
#
# PCOD8193061 Si02
#       8
#     8   8   4   8   8   4   8   8
#     4  10  22  38  61  90 116 147 203 238 301 357
#     4  10  22  36  59  88 115 155 197 246 295 345
#     4  12  20  39  60  80 120 157 196 255 293 343
#     4  10  23  36  58  80 122 150 207 241 286 340
#     4  12  24  35  51  74 110 159 204 252 292 324
#     4  12  22  37  52  74 110 155 216 249 293 331
#     4  10  21  41  65  90 119 149 187 239 301 374
#     4  10  22  37  58  84 118 163 201 235 292 344
#
# _framework density 19.207650999999998
#
# number of rings (size 3 to 8) (size 9 to 14) (size 15 to 20)
#    0.857    0.571    1.429    4.714    4.000    0.571 
#    0.000    0.000    3.143    0.000    0.000   10.000 
#    0.000    0.000    0.000    0.000    0.000    0.000 
#
# Total GULP energy -347067.986757 kJ/mol
# GULP energy per Si atom -12395.285241 kJ/mol
# Density = 1.916393 g / cm^3
# Si number density = 19.207651 Si / 1000 Ang^3
#
#
#
# Elastic Constant Matrix: (Units=GPa)
#
#
# Indices 1 2 3 4 5 6 
#
# 1 71.8063 47.1192 33.7209 0.0000 0.0000 0.0000
# 2 47.1192 86.7622 20.8576 0.0000 0.0000 0.0000
# 3 33.7209 20.8576 106.4270 0.0003 -0.0002 -0.0003
# 4 0.0000 0.0000 0.0003 27.0296 0.0000 0.0000
# 5 0.0000 0.0000 -0.0002 0.0000 20.8005 0.0000
# 6 0.0000 0.0000 -0.0003 0.0000 0.0000 27.7640
#
#
#
# Elastic Compliance Matrix: (Units=1/GPa)
#
#
# Indices 1 2 3 4 5 6 
#
# 1 0.024230 -0.011873 -0.005350 0.000000 0.000000 0.000000
# 2 -0.011873 0.017913 0.000251 0.000000 0.000000 0.000000
# 3 -0.005350 0.000251 0.011042 0.000000 0.000000 0.000000
# 4 0.000000 0.000000 0.000000 0.036996 0.000000 0.000000
# 5 0.000000 0.000000 0.000000 0.000000 0.048076 0.000000
# 6 0.000000 0.000000 0.000000 0.000000 0.000000 0.036018
#
#
# Mechanical properties :
#
#
# Convention : Reuss Voigt Hill
#
# Bulk Modulus (GPa) = 51.97082 52.04343 52.00712
# Shear Modulus (GPa) = 23.29567 26.00534 24.65050
#
# Velocity S-wave (km/s) = 3.48635 3.68354 3.58630
# Velocity P-wave (km/s) = 6.58197 6.72646 6.65461
#
# Compressibility (1/GPa) = 0.01924157
#
# Stress axis : x y z
#
# Youngs Moduli (GPa) = 41.27178 55.82483 90.56247
#
# Poissons Ratio (x) = 0.66278 0.48453
# Poissons Ratio (y) = 0.49000 -0.02274
# Poissons Ratio (z) = 0.22081 -0.01402
#
# Static dielectric constant tensor:
#      x y z
#    x 3.449890 0.000000 0.000000 
#    y 0.000000 3.213900 0.000000 
#    z 0.000000 0.000000 3.743410 
# 
# 
# High freq. dielectric constant tensor:
#      x y z
#    x 1.737660 0.000000 0.000000 
#    y 0.000000 1.721670 0.000000 
#    z 0.000000 0.000000 1.764580 
# 
# From -- ./inp_files/2733.got.cif
#   From: 2010.03.12/outbox.cif.g09.slc.cpg/sg46_2_cif.got.tgz:2733.got - 2010.04.14 02:56:35.
