data_PCOD8193891
_publ_section_title
;
Structure prediction by ZEFSAII (Michael W. Deem and Ramdas Pophale) SiO2 
 PCOD8193891
Probable space group: P M M M
;
_chemical_formula_sum "Si O2"
_cell_formula_units_Z 64
_cell_length_a 9.448621
_cell_length_b 29.096078
_cell_length_c 14.601419
_cell_angle_alpha 90.000000
_cell_angle_beta 90.000000
_cell_angle_gamma 90.000000
_cell_volume 4014.190187
_symmetry_space_group_name_H-M "P M M M"
_symmetry_group_IT_number 47
_symmetry_cell_setting 'orthorhombic'
loop_
_space_group_symop_operation_xyz
x,y,z
-x,-y,z
x,-y,-z
-x,y,-z
-x,-y,-z
x,y,-z
-x,y,z
x,-y,z
loop_
_atom_site_type_symbol
_atom_site_label
_atom_site_fract_x
_atom_site_fract_y
_atom_site_fract_z
Si Si1 0.165986 0.772681 0.210633
Si Si2 0.834713 0.449627 0.728045
Si Si3 0.837817 0.392092 0.103298
Si Si4 0.835859 0.369480 0.604742
Si Si5 0.164710 0.863980 0.104951
Si Si6 0.658901 0.949578 0.891275
Si Si7 0.337526 0.304346 0.107905
Si Si8 0.167251 0.732356 0.600754
O O1 0.205643 0.822909 0.173396
O O2 0.258402 0.737658 0.153769
O O3 0.207394 0.768203 0.318667
O O4 0.000000 0.762160 0.195124
O O5 0.765473 0.500000 0.710541
O O6 0.810392 0.436467 0.834095
O O7 0.763413 0.409836 0.665129
O O8 0.000000 0.452911 0.704991
O O9 0.738513 0.351102 0.138627
O O10 0.000000 0.375041 0.111488
O O11 0.800014 0.406612 0.000000
O O12 0.812036 0.383155 0.500000
O O13 0.770811 0.318651 0.624579
O O14 0.000000 0.367629 0.631321
O O15 0.240916 0.909152 0.145431
O O16 0.000000 0.874564 0.107674
O O17 0.211579 0.852398 0.000000
O O18 0.500000 0.940050 0.856373
O O19 0.709843 0.000000 0.855843
O O20 0.663033 0.949606 0.000000
O O21 0.500000 0.305803 0.140150
O O22 0.324594 0.297513 0.000000
O O23 0.224784 0.748576 0.500000
O O24 0.000000 0.727393 0.593042
#
# Coordination Sequence:
#
# PCOD8193891 Si02
#       8
#     8   8   8   8   8   8   8   8
#     4  10  18  28  44  64  88 116 143 173 211 254
#     4   9  16  24  36  57  81 101 124 157 197 240
#     4   9  17  29  44  59  76 102 134 165 198 237
#     4   8  13  21  33  51  77 105 128 153 192 241
#     4   9  17  26  36  56  86 116 144 173 207 248
#     4   8  14  25  40  56  76 108 149 185 213 243
#     4  10  20  31  43  61  84 110 141 174 206 244
#     4   8  14  25  42  63  84 108 140 174 206 245
#
# _framework density 15.943440000000001
#
# number of rings (size 3 to 8) (size 9 to 14) (size 15 to 20)
#    0.000    3.125    0.000    2.625    0.000    4.500 
#    0.000    5.000    0.000    0.750    0.000    1.750 
#    0.000    0.500    0.000   10.750    0.000    5.250 
#
# Total GULP energy -793042.574213 kJ/mol
# GULP energy per Si atom -12391.290222 kJ/mol
# Density = 1.590715 g / cm^3
# Si number density = 15.943440 Si / 1000 Ang^3
#
#
#
# Elastic Constant Matrix: (Units=GPa)
#
#
# Indices 1 2 3 4 5 6 
#
# 1 33.7805 33.3252 19.1382 0.0000 0.0000 0.0000
# 2 33.3252 124.2109 63.3277 0.0000 0.0000 0.0000
# 3 19.1382 63.3277 64.5896 0.0000 0.0000 0.0000
# 4 0.0000 0.0000 0.0000 17.9729 0.0000 0.0000
# 5 0.0000 0.0000 0.0000 0.0000 7.1087 0.0000
# 6 0.0000 0.0000 0.0000 0.0000 0.0000 5.6104
#
#
#
# Elastic Compliance Matrix: (Units=1/GPa)
#
#
# Indices 1 2 3 4 5 6 
#
# 1 0.040491 -0.009491 -0.002692 0.000000 0.000000 0.000000
# 2 -0.009491 0.018322 -0.015152 0.000000 0.000000 0.000000
# 3 -0.002692 -0.015152 0.031136 0.000000 0.000000 0.000000
# 4 0.000000 0.000000 0.000000 0.055639 0.000000 0.000000
# 5 0.000000 0.000000 0.000000 0.000000 0.140673 0.000000
# 6 0.000000 0.000000 0.000000 0.000000 0.000000 0.178241
#
#
# Mechanical properties :
#
#
# Convention : Reuss Voigt Hill
#
# Bulk Modulus (GPa) = 28.34533 50.46257 39.40395
# Shear Modulus (GPa) = 9.41737 13.25771 11.33754
#
# Velocity S-wave (km/s) = 2.43301 2.88678 2.66956
# Velocity P-wave (km/s) = 5.07051 6.54454 5.85411
#
# Compressibility (1/GPa) = 0.03527917
#
# Stress axis : x y z
#
# Youngs Moduli (GPa) = 24.69670 54.57780 32.11687
#
# Poissons Ratio (x) = 0.51800 0.08646
# Poissons Ratio (y) = 0.23440 0.48664
# Poissons Ratio (z) = 0.06648 0.82698
#
# Static dielectric constant tensor:
#      x y z
#    x 2.756060 0.000000 0.000000 
#    y 0.000000 3.251380 0.000000 
#    z 0.000000 0.000000 3.108110 
# 
# 
# High freq. dielectric constant tensor:
#      x y z
#    x 1.570780 0.000000 0.000000 
#    y 0.000000 1.605670 0.000000 
#    z 0.000000 0.000000 1.597040 
# 
# From -- ./inp_files/22155.got.cif
#   From: 2010.03.12/outbox.cif.g09.slc.cpg/sg47_12_cif.got.tgz:22155.got - 2010.04.14 03:12:58.
