data_PCOD8193767
_publ_section_title
;
Structure prediction by ZEFSAII (Michael W. Deem and Ramdas Pophale) SiO2 
 PCOD8193767
Probable space group: P M M M
;
_chemical_formula_sum "Si O2"
_cell_formula_units_Z 64
_cell_length_a 9.537838
_cell_length_b 14.410234
_cell_length_c 29.189985
_cell_angle_alpha 90.000000
_cell_angle_beta 90.000000
_cell_angle_gamma 90.000000
_cell_volume 4011.943855
_symmetry_space_group_name_H-M "P M M M"
_symmetry_group_IT_number 47
_symmetry_cell_setting 'orthorhombic'
loop_
_space_group_symop_operation_xyz
x,y,z
-x,-y,z
x,-y,-z
-x,y,-z
-x,-y,-z
x,y,-z
-x,y,z
x,-y,z
loop_
_atom_site_type_symbol
_atom_site_label
_atom_site_fract_x
_atom_site_fract_y
_atom_site_fract_z
Si Si1 0.160589 0.896190 0.101711
Si Si2 0.156193 0.890152 0.548379
Si Si3 0.658570 0.390763 0.125598
Si Si4 0.665015 0.783638 0.276888
Si Si5 0.340468 0.107802 0.186884
Si Si6 0.333815 0.602174 0.227600
Si Si7 0.162361 0.715820 0.051344
Si Si8 0.167557 0.107371 0.352123
O O1 0.248480 0.857622 0.144525
O O2 0.184498 0.825994 0.059797
O O3 0.000000 0.897739 0.117543
O O4 0.209551 0.000000 0.087024
O O5 0.232938 0.858895 0.500000
O O6 0.224450 0.861286 0.597064
O O7 0.000000 0.848482 0.546931
O O8 0.146235 0.000000 0.549406
O O9 0.500000 0.353588 0.120034
O O10 0.663696 0.500000 0.117641
O O11 0.717652 0.367399 0.176691
O O12 0.753452 0.343980 0.087490
O O13 0.500000 0.793312 0.288097
O O14 0.708432 0.841400 0.232482
O O15 0.709034 0.676872 0.266366
O O16 0.755313 0.822222 0.318534
O O17 0.500000 0.132850 0.174962
O O18 0.317725 0.000000 0.196037
O O19 0.500000 0.596265 0.224043
O O20 0.273630 0.500000 0.240966
O O21 0.000000 0.689257 0.056632
O O22 0.215526 0.694240 0.000000
O O23 0.000000 0.119246 0.348612
O O24 0.208248 0.000000 0.341594
#
# Coordination Sequence:
#
# PCOD8193767 Si02
#       8
#     8   8   8   8   8   8   8   8
#     4   9  18  32  48  64  82 108 144 179 204 231
#     4   7  10  19  36  55  75 105 147 186 212 238
#     4   9  18  34  55  73  86 104 134 171 207 245
#     4  10  18  27  42  62  85 114 142 169 207 253
#     4   9  17  28  42  61  84 110 140 171 204 245
#     4   8  15  29  48  67  84 105 138 176 209 245
#     4  10  21  34  47  66  91 115 136 162 203 251
#     4   9  17  27  39  59  88 119 148 178 211 245
#
# _framework density 15.952367000000001
#
# number of rings (size 3 to 8) (size 9 to 14) (size 15 to 20)
#    0.000    3.125    0.000    3.000    0.000    3.750 
#    0.000    4.375    0.000    1.500    0.000    4.375 
#    0.000    0.500    0.000    6.250    0.000    0.250 
#
# Total GULP energy -792889.551369 kJ/mol
# GULP energy per Si atom -12388.899240 kJ/mol
# Density = 1.591606 g / cm^3
# Si number density = 15.952367 Si / 1000 Ang^3
#
#
#
# Elastic Constant Matrix: (Units=GPa)
#
#
# Indices 1 2 3 4 5 6 
#
# 1 35.3042 26.1613 40.9505 0.0000 0.0000 0.0000
# 2 26.1613 62.1322 64.2105 0.0000 0.0000 0.0000
# 3 40.9505 64.2105 126.9955 0.0000 0.0000 0.0000
# 4 0.0000 0.0000 0.0000 17.6533 0.0000 0.0000
# 5 0.0000 0.0000 0.0000 0.0000 -9.3338 0.0000
# 6 0.0000 0.0000 0.0000 0.0000 0.0000 18.4320
#
#
#
# Elastic Compliance Matrix: (Units=1/GPa)
#
#
# Indices 1 2 3 4 5 6 
#
# 1 0.047403 -0.008718 -0.010877 0.000000 0.000000 0.000000
# 2 -0.008718 0.035311 -0.015043 0.000000 0.000000 0.000000
# 3 -0.010877 -0.015043 0.018987 0.000000 0.000000 0.000000
# 4 0.000000 0.000000 0.000000 0.056647 0.000000 0.000000
# 5 0.000000 0.000000 0.000000 0.000000 -0.107137 0.000000
# 6 0.000000 0.000000 0.000000 0.000000 0.000000 0.054253
#
#
# Mechanical properties :
#
#
# Convention : Reuss Voigt Hill
#
# Bulk Modulus (GPa) = 30.84015 54.11961 42.47988
# Shear Modulus (GPa) = 26.94712 11.55761 19.25237
#
# Velocity S-wave (km/s) = 4.11448 2.69459 3.47777
# Velocity P-wave (km/s) = 6.47661 6.60912 6.54320
#
# Compressibility (1/GPa) = 0.03242526
#
# Stress axis : x y z
#
# Youngs Moduli (GPa) = 21.09591 28.31947 52.66639
#
# Poissons Ratio (x) = 0.24690 0.57286
# Poissons Ratio (y) = 0.18392 0.79224
# Poissons Ratio (z) = 0.22946 0.42600
#
# Static dielectric constant tensor:
#      x y z
#    x 2.815840 0.000000 0.000000 
#    y 0.000000 3.121450 0.000000 
#    z 0.000000 0.000000 3.303040 
# 
# 
# High freq. dielectric constant tensor:
#      x y z
#    x 1.583940 0.000000 0.000000 
#    y 0.000000 1.599520 0.000000 
#    z 0.000000 0.000000 1.608690 
# 
# From -- ./inp_files/14290.got.cif
#   From: 2010.03.12/outbox.cif.g09.slc.cpg/sg47_8_cif.got.tgz:14290.got - 2010.04.14 03:12:58.
