data_PCOD8193452
_publ_section_title
;
Structure prediction by ZEFSAII (Michael W. Deem and Ramdas Pophale) SiO2 
 PCOD8193452
Probable space group: P M M M
;
_chemical_formula_sum "Si O2"
_cell_formula_units_Z 40
_cell_length_a 11.888453
_cell_length_b 20.461621
_cell_length_c 8.652708
_cell_angle_alpha 90.000000
_cell_angle_beta 90.000000
_cell_angle_gamma 90.000000
_cell_volume 2104.831959
_symmetry_space_group_name_H-M "P M M M"
_symmetry_group_IT_number 47
_symmetry_cell_setting 'orthorhombic'
loop_
_space_group_symop_operation_xyz
x,y,z
-x,-y,z
x,-y,-z
-x,y,-z
-x,-y,-z
x,y,-z
-x,y,z
x,-y,z
loop_
_atom_site_type_symbol
_atom_site_label
_atom_site_fract_x
_atom_site_fract_y
_atom_site_fract_z
Si Si1 0.000000 0.217953 0.672616
Si Si2 0.373503 0.500000 0.816060
Si Si3 0.754932 0.372529 0.184518
Si Si4 0.870364 0.000000 0.314027
Si Si5 0.628200 0.752340 0.315803
Si Si6 0.780094 0.134216 0.323122
Si Si7 0.000000 0.351171 0.822033
O O1 0.106634 0.173665 0.698387
O O2 0.000000 0.248827 0.500000
O O3 0.000000 0.273649 0.800426
O O4 0.500000 0.500000 0.750798
O O5 0.311647 0.435510 0.753018
O O6 0.373089 0.500000 0.000000
O O7 0.698453 0.307568 0.249225
O O8 0.883500 0.379641 0.248310
O O9 0.752741 0.368294 0.000000
O O10 0.801621 0.062897 0.247447
O O11 0.873664 0.000000 0.500000
O O12 0.000000 0.000000 0.254381
O O13 0.638013 0.749690 0.500000
O O14 0.500000 0.747299 0.258669
O O15 0.679441 0.821308 0.251989
O O16 0.749999 0.121736 0.500000
O O17 0.000000 0.369035 0.000000
#
# Coordination Sequence:
#
# PCOD8193452 Si02
#       7
#     4   4   8   4   8   8   4
#     4  10  16  27  49  71  95 129 162 194 240 290
#     4   9  18  33  52  72  95 127 166 201 232 276
#     4  10  20  34  53  75  99 127 160 199 242 288
#     4   9  14  22  39  67  97 122 156 199 240 285
#     4  10  20  33  49  71  99 130 165 203 240 282
#     4   9  16  26  43  69  97 125 159 200 242 284
#     4  10  20  31  47  77 105 123 152 198 246 288
#
# _framework density 19.003893999999999
#
# number of rings (size 3 to 8) (size 9 to 14) (size 15 to 20)
#    0.000    2.400    3.000    0.600    0.000    1.600 
#    0.000    3.000    0.000    4.800    0.000    5.600 
#    0.000    1.600    0.000    0.000    0.000    0.000 
#
# Total GULP energy -495634.753802 kJ/mol
# GULP energy per Si atom -12390.868845 kJ/mol
# Density = 1.896064 g / cm^3
# Si number density = 19.003894 Si / 1000 Ang^3
#
#
#
# Elastic Constant Matrix: (Units=GPa)
#
#
# Indices 1 2 3 4 5 6 
#
# 1 179.3239 88.3221 16.0379 0.0000 0.0000 0.0000
# 2 88.3221 161.6555 8.5581 0.0000 0.0000 0.0000
# 3 16.0379 8.5581 7.2541 0.0000 0.0000 0.0000
# 4 0.0000 0.0000 0.0000 -0.9345 0.0000 0.0000
# 5 0.0000 0.0000 0.0000 0.0000 17.0640 0.0000
# 6 0.0000 0.0000 0.0000 0.0000 0.0000 36.0770
#
#
#
# Elastic Compliance Matrix: (Units=1/GPa)
#
#
# Indices 1 2 3 4 5 6 
#
# 1 0.008922 -0.004085 -0.014905 0.000000 0.000000 0.000000
# 2 -0.004085 0.008469 -0.000959 0.000000 0.000000 0.000000
# 3 -0.014905 -0.000959 0.171939 0.000000 0.000000 0.000000
# 4 0.000000 0.000000 0.000000 -1.070138 0.000000 0.000000
# 5 0.000000 0.000000 0.000000 0.000000 0.058603 0.000000
# 6 0.000000 0.000000 0.000000 0.000000 0.000000 0.027719
#
#
# Mechanical properties :
#
#
# Convention : Reuss Voigt Hill
#
# Bulk Modulus (GPa) = 6.69207 63.78553 35.23880
# Shear Modulus (GPa) = -7.09443 26.12900 9.51728
#
# Velocity S-wave (km/s) = -1.93423 3.71203 2.24030
# Velocity P-wave (km/s) = 1.20800 7.21176 5.02744
#
# Compressibility (1/GPa) = 0.14943058
#
# Stress axis : x y z
#
# Youngs Moduli (GPa) = 112.08597 118.07975 5.81602
#
# Poissons Ratio (x) = 0.48240 0.08669
# Poissons Ratio (y) = 0.45791 0.00558
# Poissons Ratio (z) = 1.67066 0.11323
#
# Static dielectric constant tensor:
#      x y z
#    x 3.231880 0.000000 0.000000 
#    y 0.000000 3.724230 0.000000 
#    z 0.000000 0.000000 2.991340 
# 
# 
# High freq. dielectric constant tensor:
#      x y z
#    x 1.750090 0.000000 0.000000 
#    y 0.000000 1.745620 0.000000 
#    z 0.000000 0.000000 1.678780 
# 
# From -- ./inp_files/4151.got.cif
#   From: 2010.03.12/outbox.cif.g09.slc.cpg/sg47_3_cif.got.tgz:4151.got - 2010.04.14 03:12:58.
