data_PCOD8193739
_publ_section_title
;
Structure prediction by ZEFSAII (Michael W. Deem and Ramdas Pophale) SiO2 
 PCOD8193739
Probable space group: P M M M
;
_chemical_formula_sum "Si O2"
_cell_formula_units_Z 40
_cell_length_a 13.682953
_cell_length_b 13.941512
_cell_length_c 14.001913
_cell_angle_alpha 90.000000
_cell_angle_beta 90.000000
_cell_angle_gamma 90.000000
_cell_volume 2671.019674
_symmetry_space_group_name_H-M "P M M M"
_symmetry_group_IT_number 47
_symmetry_cell_setting 'orthorhombic'
loop_
_space_group_symop_operation_xyz
x,y,z
-x,-y,z
x,-y,-z
-x,y,-z
-x,-y,-z
x,y,-z
-x,y,z
x,-y,z
loop_
_atom_site_type_symbol
_atom_site_label
_atom_site_fract_x
_atom_site_fract_y
_atom_site_fract_z
Si Si1 0.614533 0.390127 0.212370
Si Si2 0.614030 0.895081 0.273161
Si Si3 0.615283 0.278142 0.394853
Si Si4 0.892245 0.892700 0.113067
Si Si5 0.296561 0.216885 0.112235
O O1 0.500000 0.369790 0.192251
O O2 0.641635 0.500000 0.193205
O O3 0.640196 0.364940 0.322582
O O4 0.680541 0.326596 0.141222
O O5 0.500000 0.904316 0.289957
O O6 0.658636 0.820921 0.350877
O O7 0.629858 0.854295 0.166624
O O8 0.663146 0.000000 0.285502
O O9 0.661311 0.297285 0.500000
O O10 0.500000 0.268013 0.404650
O O11 0.812898 0.813571 0.145796
O O12 0.000000 0.863457 0.152279
O O13 0.864483 0.000000 0.150210
O O14 0.895251 0.895396 0.000000
O O15 0.312333 0.203282 0.000000
#
# Coordination Sequence:
#
# PCOD8193739 Si02
#       5
#     8   8   8   8   8
#     4   9  18  30  41  56  79 105 136 173 206 236
#     4   9  17  26  35  53  82 110 134 160 190 229
#     4   8  14  25  40  56  74  99 131 164 198 235
#     4   8  14  25  41  60  79  99 127 163 200 237
#     4  10  18  27  40  56  77 107 139 167 195 228
#
# _framework density 14.975554000000001
#
# number of rings (size 3 to 8) (size 9 to 14) (size 15 to 20)
#    0.000    3.200    0.000    3.000    0.000    4.000 
#    0.000    6.000    0.000    0.600    0.000    2.800 
#    0.000   12.800    0.000   51.200    0.000    4.800 
#
# Total GULP energy -495562.681451 kJ/mol
# GULP energy per Si atom -12389.067036 kJ/mol
# Density = 1.494147 g / cm^3
# Si number density = 14.975554 Si / 1000 Ang^3
#
#
#
# Elastic Constant Matrix: (Units=GPa)
#
#
# Indices 1 2 3 4 5 6 
#
# 1 42.5935 36.3446 13.6306 0.0000 0.0000 0.0000
# 2 36.3446 100.0532 10.6806 0.0000 0.0000 0.0000
# 3 13.6306 10.6806 54.9227 0.0000 0.0000 0.0000
# 4 0.0000 0.0000 0.0000 13.1778 0.0000 0.0000
# 5 0.0000 0.0000 0.0000 0.0000 2.8895 0.0000
# 6 0.0000 0.0000 0.0000 0.0000 0.0000 19.2479
#
#
#
# Elastic Compliance Matrix: (Units=1/GPa)
#
#
# Indices 1 2 3 4 5 6 
#
# 1 0.036201 -0.012450 -0.006563 0.000000 0.000000 0.000000
# 2 -0.012450 0.014488 0.000272 0.000000 0.000000 0.000000
# 3 -0.006563 0.000272 0.019783 0.000000 0.000000 0.000000
# 4 0.000000 0.000000 0.000000 0.075885 0.000000 0.000000
# 5 0.000000 0.000000 0.000000 0.000000 0.346082 0.000000
# 6 0.000000 0.000000 0.000000 0.000000 0.000000 0.051954
#
#
# Mechanical properties :
#
#
# Convention : Reuss Voigt Hill
#
# Bulk Modulus (GPa) = 30.31099 35.43121 32.87110
# Shear Modulus (GPa) = 8.43353 16.19062 12.31207
#
# Velocity S-wave (km/s) = 2.37566 3.29163 2.87042
# Velocity P-wave (km/s) = 5.27345 6.17715 5.74310
#
# Compressibility (1/GPa) = 0.03299134
#
# Stress axis : x y z
#
# Youngs Moduli (GPa) = 27.62340 69.02294 50.54763
#
# Poissons Ratio (x) = 0.85930 0.33176
# Poissons Ratio (y) = 0.34390 -0.01376
# Poissons Ratio (z) = 0.18130 -0.01879
#
# Static dielectric constant tensor:
#      x y z
#    x 2.806860 0.000000 0.000000 
#    y 0.000000 3.059140 0.000000 
#    z 0.000000 0.000000 2.915300 
# 
# 
# High freq. dielectric constant tensor:
#      x y z
#    x 1.527750 0.000000 0.000000 
#    y 0.000000 1.574960 0.000000 
#    z 0.000000 0.000000 1.557490 
# 
# From -- ./inp_files/17312.got.cif
#   From: 2010.03.12/outbox.cif.g09.slc.cpg/sg47_9_cif.got.tgz:17312.got - 2010.04.14 03:12:58.
