data_PCOD8193034
_publ_section_title
;
Structure prediction by ZEFSAII (Michael W. Deem and Ramdas Pophale) SiO2 
 PCOD8193034
Probable space group: I M A 2
;
_chemical_formula_sum "Si O2"
_cell_formula_units_Z 36
_cell_length_a 12.200342
_cell_length_b 7.962914
_cell_length_c 15.293912
_cell_angle_alpha 90.000000
_cell_angle_beta 90.000000
_cell_angle_gamma 90.000000
_cell_volume 1485.807743
_symmetry_space_group_name_H-M "I M A 2"
_symmetry_group_IT_number 46
_symmetry_cell_setting 'orthorhombic'
loop_
_space_group_symop_operation_xyz
x,y,z
-x,-y,z
1/2-x,y,z
1/2+x,-y,z
1/2+x,1/2+y,1/2+z
1/2-x,1/2-y,1/2+z
-x,1/2+y,1/2+z
x,1/2-y,1/2+z
loop_
_atom_site_type_symbol
_atom_site_label
_atom_site_fract_x
_atom_site_fract_y
_atom_site_fract_z
Si Si1 0.622917 0.208650 0.454450
Si Si2 0.500000 0.500000 0.521149
Si Si3 0.880546 0.102650 0.268437
Si Si4 0.118977 0.212180 0.162498
Si Si5 0.621167 0.409806 0.145604
O O1 0.750000 0.226246 0.441295
O O2 0.577987 0.396304 0.457763
O O3 0.575230 0.123671 0.366876
O O4 0.594719 0.108716 0.542849
O O5 0.577455 0.626810 0.574150
O O6 0.750000 0.110615 0.261310
O O7 0.926195 0.246715 0.199901
O O8 0.081182 0.087408 0.241684
O O9 0.250000 0.223855 0.157850
O O10 0.071406 0.405155 0.172124
O O11 0.750000 0.414616 0.163848
#
# Coordination Sequence:
#
# PCOD8193034 Si02
#       5
#     8   4   8   8   8
#     4  10  21  40  64  93 131 170 212 267 324 383
#     4  12  22  38  62  94 120 172 208 262 324 376
#     4   9  18  39  64  88 125 165 206 258 315 377
#     4  10  21  40  64  90 122 166 214 259 317 379
#     4   9  18  38  66  89 119 166 211 259 318 375
#
# _framework density 24.229244999999999
#
# number of rings (size 3 to 8) (size 9 to 14) (size 15 to 20)
#    0.000    2.222    2.222    0.667    0.000    0.889 
#    8.000    0.000    0.000    0.000    0.000    0.000 
#    0.000    0.000    0.000    0.000    0.000    0.000 
#
# Total GULP energy -223206.260732 kJ/mol
# GULP energy per Si atom -12400.347818 kJ/mol
# Density = 2.417410 g / cm^3
# Si number density = 24.229245 Si / 1000 Ang^3
#
#
#
# Elastic Constant Matrix: (Units=GPa)
#
#
# Indices 1 2 3 4 5 6 
#
# 1 63.2852 83.4073 45.9230 0.0000 0.0000 0.0000
# 2 83.4073 240.4054 106.2048 0.0000 0.0000 0.0000
# 3 45.9230 106.2048 194.4069 0.0000 0.0000 0.0000
# 4 0.0000 0.0000 0.0000 63.1898 0.0000 0.0000
# 5 0.0000 0.0000 0.0000 0.0000 20.0550 0.0000
# 6 0.0000 0.0000 0.0000 0.0000 0.0000 58.8440
#
#
#
# Elastic Compliance Matrix: (Units=1/GPa)
#
#
# Indices 1 2 3 4 5 6 
#
# 1 0.029595 -0.009463 -0.001821 0.000000 0.000000 0.000000
# 2 -0.009463 0.008509 -0.002413 0.000000 0.000000 0.000000
# 3 -0.001821 -0.002413 0.006892 0.000000 0.000000 0.000000
# 4 0.000000 0.000000 0.000000 0.015825 0.000000 0.000000
# 5 0.000000 0.000000 0.000000 0.000000 0.049863 0.000000
# 6 0.000000 0.000000 0.000000 0.000000 0.000000 0.016994
#
#
# Mechanical properties :
#
#
# Convention : Reuss Voigt Hill
#
# Bulk Modulus (GPa) = 56.81351 107.68530 82.24941
# Shear Modulus (GPa) = 31.06727 45.92192 38.49460
#
# Velocity S-wave (km/s) = 3.58470 4.35824 3.99026
# Velocity P-wave (km/s) = 6.37437 8.35862 7.43300
#
# Compressibility (1/GPa) = 0.01760145
#
# Stress axis : x y z
#
# Youngs Moduli (GPa) = 33.78905 117.52393 145.09024
#
# Poissons Ratio (x) = 1.11218 0.26423
# Poissons Ratio (y) = 0.31976 0.35010
# Poissons Ratio (z) = 0.06154 0.28358
#
# Static dielectric constant tensor:
#      x y z
#    x 5.025530 0.000000 0.000000 
#    y 0.000000 4.828610 0.000000 
#    z 0.000000 0.000000 4.459360 
# 
# 
# High freq. dielectric constant tensor:
#      x y z
#    x 2.033020 0.000000 0.000000 
#    y 0.000000 1.983460 0.000000 
#    z 0.000000 0.000000 1.935040 
# 
# From -- ./inp_files/14980.got.cif
#   From: 2010.03.12/outbox.cif.g09.slc.cpg/sg46_8_cif.got.tgz:14980.got - 2010.04.14 02:56:35.
