data_PCOD8193798
_publ_section_title
;
Structure prediction by ZEFSAII (Michael W. Deem and Ramdas Pophale) SiO2 
 PCOD8193798
Probable space group: P M M M
;
_chemical_formula_sum "Si O2"
_cell_formula_units_Z 64
_cell_length_a 9.165271
_cell_length_b 14.166991
_cell_length_c 29.410224
_cell_angle_alpha 90.000000
_cell_angle_beta 90.000000
_cell_angle_gamma 90.000000
_cell_volume 3818.750294
_symmetry_space_group_name_H-M "P M M M"
_symmetry_group_IT_number 47
_symmetry_cell_setting 'orthorhombic'
loop_
_space_group_symop_operation_xyz
x,y,z
-x,-y,z
x,-y,-z
-x,y,-z
-x,-y,-z
x,y,-z
-x,y,z
x,-y,z
loop_
_atom_site_type_symbol
_atom_site_label
_atom_site_fract_x
_atom_site_fract_y
_atom_site_fract_z
Si Si1 0.667454 0.104927 0.598785
Si Si2 0.172611 0.765834 0.228472
Si Si3 0.829561 0.107003 0.687405
Si Si4 0.825326 0.893287 0.854194
Si Si5 0.836993 0.111950 0.048099
Si Si6 0.834103 0.611343 0.368389
Si Si7 0.331620 0.290223 0.551284
Si Si8 0.329208 0.390066 0.277150
O O1 0.500000 0.100179 0.613270
O O2 0.753709 0.145924 0.642056
O O3 0.691950 0.177600 0.557583
O O4 0.723268 0.000000 0.584540
O O5 0.219889 0.832311 0.269866
O O6 0.229279 0.818215 0.183031
O O7 0.256696 0.666817 0.235157
O O8 0.000000 0.747240 0.226722
O O9 0.000000 0.114108 0.679228
O O10 0.779794 0.000000 0.696878
O O11 0.763130 0.857707 0.903787
O O12 0.000000 0.895272 0.855460
O O13 0.770122 0.000000 0.842712
O O14 0.000000 0.153880 0.046631
O O15 0.845477 0.000000 0.049588
O O16 0.757961 0.143537 0.000000
O O17 0.827207 0.500000 0.373090
O O18 0.767781 0.652083 0.414430
O O19 0.744226 0.644514 0.324205
O O20 0.000000 0.647196 0.362446
O O21 0.285246 0.315998 0.500000
O O22 0.500000 0.317300 0.560131
O O23 0.500000 0.368344 0.280087
O O24 0.298164 0.500000 0.268184
#
# Coordination Sequence:
#
# PCOD8193798 Si02
#       8
#     8   8   8   8   8   8   8   8
#     4   9  18  32  48  65  86 114 148 181 209 240
#     4  10  18  27  43  66  91 119 148 180 219 260
#     4   9  17  28  42  62  88 116 144 172 205 249
#     4   8  13  21  34  56  89 126 159 188 221 263
#     4   7   9  14  26  46  76 117 160 194 221 253
#     4  10  21  37  56  75  93 113 139 174 216 261
#     4  10  21  35  51  72  96 121 147 175 211 255
#     4  10  21  36  52  68  87 113 144 178 218 264
#
# _framework density 16.759409999999999
#
# number of rings (size 3 to 8) (size 9 to 14) (size 15 to 20)
#    0.000    2.875    0.000    3.000    0.000    6.750 
#    0.000    2.500    0.000    1.125    0.000    2.625 
#    0.000    1.000    0.000    9.375    0.000    3.750 
#
# Total GULP energy -793074.012829 kJ/mol
# GULP energy per Si atom -12391.781450 kJ/mol
# Density = 1.672127 g / cm^3
# Si number density = 16.759410 Si / 1000 Ang^3
#
#
#
# Elastic Constant Matrix: (Units=GPa)
#
#
# Indices 1 2 3 4 5 6 
#
# 1 46.0230 29.0522 38.9466 0.0000 0.0000 0.0000
# 2 29.0522 51.5967 53.9237 0.0000 0.0000 0.0000
# 3 38.9466 53.9237 129.6018 0.0000 0.0000 0.0000
# 4 0.0000 0.0000 0.0000 19.5831 0.0000 0.0000
# 5 0.0000 0.0000 0.0000 0.0000 3.0680 0.0000
# 6 0.0000 0.0000 0.0000 0.0000 0.0000 21.3230
#
#
#
# Elastic Compliance Matrix: (Units=1/GPa)
#
#
# Indices 1 2 3 4 5 6 
#
# 1 0.034893 -0.015373 -0.004089 0.000000 0.000000 0.000000
# 2 -0.015373 0.041066 -0.012467 0.000000 0.000000 0.000000
# 3 -0.004089 -0.012467 0.014132 0.000000 0.000000 0.000000
# 4 0.000000 0.000000 0.000000 0.051064 0.000000 0.000000
# 5 0.000000 0.000000 0.000000 0.000000 0.325949 0.000000
# 6 0.000000 0.000000 0.000000 0.000000 0.000000 0.046898
#
#
# Mechanical properties :
#
#
# Convention : Reuss Voigt Hill
#
# Bulk Modulus (GPa) = 38.12050 52.34072 45.23061
# Shear Modulus (GPa) = 8.52361 15.81475 12.16918
#
# Velocity S-wave (km/s) = 2.25763 3.07520 2.69757
# Velocity P-wave (km/s) = 5.43976 6.62628 6.06212
#
# Compressibility (1/GPa) = 0.02623261
#
# Stress axis : x y z
#
# Youngs Moduli (GPa) = 28.65870 24.35093 70.76215
#
# Poissons Ratio (x) = 0.37436 0.28937
# Poissons Ratio (y) = 0.44058 0.88217
# Poissons Ratio (z) = 0.11720 0.30357
#
# Static dielectric constant tensor:
#      x y z
#    x 2.909550 0.000000 0.000000 
#    y 0.000000 3.120660 0.000000 
#    z 0.000000 0.000000 3.492690 
# 
# 
# High freq. dielectric constant tensor:
#      x y z
#    x 1.616780 0.000000 0.000000 
#    y 0.000000 1.629450 0.000000 
#    z 0.000000 0.000000 1.641740 
# 
# From -- ./inp_files/34410.got.cif
#   From: 2010.03.12/outbox.cif.g09.slc.cpg/sg47_18_cif.got.tgz:34410.got - 2010.04.14 03:12:58.
