data_PCOD8193592
_publ_section_title
;
Structure prediction by ZEFSAII (Michael W. Deem and Ramdas Pophale) SiO2 
 PCOD8193592
Probable space group: P M M M
;
_chemical_formula_sum "Si O2"
_cell_formula_units_Z 40
_cell_length_a 9.184648
_cell_length_b 20.975815
_cell_length_c 14.510663
_cell_angle_alpha 90.000000
_cell_angle_beta 90.000000
_cell_angle_gamma 90.000000
_cell_volume 2795.558706
_symmetry_space_group_name_H-M "P M M M"
_symmetry_group_IT_number 47
_symmetry_cell_setting 'orthorhombic'
loop_
_space_group_symop_operation_xyz
x,y,z
-x,-y,z
x,-y,-z
-x,y,-z
-x,-y,-z
x,y,-z
-x,y,z
x,-y,z
loop_
_atom_site_type_symbol
_atom_site_label
_atom_site_fract_x
_atom_site_fract_y
_atom_site_fract_z
Si Si1 0.326480 0.116487 0.706590
Si Si2 0.327516 0.071586 0.099776
Si Si3 0.837165 0.500000 0.610053
Si Si4 0.662122 0.620330 0.609808
Si Si5 0.673153 0.240660 0.397534
Si Si6 0.830127 0.000000 0.391094
O O1 0.500000 0.107034 0.695300
O O2 0.276324 0.114145 0.813816
O O3 0.272971 0.185111 0.670252
O O4 0.246786 0.062325 0.648958
O O5 0.500000 0.069381 0.098094
O O6 0.267291 0.000000 0.114469
O O7 0.271310 0.098223 0.000000
O O8 0.832099 0.500000 0.500000
O O9 0.760827 0.563522 0.649655
O O10 0.000000 0.500000 0.647985
O O11 0.656918 0.617786 0.500000
O O12 0.500000 0.610481 0.649799
O O13 0.726410 0.689824 0.639019
O O14 0.735494 0.226935 0.500000
O O15 0.500000 0.242751 0.402393
O O16 0.807776 0.000000 0.500000
O O17 0.000000 0.000000 0.364146
#
# Coordination Sequence:
#
# PCOD8193592 Si02
#       6
#     8   8   4   8   8   4
#     4  10  17  28  46  61  71  95 133 165 189 222
#     4   8  13  22  38  61  82  94 113 153 200 236
#     4   9  15  21  31  49  69  89 120 155 174 198
#     4   8  13  22  34  47  66  92 117 145 184 218
#     4   8  14  23  36  55  74  91 121 162 190 212
#     4  11  23  33  38  51  78 104 125 157 200 235
#
# _framework density 14.30841
#
# number of rings (size 3 to 8) (size 9 to 14) (size 15 to 20)
#    0.000    3.200    1.000    3.000    0.000    2.800 
#    0.000    1.000    0.000    4.800    0.000    0.000 
#    0.000    0.000    0.000    0.900    0.000   24.500 
#
# Total GULP energy -495568.449312 kJ/mol
# GULP energy per Si atom -12389.211233 kJ/mol
# Density = 1.427584 g / cm^3
# Si number density = 14.308410 Si / 1000 Ang^3
#
#
#
# Elastic Constant Matrix: (Units=GPa)
#
#
# Indices 1 2 3 4 5 6 
#
# 1 45.3583 40.2489 21.1205 0.0000 0.0000 0.0000
# 2 40.2489 144.5617 57.0896 0.0000 0.0000 0.0000
# 3 21.1205 57.0896 82.1344 0.0000 0.0000 0.0000
# 4 0.0000 0.0000 0.0000 3.7492 0.0000 0.0000
# 5 0.0000 0.0000 0.0000 0.0000 6.5364 0.0000
# 6 0.0000 0.0000 0.0000 0.0000 0.0000 4.9819
#
#
#
# Elastic Compliance Matrix: (Units=1/GPa)
#
#
# Indices 1 2 3 4 5 6 
#
# 1 0.029679 -0.007235 -0.002603 0.000000 0.000000 0.000000
# 2 -0.007235 0.011299 -0.005993 0.000000 0.000000 0.000000
# 3 -0.002603 -0.005993 0.017010 0.000000 0.000000 0.000000
# 4 0.000000 0.000000 0.000000 0.266724 0.000000 0.000000
# 5 0.000000 0.000000 0.000000 0.000000 0.152989 0.000000
# 6 0.000000 0.000000 0.000000 0.000000 0.000000 0.200725
#
#
# Mechanical properties :
#
#
# Convention : Reuss Voigt Hill
#
# Bulk Modulus (GPa) = 37.98576 56.55249 47.26913
# Shear Modulus (GPa) = 6.95543 13.29320 10.12432
#
# Velocity S-wave (km/s) = 2.20718 3.05134 2.66292
# Velocity P-wave (km/s) = 5.75335 7.21276 6.52399
#
# Compressibility (1/GPa) = 0.02632565
#
# Stress axis : x y z
#
# Youngs Moduli (GPa) = 33.69397 88.50649 58.78931
#
# Poissons Ratio (x) = 0.64038 0.15301
# Poissons Ratio (y) = 0.24379 0.35231
# Poissons Ratio (z) = 0.08769 0.53040
#
# Static dielectric constant tensor:
#      x y z
#    x 2.575360 0.000000 0.000000 
#    y 0.000000 3.095530 0.000000 
#    z 0.000000 0.000000 2.817230 
# 
# 
# High freq. dielectric constant tensor:
#      x y z
#    x 1.515190 0.000000 0.000000 
#    y 0.000000 1.546730 0.000000 
#    z 0.000000 0.000000 1.506000 
# 
# From -- ./inp_files/6666.got.cif
#   From: 2010.03.12/outbox.cif.g09.slc.cpg/sg47_4_cif.got.tgz:6666.got - 2010.04.14 03:12:58.
