data_PCOD8193446
_publ_section_title
;
Structure prediction by ZEFSAII (Michael W. Deem and Ramdas Pophale) SiO2 
 PCOD8193446
Probable space group: P M M M
;
_chemical_formula_sum "Si O2"
_cell_formula_units_Z 52
_cell_length_a 18.369920
_cell_length_b 17.751669
_cell_length_c 12.879221
_cell_angle_alpha 90.000000
_cell_angle_beta 90.000000
_cell_angle_gamma 90.000000
_cell_volume 4199.871974
_symmetry_space_group_name_H-M "P M M M"
_symmetry_group_IT_number 47
_symmetry_cell_setting 'orthorhombic'
loop_
_space_group_symop_operation_xyz
x,y,z
-x,-y,z
x,-y,-z
-x,y,-z
-x,-y,-z
x,y,-z
-x,y,z
x,-y,z
loop_
_atom_site_type_symbol
_atom_site_label
_atom_site_fract_x
_atom_site_fract_y
_atom_site_fract_z
Si Si1 0.584360 0.710789 0.119559
Si Si2 0.579367 0.589158 0.500000
Si Si3 0.176160 0.089789 0.194166
Si Si4 0.080954 0.910944 0.000000
Si Si5 0.918863 0.089346 0.384625
Si Si6 0.580577 0.000000 0.123298
Si Si7 0.586961 0.415903 0.277072
Si Si8 0.673281 0.140494 0.877960
O O1 0.500000 0.730620 0.142349
O O2 0.613071 0.641270 0.188332
O O3 0.633636 0.781827 0.148692
O O4 0.594544 0.687678 0.000000
O O5 0.569570 0.500000 0.500000
O O6 0.500000 0.628185 0.500000
O O7 0.618809 0.610913 0.609402
O O8 0.123275 0.116027 0.101962
O O9 0.139546 0.118114 0.301039
O O10 0.251350 0.134852 0.183925
O O11 0.190473 0.000000 0.190425
O O12 0.000000 0.875273 0.000000
O O13 0.074568 0.000000 0.000000
O O14 0.894862 0.115834 0.500000
O O15 0.000000 0.120449 0.359135
O O16 0.921890 0.000000 0.379070
O O17 0.621688 0.926010 0.162859
O O18 0.500000 0.000000 0.172058
O O19 0.575605 0.000000 0.000000
O O20 0.500000 0.417213 0.284231
O O21 0.615326 0.500000 0.249023
O O22 0.689186 0.131464 0.000000
#
# Coordination Sequence:
#
# PCOD8193446 Si02
#       8
#     8   4   8   4   8   4   8   8
#     4   9  17  26  35  49  70  94 121 152 184 219
#     4   7  10  18  34  54  70  83 103 131 166 208
#     4  10  16  23  36  51  69  90 116 146 181 219
#     4   9  16  22  32  52  74  90 105 134 175 221
#     4   8  14  24  37  52  69  88 111 140 172 209
#     4   9  16  24  36  48  61  86 123 165 196 220
#     4   8  13  22  37  55  72  89 109 137 174 216
#     4  10  17  25  35  48  69  93 121 154 192 220
#
# _framework density 12.38133
#
# number of rings (size 3 to 8) (size 9 to 14) (size 15 to 20)
#    0.000    3.154    1.538    2.308    0.000    4.000 
#    0.000    1.538    1.692    0.000    0.000    0.000 
#    0.000    0.615    0.000    0.000    0.000    3.846 
#
# Total GULP energy -644334.240445 kJ/mol
# GULP energy per Si atom -12391.043085 kJ/mol
# Density = 1.235315 g / cm^3
# Si number density = 12.381330 Si / 1000 Ang^3
#
#
#
# Elastic Constant Matrix: (Units=GPa)
#
#
# Indices 1 2 3 4 5 6 
#
# 1 79.4834 30.2282 46.0336 0.0000 0.0000 0.0000
# 2 30.2282 59.9040 41.9305 0.0000 0.0000 0.0000
# 3 46.0336 41.9305 89.3354 0.0000 0.0000 0.0000
# 4 0.0000 0.0000 0.0000 9.4981 0.0000 0.0000
# 5 0.0000 0.0000 0.0000 0.0000 13.7300 0.0000
# 6 0.0000 0.0000 0.0000 0.0000 0.0000 2.6349
#
#
#
# Elastic Compliance Matrix: (Units=1/GPa)
#
#
# Indices 1 2 3 4 5 6 
#
# 1 0.018548 -0.003976 -0.007691 0.000000 0.000000 0.000000
# 2 -0.003976 0.025713 -0.010020 0.000000 0.000000 0.000000
# 3 -0.007691 -0.010020 0.019860 0.000000 0.000000 0.000000
# 4 0.000000 0.000000 0.000000 0.105284 0.000000 0.000000
# 5 0.000000 0.000000 0.000000 0.000000 0.072833 0.000000
# 6 0.000000 0.000000 0.000000 0.000000 0.000000 0.379524
#
#
# Mechanical properties :
#
#
# Convention : Reuss Voigt Hill
#
# Bulk Modulus (GPa) = 48.20060 51.67860 49.93960
# Shear Modulus (GPa) = 7.43989 12.54130 9.99060
#
# Velocity S-wave (km/s) = 2.45398 3.18609 2.84369
# Velocity P-wave (km/s) = 6.85886 7.44074 7.15572
#
# Compressibility (1/GPa) = 0.02074663
#
# Stress axis : x y z
#
# Youngs Moduli (GPa) = 53.91474 38.89034 50.35204
#
# Poissons Ratio (x) = 0.15462 0.38728
# Poissons Ratio (y) = 0.21435 0.50454
# Poissons Ratio (z) = 0.41468 0.38969
#
# Static dielectric constant tensor:
#      x y z
#    x 2.430930 0.000000 0.000000 
#    y 0.000000 2.266770 0.000000 
#    z 0.000000 0.000000 2.712550 
# 
# 
# High freq. dielectric constant tensor:
#      x y z
#    x 1.447160 0.000000 0.000000 
#    y 0.000000 1.427200 0.000000 
#    z 0.000000 0.000000 1.468960 
# 
# From -- ./inp_files/19291.got.cif
#   From: 2010.03.12/outbox.cif.g09.slc.cpg/sg47_10_cif.got.tgz:19291.got - 2010.04.14 03:12:58.
