data_PCOD8193465
_publ_section_title
;
Structure prediction by ZEFSAII (Michael W. Deem and Ramdas Pophale) SiO2 
 PCOD8193465
Probable space group: P M M M
;
_chemical_formula_sum "Si O2"
_cell_formula_units_Z 52
_cell_length_a 23.191215
_cell_length_b 11.921477
_cell_length_c 14.387216
_cell_angle_alpha 90.000000
_cell_angle_beta 90.000000
_cell_angle_gamma 90.000000
_cell_volume 3977.684484
_symmetry_space_group_name_H-M "P M M M"
_symmetry_group_IT_number 47
_symmetry_cell_setting 'orthorhombic'
loop_
_space_group_symop_operation_xyz
x,y,z
-x,-y,z
x,-y,-z
-x,y,-z
-x,-y,-z
x,y,-z
-x,y,z
x,-y,z
loop_
_atom_site_type_symbol
_atom_site_label
_atom_site_fract_x
_atom_site_fract_y
_atom_site_fract_z
Si Si1 0.064459 0.632856 0.101784
Si Si2 0.668960 0.624897 0.610301
Si Si3 0.000000 0.632826 0.603546
Si Si4 0.114461 0.366959 0.291539
Si Si5 0.616298 0.000000 0.389105
Si Si6 0.782199 0.242272 0.609775
Si Si7 0.564070 0.769257 0.610778
Si Si8 0.254630 0.000000 0.390508
O O1 0.059671 0.500000 0.105060
O O2 0.107743 0.670565 0.183610
O O3 0.000000 0.681615 0.118541
O O4 0.087558 0.672255 0.000000
O O5 0.666528 0.620232 0.500000
O O6 0.675896 0.500000 0.651904
O O7 0.722419 0.701179 0.641356
O O8 0.609491 0.677804 0.649006
O O9 0.056964 0.673963 0.656185
O O10 0.000000 0.500000 0.599967
O O11 0.000000 0.684166 0.500000
O O12 0.124595 0.500000 0.303019
O O13 0.167577 0.301457 0.334069
O O14 0.582525 0.891349 0.351967
O O15 0.681091 0.000000 0.347431
O O16 0.618538 0.000000 0.500000
O O17 0.793030 0.258022 0.500000
O O18 0.780212 0.111425 0.639223
O O19 0.564774 0.769885 0.500000
O O20 0.500000 0.739874 0.647835
O O21 0.262845 0.000000 0.500000
#
# Coordination Sequence:
#
# PCOD8193465 Si02
#       8
#     8   8   4   8   4   8   8   4
#     4   8  13  23  39  58  80 101 119 144 180 222
#     4   9  16  24  32  44  65  92 120 150 186 227
#     4   9  16  24  33  50  78 104 122 146 182 220
#     4  10  17  25  38  58  79  98 122 150 185 227
#     4   9  13  22  35  46  59  79 116 164 201 220
#     4  10  18  27  38  51  69  96 129 161 190 221
#     4   9  15  21  31  46  62  83 115 158 199 225
#     4   9  16  27  40  48  61  91 129 164 192 218
#
# _framework density 13.072932
#
# number of rings (size 3 to 8) (size 9 to 14) (size 15 to 20)
#    0.000    2.846    2.308    1.615    0.000    2.769 
#    0.000    1.538    0.000    0.462    0.000    2.692 
#    0.000    1.231    0.000    0.000    0.000    0.769 
#
# Total GULP energy -644406.366040 kJ/mol
# GULP energy per Si atom -12392.430116 kJ/mol
# Density = 1.304318 g / cm^3
# Si number density = 13.072932 Si / 1000 Ang^3
#
#
#
# Elastic Constant Matrix: (Units=GPa)
#
#
# Indices 1 2 3 4 5 6 
#
# 1 111.5236 47.0734 39.4498 0.0000 0.0000 0.0000
# 2 47.0734 81.7927 22.7795 0.0000 0.0000 0.0000
# 3 39.4498 22.7795 54.0237 0.0000 0.0000 0.0000
# 4 0.0000 0.0000 0.0000 5.1446 0.0000 0.0000
# 5 0.0000 0.0000 0.0000 0.0000 1.1869 0.0000
# 6 0.0000 0.0000 0.0000 0.0000 0.0000 15.7784
#
#
#
# Elastic Compliance Matrix: (Units=1/GPa)
#
#
# Indices 1 2 3 4 5 6 
#
# 1 0.014310 -0.006034 -0.007905 0.000000 0.000000 0.000000
# 2 -0.006034 0.016397 -0.002508 0.000000 0.000000 0.000000
# 3 -0.007905 -0.002508 0.025340 0.000000 0.000000 0.000000
# 4 0.000000 0.000000 0.000000 0.194379 0.000000 0.000000
# 5 0.000000 0.000000 0.000000 0.000000 0.842522 0.000000
# 6 0.000000 0.000000 0.000000 0.000000 0.000000 0.063378
#
#
# Mechanical properties :
#
#
# Convention : Reuss Voigt Hill
#
# Bulk Modulus (GPa) = 43.19005 51.77169 47.48087
# Shear Modulus (GPa) = 4.17732 13.62447 8.90090
#
# Velocity S-wave (km/s) = 1.78951 3.23180 2.61217
# Velocity P-wave (km/s) = 6.11386 7.32217 6.74513
#
# Compressibility (1/GPa) = 0.02315348
#
# Stress axis : x y z
#
# Youngs Moduli (GPa) = 69.88100 60.98610 39.46254
#
# Poissons Ratio (x) = 0.36799 0.31196
# Poissons Ratio (y) = 0.42167 0.09896
# Poissons Ratio (z) = 0.55243 0.15294
#
# Static dielectric constant tensor:
#      x y z
#    x 2.727490 0.000000 0.000000 
#    y 0.000000 2.639380 0.000000 
#    z 0.000000 0.000000 2.389810 
# 
# 
# High freq. dielectric constant tensor:
#      x y z
#    x 1.503280 0.000000 0.000000 
#    y 0.000000 1.481300 0.000000 
#    z 0.000000 0.000000 1.435260 
# 
# From -- ./inp_files/25328.got.cif
#   From: 2010.03.12/outbox.cif.g09.slc.cpg/sg47_13_cif.got.tgz:25328.got - 2010.04.14 03:12:58.
