data_PCOD8193859
_publ_section_title
;
Structure prediction by ZEFSAII (Michael W. Deem and Ramdas Pophale) SiO2 
 PCOD8193859
Probable space group: P M M M
;
_chemical_formula_sum "Si O2"
_cell_formula_units_Z 64
_cell_length_a 21.109665
_cell_length_b 21.731505
_cell_length_c 9.390588
_cell_angle_alpha 90.000000
_cell_angle_beta 90.000000
_cell_angle_gamma 90.000000
_cell_volume 4307.883325
_symmetry_space_group_name_H-M "P M M M"
_symmetry_group_IT_number 47
_symmetry_cell_setting 'orthorhombic'
loop_
_space_group_symop_operation_xyz
x,y,z
-x,-y,z
x,-y,-z
-x,y,-z
-x,-y,-z
x,y,-z
-x,y,z
x,-y,z
loop_
_atom_site_type_symbol
_atom_site_label
_atom_site_fract_x
_atom_site_fract_y
_atom_site_fract_z
Si Si1 0.074834 0.430231 0.162648
Si Si2 0.351967 0.646749 0.157538
Si Si3 0.725612 0.432452 0.657626
Si Si4 0.669461 0.831443 0.662246
Si Si5 0.160124 0.339681 0.664290
Si Si6 0.430682 0.724172 0.343565
Si Si7 0.243139 0.251278 0.836654
Si Si8 0.429168 0.069930 0.330920
O O1 0.094249 0.500000 0.211850
O O2 0.102460 0.375685 0.260846
O O3 0.000000 0.423595 0.172097
O O4 0.098044 0.420144 0.000000
O O5 0.329657 0.585001 0.234346
O O6 0.415099 0.671247 0.231552
O O7 0.297355 0.697786 0.163777
O O8 0.370627 0.628177 0.000000
O O9 0.696351 0.429939 0.500000
O O10 0.751026 0.500000 0.696402
O O11 0.783071 0.386711 0.669844
O O12 0.693413 0.843722 0.500000
O O13 0.618660 0.778205 0.664116
O O14 0.729640 0.810776 0.759287
O O15 0.630172 0.889565 0.727703
O O16 0.142817 0.322536 0.500000
O O17 0.181854 0.277885 0.750119
O O18 0.428427 0.694046 0.500000
O O19 0.500000 0.751246 0.309379
O O20 0.223581 0.235372 0.000000
O O21 0.429444 0.076747 0.500000
O O22 0.500000 0.089831 0.275535
O O23 0.416007 0.000000 0.283657
#
# Coordination Sequence:
#
# PCOD8193859 Si02
#       8
#     8   8   8   8   8   8   8   8
#     4   9  18  31  44  59  83 115 145 169 196 234
#     4   9  17  27  38  53  71  89 111 142 180 222
#     4   9  17  28  41  56  73  92 113 141 181 226
#     4   9  15  24  39  58  78  99 128 165 198 230
#     4  10  18  28  43  62  81 100 128 166 202 233
#     4   9  16  25  38  54  70  90 115 144 182 226
#     4   9  17  28  40  55  76 101 127 157 198 244
#     4   8  13  21  35  57  83 109 138 172 207 242
#
# _framework density 14.856484999999999
#
# number of rings (size 3 to 8) (size 9 to 14) (size 15 to 20)
#    0.000    3.000    0.000    2.625    0.000    6.500 
#    0.000    0.625    0.000    1.875    0.000    3.500 
#    0.000    0.000    0.000    0.000    0.000    0.625 
#
# Total GULP energy -792853.803801 kJ/mol
# GULP energy per Si atom -12388.340684 kJ/mol
# Density = 1.482267 g / cm^3
# Si number density = 14.856485 Si / 1000 Ang^3
#
#
#
# Elastic Constant Matrix: (Units=GPa)
#
#
# Indices 1 2 3 4 5 6 
#
# 1 39.8913 23.0684 29.2437 0.0000 0.0000 0.0000
# 2 23.0684 55.6524 30.0503 0.0000 0.0000 0.0000
# 3 29.2437 30.0503 85.2050 0.0000 0.0000 0.0000
# 4 0.0000 0.0000 0.0000 9.6854 0.0000 0.0000
# 5 0.0000 0.0000 0.0000 0.0000 18.6761 0.0000
# 6 0.0000 0.0000 0.0000 0.0000 0.0000 27.8564
#
#
#
# Elastic Compliance Matrix: (Units=1/GPa)
#
#
# Indices 1 2 3 4 5 6 
#
# 1 0.038104 -0.010787 -0.009274 0.000000 0.000000 0.000000
# 2 -0.010787 0.025249 -0.005203 0.000000 0.000000 0.000000
# 3 -0.009274 -0.005203 0.016754 0.000000 0.000000 0.000000
# 4 0.000000 0.000000 0.000000 0.103248 0.000000 0.000000
# 5 0.000000 0.000000 0.000000 0.000000 0.053544 0.000000
# 6 0.000000 0.000000 0.000000 0.000000 0.000000 0.035898
#
#
# Mechanical properties :
#
#
# Convention : Reuss Voigt Hill
#
# Bulk Modulus (GPa) = 33.80551 38.38595 36.09573
# Shear Modulus (GPa) = 15.00663 17.80268 16.40466
#
# Velocity S-wave (km/s) = 3.18167 3.46542 3.32657
# Velocity P-wave (km/s) = 6.02507 6.47349 6.25330
#
# Compressibility (1/GPa) = 0.02958098
#
# Stress axis : x y z
#
# Youngs Moduli (GPa) = 26.24362 39.60505 59.68691
#
# Poissons Ratio (x) = 0.42723 0.55351
# Poissons Ratio (y) = 0.28310 0.31053
# Poissons Ratio (z) = 0.24337 0.20605
#
# Static dielectric constant tensor:
#      x y z
#    x 2.709970 0.000000 0.000000 
#    y 0.000000 2.870650 0.000000 
#    z 0.000000 0.000000 3.068310 
# 
# 
# High freq. dielectric constant tensor:
#      x y z
#    x 1.535040 0.000000 0.000000 
#    y 0.000000 1.537260 0.000000 
#    z 0.000000 0.000000 1.567010 
# 
# From -- ./inp_files/11918.got.cif
#   From: 2010.03.12/outbox.cif.g09.slc.cpg/sg47_6_cif.got.tgz:11918.got - 2010.04.14 03:12:58.
