data_PCOD8193496
_publ_section_title
;
Structure prediction by ZEFSAII (Michael W. Deem and Ramdas Pophale) SiO2 
 PCOD8193496
Probable space group: P M M M
;
_chemical_formula_sum "Si O2"
_cell_formula_units_Z 52
_cell_length_a 30.095816
_cell_length_b 9.123395
_cell_length_c 12.929076
_cell_angle_alpha 90.000000
_cell_angle_beta 90.000000
_cell_angle_gamma 90.000000
_cell_volume 3550.014194
_symmetry_space_group_name_H-M "P M M M"
_symmetry_group_IT_number 47
_symmetry_cell_setting 'orthorhombic'
loop_
_space_group_symop_operation_xyz
x,y,z
-x,-y,z
x,-y,-z
-x,y,-z
-x,-y,-z
x,y,-z
-x,y,z
x,-y,z
loop_
_atom_site_type_symbol
_atom_site_label
_atom_site_fract_x
_atom_site_fract_y
_atom_site_fract_z
Si Si1 0.633451 0.335286 0.376484
Si Si2 0.893119 0.174482 0.694558
Si Si3 0.548916 0.835258 0.377037
Si Si4 0.950349 0.173648 0.500000
Si Si5 0.192542 0.327881 0.620579
Si Si6 0.950415 0.826074 0.114769
Si Si7 0.719153 0.165068 0.377087
O O1 0.633384 0.333318 0.500000
O O2 0.638088 0.500000 0.334494
O O3 0.587446 0.268821 0.332059
O O4 0.674658 0.240932 0.333239
O O5 0.924460 0.228138 0.601221
O O6 0.846034 0.253596 0.687029
O O7 0.915681 0.231401 0.800401
O O8 0.885934 0.000000 0.691902
O O9 0.551089 0.834926 0.500000
O O10 0.500000 0.779539 0.340978
O O11 0.557073 0.000000 0.336336
O O12 0.000000 0.241091 0.500000
O O13 0.953524 0.000000 0.500000
O O14 0.184570 0.292771 0.500000
O O15 0.193986 0.500000 0.641938
O O16 0.238556 0.258317 0.660008
O O17 0.000000 0.765570 0.138734
O O18 0.952079 0.000000 0.120406
O O19 0.935272 0.774807 0.000000
O O20 0.717242 0.162499 0.500000
O O21 0.722365 0.000000 0.333132
#
# Coordination Sequence:
#
# PCOD8193496 Si02
#       7
#     8   8   8   4   8   8   8
#     4   9  15  21  29  42  59  78 103 136 177 222
#     4  10  17  26  42  61  80 101 126 154 184 221
#     4   8  13  20  28  37  51  73 102 137 177 219
#     4   9  16  24  37  59  81  99 123 153 180 211
#     4  10  19  29  39  52  74  99 121 147 184 226
#     4   8  14  25  42  64  85 102 124 156 189 217
#     4   9  16  25  37  49  62  83 113 145 176 215
#
# _framework density 14.647828000000001
#
# number of rings (size 3 to 8) (size 9 to 14) (size 15 to 20)
#    0.000    3.000    0.769    2.769    0.000    6.462 
#    0.000    1.538    0.000    2.769    0.000    1.077 
#    0.000    0.000    0.000    0.000    0.000    0.000 
#
# Total GULP energy -644545.328836 kJ/mol
# GULP energy per Si atom -12395.102478 kJ/mol
# Density = 1.461449 g / cm^3
# Si number density = 14.647828 Si / 1000 Ang^3
#
#
#
# Elastic Constant Matrix: (Units=GPa)
#
#
# Indices 1 2 3 4 5 6 
#
# 1 148.2367 59.1183 39.1117 0.0000 0.0000 0.0000
# 2 59.1183 76.9172 20.4239 0.0000 0.0000 0.0000
# 3 39.1117 20.4239 49.5455 0.0000 0.0000 0.0000
# 4 0.0000 0.0000 0.0000 4.5235 0.0000 0.0000
# 5 0.0000 0.0000 0.0000 0.0000 7.1144 0.0000
# 6 0.0000 0.0000 0.0000 0.0000 0.0000 10.7891
#
#
#
# Elastic Compliance Matrix: (Units=1/GPa)
#
#
# Indices 1 2 3 4 5 6 
#
# 1 0.011065 -0.006945 -0.005872 0.000000 0.000000 0.000000
# 2 -0.006945 0.018959 -0.002332 0.000000 0.000000 0.000000
# 3 -0.005872 -0.002332 0.025780 0.000000 0.000000 0.000000
# 4 0.000000 0.000000 0.000000 0.221070 0.000000 0.000000
# 5 0.000000 0.000000 0.000000 0.000000 0.140560 0.000000
# 6 0.000000 0.000000 0.000000 0.000000 0.000000 0.092686
#
#
# Mechanical properties :
#
#
# Convention : Reuss Voigt Hill
#
# Bulk Modulus (GPa) = 39.20866 56.88968 48.04917
# Shear Modulus (GPa) = 9.10878 14.88843 11.99860
#
# Velocity S-wave (km/s) = 2.49640 3.19160 2.86516
# Velocity P-wave (km/s) = 5.92748 7.24599 6.61965
#
# Compressibility (1/GPa) = 0.02550457
#
# Stress axis : x y z
#
# Youngs Moduli (GPa) = 90.37374 52.74652 38.78941
#
# Poissons Ratio (x) = 0.36635 0.22776
# Poissons Ratio (y) = 0.62769 0.09047
# Poissons Ratio (z) = 0.53066 0.12303
#
# Static dielectric constant tensor:
#      x y z
#    x 3.094840 0.000000 0.000000 
#    y 0.000000 2.766580 0.000000 
#    z 0.000000 0.000000 2.407740 
# 
# 
# High freq. dielectric constant tensor:
#      x y z
#    x 1.575460 0.000000 0.000000 
#    y 0.000000 1.549660 0.000000 
#    z 0.000000 0.000000 1.481630 
# 
# From -- ./inp_files/20053.got.cif
#   From: 2010.03.12/outbox.cif.g09.slc.cpg/sg47_11_cif.got.tgz:20053.got - 2010.04.14 03:12:58.
