data_PCOD8193543
_publ_section_title
;
Structure prediction by ZEFSAII (Michael W. Deem and Ramdas Pophale) SiO2 
 PCOD8193543
Probable space group: P M M M
;
_chemical_formula_sum "Si O2"
_cell_formula_units_Z 44
_cell_length_a 12.460735
_cell_length_b 24.940500
_cell_length_c 9.819291
_cell_angle_alpha 90.000000
_cell_angle_beta 90.000000
_cell_angle_gamma 90.000000
_cell_volume 3051.609419
_symmetry_space_group_name_H-M "P M M M"
_symmetry_group_IT_number 47
_symmetry_cell_setting 'orthorhombic'
loop_
_space_group_symop_operation_xyz
x,y,z
-x,-y,z
x,-y,-z
-x,y,-z
-x,-y,-z
x,y,-z
-x,y,z
x,-y,z
loop_
_atom_site_type_symbol
_atom_site_label
_atom_site_fract_x
_atom_site_fract_y
_atom_site_fract_z
Si Si1 0.871799 0.650794 0.347866
Si Si2 0.788332 0.878115 0.661354
Si Si3 0.881258 0.767818 0.338691
Si Si4 0.374739 0.061493 0.155262
Si Si5 0.127636 0.440526 0.152549
Si Si6 0.000000 0.060049 0.338573
O O1 0.827496 0.640623 0.500000
O O2 0.835584 0.709610 0.292127
O O3 0.822697 0.604490 0.251795
O O4 0.000000 0.649156 0.349011
O O5 0.770002 0.885147 0.500000
O O6 0.801721 0.815723 0.703872
O O7 0.686145 0.900164 0.740500
O O8 0.893937 0.909551 0.712096
O O9 0.893732 0.766847 0.500000
O O10 0.000000 0.778093 0.275930
O O11 0.500000 0.072082 0.176040
O O12 0.346527 0.000000 0.189646
O O13 0.341354 0.074599 0.000000
O O14 0.164192 0.500000 0.200565
O O15 0.000000 0.437272 0.155011
O O16 0.169650 0.429431 0.000000
O O17 0.000000 0.058936 0.500000
O O18 0.000000 0.000000 0.277922
#
# Coordination Sequence:
#
# PCOD8193543 Si02
#       6
#     8   8   8   8   8   4
#     4   8  13  20  31  45  62  88 122 153 180 218
#     4  10  17  27  45  65  83 103 130 163 194 232
#     4   8  13  23  37  54  77 103 126 151 190 233
#     4   9  19  35  49  59  77 105 131 159 201 245
#     4   8  13  20  28  39  58  84 115 154 197 228
#     4   9  16  24  37  61  87 105 122 151 194 236
#
# _framework density 14.418621
#
# number of rings (size 3 to 8) (size 9 to 14) (size 15 to 20)
#    0.000    3.364    0.909    2.727    0.000    1.818 
#    0.000    4.091    0.000    2.727    0.000    0.000 
#    0.000    0.000    0.000    0.000    0.000    0.909 
#
# Total GULP energy -545230.224711 kJ/mol
# GULP energy per Si atom -12391.596016 kJ/mol
# Density = 1.438580 g / cm^3
# Si number density = 14.418621 Si / 1000 Ang^3
#
#
#
# Elastic Constant Matrix: (Units=GPa)
#
#
# Indices 1 2 3 4 5 6 
#
# 1 35.3402 34.4153 25.9394 0.0000 0.0000 0.0000
# 2 34.4153 146.5768 60.3901 0.0000 0.0000 0.0000
# 3 25.9394 60.3901 58.2101 0.0000 0.0000 0.0000
# 4 0.0000 0.0000 0.0000 17.9830 0.0000 0.0000
# 5 0.0000 0.0000 0.0000 0.0000 13.3720 0.0000
# 6 0.0000 0.0000 0.0000 0.0000 0.0000 9.8906
#
#
#
# Elastic Compliance Matrix: (Units=1/GPa)
#
#
# Indices 1 2 3 4 5 6 
#
# 1 0.043271 -0.003869 -0.015268 0.000000 0.000000 0.000000
# 2 -0.003869 0.012261 -0.010996 0.000000 0.000000 0.000000
# 3 -0.015268 -0.010996 0.035391 0.000000 0.000000 0.000000
# 4 0.000000 0.000000 0.000000 0.055608 0.000000 0.000000
# 5 0.000000 0.000000 0.000000 0.000000 0.074783 0.000000
# 6 0.000000 0.000000 0.000000 0.000000 0.000000 0.101106
#
#
# Mechanical properties :
#
#
# Convention : Reuss Voigt Hill
#
# Bulk Modulus (GPa) = 32.62007 53.51296 43.06651
# Shear Modulus (GPa) = 12.72566 16.20795 14.46680
#
# Velocity S-wave (km/s) = 2.97406 3.35639 3.17099
# Velocity P-wave (km/s) = 5.87078 7.22599 6.58335
#
# Compressibility (1/GPa) = 0.03065598
#
# Stress axis : x y z
#
# Youngs Moduli (GPa) = 23.11016 81.55688 28.25567
#
# Poissons Ratio (x) = 0.31556 0.43141
# Poissons Ratio (y) = 0.08942 0.31071
# Poissons Ratio (z) = 0.35285 0.89683
#
# Static dielectric constant tensor:
#      x y z
#    x 2.329560 0.000000 0.000000 
#    y 0.000000 3.251790 0.000000 
#    z 0.000000 0.000000 2.697900 
# 
# 
# High freq. dielectric constant tensor:
#      x y z
#    x 1.487800 0.000000 0.000000 
#    y 0.000000 1.564970 0.000000 
#    z 0.000000 0.000000 1.530040 
# 
# From -- ./inp_files/4466.got.cif
#   From: 2010.03.12/outbox.cif.g09.slc.cpg/sg47_3_cif.got.tgz:4466.got - 2010.04.14 03:12:58.
