data_PCOD8193887
_publ_section_title
;
Structure prediction by ZEFSAII (Michael W. Deem and Ramdas Pophale) SiO2 
 PCOD8193887
Probable space group: P M M M
;
_chemical_formula_sum "Si O2"
_cell_formula_units_Z 64
_cell_length_a 19.236938
_cell_length_b 23.567178
_cell_length_c 9.293394
_cell_angle_alpha 90.000000
_cell_angle_beta 90.000000
_cell_angle_gamma 90.000000
_cell_volume 4213.256282
_symmetry_space_group_name_H-M "P M M M"
_symmetry_group_IT_number 47
_symmetry_cell_setting 'orthorhombic'
loop_
_space_group_symop_operation_xyz
x,y,z
-x,-y,z
x,-y,-z
-x,y,-z
-x,-y,-z
x,y,-z
-x,y,z
x,-y,z
loop_
_atom_site_type_symbol
_atom_site_label
_atom_site_fract_x
_atom_site_fract_y
_atom_site_fract_z
Si Si1 0.722755 0.767225 0.665755
Si Si2 0.920354 0.722607 0.331887
Si Si3 0.200711 0.330213 0.171187
Si Si4 0.078379 0.064205 0.830823
Si Si5 0.151387 0.160360 0.664860
Si Si6 0.286837 0.437618 0.170430
Si Si7 0.575328 0.738077 0.335049
Si Si8 0.423015 0.377381 0.831923
O O1 0.736711 0.748866 0.500000
O O2 0.745961 0.716140 0.768088
O O3 0.768212 0.823347 0.698072
O O4 0.640720 0.780321 0.693555
O O5 0.908275 0.710685 0.500000
O O6 0.875375 0.677873 0.240388
O O7 0.897207 0.786472 0.293251
O O8 0.000000 0.714577 0.286811
O O9 0.228607 0.392232 0.218107
O O10 0.196107 0.323547 0.000000
O O11 0.132900 0.106108 0.758558
O O12 0.000000 0.077958 0.778511
O O13 0.098037 0.000000 0.787440
O O14 0.083539 0.072336 0.000000
O O15 0.140048 0.143425 0.500000
O O16 0.268895 0.500000 0.234428
O O17 0.363703 0.419775 0.226447
O O18 0.288840 0.440829 0.000000
O O19 0.575997 0.718460 0.500000
O O20 0.500000 0.766870 0.298108
O O21 0.586744 0.682796 0.241590
O O22 0.500000 0.402747 0.799573
O O23 0.412557 0.366288 0.000000
#
# Coordination Sequence:
#
# PCOD8193887 Si02
#       8
#     8   8   8   8   8   8   8   8
#     4   9  17  29  43  60  87 116 140 173 216 255
#     4   9  18  32  48  65  87 112 134 166 214 258
#     4  10  18  28  44  64  83 105 137 173 209 254
#     4   9  18  31  44  60  87 121 150 175 204 236
#     4   9  17  28  43  64  87 112 142 173 204 242
#     4   9  17  28  41  59  83 108 136 173 213 252
#     4   9  16  26  42  61  82 112 144 171 206 254
#     4   9  16  26  41  60  81 106 138 174 208 245
#
# _framework density 15.190151
#
# number of rings (size 3 to 8) (size 9 to 14) (size 15 to 20)
#    0.000    2.875    1.250    1.875    0.000    3.500 
#    0.000    1.875    0.000    3.750    0.000    4.375 
#    0.000    0.500    0.000    6.250    0.000    1.000 
#
# Total GULP energy -793124.444264 kJ/mol
# GULP energy per Si atom -12392.569442 kJ/mol
# Density = 1.515558 g / cm^3
# Si number density = 15.190151 Si / 1000 Ang^3
#
#
#
# Elastic Constant Matrix: (Units=GPa)
#
#
# Indices 1 2 3 4 5 6 
#
# 1 143.2865 66.2539 36.2717 0.0000 0.0000 0.0000
# 2 66.2539 92.2485 34.3759 0.0000 0.0000 0.0000
# 3 36.2717 34.3759 39.3099 0.0000 0.0000 0.0000
# 4 0.0000 0.0000 0.0000 -21.2752 0.0000 0.0000
# 5 0.0000 0.0000 0.0000 0.0000 20.3384 0.0000
# 6 0.0000 0.0000 0.0000 0.0000 0.0000 23.2176
#
#
#
# Elastic Compliance Matrix: (Units=1/GPa)
#
#
# Indices 1 2 3 4 5 6 
#
# 1 0.011033 -0.006127 -0.004822 0.000000 0.000000 0.000000
# 2 -0.006127 0.019483 -0.011384 0.000000 0.000000 0.000000
# 3 -0.004822 -0.011384 0.039844 0.000000 0.000000 0.000000
# 4 0.000000 0.000000 0.000000 -0.047003 0.000000 0.000000
# 5 0.000000 0.000000 0.000000 0.000000 0.049168 0.000000
# 6 0.000000 0.000000 0.000000 0.000000 0.000000 0.043071
#
#
# Mechanical properties :
#
#
# Convention : Reuss Voigt Hill
#
# Bulk Modulus (GPa) = 38.92137 60.96091 49.94114
# Shear Modulus (GPa) = 29.61630 13.65236 21.63433
#
# Velocity S-wave (km/s) = 4.42034 3.00119 3.77800
# Velocity P-wave (km/s) = 7.19242 7.22693 7.20970
#
# Compressibility (1/GPa) = 0.02569283
#
# Stress axis : x y z
#
# Youngs Moduli (GPa) = 90.63970 51.32695 25.09812
#
# Poissons Ratio (x) = 0.31447 0.12103
# Poissons Ratio (y) = 0.55534 0.28572
# Poissons Ratio (z) = 0.43708 0.58432
#
# Static dielectric constant tensor:
#      x y z
#    x 3.242430 0.000000 0.000000 
#    y 0.000000 2.766460 0.000000 
#    z 0.000000 0.000000 2.833340 
# 
# 
# High freq. dielectric constant tensor:
#      x y z
#    x 1.589690 0.000000 0.000000 
#    y 0.000000 1.543980 0.000000 
#    z 0.000000 0.000000 1.574930 
# 
# From -- ./inp_files/11833.got.cif
#   From: 2010.03.12/outbox.cif.g09.slc.cpg/sg47_6_cif.got.tgz:11833.got - 2010.04.14 03:12:58.
