data_PCOD8193766
_publ_section_title
;
Structure prediction by ZEFSAII (Michael W. Deem and Ramdas Pophale) SiO2 
 PCOD8193766
Probable space group: P M M M
;
_chemical_formula_sum "Si O2"
_cell_formula_units_Z 64
_cell_length_a 29.685029
_cell_length_b 14.050590
_cell_length_c 9.314375
_cell_angle_alpha 90.000000
_cell_angle_beta 90.000000
_cell_angle_gamma 90.000000
_cell_volume 3884.952896
_symmetry_space_group_name_H-M "P M M M"
_symmetry_group_IT_number 47
_symmetry_cell_setting 'orthorhombic'
loop_
_space_group_symop_operation_xyz
x,y,z
-x,-y,z
x,-y,-z
-x,y,-z
-x,-y,-z
x,y,-z
-x,y,z
x,-y,z
loop_
_atom_site_type_symbol
_atom_site_label
_atom_site_fract_x
_atom_site_fract_y
_atom_site_fract_z
Si Si1 0.190052 0.887252 0.338208
Si Si2 0.128211 0.387406 0.662942
Si Si3 0.215586 0.607498 0.834321
Si Si4 0.267802 0.210680 0.166843
Si Si5 0.051023 0.712792 0.165191
Si Si6 0.452324 0.887013 0.839400
Si Si7 0.104652 0.893015 0.836376
Si Si8 0.355999 0.892639 0.828896
O O1 0.190556 0.847647 0.500000
O O2 0.233314 0.851962 0.254943
O O3 0.144598 0.850915 0.261663
O O4 0.190761 0.000000 0.334479
O O5 0.130054 0.350099 0.500000
O O6 0.126117 0.500000 0.670118
O O7 0.173473 0.352577 0.743269
O O8 0.083457 0.349925 0.738001
O O9 0.229348 0.500000 0.788735
O O10 0.258272 0.676913 0.806746
O O11 0.200666 0.610399 0.000000
O O12 0.317739 0.181988 0.221181
O O13 0.262153 0.184324 0.000000
O O14 0.061750 0.824911 0.183878
O O15 0.000000 0.695653 0.216492
O O16 0.057333 0.681771 0.000000
O O17 0.500000 0.855433 0.761672
O O18 0.404724 0.855772 0.765537
O O19 0.450480 0.000000 0.846713
O O20 0.454058 0.845104 0.000000
O O21 0.090523 0.000000 0.790771
O O22 0.122124 0.891522 0.000000
O O23 0.344491 0.000000 0.774078
O O24 0.360000 0.894668 0.000000
#
# Coordination Sequence:
#
# PCOD8193766 Si02
#       8
#     8   8   8   8   8   8   8   8
#     4  10  20  31  43  62  88 115 141 169 202 242
#     4  10  21  36  53  71  89 110 137 169 206 249
#     4   9  18  32  48  65  85 109 138 172 209 249
#     4  10  18  27  42  62  84 111 141 173 210 251
#     4  10  21  35  51  72  94 114 137 166 203 245
#     4   7   9  14  25  42  68 103 137 168 206 247
#     4   9  18  33  51  68  87 113 144 174 201 233
#     4   8  13  20  31  51  79 108 138 172 208 246
#
# _framework density 16.473815999999999
#
# number of rings (size 3 to 8) (size 9 to 14) (size 15 to 20)
#    0.000    2.875    0.000    3.000    0.000    6.750 
#    0.000    2.500    0.000    0.000    0.000    2.625 
#    0.000    1.000    0.000   11.625    0.000    4.000 
#
# Total GULP energy -793036.346316 kJ/mol
# GULP energy per Si atom -12391.192911 kJ/mol
# Density = 1.643632 g / cm^3
# Si number density = 16.473816 Si / 1000 Ang^3
#
#
#
# Elastic Constant Matrix: (Units=GPa)
#
#
# Indices 1 2 3 4 5 6 
#
# 1 149.5873 52.0954 39.6127 0.0000 0.0000 0.0000
# 2 52.0954 40.2150 20.7295 0.0000 0.0000 0.0000
# 3 39.6127 20.7295 51.4454 0.0000 0.0000 0.0000
# 4 0.0000 0.0000 0.0000 14.9397 0.0000 0.0000
# 5 0.0000 0.0000 0.0000 0.0000 -0.0246 0.0000
# 6 0.0000 0.0000 0.0000 0.0000 0.0000 19.3354
#
#
#
# Elastic Compliance Matrix: (Units=1/GPa)
#
#
# Indices 1 2 3 4 5 6 
#
# 1 0.012803 -0.014519 -0.004008 0.000000 0.000000 0.000000
# 2 -0.014519 0.047851 -0.008101 0.000000 0.000000 0.000000
# 3 -0.004008 -0.008101 0.025788 0.000000 0.000000 0.000000
# 4 0.000000 0.000000 0.000000 0.066936 0.000000 0.000000
# 5 0.000000 0.000000 0.000000 0.000000-40.703071 0.000000
# 6 0.000000 0.000000 0.000000 0.000000 0.000000 0.051719
#
#
# Mechanical properties :
#
#
# Convention : Reuss Voigt Hill
#
# Bulk Modulus (GPa) = 30.13372 51.79145 40.96259
# Shear Modulus (GPa) = -0.12366 15.43746 7.65690
#
# Velocity S-wave (km/s) = -0.27428 3.06451 2.15824
# Velocity P-wave (km/s) = 4.26981 6.63540 5.57942
#
# Compressibility (1/GPa) = 0.03318541
#
# Stress axis : x y z
#
# Youngs Moduli (GPa) = 78.10771 20.89826 38.77716
#
# Poissons Ratio (x) = 0.30343 0.15541
# Poissons Ratio (y) = 1.13406 0.31415
# Poissons Ratio (z) = 0.31303 0.16931
#
# Static dielectric constant tensor:
#      x y z
#    x 3.443050 0.000000 0.000000 
#    y 0.000000 3.052470 0.000000 
#    z 0.000000 0.000000 2.995550 
# 
# 
# High freq. dielectric constant tensor:
#      x y z
#    x 1.630470 0.000000 0.000000 
#    y 0.000000 1.615830 0.000000 
#    z 0.000000 0.000000 1.607020 
# 
# From -- ./inp_files/8330.got.cif
#   From: 2010.03.12/outbox.cif.g09.slc.cpg/sg47_5_cif.got.tgz:8330.got - 2010.04.14 03:12:58.
