data_PCOD8193526
_publ_section_title
;
Structure prediction by ZEFSAII (Michael W. Deem and Ramdas Pophale) SiO2 
 PCOD8193526
Probable space group: P M M M
;
_chemical_formula_sum "Si O2"
_cell_formula_units_Z 40
_cell_length_a 18.454246
_cell_length_b 7.898349
_cell_length_c 18.521786
_cell_angle_alpha 90.000000
_cell_angle_beta 90.000000
_cell_angle_gamma 90.000000
_cell_volume 2699.699881
_symmetry_space_group_name_H-M "P M M M"
_symmetry_group_IT_number 47
_symmetry_cell_setting 'orthorhombic'
loop_
_space_group_symop_operation_xyz
x,y,z
-x,-y,z
x,-y,-z
-x,y,-z
-x,-y,-z
x,y,-z
-x,y,z
x,-y,z
loop_
_atom_site_type_symbol
_atom_site_label
_atom_site_fract_x
_atom_site_fract_y
_atom_site_fract_z
Si Si1 0.363018 0.298308 0.328546
Si Si2 0.585859 0.500000 0.919562
Si Si3 0.770172 0.305800 0.580322
Si Si4 0.584055 0.808647 0.821191
Si Si5 0.500000 0.700793 0.419444
Si Si6 0.922282 0.194481 0.585131
O O1 0.363883 0.500000 0.318232
O O2 0.289430 0.228111 0.365764
O O3 0.368870 0.211510 0.250862
O O4 0.428982 0.234808 0.378099
O O5 0.500000 0.500000 0.924533
O O6 0.612125 0.671214 0.879343
O O7 0.619639 0.500000 0.000000
O O8 0.766576 0.220217 0.500000
O O9 0.750284 0.500000 0.571138
O O10 0.850707 0.287697 0.615323
O O11 0.500000 0.772693 0.802383
O O12 0.594278 0.000000 0.851610
O O13 0.500000 0.500000 0.423400
O O14 0.500000 0.777851 0.500000
O O15 0.923927 0.220102 0.500000
O O16 0.000000 0.264989 0.615868
O O17 0.915127 0.000000 0.606698
#
# Coordination Sequence:
#
# PCOD8193526 Si02
#       6
#     8   4   8   8   4   8
#     4  10  17  27  42  56  80 112 143 177 217 257
#     4   9  18  32  50  68  86 106 131 168 213 253
#     4   9  17  26  37  57  80 102 137 183 221 254
#     4  10  19  30  46  65  85 110 141 172 209 256
#     4   9  16  24  39  57  71 103 149 184 217 252
#     4   8  14  25  39  52  68  95 130 168 216 267
#
# _framework density 14.816462
#
# number of rings (size 3 to 8) (size 9 to 14) (size 15 to 20)
#    0.000    2.800    2.000    1.200    0.000    4.000 
#    0.000    4.000    0.000    2.400    0.000    0.000 
#    0.000    0.000    0.000    0.000    0.000    2.000 
#
# Total GULP energy -495642.513194 kJ/mol
# GULP energy per Si atom -12391.062830 kJ/mol
# Density = 1.478274 g / cm^3
# Si number density = 14.816462 Si / 1000 Ang^3
#
#
#
# Elastic Constant Matrix: (Units=GPa)
#
#
# Indices 1 2 3 4 5 6 
#
# 1 102.4779 21.2746 39.1731 0.0000 0.0000 0.0000
# 2 21.2746 55.7835 30.9147 0.0000 0.0000 0.0000
# 3 39.1731 30.9147 89.5797 0.0000 0.0000 0.0000
# 4 0.0000 0.0000 0.0000 7.8046 0.0000 0.0000
# 5 0.0000 0.0000 0.0000 0.0000 6.1686 0.0000
# 6 0.0000 0.0000 0.0000 0.0000 0.0000 13.4029
#
#
#
# Elastic Compliance Matrix: (Units=1/GPa)
#
#
# Indices 1 2 3 4 5 6 
#
# 1 0.011903 -0.002046 -0.004499 0.000000 0.000000 0.000000
# 2 -0.002046 0.022518 -0.006876 0.000000 0.000000 0.000000
# 3 -0.004499 -0.006876 0.015504 0.000000 0.000000 0.000000
# 4 0.000000 0.000000 0.000000 0.128130 0.000000 0.000000
# 5 0.000000 0.000000 0.000000 0.000000 0.162110 0.000000
# 6 0.000000 0.000000 0.000000 0.000000 0.000000 0.074611
#
#
# Mechanical properties :
#
#
# Convention : Reuss Voigt Hill
#
# Bulk Modulus (GPa) = 43.32503 47.84065 45.58284
# Shear Modulus (GPa) = 11.12814 15.90714 13.51764
#
# Velocity S-wave (km/s) = 2.74353 3.28016 3.02377
# Velocity P-wave (km/s) = 6.27221 6.83410 6.55917
#
# Compressibility (1/GPa) = 0.02308135
#
# Stress axis : x y z
#
# Youngs Moduli (GPa) = 84.01433 44.40984 64.50109
#
# Poissons Ratio (x) = 0.09087 0.29018
# Poissons Ratio (y) = 0.17191 0.44352
# Poissons Ratio (z) = 0.37797 0.30537
#
# Static dielectric constant tensor:
#      x y z
#    x 2.921090 0.000000 0.000000 
#    y 0.000000 2.783990 0.000000 
#    z 0.000000 0.000000 2.675980 
# 
# 
# High freq. dielectric constant tensor:
#      x y z
#    x 1.549330 0.000000 0.000000 
#    y 0.000000 1.563270 0.000000 
#    z 0.000000 0.000000 1.518920 
# 
# From -- ./inp_files/9347.got.cif
#   From: 2010.03.12/outbox.cif.g09.slc.cpg/sg47_5_cif.got.tgz:9347.got - 2010.04.14 03:12:58.
