data_PCOD8193503
_publ_section_title
;
Structure prediction by ZEFSAII (Michael W. Deem and Ramdas Pophale) SiO2 
 PCOD8193503
Probable space group: P M M M
;
_chemical_formula_sum "Si O2"
_cell_formula_units_Z 64
_cell_length_a 21.832308
_cell_length_b 8.828137
_cell_length_c 21.536467
_cell_angle_alpha 90.000000
_cell_angle_beta 90.000000
_cell_angle_gamma 90.000000
_cell_volume 4150.908629
_symmetry_space_group_name_H-M "P M M M"
_symmetry_group_IT_number 47
_symmetry_cell_setting 'orthorhombic'
loop_
_space_group_symop_operation_xyz
x,y,z
-x,-y,z
x,-y,-z
-x,y,-z
-x,-y,-z
x,y,-z
-x,y,z
x,-y,z
loop_
_atom_site_type_symbol
_atom_site_label
_atom_site_fract_x
_atom_site_fract_y
_atom_site_fract_z
Si Si1 0.843887 0.178524 0.755836
Si Si2 0.568065 0.178143 0.832340
Si Si3 0.070942 0.677890 0.333237
Si Si4 0.347633 0.332057 0.744289
Si Si5 0.240833 0.670650 0.154894
Si Si6 0.332681 0.820958 0.070551
Si Si7 0.246804 0.678702 0.341261
Si Si8 0.163398 0.822343 0.428343
O O1 0.907764 0.253488 0.733423
O O2 0.820640 0.244352 0.821993
O O3 0.795398 0.220639 0.703110
O O4 0.851569 0.000000 0.762311
O O5 0.500000 0.249224 0.837709
O O6 0.598322 0.220765 0.765948
O O7 0.609966 0.240915 0.888705
O O8 0.563493 0.000000 0.836068
O O9 0.084806 0.500000 0.333802
O O10 0.106465 0.755435 0.390178
O O11 0.000000 0.714493 0.342144
O O12 0.376006 0.500000 0.743026
O O13 0.290813 0.323833 0.791005
O O14 0.318445 0.289614 0.676659
O O15 0.223163 0.500000 0.137142
O O16 0.268823 0.751307 0.094197
O O17 0.327595 0.000000 0.077150
O O18 0.344230 0.770079 0.000000
O O19 0.232823 0.500000 0.332681
O O20 0.227635 0.737695 0.409537
O O21 0.150960 0.788216 0.500000
O O22 0.169662 0.000000 0.414897
#
# Coordination Sequence:
#
# PCOD8193503 Si02
#       8
#     8   8   8   8   8   8   8   8
#     4  10  17  26  43  63  82 104 132 169 214 256
#     4   9  17  27  39  57  81 111 145 176 207 245
#     4  10  20  32  45  61  83 113 147 178 207 242
#     4   8  15  26  40  58  77 100 131 169 212 251
#     4   9  16  27  42  59  80 104 134 172 212 254
#     4   9  17  28  41  58  82 112 145 179 212 246
#     4   9  16  27  43  61  80 103 134 171 211 253
#     4  10  20  31  43  61  85 113 144 176 209 245
#
# _framework density 15.418310999999999
#
# number of rings (size 3 to 8) (size 9 to 14) (size 15 to 20)
#    0.000    2.750    0.000    4.875    0.000    6.500 
#    0.000    2.500    0.000    0.000    0.000    3.500 
#    0.000    1.000    0.000   10.750    0.000    6.750 
#
# Total GULP energy -793060.561010 kJ/mol
# GULP energy per Si atom -12391.571266 kJ/mol
# Density = 1.538322 g / cm^3
# Si number density = 15.418311 Si / 1000 Ang^3
#
#
#
# Elastic Constant Matrix: (Units=GPa)
#
#
# Indices 1 2 3 4 5 6 
#
# 1 77.6881 38.7212 68.9591 0.0000 0.0000 0.0000
# 2 38.7212 65.2215 38.7110 0.0000 0.0000 0.0000
# 3 68.9591 38.7110 66.6229 0.0000 0.0000 0.0000
# 4 0.0000 0.0000 0.0000 19.3193 0.0000 0.0000
# 5 0.0000 0.0000 0.0000 0.0000 17.9496 0.0000
# 6 0.0000 0.0000 0.0000 0.0000 0.0000 21.0296
#
#
#
# Elastic Compliance Matrix: (Units=1/GPa)
#
#
# Indices 1 2 3 4 5 6 
#
# 1 0.159532 0.005030 -0.168049 0.000000 0.000000 0.000000
# 2 0.005030 0.023562 -0.018897 0.000000 0.000000 0.000000
# 3 -0.168049 -0.018897 0.199932 0.000000 0.000000 0.000000
# 4 0.000000 0.000000 0.000000 0.051762 0.000000 0.000000
# 5 0.000000 0.000000 0.000000 0.000000 0.055711 0.000000
# 6 0.000000 0.000000 0.000000 0.000000 0.000000 0.047552
#
#
# Mechanical properties :
#
#
# Convention : Reuss Voigt Hill
#
# Bulk Modulus (GPa) = 52.09988 55.81281 53.95635
# Shear Modulus (GPa) = 5.50491 15.86912 10.68701
#
# Velocity S-wave (km/s) = 1.89159 3.21166 2.63561
# Velocity P-wave (km/s) = 6.21571 7.07323 6.65829
#
# Compressibility (1/GPa) = 0.01919390
#
# Stress axis : x y z
#
# Youngs Moduli (GPa) = 6.26834 42.44104 5.00171
#
# Poissons Ratio (x) = -0.21348 0.84053
# Poissons Ratio (y) = -0.03153 0.09452
# Poissons Ratio (z) = 1.05339 0.80201
#
# Static dielectric constant tensor:
#      x y z
#    x 3.073090 0.000000 0.000000 
#    y 0.000000 3.009890 0.000000 
#    z 0.000000 0.000000 3.022630 
# 
# 
# High freq. dielectric constant tensor:
#      x y z
#    x 1.565730 0.000000 0.000000 
#    y 0.000000 1.602010 0.000000 
#    z 0.000000 0.000000 1.562130 
# 
# From -- ./inp_files/28907.got.cif
#   From: 2010.03.12/outbox.cif.g09.slc.cpg/sg47_15_cif.got.tgz:28907.got - 2010.04.14 03:12:58.
