data_PCOD8193315
_publ_section_title
;
Structure prediction by ZEFSAII (Michael W. Deem and Ramdas Pophale) SiO2 
 PCOD8193315
Probable space group: I M A 2
;
_chemical_formula_sum "Si O2"
_cell_formula_units_Z 48
_cell_length_a 8.488697
_cell_length_b 9.559004
_cell_length_c 30.739895
_cell_angle_alpha 90.000000
_cell_angle_beta 90.000000
_cell_angle_gamma 90.000000
_cell_volume 2494.342319
_symmetry_space_group_name_H-M "I M A 2"
_symmetry_group_IT_number 46
_symmetry_cell_setting 'orthorhombic'
loop_
_space_group_symop_operation_xyz
x,y,z
-x,-y,z
1/2-x,y,z
1/2+x,-y,z
1/2+x,1/2+y,1/2+z
1/2-x,1/2-y,1/2+z
-x,1/2+y,1/2+z
x,1/2-y,1/2+z
loop_
_atom_site_type_symbol
_atom_site_label
_atom_site_fract_x
_atom_site_fract_y
_atom_site_fract_z
Si Si1 0.565295 0.345695 0.270880
Si Si2 0.935468 0.650999 0.516529
Si Si3 0.934494 0.154569 0.866156
Si Si4 0.064923 0.646824 0.610915
Si Si5 0.435095 0.343316 0.183333
Si Si6 0.936133 0.344786 0.943503
O O1 0.500000 0.500000 0.275045
O O2 0.750000 0.347060 0.260295
O O3 0.528243 0.278435 0.318252
O O4 0.475741 0.271573 0.230308
O O5 0.750000 0.651340 0.510671
O O6 0.000000 0.500000 0.501815
O O7 0.979613 0.684945 0.566061
O O8 0.009965 0.772481 0.487803
O O9 0.750000 0.139964 0.872330
O O10 0.005490 0.258471 0.902369
O O11 0.000000 0.000000 0.872998
O O12 0.250000 0.635647 0.602363
O O13 0.000000 0.500000 0.629149
O O14 0.027654 0.765064 0.645642
O O15 0.500000 0.500000 0.184072
O O16 0.250000 0.338211 0.174340
O O17 0.750000 0.349893 0.942037
O O18 0.000000 0.500000 0.941419
#
# Coordination Sequence:
#
# PCOD8193315 Si02
#       6
#     8   8   8   8   8   8
#     4   9  16  30  51  78 108 142 182 229 274 321
#     4  11  22  39  61  85 110 143 183 226 270 324
#     4   9  19  34  56  81 108 141 184 229 273 324
#     4  11  22  39  60  84 112 145 182 226 273 326
#     4  11  21  35  55  83 114 148 186 229 275 325
#     4  11  23  39  56  81 113 147 183 227 278 330
#
# _framework density 19.243551
#
# number of rings (size 3 to 8) (size 9 to 14) (size 15 to 20)
#    0.000    1.667    0.000    8.000    0.000    4.000 
#    0.000    4.167    0.000    2.000    0.000    0.000 
#    0.000    0.000    0.000    0.000    0.000    0.000 
#
# Total GULP energy -297550.242074 kJ/mol
# GULP energy per Si atom -12397.926753 kJ/mol
# Density = 1.919975 g / cm^3
# Si number density = 19.243551 Si / 1000 Ang^3
#
#
#
# Elastic Constant Matrix: (Units=GPa)
#
#
# Indices 1 2 3 4 5 6 
#
# 1 66.2438 21.6485 15.4425 0.0000 0.0000 0.0000
# 2 21.6485 100.0848 65.7082 0.0000 0.0000 0.0000
# 3 15.4425 65.7082 113.3775 0.0000 0.0000 0.0000
# 4 0.0000 0.0000 0.0000 13.7798 0.0000 0.0000
# 5 0.0000 0.0000 0.0000 0.0000 28.2997 0.0000
# 6 0.0000 0.0000 0.0000 0.0000 0.0000 30.5946
#
#
#
# Elastic Compliance Matrix: (Units=1/GPa)
#
#
# Indices 1 2 3 4 5 6 
#
# 1 0.016250 -0.003328 -0.000285 0.000000 0.000000 0.000000
# 2 -0.003328 0.016810 -0.009289 0.000000 0.000000 0.000000
# 3 -0.000285 -0.009289 0.014242 0.000000 0.000000 0.000000
# 4 0.000000 0.000000 0.000000 0.072570 0.000000 0.000000
# 5 0.000000 0.000000 0.000000 0.000000 0.035336 0.000000
# 6 0.000000 0.000000 0.000000 0.000000 0.000000 0.032686
#
#
# Mechanical properties :
#
#
# Convention : Reuss Voigt Hill
#
# Bulk Modulus (GPa) = 46.51407 53.92273 50.21840
# Shear Modulus (GPa) = 22.63853 26.32860 24.48356
#
# Velocity S-wave (km/s) = 3.43362 3.70290 3.57080
# Velocity P-wave (km/s) = 6.32008 6.80911 6.56915
#
# Compressibility (1/GPa) = 0.02149887
#
# Stress axis : x y z
#
# Youngs Moduli (GPa) = 61.53960 59.48933 70.21389
#
# Poissons Ratio (x) = 0.19798 0.01998
# Poissons Ratio (y) = 0.20481 0.65220
# Poissons Ratio (z) = 0.01751 0.55259
#
# Static dielectric constant tensor:
#      x y z
#    x 3.580730 0.000000 0.000000 
#    y 0.000000 4.701700 0.000000 
#    z 0.000000 0.000000 4.182900 
# 
# 
# High freq. dielectric constant tensor:
#      x y z
#    x 1.763760 0.000000 0.000000 
#    y 0.000000 1.719070 0.000000 
#    z 0.000000 0.000000 1.771160 
# 
# From -- ./inp_files/24990.got.cif
#   From: 2010.03.12/outbox.cif.g09.slc.cpg/sg46_13_cif.got.tgz:24990.got - 2010.04.14 02:56:35.
