data_PCOD8193183
_publ_section_title
;
Structure prediction by ZEFSAII (Michael W. Deem and Ramdas Pophale) SiO2 
 PCOD8193183
Probable space group: I M A 2
;
_chemical_formula_sum "Si O2"
_cell_formula_units_Z 48
_cell_length_a 13.061043
_cell_length_b 10.339723
_cell_length_c 17.204182
_cell_angle_alpha 90.000000
_cell_angle_beta 90.000000
_cell_angle_gamma 90.000000
_cell_volume 2323.382916
_symmetry_space_group_name_H-M "I M A 2"
_symmetry_group_IT_number 46
_symmetry_cell_setting 'orthorhombic'
loop_
_space_group_symop_operation_xyz
x,y,z
-x,-y,z
1/2-x,y,z
1/2+x,-y,z
1/2+x,1/2+y,1/2+z
1/2-x,1/2-y,1/2+z
-x,1/2+y,1/2+z
x,1/2-y,1/2+z
loop_
_atom_site_type_symbol
_atom_site_label
_atom_site_fract_x
_atom_site_fract_y
_atom_site_fract_z
Si Si1 0.576584 0.884447 0.972800
Si Si2 0.750000 0.628664 0.597292
Si Si3 0.449896 0.628266 0.792417
Si Si4 0.362029 0.319431 0.308229
Si Si5 0.947038 0.371195 0.968985
Si Si6 0.250000 0.091633 0.675677
Si Si7 0.750000 0.158740 0.570188
Si Si8 0.750000 0.376115 0.694087
O O1 0.626918 0.901330 0.887553
O O2 0.500000 0.000000 0.986131
O O3 0.652886 0.896017 0.043879
O O4 0.526932 0.743947 0.976028
O O5 0.750000 0.774787 0.627783
O O6 0.750000 0.527160 0.669254
O O7 0.500000 0.500000 0.756437
O O8 0.539044 0.734372 0.790876
O O9 0.350716 0.664415 0.742474
O O10 0.412700 0.604181 0.880340
O O11 0.250000 0.243613 0.314102
O O12 0.350207 0.413613 0.232858
O O13 0.848366 0.336649 0.017069
O O14 0.000000 0.500000 0.002866
O O15 0.250000 0.969896 0.620783
O O16 0.750000 0.289634 0.618002
#
# Coordination Sequence:
#
# PCOD8193183 Si02
#       8
#     8   4   8   8   8   4   4   4
#     4  11  23  41  68  94 124 166 214 264 310 373
#     4  12  23  42  63  94 130 168 208 256 315 390
#     4  10  22  41  67  94 125 168 215 265 313 375
#     4   9  21  44  65  93 120 170 221 258 304 379
#     4  10  23  43  65  92 122 172 213 260 311 372
#     4  10  23  38  67  90 122 176 210 260 305 382
#     4  12  25  42  59  96 136 164 204 262 323 380
#     4  12  27  38  61 100 138 162 198 270 333 372
#
# _framework density 20.65953
#
# number of rings (size 3 to 8) (size 9 to 14) (size 15 to 20)
#    0.500    1.000    0.833    3.500    1.167    8.667 
#    4.500    0.833    0.000    0.000    0.000    0.000 
#    0.000    0.000    0.000    0.000    0.000    0.000 
#
# Total GULP energy -297460.451046 kJ/mol
# GULP energy per Si atom -12394.185460 kJ/mol
# Density = 2.061251 g / cm^3
# Si number density = 20.659530 Si / 1000 Ang^3
#
#
#
# Elastic Constant Matrix: (Units=GPa)
#
#
# Indices 1 2 3 4 5 6 
#
# 1 128.5547 17.1160 51.2761 0.0000 0.0000 0.0000
# 2 17.1160 80.5746 12.3886 0.0000 0.0000 0.0000
# 3 51.2761 12.3886 93.2799 0.0000 0.0000 0.0000
# 4 0.0000 0.0000 0.0000 31.5042 0.0000 0.0000
# 5 0.0000 0.0000 0.0000 0.0000 987.2517 0.0000
# 6 0.0000 0.0000 0.0000 0.0000 0.0000 14.4367
#
#
#
# Elastic Compliance Matrix: (Units=1/GPa)
#
#
# Indices 1 2 3 4 5 6 
#
# 1 0.010099 -0.001319 -0.005376 0.000000 0.000000 0.000000
# 2 -0.001319 0.012842 -0.000981 0.000000 0.000000 0.000000
# 3 -0.005376 -0.000981 0.013806 0.000000 0.000000 0.000000
# 4 0.000000 0.000000 0.000000 0.031742 0.000000 0.000000
# 5 0.000000 0.000000 0.000000 0.000000 0.001013 0.000000
# 6 0.000000 0.000000 0.000000 0.000000 0.000000 0.069268
#
#
# Mechanical properties :
#
#
# Convention : Reuss Voigt Hill
#
# Bulk Modulus (GPa) = 46.73878 51.55230 49.14554
# Shear Modulus (GPa) = 31.00743 221.41376 126.21060
#
# Velocity S-wave (km/s) = 3.87832 10.36366 7.82454
# Velocity P-wave (km/s) = 6.53664 12.96976 10.26991
#
# Compressibility (1/GPa) = 0.02139551
#
# Stress axis : x y z
#
# Youngs Moduli (GPa) = 99.02250 77.87107 72.43260
#
# Poissons Ratio (x) = 0.10268 0.38941
# Poissons Ratio (y) = 0.13057 0.07103
# Poissons Ratio (z) = 0.53236 0.07637
#
# Static dielectric constant tensor:
#      x y z
#    x 2.843960 0.000000 0.000000 
#    y 0.000000 3.594300 0.000000 
#    z 0.000000 0.000000 4.041660 
# 
# 
# High freq. dielectric constant tensor:
#      x y z
#    x 1.817720 0.000000 0.000000 
#    y 0.000000 1.797130 0.000000 
#    z 0.000000 0.000000 1.824470 
# 
# From -- ./inp_files/18932.got.cif
#   From: 2010.03.12/outbox.cif.g09.slc.cpg/sg46_10_cif.got.tgz:18932.got - 2010.04.14 02:56:35.
