data_PCOD8193902
_publ_section_title
;
Structure prediction by ZEFSAII (Michael W. Deem and Ramdas Pophale) SiO2 
 PCOD8193902
Probable space group: P M M M
;
_chemical_formula_sum "Si O2"
_cell_formula_units_Z 64
_cell_length_a 9.103139
_cell_length_b 20.521064
_cell_length_c 19.913799
_cell_angle_alpha 90.000000
_cell_angle_beta 90.000000
_cell_angle_gamma 90.000000
_cell_volume 3720.019088
_symmetry_space_group_name_H-M "P M M M"
_symmetry_group_IT_number 47
_symmetry_cell_setting 'orthorhombic'
loop_
_space_group_symop_operation_xyz
x,y,z
-x,-y,z
x,-y,-z
-x,y,-z
-x,-y,-z
x,y,-z
-x,y,z
x,-y,z
loop_
_atom_site_type_symbol
_atom_site_label
_atom_site_fract_x
_atom_site_fract_y
_atom_site_fract_z
Si Si1 0.169483 0.317141 0.344469
Si Si2 0.829807 0.261653 0.796905
Si Si3 0.676173 0.125325 0.786476
Si Si4 0.174541 0.192342 0.425038
Si Si5 0.335195 0.117663 0.929557
Si Si6 0.672839 0.425910 0.424481
Si Si7 0.665007 0.272637 0.073805
Si Si8 0.169249 0.072933 0.662375
O O1 0.191416 0.311886 0.264407
O O2 0.233967 0.252868 0.381377
O O3 0.252021 0.380844 0.369466
O O4 0.000000 0.324798 0.363618
O O5 0.742585 0.196887 0.776414
O O6 0.769424 0.295937 0.865085
O O7 0.000000 0.243556 0.807050
O O8 0.500000 0.130515 0.785367
O O9 0.732490 0.094459 0.858386
O O10 0.733805 0.077632 0.729319
O O11 0.240623 0.196890 0.500000
O O12 0.228534 0.124499 0.392151
O O13 0.000000 0.192949 0.427385
O O14 0.500000 0.090910 0.934190
O O15 0.335975 0.195221 0.926057
O O16 0.254059 0.095622 0.000000
O O17 0.721327 0.405707 0.500000
O O18 0.500000 0.418621 0.416994
O O19 0.721502 0.500000 0.410276
O O20 0.500000 0.298836 0.086552
O O21 0.720598 0.297374 0.000000
O O22 0.000000 0.087914 0.680829
O O23 0.186851 0.000000 0.632928
#
# Coordination Sequence:
#
# PCOD8193902 Si02
#       8
#     8   8   8   8   8   8   8   8
#     4  10  19  31  49  73 102 132 162 201 241 284
#     4  10  18  28  44  68  99 128 159 199 243 287
#     4  10  18  29  47  67  89 119 154 193 239 292
#     4   9  17  31  50  71  94 119 152 196 243 289
#     4   7  11  21  38  60  83 108 141 181 223 267
#     4   9  19  35  52  72 101 134 166 202 243 288
#     4   8  14  25  40  61  92 128 164 198 234 280
#     4  10  20  34  50  67  90 120 154 198 250 297
#
# _framework density 17.204212999999999
#
# number of rings (size 3 to 8) (size 9 to 14) (size 15 to 20)
#    0.000    2.875    1.250    3.000    0.000    2.750 
#    0.000    1.875    0.000    1.875    0.000    3.500 
#    0.000    0.500    0.000    5.500    0.000    4.125 
#
# Total GULP energy -792940.567098 kJ/mol
# GULP energy per Si atom -12389.696361 kJ/mol
# Density = 1.716506 g / cm^3
# Si number density = 17.204213 Si / 1000 Ang^3
#
#
#
# Elastic Constant Matrix: (Units=GPa)
#
#
# Indices 1 2 3 4 5 6 
#
# 1 51.5298 25.5354 37.5835 0.0000 0.0000 0.0000
# 2 25.5354 70.5135 44.4940 0.0000 0.0000 0.0000
# 3 37.5835 44.4940 139.2011 0.0000 0.0000 0.0000
# 4 0.0000 0.0000 0.0000 14.7247 0.0000 0.0000
# 5 0.0000 0.0000 0.0000 0.0000 27.3592 0.0000
# 6 0.0000 0.0000 0.0000 0.0000 0.0000 15.8856
#
#
#
# Elastic Compliance Matrix: (Units=1/GPa)
#
#
# Indices 1 2 3 4 5 6 
#
# 1 0.026223 -0.006299 -0.005067 0.000000 0.000000 0.000000
# 2 -0.006299 0.019278 -0.004461 0.000000 0.000000 0.000000
# 3 -0.005067 -0.004461 0.009978 0.000000 0.000000 0.000000
# 4 0.000000 0.000000 0.000000 0.067913 0.000000 0.000000
# 5 0.000000 0.000000 0.000000 0.000000 0.036551 0.000000
# 6 0.000000 0.000000 0.000000 0.000000 0.000000 0.062950
#
#
# Mechanical properties :
#
#
# Convention : Reuss Voigt Hill
#
# Bulk Modulus (GPa) = 41.97327 52.94113 47.45720
# Shear Modulus (GPa) = 19.04846 21.83600 20.44223
#
# Velocity S-wave (km/s) = 3.33107 3.56648 3.45078
# Velocity P-wave (km/s) = 6.26456 6.91366 6.59710
#
# Compressibility (1/GPa) = 0.02382469
#
# Stress axis : x y z
#
# Youngs Moduli (GPa) = 38.13412 51.87291 100.22271
#
# Poissons Ratio (x) = 0.32676 0.50779
# Poissons Ratio (y) = 0.24022 0.44711
# Poissons Ratio (z) = 0.19321 0.23141
#
# Static dielectric constant tensor:
#      x y z
#    x 3.002220 0.000000 0.000000 
#    y 0.000000 2.825130 0.000000 
#    z 0.000000 0.000000 3.768830 
# 
# 
# High freq. dielectric constant tensor:
#      x y z
#    x 1.636960 0.000000 0.000000 
#    y 0.000000 1.616350 0.000000 
#    z 0.000000 0.000000 1.682830 
# 
# From -- ./inp_files/30026.got.cif
#   From: 2010.03.12/outbox.cif.g09.slc.cpg/sg47_16_cif.got.tgz:30026.got - 2010.04.14 03:12:58.
