data_PCOD8193993
_publ_section_title
;
Structure prediction by ZEFSAII (Michael W. Deem and Ramdas Pophale) SiO2 
 PCOD8193993
Probable space group: P M M M
;
_chemical_formula_sum "Si O2"
_cell_formula_units_Z 48
_cell_length_a 16.284632
_cell_length_b 12.588640
_cell_length_c 14.277583
_cell_angle_alpha 90.000000
_cell_angle_beta 90.000000
_cell_angle_gamma 90.000000
_cell_volume 2926.924072
_symmetry_space_group_name_H-M "P M M M"
_symmetry_group_IT_number 47
_symmetry_cell_setting 'orthorhombic'
loop_
_space_group_symop_operation_xyz
x,y,z
-x,-y,z
x,-y,-z
-x,y,-z
-x,-y,-z
x,y,-z
-x,y,z
x,-y,z
loop_
_atom_site_type_symbol
_atom_site_label
_atom_site_fract_x
_atom_site_fract_y
_atom_site_fract_z
Si Si1 0.404015 0.621876 0.103965
Si Si2 0.130115 0.622209 0.252608
Si Si3 0.685380 0.683783 0.277511
Si Si4 0.260568 0.881104 0.609138
Si Si5 0.088985 0.796855 0.392957
Si Si6 0.000000 0.625191 0.896524
Si Si7 0.403634 0.500000 0.388923
O O1 0.500000 0.642327 0.103572
O O2 0.384407 0.500000 0.131930
O O3 0.364293 0.698844 0.180960
O O4 0.368711 0.646328 0.000000
O O5 0.110179 0.500000 0.272211
O O6 0.226947 0.639993 0.244921
O O7 0.094209 0.686470 0.339053
O O8 0.082760 0.660642 0.158543
O O9 0.689396 0.797532 0.328517
O O10 0.639324 0.604205 0.347466
O O11 0.275849 0.855303 0.500000
O O12 0.163337 0.875411 0.634057
O O13 0.290770 0.000000 0.633351
O O14 0.097243 0.763544 0.500000
O O15 0.000000 0.851741 0.373218
O O16 0.000000 0.500000 0.908463
O O17 0.000000 0.678672 0.000000
O O18 0.500000 0.500000 0.361843
O O19 0.390917 0.500000 0.500000
#
# Coordination Sequence:
#
# PCOD8193993 Si02
#       7
#     8   8   8   8   8   4   4
#     4   9  17  30  50  77 106 131 158 199 253 309
#     4  10  18  29  42  65 100 133 166 200 241 299
#     4  11  19  32  52  76 103 135 171 210 250 303
#     4   9  19  34  50  70  99 136 176 215 251 289
#     4   9  17  28  44  67  93 124 164 208 249 288
#     4   9  18  30  43  59  92 137 173 205 241 287
#     4  11  22  34  51  78 109 138 163 196 252 315
#
# _framework density 16.399469
#
# number of rings (size 3 to 8) (size 9 to 14) (size 15 to 20)
#    0.000    2.333    2.500    1.500    0.000    2.000 
#    0.000    4.167    0.000    2.500    0.000    7.000 
#    0.000    3.333    0.000    0.000    0.000    0.000 
#
# Total GULP energy -594937.265707 kJ/mol
# GULP energy per Si atom -12394.526369 kJ/mol
# Density = 1.636214 g / cm^3
# Si number density = 16.399469 Si / 1000 Ang^3
#
#
#
# Elastic Constant Matrix: (Units=GPa)
#
#
# Indices 1 2 3 4 5 6 
#
# 1 87.0675 35.6415 53.3285 0.0000 0.0000 0.0000
# 2 35.6415 87.0719 50.1533 0.0000 0.0000 0.0000
# 3 53.3285 50.1533 102.3984 0.0000 0.0000 0.0000
# 4 0.0000 0.0000 0.0000 14.8452 0.0000 0.0000
# 5 0.0000 0.0000 0.0000 0.0000 29.0568 0.0000
# 6 0.0000 0.0000 0.0000 0.0000 0.0000 10.9449
#
#
#
# Elastic Compliance Matrix: (Units=1/GPa)
#
#
# Indices 1 2 3 4 5 6 
#
# 1 0.017288 -0.002634 -0.007714 0.000000 0.000000 0.000000
# 2 -0.002634 0.016399 -0.006661 0.000000 0.000000 0.000000
# 3 -0.007714 -0.006661 0.017045 0.000000 0.000000 0.000000
# 4 0.000000 0.000000 0.000000 0.067362 0.000000 0.000000
# 5 0.000000 0.000000 0.000000 0.000000 0.034415 0.000000
# 6 0.000000 0.000000 0.000000 0.000000 0.000000 0.091367
#
#
# Mechanical properties :
#
#
# Convention : Reuss Voigt Hill
#
# Bulk Modulus (GPa) = 59.81939 61.64273 60.73106
# Shear Modulus (GPa) = 17.63892 20.13035 18.88463
#
# Velocity S-wave (km/s) = 3.28316 3.50737 3.39712
# Velocity P-wave (km/s) = 7.13637 7.35337 7.24568
#
# Compressibility (1/GPa) = 0.01671699
#
# Stress axis : x y z
#
# Youngs Moduli (GPa) = 57.84377 60.97836 58.66735
#
# Poissons Ratio (x) = 0.16059 0.45254
# Poissons Ratio (y) = 0.15233 0.39076
# Poissons Ratio (z) = 0.44618 0.40615
#
# Static dielectric constant tensor:
#      x y z
#    x 3.266350 0.000000 0.000000 
#    y 0.000000 2.782900 0.000000 
#    z 0.000000 0.000000 3.238040 
# 
# 
# High freq. dielectric constant tensor:
#      x y z
#    x 1.637300 0.000000 0.000000 
#    y 0.000000 1.592490 0.000000 
#    z 0.000000 0.000000 1.633970 
# 
# From -- ./inp_files/23588.got.cif
#   From: 2010.03.12/outbox.cif.g09.slc.cpg/sg47_12_cif.got.tgz:23588.got - 2010.04.14 03:12:58.
