data_PCOD8193996
_publ_section_title
;
Structure prediction by ZEFSAII (Michael W. Deem and Ramdas Pophale) SiO2 
 PCOD8193996
Probable space group: P M M M
;
_chemical_formula_sum "Si O2"
_cell_formula_units_Z 52
_cell_length_a 9.395533
_cell_length_b 17.981878
_cell_length_c 24.526589
_cell_angle_alpha 90.000000
_cell_angle_beta 90.000000
_cell_angle_gamma 90.000000
_cell_volume 4143.750733
_symmetry_space_group_name_H-M "P M M M"
_symmetry_group_IT_number 47
_symmetry_cell_setting 'orthorhombic'
loop_
_space_group_symop_operation_xyz
x,y,z
-x,-y,z
x,-y,-z
-x,y,-z
-x,-y,-z
x,y,-z
-x,y,z
x,-y,z
loop_
_atom_site_type_symbol
_atom_site_label
_atom_site_fract_x
_atom_site_fract_y
_atom_site_fract_z
Si Si1 0.833211 0.222328 0.563825
Si Si2 0.340242 0.411567 0.939720
Si Si3 0.659127 0.918008 0.435368
Si Si4 0.334031 0.352901 0.379636
Si Si5 0.337228 0.585374 0.736758
Si Si6 0.159921 0.588631 0.160288
Si Si7 0.669095 0.500000 0.561197
O O1 0.799898 0.235608 0.500000
O O2 0.771307 0.143489 0.584740
O O3 0.758006 0.284885 0.599334
O O4 0.000000 0.223150 0.575653
O O5 0.500000 0.382236 0.928956
O O6 0.339753 0.500000 0.936654
O O7 0.236426 0.378317 0.893552
O O8 0.288246 0.385995 0.000000
O O9 0.659034 0.920211 0.500000
O O10 0.500000 0.897709 0.414557
O O11 0.703537 0.000000 0.413182
O O12 0.500000 0.339449 0.393483
O O13 0.310245 0.362486 0.315200
O O14 0.274308 0.426554 0.409044
O O15 0.500000 0.590368 0.756288
O O16 0.300056 0.500000 0.721426
O O17 0.240199 0.616240 0.785576
O O18 0.162476 0.500000 0.158410
O O19 0.000000 0.619721 0.161579
O O20 0.500000 0.500000 0.563297
O O21 0.728537 0.500000 0.500000
#
# Coordination Sequence:
#
# PCOD8193996 Si02
#       7
#     8   8   8   8   8   8   4
#     4  10  20  30  39  55  78  98 113 133 169 216
#     4   8  13  21  32  45  61  81 103 127 159 198
#     4   8  14  26  44  62  76  91 112 135 159 193
#     4  10  18  29  43  56  67  86 117 151 183 213
#     4   9  16  27  40  51  63  80 110 148 181 212
#     4   9  16  23  32  47  64  82 104 130 166 208
#     4   9  16  26  41  57  67  79 108 149 186 217
#
# _framework density 12.549016999999999
#
# number of rings (size 3 to 8) (size 9 to 14) (size 15 to 20)
#    0.000    3.000    0.769    2.308    0.000    4.615 
#    0.000    3.462    0.000    1.385    0.000    0.000 
#    0.000    0.000    0.000    0.000    0.000    0.000 
#
# Total GULP energy -644545.665944 kJ/mol
# GULP energy per Si atom -12395.108960 kJ/mol
# Density = 1.252046 g / cm^3
# Si number density = 12.549017 Si / 1000 Ang^3
#
#
#
# Elastic Constant Matrix: (Units=GPa)
#
#
# Indices 1 2 3 4 5 6 
#
# 1 84.2541 39.7161 50.9464 0.0000 0.0000 0.0000
# 2 39.7161 64.8888 29.3718 0.0000 0.0000 0.0000
# 3 50.9464 29.3718 78.1720 0.0000 0.0000 0.0000
# 4 0.0000 0.0000 0.0000 2.2525 0.0000 0.0000
# 5 0.0000 0.0000 0.0000 0.0000 16.4233 0.0000
# 6 0.0000 0.0000 0.0000 0.0000 0.0000 10.0010
#
#
#
# Elastic Compliance Matrix: (Units=1/GPa)
#
#
# Indices 1 2 3 4 5 6 
#
# 1 0.023153 -0.008845 -0.011766 0.000000 0.000000 0.000000
# 2 -0.008845 0.021948 -0.002482 0.000000 0.000000 0.000000
# 3 -0.011766 -0.002482 0.021393 0.000000 0.000000 0.000000
# 4 0.000000 0.000000 0.000000 0.443946 0.000000 0.000000
# 5 0.000000 0.000000 0.000000 0.000000 0.060889 0.000000
# 6 0.000000 0.000000 0.000000 0.000000 0.000000 0.099990
#
#
# Mechanical properties :
#
#
# Convention : Reuss Voigt Hill
#
# Bulk Modulus (GPa) = 49.24188 51.93149 50.58668
# Shear Modulus (GPa) = 6.90346 12.88742 9.89544
#
# Velocity S-wave (km/s) = 2.34801 3.20811 2.81115
# Velocity P-wave (km/s) = 6.83196 7.42936 7.13691
#
# Compressibility (1/GPa) = 0.02030792
#
# Stress axis : x y z
#
# Youngs Moduli (GPa) = 43.19120 45.56157 46.74445
#
# Poissons Ratio (x) = 0.40300 0.54998
# Poissons Ratio (y) = 0.38204 0.11602
# Poissons Ratio (z) = 0.50818 0.11309
#
# Static dielectric constant tensor:
#      x y z
#    x 2.621260 0.000000 0.000000 
#    y 0.000000 2.358070 0.000000 
#    z 0.000000 0.000000 2.541400 
# 
# 
# High freq. dielectric constant tensor:
#      x y z
#    x 1.478690 0.000000 0.000000 
#    y 0.000000 1.426960 0.000000 
#    z 0.000000 0.000000 1.461350 
# 
# From -- ./inp_files/10088.got.cif
#   From: 2010.03.12/outbox.cif.g09.slc.cpg/sg47_6_cif.got.tgz:10088.got - 2010.04.14 03:12:58.
