data_PCOD8193573
_publ_section_title
;
Structure prediction by ZEFSAII (Michael W. Deem and Ramdas Pophale) SiO2 
 PCOD8193573
Probable space group: P M M M
;
_chemical_formula_sum "Si O2"
_cell_formula_units_Z 52
_cell_length_a 12.191812
_cell_length_b 9.964768
_cell_length_c 25.215721
_cell_angle_alpha 90.000000
_cell_angle_beta 90.000000
_cell_angle_gamma 90.000000
_cell_volume 3063.422090
_symmetry_space_group_name_H-M "P M M M"
_symmetry_group_IT_number 47
_symmetry_cell_setting 'orthorhombic'
loop_
_space_group_symop_operation_xyz
x,y,z
-x,-y,z
x,-y,-z
-x,y,-z
-x,-y,-z
x,y,-z
-x,y,z
x,-y,z
loop_
_atom_site_type_symbol
_atom_site_label
_atom_site_fract_x
_atom_site_fract_y
_atom_site_fract_z
Si Si1 0.500000 0.840821 0.241589
Si Si2 0.873546 0.158695 0.500000
Si Si3 0.262138 0.158563 0.602759
Si Si4 0.122190 0.646033 0.792798
Si Si5 0.121889 0.350910 0.667757
Si Si6 0.377539 0.841007 0.057042
Si Si7 0.298432 0.159379 0.168991
Si Si8 0.500000 0.842578 0.362087
O O1 0.605974 0.791113 0.208839
O O2 0.500000 0.780828 0.301935
O O3 0.500000 0.000000 0.243519
O O4 0.801106 0.207468 0.450062
O O5 0.000000 0.216195 0.500000
O O6 0.881474 0.000000 0.500000
O O7 0.206374 0.236839 0.650619
O O8 0.391670 0.198639 0.603950
O O9 0.247533 0.000000 0.611676
O O10 0.171154 0.500000 0.809891
O O11 0.119383 0.653169 0.730147
O O12 0.186982 0.771903 0.814485
O O13 0.000000 0.659525 0.815693
O O14 0.158009 0.500000 0.648037
O O15 0.000000 0.318642 0.645373
O O16 0.500000 0.782380 0.058492
O O17 0.316162 0.787176 0.108950
O O18 0.382984 0.000000 0.061193
O O19 0.322656 0.799134 0.000000
O O20 0.284880 0.000000 0.171784
O O21 0.500000 0.000000 0.354027
#
# Coordination Sequence:
#
# PCOD8193573 Si02
#       8
#     4   4   8   8   8   8   8   4
#     4   9  16  26  41  69 103 123 143 188 239 272
#     4   9  18  31  48  72  97 119 154 205 246 272
#     4  10  19  32  50  71  96 127 158 191 233 279
#     4   9  19  34  48  64  92 128 159 192 238 285
#     4   9  18  33  51  70  93 121 155 196 240 284
#     4   8  13  23  41  67  97 126 155 187 233 288
#     4  10  17  27  47  72  96 123 156 195 234 275
#     4   9  18  29  43  67  98 129 157 184 221 276
#
# _framework density 16.974481000000001
#
# number of rings (size 3 to 8) (size 9 to 14) (size 15 to 20)
#    0.000    2.846    0.769    2.769    0.000    3.385 
#    0.000    4.231    0.000    5.077    0.000    5.385 
#    0.000    0.000    0.000    0.000    0.000    0.000 
#
# Total GULP energy -644196.991036 kJ/mol
# GULP energy per Si atom -12388.403674 kJ/mol
# Density = 1.693585 g / cm^3
# Si number density = 16.974481 Si / 1000 Ang^3
#
#
#
# Elastic Constant Matrix: (Units=GPa)
#
#
# Indices 1 2 3 4 5 6 
#
# 1 117.7227 38.7621 55.8645 0.0000 0.0000 0.0000
# 2 38.7621 40.3697 20.8152 0.0000 0.0000 0.0000
# 3 55.8645 20.8152 88.0302 0.0000 0.0000 0.0000
# 4 0.0000 0.0000 0.0000 10.0718 0.0000 0.0000
# 5 0.0000 0.0000 0.0000 0.0000 2.9006 0.0000
# 6 0.0000 0.0000 0.0000 0.0000 0.0000 9.6159
#
#
#
# Elastic Compliance Matrix: (Units=1/GPa)
#
#
# Indices 1 2 3 4 5 6 
#
# 1 0.015661 -0.011290 -0.007269 0.000000 0.000000 0.000000
# 2 -0.011290 0.036349 -0.001430 0.000000 0.000000 0.000000
# 3 -0.007269 -0.001430 0.016311 0.000000 0.000000 0.000000
# 4 0.000000 0.000000 0.000000 0.099287 0.000000 0.000000
# 5 0.000000 0.000000 0.000000 0.000000 0.344759 0.000000
# 6 0.000000 0.000000 0.000000 0.000000 0.000000 0.103994
#
#
# Mechanical properties :
#
#
# Convention : Reuss Voigt Hill
#
# Bulk Modulus (GPa) = 35.28265 53.00067 44.14166
# Shear Modulus (GPa) = 7.50990 13.22972 10.36981
#
# Velocity S-wave (km/s) = 2.10567 2.79478 2.47433
# Velocity P-wave (km/s) = 5.17133 6.45801 5.85015
#
# Compressibility (1/GPa) = 0.02834254
#
# Stress axis : x y z
#
# Youngs Moduli (GPa) = 63.85104 27.51137 61.30774
#
# Poissons Ratio (x) = 0.31059 0.44567
# Poissons Ratio (y) = 0.72085 0.08769
# Poissons Ratio (z) = 0.46416 0.03935
#
# Static dielectric constant tensor:
#      x y z
#    x 3.642300 0.000000 0.000000 
#    y 0.000000 2.843340 0.000000 
#    z 0.000000 0.000000 3.373620 
# 
# 
# High freq. dielectric constant tensor:
#      x y z
#    x 1.649620 0.000000 0.000000 
#    y 0.000000 1.614900 0.000000 
#    z 0.000000 0.000000 1.653730 
# 
# From -- ./inp_files/33610.got.cif
#   From: 2010.03.12/outbox.cif.g09.slc.cpg/sg47_17_cif.got.tgz:33610.got - 2010.04.14 03:12:58.
