data_PCOD8193283
_publ_section_title
;
Structure prediction by ZEFSAII (Michael W. Deem and Ramdas Pophale) SiO2 
 PCOD8193283
Probable space group: I M A 2
;
_chemical_formula_sum "Si O2"
_cell_formula_units_Z 32
_cell_length_a 19.697774
_cell_length_b 13.877175
_cell_length_c 5.033892
_cell_angle_alpha 90.000000
_cell_angle_beta 90.000000
_cell_angle_gamma 90.000000
_cell_volume 1376.011644
_symmetry_space_group_name_H-M "I M A 2"
_symmetry_group_IT_number 46
_symmetry_cell_setting 'orthorhombic'
loop_
_space_group_symop_operation_xyz
x,y,z
-x,-y,z
1/2-x,y,z
1/2+x,-y,z
1/2+x,1/2+y,1/2+z
1/2-x,1/2-y,1/2+z
-x,1/2+y,1/2+z
x,1/2-y,1/2+z
loop_
_atom_site_type_symbol
_atom_site_label
_atom_site_fract_x
_atom_site_fract_y
_atom_site_fract_z
Si Si1 0.855620 0.981679 0.867320
Si Si2 0.250000 0.316129 0.358816
Si Si3 0.175494 0.603153 0.863357
Si Si4 0.039780 0.693345 0.870991
Si Si5 0.500000 0.500000 0.604527
O O1 0.818371 0.879044 0.894512
O O2 0.844881 0.019774 0.570433
O O3 0.822931 0.056032 0.073050
O O4 0.936188 0.974780 0.919266
O O5 0.250000 0.229625 0.567470
O O6 0.250000 0.645193 0.927800
O O7 0.121958 0.690442 0.872284
O O8 0.014367 0.773481 0.660007
O O9 0.011791 0.588896 0.801945
#
# Coordination Sequence:
#
# PCOD8193283 Si02
#       5
#     8   4   8   8   4
#     4  11  23  42  67  98 132 190 238 287 362 439
#     4  12  24  40  66 104 138 180 240 302 360 432
#     4  11  21  41  69  94 133 178 226 288 357 425
#     4  11  25  42  66 102 137 178 238 288 349 436
#     4  10  26  46  72  98 148 196 238 302 378 418
#
# _framework density 23.255618999999999
#
# number of rings (size 3 to 8) (size 9 to 14) (size 15 to 20)
#    0.000    1.000    2.500    4.500    0.000   12.000 
#    0.000    0.000    0.000    0.000    0.000    0.000 
#    0.000    0.000    0.000    0.000    0.000    0.000 
#
# Total GULP energy -198439.215735 kJ/mol
# GULP energy per Si atom -12402.450983 kJ/mol
# Density = 2.320269 g / cm^3
# Si number density = 23.255619 Si / 1000 Ang^3
#
#
#
# Elastic Constant Matrix: (Units=GPa)
#
#
# Indices 1 2 3 4 5 6 
#
# 1 142.1521 19.2572 14.9107 0.0000 0.0000 0.0000
# 2 19.2572 80.9108 12.3374 0.0000 0.0000 0.0000
# 3 14.9107 12.3374 77.7954 0.0000 0.0000 0.0000
# 4 0.0000 0.0000 0.0000 38.7061 0.0000 0.0000
# 5 0.0000 0.0000 0.0000 0.0000 23.2204 0.0000
# 6 0.0000 0.0000 0.0000 0.0000 0.0000 42.2898
#
#
#
# Elastic Compliance Matrix: (Units=1/GPa)
#
#
# Indices 1 2 3 4 5 6 
#
# 1 0.007370 -0.001577 -0.001163 0.000000 0.000000 0.000000
# 2 -0.001577 0.013003 -0.001760 0.000000 0.000000 0.000000
# 3 -0.001163 -0.001760 0.013356 0.000000 0.000000 0.000000
# 4 0.000000 0.000000 0.000000 0.025836 0.000000 0.000000
# 5 0.000000 0.000000 0.000000 0.000000 0.043066 0.000000
# 6 0.000000 0.000000 0.000000 0.000000 0.000000 0.023646
#
#
# Mechanical properties :
#
#
# Convention : Reuss Voigt Hill
#
# Bulk Modulus (GPa) = 40.43553 43.76322 42.09938
# Shear Modulus (GPa) = 34.83853 37.80013 36.31933
#
# Velocity S-wave (km/s) = 3.87469 4.03602 3.95618
# Velocity P-wave (km/s) = 6.11905 6.37013 6.24585
#
# Compressibility (1/GPa) = 0.02473072
#
# Stress axis : x y z
#
# Youngs Moduli (GPa) = 135.67996 76.90564 74.87189
#
# Poissons Ratio (x) = 0.12127 0.08704
# Poissons Ratio (y) = 0.21395 0.13177
# Poissons Ratio (z) = 0.15773 0.13534
#
# Static dielectric constant tensor:
#      x y z
#    x 4.516660 0.000000 0.000000 
#    y 0.000000 3.930740 0.000000 
#    z 0.000000 0.000000 4.254620 
# 
# 
# High freq. dielectric constant tensor:
#      x y z
#    x 1.922740 0.000000 0.000000 
#    y 0.000000 1.908980 0.000000 
#    z 0.000000 0.000000 1.936050 
# 
# From -- ./inp_files/1555.got.cif
#   From: 2010.03.12/outbox.cif.g09.slc.cpg/sg46_1_cif.got.tgz:1555.got - 2010.04.14 02:56:35.
