data_PCOD8193192
_publ_section_title
;
Structure prediction by ZEFSAII (Michael W. Deem and Ramdas Pophale) SiO2 
 PCOD8193192
Probable space group: I M A 2
;
_chemical_formula_sum "Si O2"
_cell_formula_units_Z 64
_cell_length_a 16.659964
_cell_length_b 20.977296
_cell_length_c 7.829512
_cell_angle_alpha 90.000000
_cell_angle_beta 90.000000
_cell_angle_gamma 90.000000
_cell_volume 2736.265653
_symmetry_space_group_name_H-M "I M A 2"
_symmetry_group_IT_number 46
_symmetry_cell_setting 'orthorhombic'
loop_
_space_group_symop_operation_xyz
x,y,z
-x,-y,z
1/2-x,y,z
1/2+x,-y,z
1/2+x,1/2+y,1/2+z
1/2-x,1/2-y,1/2+z
-x,1/2+y,1/2+z
x,1/2-y,1/2+z
loop_
_atom_site_type_symbol
_atom_site_label
_atom_site_fract_x
_atom_site_fract_y
_atom_site_fract_z
Si Si1 0.391978 0.802479 0.237160
Si Si2 0.837608 0.170174 0.585847
Si Si3 0.455620 0.914185 0.042256
Si Si4 0.940430 0.742859 0.817794
Si Si5 0.841172 0.673093 0.573044
Si Si6 0.946456 0.556141 0.880964
Si Si7 0.497175 0.368831 0.188221
Si Si8 0.160239 0.027128 0.109120
O O1 0.332718 0.830365 0.379767
O O2 0.354218 0.740492 0.155370
O O3 0.400733 0.852200 0.079438
O O4 0.474842 0.792812 0.348803
O O5 0.750000 0.146919 0.652093
O O6 0.907764 0.123011 0.648084
O O7 0.514255 0.917378 0.205096
O O8 0.403199 0.978826 0.020218
O O9 0.510415 0.902379 0.874180
O O10 0.872795 0.690600 0.763667
O O11 0.965810 0.796176 0.676612
O O12 0.905130 0.785789 0.968157
O O13 0.750000 0.697573 0.548943
O O14 0.845123 0.598283 0.528948
O O15 0.859262 0.532230 0.813958
O O16 0.000000 0.500000 0.956973
O O17 0.939640 0.602807 0.041246
O O18 0.250000 0.000033 0.087491
#
# Coordination Sequence:
#
# PCOD8193192 Si02
#       8
#     8   8   8   8   8   8   8   8
#     4  11  21  39  64  96 130 183 224 271 348 410
#     4  11  23  37  58  97 139 170 221 285 341 414
#     4  11  23  43  71  96 130 180 228 280 337 406
#     4  11  22  39  65  95 130 172 221 277 339 411
#     4  11  24  41  64  97 134 172 223 284 346 405
#     4  10  22  42  65  96 130 170 230 279 326 402
#     4  11  23  41  68  99 129 177 229 280 344 410
#     4  10  24  44  68  98 137 183 227 281 346 411
#
# _framework density 23.389541000000001
#
# number of rings (size 3 to 8) (size 9 to 14) (size 15 to 20)
#    0.000    1.250    1.250    6.000    1.750    4.000 
#    0.000    0.625    0.000    5.250    0.000    0.000 
#    0.000    0.000    0.000    0.000    0.000    0.000 
#
# Total GULP energy -396475.134015 kJ/mol
# GULP energy per Si atom -12389.847938 kJ/mol
# Density = 2.333631 g / cm^3
# Si number density = 23.389541 Si / 1000 Ang^3
#
#
#
# Elastic Constant Matrix: (Units=GPa)
#
#
# Indices 1 2 3 4 5 6 
#
# 1 113.8307 21.9964 18.4297 0.0000 0.0000 0.0000
# 2 21.9964 63.4787 10.6354 0.0000 0.0000 0.0000
# 3 18.4297 10.6354 85.8802 0.0000 0.0000 0.0000
# 4 0.0000 0.0000 0.0000 28.0523 0.0000 0.0000
# 5 0.0000 0.0000 0.0000 0.0000 24.0903 0.0000
# 6 0.0000 0.0000 0.0000 0.0000 0.0000 33.0410
#
#
#
# Elastic Compliance Matrix: (Units=1/GPa)
#
#
# Indices 1 2 3 4 5 6 
#
# 1 0.009650 -0.003061 -0.001692 0.000000 0.000000 0.000000
# 2 -0.003061 0.017058 -0.001456 0.000000 0.000000 0.000000
# 3 -0.001692 -0.001456 0.012187 0.000000 0.000000 0.000000
# 4 0.000000 0.000000 0.000000 0.035648 0.000000 0.000000
# 5 0.000000 0.000000 0.000000 0.000000 0.041511 0.000000
# 6 0.000000 0.000000 0.000000 0.000000 0.000000 0.030265
#
#
# Mechanical properties :
#
#
# Convention : Reuss Voigt Hill
#
# Bulk Modulus (GPa) = 37.76532 40.59031 39.17782
# Shear Modulus (GPa) = 29.83972 31.17857 30.50914
#
# Velocity S-wave (km/s) = 3.57567 3.65501 3.61556
# Velocity P-wave (km/s) = 5.76442 5.93328 5.84946
#
# Compressibility (1/GPa) = 0.02647932
#
# Stress axis : x y z
#
# Youngs Moduli (GPa) = 103.62354 58.62447 82.05140
#
# Poissons Ratio (x) = 0.17942 0.13882
# Poissons Ratio (y) = 0.31714 0.11944
# Poissons Ratio (z) = 0.17532 0.08534
#
# Static dielectric constant tensor:
#      x y z
#    x 4.366440 0.000000 0.000000 
#    y 0.000000 4.351510 0.000000 
#    z 0.000000 0.000000 4.047800 
# 
# 
# High freq. dielectric constant tensor:
#      x y z
#    x 1.914780 0.000000 0.000000 
#    y 0.000000 1.928780 0.000000 
#    z 0.000000 0.000000 1.911960 
# 
# From -- ./inp_files/6104.got.cif
#   From: 2010.03.12/outbox.cif.g09.slc.cpg/sg46_4_cif.got.tgz:6104.got - 2010.04.14 02:56:35.
