data_PCOD8193819
_publ_section_title
;
Structure prediction by ZEFSAII (Michael W. Deem and Ramdas Pophale) SiO2 
 PCOD8193819
Probable space group: P M M M
;
_chemical_formula_sum "Si O2"
_cell_formula_units_Z 64
_cell_length_a 25.949417
_cell_length_b 9.205189
_cell_length_c 14.468095
_cell_angle_alpha 90.000000
_cell_angle_beta 90.000000
_cell_angle_gamma 90.000000
_cell_volume 3455.983550
_symmetry_space_group_name_H-M "P M M M"
_symmetry_group_IT_number 47
_symmetry_cell_setting 'orthorhombic'
loop_
_space_group_symop_operation_xyz
x,y,z
-x,-y,z
x,-y,-z
-x,y,-z
-x,-y,-z
x,y,-z
-x,y,z
x,-y,z
loop_
_atom_site_type_symbol
_atom_site_label
_atom_site_fract_x
_atom_site_fract_y
_atom_site_fract_z
Si Si1 0.442094 0.167589 0.769092
Si Si2 0.185668 0.171056 0.604959
Si Si3 0.150769 0.327150 0.225204
Si Si4 0.754388 0.327520 0.897028
Si Si5 0.398887 0.329846 0.393130
Si Si6 0.639442 0.666384 0.890821
Si Si7 0.300575 0.159536 0.390872
Si Si8 0.942951 0.672469 0.103286
O O1 0.500000 0.186065 0.808078
O O2 0.440320 0.247932 0.669807
O O3 0.402497 0.234437 0.841657
O O4 0.428166 0.000000 0.753860
O O5 0.174692 0.221591 0.500000
O O6 0.147987 0.258193 0.672828
O O7 0.243672 0.212887 0.636667
O O8 0.176600 0.000000 0.614374
O O9 0.150801 0.500000 0.233656
O O10 0.201560 0.269163 0.171615
O O11 0.100437 0.267164 0.172153
O O12 0.756453 0.500000 0.902500
O O13 0.697193 0.280695 0.862634
O O14 0.764813 0.264841 0.000000
O O15 0.409158 0.289795 0.500000
O O16 0.402727 0.500000 0.376248
O O17 0.342525 0.277041 0.358158
O O18 0.630689 0.500000 0.859842
O O19 0.632268 0.682163 0.000000
O O20 0.301995 0.143969 0.500000
O O21 0.312709 0.000000 0.347838
O O22 0.939896 0.500000 0.101004
O O23 0.000000 0.722332 0.136522
O O24 0.932222 0.732140 0.000000
#
# Coordination Sequence:
#
# PCOD8193819 Si02
#       8
#     8   8   8   8   8   8   8   8
#     4  11  25  41  56  76 102 135 175 216 257 308
#     4   9  19  34  48  66 100 143 178 210 255 309
#     4  10  18  27  48  80 106 133 174 221 259 296
#     4   8  15  29  49  76 108 134 157 194 250 311
#     4  10  21  36  56  81 106 132 165 210 261 311
#     4   9  19  37  59  80 104 134 167 208 260 315
#     4   8  15  30  50  70  95 130 168 202 244 303
#     4   8  14  26  46  74 108 143 177 214 259 311
#
# _framework density 18.518605999999998
#
# number of rings (size 3 to 8) (size 9 to 14) (size 15 to 20)
#    0.000    2.875    0.000    3.000    1.750    4.750 
#    0.000    3.750    0.000    3.000    0.000    3.500 
#    0.000    0.000    0.000    0.000    0.000    0.000 
#
# Total GULP energy -793322.250005 kJ/mol
# GULP energy per Si atom -12395.660156 kJ/mol
# Density = 1.847646 g / cm^3
# Si number density = 18.518606 Si / 1000 Ang^3
#
#
#
# Elastic Constant Matrix: (Units=GPa)
#
#
# Indices 1 2 3 4 5 6 
#
# 1 128.5264 42.0605 67.5069 0.0000 0.0000 0.0000
# 2 42.0605 58.5858 34.1337 0.0000 0.0000 0.0000
# 3 67.5069 34.1337 88.8139 0.0000 0.0000 0.0000
# 4 0.0000 0.0000 0.0000 20.7284 0.0000 0.0000
# 5 0.0000 0.0000 0.0000 0.0000 29.9853 0.0000
# 6 0.0000 0.0000 0.0000 0.0000 0.0000 12.9843
#
#
#
# Elastic Compliance Matrix: (Units=1/GPa)
#
#
# Indices 1 2 3 4 5 6 
#
# 1 0.013985 -0.004957 -0.008725 0.000000 0.000000 0.000000
# 2 -0.004957 0.023751 -0.005360 0.000000 0.000000 0.000000
# 3 -0.008725 -0.005360 0.019951 0.000000 0.000000 0.000000
# 4 0.000000 0.000000 0.000000 0.048243 0.000000 0.000000
# 5 0.000000 0.000000 0.000000 0.000000 0.033350 0.000000
# 6 0.000000 0.000000 0.000000 0.000000 0.000000 0.077016
#
#
# Mechanical properties :
#
#
# Convention : Reuss Voigt Hill
#
# Bulk Modulus (GPa) = 51.01293 62.59203 56.80248
# Shear Modulus (GPa) = 19.16327 21.55461 20.35894
#
# Velocity S-wave (km/s) = 3.22034 3.41536 3.31928
# Velocity P-wave (km/s) = 6.43693 7.03035 6.74018
#
# Compressibility (1/GPa) = 0.01960287
#
# Stress axis : x y z
#
# Youngs Moduli (GPa) = 71.50277 42.10376 50.12157
#
# Poissons Ratio (x) = 0.20871 0.43732
# Poissons Ratio (y) = 0.35445 0.26866
# Poissons Ratio (z) = 0.62387 0.22569
#
# Static dielectric constant tensor:
#      x y z
#    x 3.564870 0.000000 0.000000 
#    y 0.000000 3.098430 0.000000 
#    z 0.000000 0.000000 3.388210 
# 
# 
# High freq. dielectric constant tensor:
#      x y z
#    x 1.709210 0.000000 0.000000 
#    y 0.000000 1.688400 0.000000 
#    z 0.000000 0.000000 1.716430 
# 
# From -- ./inp_files/21940.got.cif
#   From: 2010.03.12/outbox.cif.g09.slc.cpg/sg47_11_cif.got.tgz:21940.got - 2010.04.14 03:12:58.
