data_PCOD8193678
_publ_section_title
;
Structure prediction by ZEFSAII (Michael W. Deem and Ramdas Pophale) SiO2 
 PCOD8193678
Probable space group: P M M M
;
_chemical_formula_sum "Si O2"
_cell_formula_units_Z 52
_cell_length_a 11.772796
_cell_length_b 8.990940
_cell_length_c 28.286794
_cell_angle_alpha 90.000000
_cell_angle_beta 90.000000
_cell_angle_gamma 90.000000
_cell_volume 2994.114785
_symmetry_space_group_name_H-M "P M M M"
_symmetry_group_IT_number 47
_symmetry_cell_setting 'orthorhombic'
loop_
_space_group_symop_operation_xyz
x,y,z
-x,-y,z
x,-y,-z
-x,y,-z
-x,-y,-z
x,y,-z
-x,y,z
x,-y,z
loop_
_atom_site_type_symbol
_atom_site_label
_atom_site_fract_x
_atom_site_fract_y
_atom_site_fract_z
Si Si1 0.000000 0.176340 0.404090
Si Si2 0.000000 0.668340 0.693977
Si Si3 0.245804 0.672027 0.273044
Si Si4 0.368944 0.174818 0.187487
Si Si5 0.368338 0.173723 0.641746
Si Si6 0.364419 0.167829 0.000000
Si Si7 0.364897 0.667411 0.907341
Si Si8 0.231580 0.824093 0.552118
O O1 0.111191 0.241383 0.430083
O O2 0.000000 0.220580 0.349621
O O3 0.000000 0.000000 0.405843
O O4 0.889594 0.696306 0.726275
O O5 0.000000 0.500000 0.674189
O O6 0.278350 0.500000 0.265791
O O7 0.294879 0.767836 0.230580
O O8 0.297786 0.727698 0.322101
O O9 0.500000 0.217519 0.196907
O O10 0.322652 0.248942 0.139534
O O11 0.353788 0.000000 0.182329
O O12 0.500000 0.210591 0.647682
O O13 0.330494 0.219968 0.588843
O O14 0.343123 0.000000 0.651432
O O15 0.316283 0.249983 0.953559
O O16 0.500000 0.170017 0.000000
O O17 0.318389 0.000000 0.000000
O O18 0.500000 0.668399 0.909203
O O19 0.317306 0.500000 0.906691
O O20 0.260137 0.758659 0.500000
O O21 0.221575 0.000000 0.548855
#
# Coordination Sequence:
#
# PCOD8193678 Si02
#       8
#     4   4   8   8   8   4   8   8
#     4  10  17  30  54  76  94 120 157 197 239 288
#     4  10  22  37  53  73  96 121 153 198 245 290
#     4  11  22  36  53  71  94 124 159 198 244 294
#     4  10  20  33  49  71 100 131 164 203 245 291
#     4  10  20  33  50  73  99 127 160 195 232 281
#     4   9  15  23  37  59  91 132 175 216 255 291
#     4   9  16  26  41  63  93 131 173 211 248 292
#     4   9  17  29  48  75 101 123 153 196 240 282
#
# _framework density 17.367404000000001
#
# number of rings (size 3 to 8) (size 9 to 14) (size 15 to 20)
#    0.000    2.231    1.538    2.308    0.000    7.692 
#    0.000    1.538    0.000    2.308    0.000    1.077 
#    0.000    0.615    0.000    6.615    0.000    5.077 
#
# Total GULP energy -644803.517321 kJ/mol
# GULP energy per Si atom -12400.067641 kJ/mol
# Density = 1.732787 g / cm^3
# Si number density = 17.367404 Si / 1000 Ang^3
#
#
#
# Elastic Constant Matrix: (Units=GPa)
#
#
# Indices 1 2 3 4 5 6 
#
# 1 70.7452 26.7412 31.4750 0.0000 0.0000 0.0000
# 2 26.7412 75.1703 46.3979 0.0000 0.0000 0.0000
# 3 31.4750 46.3979 133.0873 0.0000 0.0000 0.0000
# 4 0.0000 0.0000 0.0000 11.0124 0.0000 0.0000
# 5 0.0000 0.0000 0.0000 0.0000 3.9711 0.0000
# 6 0.0000 0.0000 0.0000 0.0000 0.0000 16.3802
#
#
#
# Elastic Compliance Matrix: (Units=1/GPa)
#
#
# Indices 1 2 3 4 5 6 
#
# 1 0.016924 -0.004524 -0.002426 0.000000 0.000000 0.000000
# 2 -0.004524 0.018160 -0.005261 0.000000 0.000000 0.000000
# 3 -0.002426 -0.005261 0.009922 0.000000 0.000000 0.000000
# 4 0.000000 0.000000 0.000000 0.090806 0.000000 0.000000
# 5 0.000000 0.000000 0.000000 0.000000 0.251821 0.000000
# 6 0.000000 0.000000 0.000000 0.000000 0.000000 0.061049
#
#
# Mechanical properties :
#
#
# Convention : Reuss Voigt Hill
#
# Bulk Modulus (GPa) = 48.57864 54.24790 51.41327
# Shear Modulus (GPa) = 10.41742 17.89866 14.15804
#
# Velocity S-wave (km/s) = 2.45179 3.21376 2.85828
# Velocity P-wave (km/s) = 6.00391 6.71374 6.36872
#
# Compressibility (1/GPa) = 0.02058518
#
# Stress axis : x y z
#
# Youngs Moduli (GPa) = 59.08690 55.06691 100.78929
#
# Poissons Ratio (x) = 0.24910 0.24447
# Poissons Ratio (y) = 0.26728 0.53027
# Poissons Ratio (z) = 0.14332 0.28972
#
# Static dielectric constant tensor:
#      x y z
#    x 3.070380 0.000000 0.000000 
#    y 0.000000 3.203360 0.000000 
#    z 0.000000 0.000000 3.409040 
# 
# 
# High freq. dielectric constant tensor:
#      x y z
#    x 1.635150 0.000000 0.000000 
#    y 0.000000 1.664180 0.000000 
#    z 0.000000 0.000000 1.679780 
# 
# From -- ./inp_files/33678.got.cif
#   From: 2010.03.12/outbox.cif.g09.slc.cpg/sg47_17_cif.got.tgz:33678.got - 2010.04.14 03:12:58.
