data_PCOD8193606
_publ_section_title
;
Structure prediction by ZEFSAII (Michael W. Deem and Ramdas Pophale) SiO2 
 PCOD8193606
Probable space group: P M M M
;
_chemical_formula_sum "Si O2"
_cell_formula_units_Z 52
_cell_length_a 22.616163
_cell_length_b 14.648941
_cell_length_c 9.085720
_cell_angle_alpha 90.000000
_cell_angle_beta 90.000000
_cell_angle_gamma 90.000000
_cell_volume 3010.124816
_symmetry_space_group_name_H-M "P M M M"
_symmetry_group_IT_number 47
_symmetry_cell_setting 'orthorhombic'
loop_
_space_group_symop_operation_xyz
x,y,z
-x,-y,z
x,-y,-z
-x,y,-z
-x,-y,-z
x,y,-z
-x,y,z
x,-y,z
loop_
_atom_site_type_symbol
_atom_site_label
_atom_site_fract_x
_atom_site_fract_y
_atom_site_fract_z
Si Si1 0.160661 0.107152 0.166913
Si Si2 0.615451 0.210816 0.174843
Si Si3 0.930459 0.224897 0.669450
Si Si4 0.279814 0.894642 0.326429
Si Si5 0.929826 0.400023 0.164560
Si Si6 0.500000 0.897565 0.825617
Si Si7 0.566323 0.399860 0.174469
O O1 0.101614 0.148212 0.236252
O O2 0.217453 0.137552 0.260451
O O3 0.152001 0.000000 0.173102
O O4 0.168723 0.141647 0.000000
O O5 0.671269 0.169954 0.256824
O O6 0.557993 0.155375 0.229028
O O7 0.608134 0.316609 0.226471
O O8 0.624487 0.202073 0.000000
O O9 0.913947 0.212887 0.500000
O O10 0.906986 0.324096 0.721776
O O11 0.000000 0.213956 0.697787
O O12 0.278049 0.880594 0.500000
O O13 0.293065 0.000000 0.284422
O O14 0.905764 0.500000 0.212844
O O15 0.000000 0.402141 0.165050
O O16 0.907177 0.376497 0.000000
O O17 0.500000 0.000000 0.759404
O O18 0.500000 0.901184 0.000000
O O19 0.500000 0.385980 0.237600
O O20 0.590854 0.500000 0.225179
O O21 0.562424 0.396261 0.000000
#
# Coordination Sequence:
#
# PCOD8193606 Si02
#       7
#     8   8   8   8   8   4   8
#     4  10  21  37  56  75  95 125 168 213 252 295
#     4  10  17  28  48  73  98 128 165 203 244 288
#     4  10  20  32  49  76 108 138 165 199 249 306
#     4  10  21  36  52  70  95 128 163 201 249 304
#     4   8  14  26  45  69  98 132 168 204 240 281
#     4   9  16  24  38  66 100 127 155 197 242 281
#     4   8  13  23  42  70 101 129 162 205 247 286
#
# _framework density 17.275030999999998
#
# number of rings (size 3 to 8) (size 9 to 14) (size 15 to 20)
#    0.000    2.692    0.769    2.769    0.000    4.000 
#    0.000    3.462    0.000    2.769    0.000    3.231 
#    0.000    0.000    0.000    0.000    0.000    0.000 
#
# Total GULP energy -644577.811006 kJ/mol
# GULP energy per Si atom -12395.727135 kJ/mol
# Density = 1.723571 g / cm^3
# Si number density = 17.275031 Si / 1000 Ang^3
#
#
#
# Elastic Constant Matrix: (Units=GPa)
#
#
# Indices 1 2 3 4 5 6 
#
# 1 74.1220 56.7715 43.1513 0.0000 0.0000 0.0000
# 2 56.7715 108.9972 49.2899 0.0000 0.0000 0.0000
# 3 43.1513 49.2899 75.5337 0.0000 0.0000 0.0000
# 4 0.0000 0.0000 0.0000 21.8395 0.0000 0.0000
# 5 0.0000 0.0000 0.0000 0.0000 15.8090 0.0000
# 6 0.0000 0.0000 0.0000 0.0000 0.0000 13.4634
#
#
#
# Elastic Compliance Matrix: (Units=1/GPa)
#
#
# Indices 1 2 3 4 5 6 
#
# 1 0.025763 -0.009594 -0.008457 0.000000 0.000000 0.000000
# 2 -0.009594 0.016588 -0.005344 0.000000 0.000000 0.000000
# 3 -0.008457 -0.005344 0.021558 0.000000 0.000000 0.000000
# 4 0.000000 0.000000 0.000000 0.045789 0.000000 0.000000
# 5 0.000000 0.000000 0.000000 0.000000 0.063255 0.000000
# 6 0.000000 0.000000 0.000000 0.000000 0.000000 0.074275
#
#
# Mechanical properties :
#
#
# Convention : Reuss Voigt Hill
#
# Bulk Modulus (GPa) = 58.41608 61.89761 60.15685
# Shear Modulus (GPa) = 16.68192 17.51839 17.10015
#
# Velocity S-wave (km/s) = 3.11089 3.18793 3.14964
# Velocity P-wave (km/s) = 6.84049 7.03271 6.93726
#
# Compressibility (1/GPa) = 0.01711857
#
# Stress axis : x y z
#
# Youngs Moduli (GPa) = 38.81461 60.28354 46.38716
#
# Poissons Ratio (x) = 0.57839 0.39232
# Poissons Ratio (y) = 0.37240 0.24787
# Poissons Ratio (z) = 0.32827 0.32213
#
# Static dielectric constant tensor:
#      x y z
#    x 3.017110 0.000000 0.000000 
#    y 0.000000 3.595100 0.000000 
#    z 0.000000 0.000000 3.082760 
# 
# 
# High freq. dielectric constant tensor:
#      x y z
#    x 1.639240 0.000000 0.000000 
#    y 0.000000 1.676100 0.000000 
#    z 0.000000 0.000000 1.647930 
# 
# From -- ./inp_files/7075.got.cif
#   From: 2010.03.12/outbox.cif.g09.slc.cpg/sg47_4_cif.got.tgz:7075.got - 2010.04.14 03:12:58.
