data_PCOD8193925
_publ_section_title
;
Structure prediction by ZEFSAII (Michael W. Deem and Ramdas Pophale) SiO2 
 PCOD8193925
Probable space group: P M M M
;
_chemical_formula_sum "Si O2"
_cell_formula_units_Z 64
_cell_length_a 9.360417
_cell_length_b 19.921724
_cell_length_c 19.573961
_cell_angle_alpha 90.000000
_cell_angle_beta 90.000000
_cell_angle_gamma 90.000000
_cell_volume 3650.066983
_symmetry_space_group_name_H-M "P M M M"
_symmetry_group_IT_number 47
_symmetry_cell_setting 'orthorhombic'
loop_
_space_group_symop_operation_xyz
x,y,z
-x,-y,z
x,-y,-z
-x,y,-z
-x,-y,-z
x,y,-z
-x,y,z
x,-y,z
loop_
_atom_site_type_symbol
_atom_site_label
_atom_site_fract_x
_atom_site_fract_y
_atom_site_fract_z
Si Si1 0.662028 0.422386 0.079307
Si Si2 0.665038 0.284084 0.703443
Si Si3 0.160568 0.716852 0.424383
Si Si4 0.663223 0.125394 0.701838
Si Si5 0.160447 0.123563 0.425247
Si Si6 0.333622 0.923078 0.846840
Si Si7 0.834606 0.187734 0.921646
Si Si8 0.169529 0.682538 0.836007
O O1 0.500000 0.399466 0.096606
O O2 0.681914 0.500000 0.098213
O O3 0.777074 0.381289 0.122097
O O4 0.694115 0.410188 0.000000
O O5 0.500000 0.305402 0.708231
O O6 0.728660 0.311161 0.631640
O O7 0.684795 0.204608 0.709219
O O8 0.753978 0.319073 0.763097
O O9 0.205670 0.691034 0.500000
O O10 0.164120 0.796661 0.423482
O O11 0.000000 0.692195 0.406982
O O12 0.500000 0.105524 0.690852
O O13 0.744389 0.094760 0.636286
O O14 0.724436 0.091309 0.770441
O O15 0.216880 0.099212 0.500000
O O16 0.000000 0.097256 0.414260
O O17 0.500000 0.904231 0.850141
O O18 0.252473 0.878325 0.901890
O O19 0.305552 0.000000 0.866278
O O20 0.784631 0.250272 0.876003
O O21 0.000000 0.171780 0.909595
O O22 0.802564 0.206006 0.000000
O O23 0.000000 0.678068 0.826320
#
# Coordination Sequence:
#
# PCOD8193925 Si02
#       8
#     8   8   8   8   8   8   8   8
#     4   9  19  36  56  78 106 140 174 207 247 295
#     4  10  18  28  45  69  98 130 167 209 252 298
#     4   8  14  25  40  61  93 130 164 200 247 299
#     4   9  17  29  45  66  91 119 156 200 245 295
#     4   8  14  24  40  63  89 118 152 190 235 288
#     4  10  21  37  54  71  93 122 160 206 255 307
#     4  10  22  38  54  74  99 126 159 202 251 302
#     4  11  21  33  52  77 106 137 170 208 249 295
#
# _framework density 17.533923999999999
#
# number of rings (size 3 to 8) (size 9 to 14) (size 15 to 20)
#    0.000    2.625    1.250    2.250    0.000    3.750 
#    0.000    4.375    0.000    0.375    0.000    2.625 
#    0.000    0.500    0.000    5.250    0.000    2.500 
#
# Total GULP energy -793508.323631 kJ/mol
# GULP energy per Si atom -12398.567557 kJ/mol
# Density = 1.749402 g / cm^3
# Si number density = 17.533924 Si / 1000 Ang^3
#
#
#
# Elastic Constant Matrix: (Units=GPa)
#
#
# Indices 1 2 3 4 5 6 
#
# 1 87.9327 33.5397 61.7056 0.0000 0.0000 0.0000
# 2 33.5397 47.5856 34.4458 0.0000 0.0000 0.0000
# 3 61.7056 34.4458 116.1343 0.0000 0.0000 0.0000
# 4 0.0000 0.0000 0.0000 16.8622 0.0000 0.0000
# 5 0.0000 0.0000 0.0000 0.0000 37.3424 0.0000
# 6 0.0000 0.0000 0.0000 0.0000 0.0000 21.0856
#
#
#
# Elastic Compliance Matrix: (Units=1/GPa)
#
#
# Indices 1 2 3 4 5 6 
#
# 1 0.020436 -0.008333 -0.008387 0.000000 0.000000 0.000000
# 2 -0.008333 0.030158 -0.004517 0.000000 0.000000 0.000000
# 3 -0.008387 -0.004517 0.014407 0.000000 0.000000 0.000000
# 4 0.000000 0.000000 0.000000 0.059304 0.000000 0.000000
# 5 0.000000 0.000000 0.000000 0.000000 0.026779 0.000000
# 6 0.000000 0.000000 0.000000 0.000000 0.000000 0.047426
#
#
# Mechanical properties :
#
#
# Convention : Reuss Voigt Hill
#
# Bulk Modulus (GPa) = 44.39190 56.78165 50.58678
# Shear Modulus (GPa) = 20.12127 23.18879 21.65503
#
# Velocity S-wave (km/s) = 3.39124 3.64058 3.51812
# Velocity P-wave (km/s) = 6.38018 7.07997 6.73916
#
# Compressibility (1/GPa) = 0.02252663
#
# Stress axis : x y z
#
# Youngs Moduli (GPa) = 48.93335 33.15851 69.41228
#
# Poissons Ratio (x) = 0.27631 0.58214
# Poissons Ratio (y) = 0.40776 0.31357
# Poissons Ratio (z) = 0.41039 0.14979
#
# Static dielectric constant tensor:
#      x y z
#    x 3.303270 0.000000 0.000000 
#    y 0.000000 2.820580 0.000000 
#    z 0.000000 0.000000 3.497980 
# 
# 
# High freq. dielectric constant tensor:
#      x y z
#    x 1.677740 0.000000 0.000000 
#    y 0.000000 1.629290 0.000000 
#    z 0.000000 0.000000 1.689640 
# 
# From -- ./inp_files/9948.got.cif
#   From: 2010.03.12/outbox.cif.g09.slc.cpg/sg47_5_cif.got.tgz:9948.got - 2010.04.14 03:12:58.
