data_PCOD8193709
_publ_section_title
;
Structure prediction by ZEFSAII (Michael W. Deem and Ramdas Pophale) SiO2 
 PCOD8193709
Probable space group: P M M M
;
_chemical_formula_sum "Si O2"
_cell_formula_units_Z 52
_cell_length_a 18.078700
_cell_length_b 13.515157
_cell_length_c 14.479608
_cell_angle_alpha 90.000000
_cell_angle_beta 90.000000
_cell_angle_gamma 90.000000
_cell_volume 3537.896289
_symmetry_space_group_name_H-M "P M M M"
_symmetry_group_IT_number 47
_symmetry_cell_setting 'orthorhombic'
loop_
_space_group_symop_operation_xyz
x,y,z
-x,-y,z
x,-y,-z
-x,y,-z
-x,-y,-z
x,y,-z
-x,y,z
x,-y,z
loop_
_atom_site_type_symbol
_atom_site_label
_atom_site_fract_x
_atom_site_fract_y
_atom_site_fract_z
Si Si1 0.918383 0.382998 0.275862
Si Si2 0.173595 0.613144 0.897286
Si Si3 0.330081 0.298526 0.105095
Si Si4 0.500000 0.618328 0.395379
Si Si5 0.641223 0.614452 0.708858
Si Si6 0.784468 0.618093 0.604177
Si Si7 0.417682 0.891278 0.891129
O O1 0.924182 0.500000 0.284289
O O2 0.889369 0.353860 0.174002
O O3 0.861499 0.342023 0.352747
O O4 0.000000 0.335927 0.290667
O O5 0.200844 0.500000 0.875886
O O6 0.241958 0.688670 0.888994
O O7 0.139514 0.618747 0.000000
O O8 0.366424 0.370692 0.180837
O O9 0.354844 0.188294 0.136169
O O10 0.357358 0.323668 0.000000
O O11 0.500000 0.500000 0.391844
O O12 0.500000 0.657005 0.500000
O O13 0.428298 0.662843 0.343714
O O14 0.640822 0.500000 0.686021
O O15 0.717181 0.659752 0.666914
O O16 0.776748 0.658491 0.500000
O O17 0.784333 0.500000 0.605257
O O18 0.500000 0.860110 0.855175
O O19 0.396407 0.000000 0.850705
O O20 0.420928 0.898848 0.000000
#
# Coordination Sequence:
#
# PCOD8193709 Si02
#       7
#     8   8   8   4   8   8   8
#     4   9  16  25  36  52  75 104 140 175 202 232
#     4   9  16  26  38  53  78 111 140 163 190 230
#     4  10  18  26  41  60  80 106 133 160 195 237
#     4   9  18  30  41  53  72 103 141 175 199 224
#     4  10  18  28  40  56  80 109 138 166 197 235
#     4   9  16  26  39  52  70 102 140 175 209 238
#     4   8  15  28  43  58  78 103 130 162 199 237
#
# _framework density 14.698
#
# number of rings (size 3 to 8) (size 9 to 14) (size 15 to 20)
#    0.000    2.846    1.538    1.385    1.077    3.385 
#    0.000    3.077    0.000    1.385    0.000    0.000 
#    0.000    3.692    0.000    6.000    0.000    2.000 
#
# Total GULP energy -644258.390348 kJ/mol
# GULP energy per Si atom -12389.584430 kJ/mol
# Density = 1.466455 g / cm^3
# Si number density = 14.698000 Si / 1000 Ang^3
#
#
#
# Elastic Constant Matrix: (Units=GPa)
#
#
# Indices 1 2 3 4 5 6 
#
# 1 116.6598 25.8415 50.9018 0.0000 0.0000 0.0000
# 2 25.8415 23.7711 7.4055 0.0000 0.0000 0.0000
# 3 50.9018 7.4055 106.1982 0.0000 0.0000 0.0000
# 4 0.0000 0.0000 0.0000 3.9891 0.0000 0.0000
# 5 0.0000 0.0000 0.0000 0.0000 22.3781 0.0000
# 6 0.0000 0.0000 0.0000 0.0000 0.0000 9.8002
#
#
#
# Elastic Compliance Matrix: (Units=1/GPa)
#
#
# Indices 1 2 3 4 5 6 
#
# 1 0.014106 -0.013522 -0.005818 0.000000 0.000000 0.000000
# 2 -0.013522 0.055964 0.002579 0.000000 0.000000 0.000000
# 3 -0.005818 0.002579 0.012025 0.000000 0.000000 0.000000
# 4 0.000000 0.000000 0.000000 0.250686 0.000000 0.000000
# 5 0.000000 0.000000 0.000000 0.000000 0.044687 0.000000
# 6 0.000000 0.000000 0.000000 0.000000 0.000000 0.102039
#
#
# Mechanical properties :
#
#
# Convention : Reuss Voigt Hill
#
# Bulk Modulus (GPa) = 20.58784 46.10297 33.34541
# Shear Modulus (GPa) = 9.44787 18.06549 13.75668
#
# Velocity S-wave (km/s) = 2.53810 3.50967 3.06266
# Velocity P-wave (km/s) = 4.75678 6.91800 5.93656
#
# Compressibility (1/GPa) = 0.04857236
#
# Stress axis : x y z
#
# Youngs Moduli (GPa) = 70.89307 17.86863 83.15860
#
# Poissons Ratio (x) = 0.24162 0.48383
# Poissons Ratio (y) = 0.95860 -0.21443
# Poissons Ratio (z) = 0.41246 -0.04608
#
# Static dielectric constant tensor:
#      x y z
#    x 3.078720 0.000000 0.000000 
#    y 0.000000 2.509090 0.000000 
#    z 0.000000 0.000000 2.951410 
# 
# 
# High freq. dielectric constant tensor:
#      x y z
#    x 1.564630 0.000000 0.000000 
#    y 0.000000 1.483560 0.000000 
#    z 0.000000 0.000000 1.566070 
# 
# From -- ./inp_files/24613.got.cif
#   From: 2010.03.12/outbox.cif.g09.slc.cpg/sg47_13_cif.got.tgz:24613.got - 2010.04.14 03:12:58.
