data_PCOD8193585
_publ_section_title
;
Structure prediction by ZEFSAII (Michael W. Deem and Ramdas Pophale) SiO2 
 PCOD8193585
Probable space group: P M M M
;
_chemical_formula_sum "Si O2"
_cell_formula_units_Z 40
_cell_length_a 19.967177
_cell_length_b 17.000370
_cell_length_c 7.918124
_cell_angle_alpha 90.000000
_cell_angle_beta 90.000000
_cell_angle_gamma 90.000000
_cell_volume 2687.802416
_symmetry_space_group_name_H-M "P M M M"
_symmetry_group_IT_number 47
_symmetry_cell_setting 'orthorhombic'
loop_
_space_group_symop_operation_xyz
x,y,z
-x,-y,z
x,-y,-z
-x,y,-z
-x,-y,-z
x,y,-z
-x,y,z
x,-y,z
loop_
_atom_site_type_symbol
_atom_site_label
_atom_site_fract_x
_atom_site_fract_y
_atom_site_fract_z
Si Si1 0.348030 0.845570 0.799685
Si Si2 0.420723 0.587563 0.000000
Si Si3 0.788546 0.087481 0.805172
Si Si4 0.425539 0.000000 0.799932
Si Si5 0.928343 0.090732 0.301821
Si Si6 0.577372 0.694019 0.309607
O O1 0.270900 0.856657 0.737652
O O2 0.378249 0.771765 0.702990
O O3 0.387302 0.922656 0.737414
O O4 0.354909 0.831964 0.000000
O O5 0.396572 0.631470 0.829236
O O6 0.389253 0.500000 0.000000
O O7 0.500000 0.581646 0.000000
O O8 0.861222 0.129301 0.777027
O O9 0.786875 0.000000 0.719234
O O10 0.774060 0.075435 0.000000
O O11 0.500000 0.000000 0.722313
O O12 0.428313 0.000000 0.000000
O O13 0.923650 0.100898 0.500000
O O14 0.000000 0.127799 0.238554
O O15 0.928799 0.000000 0.247569
O O16 0.585193 0.659404 0.500000
O O17 0.500000 0.715881 0.272547
#
# Coordination Sequence:
#
# PCOD8193585 Si02
#       6
#     8   4   8   4   8   8
#     4  10  17  28  42  58  83 114 147 182 220 258
#     4   9  18  34  54  71  87 109 134 168 219 269
#     4   9  16  25  37  55  77 102 139 182 218 252
#     4   9  16  24  39  57  72 106 152 184 216 253
#     4   8  14  24  36  49  67  94 130 173 219 261
#     4  10  20  32  47  68  90 112 142 179 217 262
#
# _framework density 14.882046000000001
#
# number of rings (size 3 to 8) (size 9 to 14) (size 15 to 20)
#    0.000    2.800    2.000    1.200    0.000    2.400 
#    0.000    4.500    0.000    1.800    0.000    0.000 
#    0.000    0.000    0.000    0.000    0.000    2.000 
#
# Total GULP energy -495574.744953 kJ/mol
# GULP energy per Si atom -12389.368624 kJ/mol
# Density = 1.484817 g / cm^3
# Si number density = 14.882046 Si / 1000 Ang^3
#
#
#
# Elastic Constant Matrix: (Units=GPa)
#
#
# Indices 1 2 3 4 5 6 
#
# 1 118.6985 34.1134 23.6565 0.0000 0.0000 0.0000
# 2 34.1134 75.4864 29.3360 0.0000 0.0000 0.0000
# 3 23.6565 29.3360 56.1844 0.0000 0.0000 0.0000
# 4 0.0000 0.0000 0.0000 8.5888 0.0000 0.0000
# 5 0.0000 0.0000 0.0000 0.0000 16.2519 0.0000
# 6 0.0000 0.0000 0.0000 0.0000 0.0000 3.7149
#
#
#
# Elastic Compliance Matrix: (Units=1/GPa)
#
#
# Indices 1 2 3 4 5 6 
#
# 1 0.009914 -0.003586 -0.002302 0.000000 0.000000 0.000000
# 2 -0.003586 0.017917 -0.007845 0.000000 0.000000 0.000000
# 3 -0.002302 -0.007845 0.022864 0.000000 0.000000 0.000000
# 4 0.000000 0.000000 0.000000 0.116431 0.000000 0.000000
# 5 0.000000 0.000000 0.000000 0.000000 0.061531 0.000000
# 6 0.000000 0.000000 0.000000 0.000000 0.000000 0.269188
#
#
# Mechanical properties :
#
#
# Convention : Reuss Voigt Hill
#
# Bulk Modulus (GPa) = 43.04990 47.17569 45.11280
# Shear Modulus (GPa) = 9.37991 16.59533 12.98762
#
# Velocity S-wave (km/s) = 2.51327 3.34297 2.95736
# Velocity P-wave (km/s) = 6.11655 6.83148 6.48388
#
# Compressibility (1/GPa) = 0.02322886
#
# Stress axis : x y z
#
# Youngs Moduli (GPa) = 100.86742 55.81384 43.73660
#
# Poissons Ratio (x) = 0.20013 0.10069
# Poissons Ratio (y) = 0.36167 0.34313
# Poissons Ratio (z) = 0.23221 0.43787
#
# Static dielectric constant tensor:
#      x y z
#    x 3.164900 0.000000 0.000000 
#    y 0.000000 2.566130 0.000000 
#    z 0.000000 0.000000 2.797260 
# 
# 
# High freq. dielectric constant tensor:
#      x y z
#    x 1.568360 0.000000 0.000000 
#    y 0.000000 1.505210 0.000000 
#    z 0.000000 0.000000 1.567550 
# 
# From -- ./inp_files/10802.got.cif
#   From: 2010.03.12/outbox.cif.g09.slc.cpg/sg47_6_cif.got.tgz:10802.got - 2010.04.14 03:12:58.
