data_PCOD8193030
_publ_section_title
;
Structure prediction by ZEFSAII (Michael W. Deem and Ramdas Pophale) SiO2 
 PCOD8193030
Probable space group: I M A 2
;
_chemical_formula_sum "Si O2"
_cell_formula_units_Z 64
_cell_length_a 18.628864
_cell_length_b 11.990063
_cell_length_c 14.411159
_cell_angle_alpha 90.000000
_cell_angle_beta 90.000000
_cell_angle_gamma 90.000000
_cell_volume 3218.894531
_symmetry_space_group_name_H-M "I M A 2"
_symmetry_group_IT_number 46
_symmetry_cell_setting 'orthorhombic'
loop_
_space_group_symop_operation_xyz
x,y,z
-x,-y,z
1/2-x,y,z
1/2+x,-y,z
1/2+x,1/2+y,1/2+z
1/2-x,1/2-y,1/2+z
-x,1/2+y,1/2+z
x,1/2-y,1/2+z
loop_
_atom_site_type_symbol
_atom_site_label
_atom_site_fract_x
_atom_site_fract_y
_atom_site_fract_z
Si Si1 0.403200 0.341447 0.983870
Si Si2 0.666188 0.855672 0.876733
Si Si3 0.076281 0.530920 0.837144
Si Si4 0.561846 0.278339 0.965100
Si Si5 0.667981 0.165121 0.623537
Si Si6 0.832540 0.919384 0.671887
Si Si7 0.332538 0.588095 0.673065
Si Si8 0.081075 0.532020 0.494097
O O1 0.350963 0.262766 0.923554
O O2 0.409473 0.456054 0.927465
O O3 0.479940 0.283913 0.000356
O O4 0.374958 0.365080 0.086760
O O5 0.750000 0.884129 0.889770
O O6 0.645587 0.857130 0.767373
O O7 0.617621 0.948276 0.923868
O O8 0.070256 0.659049 0.868119
O O9 0.140439 0.523381 0.764129
O O10 0.000000 0.500000 0.789955
O O11 0.614429 0.337222 0.037726
O O12 0.584227 0.152142 0.945803
O O13 0.750000 0.164716 0.586129
O O14 0.654826 0.278307 0.682699
O O15 0.652876 0.052855 0.682906
O O16 0.750000 0.897586 0.649445
O O17 0.250000 0.558094 0.659244
O O18 0.375160 0.534266 0.588843
O O19 0.000000 0.500000 0.517498
#
# Coordination Sequence:
#
# PCOD8193030 Si02
#       8
#     8   8   8   8   8   8   8   8
#     4  11  22  43  64  92 129 169 209 259 314 376
#     4  11  25  43  65  96 128 166 211 256 312 380
#     4  10  22  39  62  92 129 167 210 261 310 374
#     4  10  21  40  63  93 124 160 215 261 312 368
#     4   9  19  38  61  90 124 161 206 259 315 366
#     4  10  22  41  64  92 126 166 210 260 313 373
#     4  10  22  38  62  94 125 166 210 258 319 373
#     4  11  22  43  63  91 127 166 208 261 314 373
#
# _framework density 19.882601000000001
#
# number of rings (size 3 to 8) (size 9 to 14) (size 15 to 20)
#    0.000    1.750    2.500    1.125    1.750    3.000 
#   11.250    1.250    0.000    0.000    0.000    0.000 
#    0.000    0.000    0.000    0.000    0.000    0.000 
#
# Total GULP energy -396778.918164 kJ/mol
# GULP energy per Si atom -12399.341193 kJ/mol
# Density = 1.983735 g / cm^3
# Si number density = 19.882601 Si / 1000 Ang^3
#
#
#
# Elastic Constant Matrix: (Units=GPa)
#
#
# Indices 1 2 3 4 5 6 
#
# 1 124.5060 30.8005 63.7878 0.0000 0.0000 0.0000
# 2 30.8005 72.1256 43.1639 0.0000 0.0000 0.0000
# 3 63.7878 43.1639 114.0441 0.0000 0.0000 0.0000
# 4 0.0000 0.0000 0.0000 20.1369 0.0000 0.0000
# 5 0.0000 0.0000 0.0000 0.0000 32.2347 0.0000
# 6 0.0000 0.0000 0.0000 0.0000 0.0000 26.2052
#
#
#
# Elastic Compliance Matrix: (Units=1/GPa)
#
#
# Indices 1 2 3 4 5 6 
#
# 1 0.011359 -0.001356 -0.005840 0.000000 0.000000 0.000000
# 2 -0.001356 0.018087 -0.006087 0.000000 0.000000 0.000000
# 3 -0.005840 -0.006087 0.014339 0.000000 0.000000 0.000000
# 4 0.000000 0.000000 0.000000 0.049660 0.000000 0.000000
# 5 0.000000 0.000000 0.000000 0.000000 0.031022 0.000000
# 6 0.000000 0.000000 0.000000 0.000000 0.000000 0.038160
#
#
# Mechanical properties :
#
#
# Convention : Reuss Voigt Hill
#
# Bulk Modulus (GPa) = 58.07747 65.13112 61.60430
# Shear Modulus (GPa) = 25.64970 27.24361 26.44665
#
# Velocity S-wave (km/s) = 3.59563 3.70567 3.65107
# Velocity P-wave (km/s) = 6.81995 7.15110 6.98749
#
# Compressibility (1/GPa) = 0.01721838
#
# Stress axis : x y z
#
# Youngs Moduli (GPa) = 88.03335 55.28971 69.73894
#
# Poissons Ratio (x) = 0.07495 0.40731
# Poissons Ratio (y) = 0.11934 0.42452
# Poissons Ratio (z) = 0.51416 0.33656
#
# Static dielectric constant tensor:
#      x y z
#    x 3.773370 0.000000 0.000000 
#    y 0.000000 3.758020 0.000000 
#    z 0.000000 0.000000 3.395440 
# 
# 
# High freq. dielectric constant tensor:
#      x y z
#    x 1.786920 0.000000 0.000000 
#    y 0.000000 1.785070 0.000000 
#    z 0.000000 0.000000 1.761320 
# 
# From -- ./inp_files/16778.got.cif
#   From: 2010.03.12/outbox.cif.g09.slc.cpg/sg46_9_cif.got.tgz:16778.got - 2010.04.14 02:56:35.
