data_PCOD8193455
_publ_section_title
;
Structure prediction by ZEFSAII (Michael W. Deem and Ramdas Pophale) SiO2 
 PCOD8193455
Probable space group: P M M M
;
_chemical_formula_sum "Si O2"
_cell_formula_units_Z 52
_cell_length_a 27.892465
_cell_length_b 9.229552
_cell_length_c 11.823815
_cell_angle_alpha 90.000000
_cell_angle_beta 90.000000
_cell_angle_gamma 90.000000
_cell_volume 3043.863296
_symmetry_space_group_name_H-M "P M M M"
_symmetry_group_IT_number 47
_symmetry_cell_setting 'orthorhombic'
loop_
_space_group_symop_operation_xyz
x,y,z
-x,-y,z
x,-y,-z
-x,y,-z
-x,-y,-z
x,y,-z
-x,y,z
x,-y,z
loop_
_atom_site_type_symbol
_atom_site_label
_atom_site_fract_x
_atom_site_fract_y
_atom_site_fract_z
Si Si1 0.406716 0.669078 0.367756
Si Si2 0.693082 0.329000 0.283192
Si Si3 0.160703 0.161632 0.500000
Si Si4 0.254520 0.328480 0.500000
Si Si5 0.777437 0.328519 0.870599
Si Si6 0.500000 0.162935 0.634287
Si Si7 0.136485 0.833621 0.748882
Si Si8 0.945037 0.335440 0.868930
O O1 0.395265 0.701048 0.500000
O O2 0.417486 0.500000 0.351108
O O3 0.362252 0.723433 0.288891
O O4 0.452628 0.755772 0.322135
O O5 0.692008 0.500000 0.297148
O O6 0.720437 0.260586 0.390079
O O7 0.723507 0.285376 0.171527
O O8 0.199792 0.285449 0.500000
O O9 0.129788 0.182636 0.386271
O O10 0.183739 0.000000 0.500000
O O11 0.258024 0.500000 0.500000
O O12 0.785449 0.500000 0.858495
O O13 0.817170 0.251776 0.794088
O O14 0.782323 0.277680 0.000000
O O15 0.500000 0.165180 0.500000
O O16 0.500000 0.000000 0.682045
O O17 0.087759 0.773114 0.799995
O O18 0.142608 0.000000 0.785358
O O19 0.935723 0.500000 0.828954
O O20 0.000000 0.291679 0.847655
O O21 0.931726 0.321040 0.000000
#
# Coordination Sequence:
#
# PCOD8193455 Si02
#       8
#     8   8   4   4   8   4   8   8
#     4   9  15  25  42  62  85 117 155 192 230 277
#     4   9  16  27  46  71  94 120 160 202 237 279
#     4  10  22  36  47  69 103 136 166 198 238 284
#     4  10  16  28  50  70  90 124 169 205 233 280
#     4  10  20  33  50  73 101 131 162 199 243 287
#     4   9  17  27  37  57  90 121 148 184 233 286
#     4  11  22  35  52  74 102 134 166 200 239 287
#     4   9  19  37  59  80 101 126 160 204 249 289
#
# _framework density 17.083553999999999
#
# number of rings (size 3 to 8) (size 9 to 14) (size 15 to 20)
#    0.000    2.385    2.308    1.615    0.000    4.308 
#    0.000    2.692    0.000    2.308    0.000    0.538 
#    0.000    4.308    0.000    0.000    0.000    0.000 
#
# Total GULP energy -644517.738291 kJ/mol
# GULP energy per Si atom -12394.571890 kJ/mol
# Density = 1.704467 g / cm^3
# Si number density = 17.083554 Si / 1000 Ang^3
#
#
#
# Elastic Constant Matrix: (Units=GPa)
#
#
# Indices 1 2 3 4 5 6 
#
# 1 120.7463 45.8086 49.6955 0.0000 0.0000 0.0000
# 2 45.8086 56.7171 35.5595 0.0000 0.0000 0.0000
# 3 49.6955 35.5595 87.1057 0.0000 0.0000 0.0000
# 4 0.0000 0.0000 0.0000 17.1809 0.0000 0.0000
# 5 0.0000 0.0000 0.0000 0.0000 21.5734 0.0000
# 6 0.0000 0.0000 0.0000 0.0000 0.0000 3.3764
#
#
#
# Elastic Compliance Matrix: (Units=1/GPa)
#
#
# Indices 1 2 3 4 5 6 
#
# 1 0.012994 -0.007858 -0.004205 0.000000 0.000000 0.000000
# 2 -0.007858 0.028449 -0.007131 0.000000 0.000000 0.000000
# 3 -0.004205 -0.007131 0.016790 0.000000 0.000000 0.000000
# 4 0.000000 0.000000 0.000000 0.058204 0.000000 0.000000
# 5 0.000000 0.000000 0.000000 0.000000 0.046353 0.000000
# 6 0.000000 0.000000 0.000000 0.000000 0.000000 0.296171
#
#
# Mechanical properties :
#
#
# Convention : Reuss Voigt Hill
#
# Bulk Modulus (GPa) = 50.39026 58.52181 54.45603
# Shear Modulus (GPa) = 9.92134 17.32651 13.62393
#
# Velocity S-wave (km/s) = 2.41250 3.18814 2.82705
# Velocity P-wave (km/s) = 6.10906 6.91975 6.52700
#
# Compressibility (1/GPa) = 0.01984511
#
# Stress axis : x y z
#
# Youngs Moduli (GPa) = 76.95978 35.15097 59.55786
#
# Poissons Ratio (x) = 0.27622 0.25046
# Poissons Ratio (y) = 0.60476 0.42468
# Poissons Ratio (z) = 0.32364 0.25064
#
# Static dielectric constant tensor:
#      x y z
#    x 3.281930 0.000000 0.000000 
#    y 0.000000 3.068130 0.000000 
#    z 0.000000 0.000000 3.163180 
# 
# 
# High freq. dielectric constant tensor:
#      x y z
#    x 1.662290 0.000000 0.000000 
#    y 0.000000 1.643310 0.000000 
#    z 0.000000 0.000000 1.634630 
# 
# From -- ./inp_files/19866.got.cif
#   From: 2010.03.12/outbox.cif.g09.slc.cpg/sg47_10_cif.got.tgz:19866.got - 2010.04.14 03:12:58.
