data_PCOD8193286
_publ_section_title
;
Structure prediction by ZEFSAII (Michael W. Deem and Ramdas Pophale) SiO2 
 PCOD8193286
Probable space group: I M A 2
;
_chemical_formula_sum "Si O2"
_cell_formula_units_Z 48
_cell_length_a 13.129560
_cell_length_b 15.260843
_cell_length_c 13.335517
_cell_angle_alpha 90.000000
_cell_angle_beta 90.000000
_cell_angle_gamma 90.000000
_cell_volume 2672.012922
_symmetry_space_group_name_H-M "I M A 2"
_symmetry_group_IT_number 46
_symmetry_cell_setting 'orthorhombic'
loop_
_space_group_symop_operation_xyz
x,y,z
-x,-y,z
1/2-x,y,z
1/2+x,-y,z
1/2+x,1/2+y,1/2+z
1/2-x,1/2-y,1/2+z
-x,1/2+y,1/2+z
x,1/2-y,1/2+z
loop_
_atom_site_type_symbol
_atom_site_label
_atom_site_fract_x
_atom_site_fract_y
_atom_site_fract_z
Si Si1 0.635943 0.328528 0.161470
Si Si2 0.432331 0.779829 0.337876
Si Si3 0.250000 0.066853 0.299758
Si Si4 0.750000 0.108774 0.398763
Si Si5 0.959275 0.756680 0.032218
Si Si6 0.250000 0.343543 0.018653
Si Si7 0.544666 0.595886 0.685694
Si Si8 0.250000 0.520927 0.108826
O O1 0.750000 0.290983 0.129515
O O2 0.612940 0.300569 0.274914
O O3 0.648164 0.435354 0.159192
O O4 0.546109 0.299190 0.088212
O O5 0.346928 0.828676 0.401448
O O6 0.514203 0.738934 0.414392
O O7 0.475367 0.852239 0.263257
O O8 0.250000 0.117382 0.406409
O O9 0.154852 0.094650 0.234037
O O10 0.250000 0.961000 0.307693
O O11 0.750000 0.048057 0.493779
O O12 0.849621 0.712497 0.041363
O O13 0.953076 0.853736 0.079178
O O14 0.250000 0.416530 0.107791
O O15 0.500000 0.500000 0.665986
#
# Coordination Sequence:
#
# PCOD8193286 Si02
#       8
#     8   8   4   4   8   4   8   4
#     4   9  19  35  56  88 115 158 200 250 308 354
#     4  11  19  35  60  85 123 151 197 250 308 358
#     4  11  21  36  60  90 119 153 206 256 300 359
#     4  11  17  30  56  88 117 144 185 262 303 352
#     4  11  23  38  60  89 125 165 197 251 303 370
#     4  11  23  38  60  89 126 169 198 243 307 363
#     4  11  23  39  62  88 119 160 208 250 305 356
#     4   9  19  34  56  89 122 150 199 253 304 358
#
# _framework density 17.963985999999998
#
# number of rings (size 3 to 8) (size 9 to 14) (size 15 to 20)
#    0.500    1.000    5.833    0.500    0.000    0.667 
#    0.000    0.000    7.333    0.000    0.000    0.000 
#    0.000    0.000    0.000    0.000    0.000    0.000 
#
# Total GULP energy -297365.123341 kJ/mol
# GULP energy per Si atom -12390.213473 kJ/mol
# Density = 1.792310 g / cm^3
# Si number density = 17.963986 Si / 1000 Ang^3
#
#
#
# Elastic Constant Matrix: (Units=GPa)
#
#
# Indices 1 2 3 4 5 6 
#
# 1 124.9708 52.0641 35.8894 0.0000 0.0000 0.0000
# 2 52.0641 115.7113 57.6585 0.0000 0.0000 0.0000
# 3 35.8894 57.6585 70.8453 0.0000 0.0000 0.0000
# 4 0.0000 0.0000 0.0000 31.2670 0.0000 0.0000
# 5 0.0000 0.0000 0.0000 0.0000 9.8780 0.0000
# 6 0.0000 0.0000 0.0000 0.0000 0.0000 15.0585
#
#
#
# Elastic Compliance Matrix: (Units=1/GPa)
#
#
# Indices 1 2 3 4 5 6 
#
# 1 0.010081 -0.003350 -0.002381 0.000000 0.000000 0.000000
# 2 -0.003350 0.015651 -0.011041 0.000000 0.000000 0.000000
# 3 -0.002381 -0.011041 0.024307 0.000000 0.000000 0.000000
# 4 0.000000 0.000000 0.000000 0.031983 0.000000 0.000000
# 5 0.000000 0.000000 0.000000 0.000000 0.101235 0.000000
# 6 0.000000 0.000000 0.000000 0.000000 0.000000 0.066407
#
#
# Mechanical properties :
#
#
# Convention : Reuss Voigt Hill
#
# Bulk Modulus (GPa) = 60.61878 66.97238 63.79558
# Shear Modulus (GPa) = 17.31863 22.30173 19.81018
#
# Velocity S-wave (km/s) = 3.10832 3.52727 3.32440
# Velocity P-wave (km/s) = 6.83375 7.34515 7.09406
#
# Compressibility (1/GPa) = 0.01649654
#
# Stress axis : x y z
#
# Youngs Moduli (GPa) = 99.19565 63.89367 41.14008
#
# Poissons Ratio (x) = 0.21402 0.09795
# Poissons Ratio (y) = 0.33227 0.45422
# Poissons Ratio (z) = 0.23617 0.70545
#
# Static dielectric constant tensor:
#      x y z
#    x 3.433290 0.000000 0.000000 
#    y 0.000000 3.367350 0.000000 
#    z 0.000000 0.000000 3.329910 
# 
# 
# High freq. dielectric constant tensor:
#      x y z
#    x 1.706920 0.000000 0.000000 
#    y 0.000000 1.680330 0.000000 
#    z 0.000000 0.000000 1.688370 
# 
# From -- ./inp_files/10310.got.cif
#   From: 2010.03.12/outbox.cif.g09.slc.cpg/sg46_6_cif.got.tgz:10310.got - 2010.04.14 02:56:35.
