data_PCOD8193654
_publ_section_title
;
Structure prediction by ZEFSAII (Michael W. Deem and Ramdas Pophale) SiO2 
 PCOD8193654
Probable space group: P M M M
;
_chemical_formula_sum "Si O2"
_cell_formula_units_Z 36
_cell_length_a 11.794384
_cell_length_b 19.571560
_cell_length_c 8.855735
_cell_angle_alpha 90.000000
_cell_angle_beta 90.000000
_cell_angle_gamma 90.000000
_cell_volume 2044.209109
_symmetry_space_group_name_H-M "P M M M"
_symmetry_group_IT_number 47
_symmetry_cell_setting 'orthorhombic'
loop_
_space_group_symop_operation_xyz
x,y,z
-x,-y,z
x,-y,-z
-x,y,-z
-x,-y,-z
x,y,-z
-x,y,z
x,-y,z
loop_
_atom_site_type_symbol
_atom_site_label
_atom_site_fract_x
_atom_site_fract_y
_atom_site_fract_z
Si Si1 0.725709 0.575757 0.820888
Si Si2 0.866983 0.919920 0.000000
Si Si3 0.276584 0.179019 0.832763
Si Si4 0.125852 0.301170 0.819887
Si Si5 0.500000 0.201333 0.677999
Si Si6 0.500000 0.350286 0.179231
O O1 0.743508 0.500000 0.751436
O O2 0.827301 0.625133 0.767573
O O3 0.607945 0.607291 0.763640
O O4 0.723292 0.570850 0.000000
O O5 0.807178 0.886811 0.851039
O O6 0.000000 0.901559 0.000000
O O7 0.845354 0.000000 0.000000
O O8 0.206586 0.241139 0.756005
O O9 0.387053 0.161390 0.733531
O O10 0.318809 0.202287 0.000000
O O11 0.000000 0.292774 0.752236
O O12 0.122504 0.294977 0.000000
O O13 0.500000 0.202544 0.500000
O O14 0.500000 0.277167 0.742931
O O15 0.500000 0.339915 0.000000
#
# Coordination Sequence:
#
# PCOD8193654 Si02
#       6
#     8   4   8   8   4   4
#     4   9  16  24  39  66  97 126 164 214 268 324
#     4   9  18  33  61  95 116 132 166 214 254 298
#     4   9  18  32  54  79 107 137 171 211 258 308
#     4   9  15  24  42  69  98 129 164 207 260 312
#     4  12  22  33  51  78 108 140 182 223 259 305
#     4  10  17  30  48  68  95 129 173 223 273 317
#
# _framework density 17.610724000000001
#
# number of rings (size 3 to 8) (size 9 to 14) (size 15 to 20)
#    0.667    1.889    2.222    2.000    0.000    1.778 
#    0.000    3.333    0.000    5.333    0.000    1.556 
#    0.000    1.778    0.000    0.000    0.000    0.000 
#
# Total GULP energy -446124.201322 kJ/mol
# GULP energy per Si atom -12392.338926 kJ/mol
# Density = 1.757064 g / cm^3
# Si number density = 17.610724 Si / 1000 Ang^3
#
#
#
# Elastic Constant Matrix: (Units=GPa)
#
#
# Indices 1 2 3 4 5 6 
#
# 1 155.9042 59.9877 30.0366 0.0000 0.0000 0.0000
# 2 59.9877 113.6512 17.1254 0.0000 0.0000 0.0000
# 3 30.0366 17.1254 37.1125 0.0000 0.0000 0.0000
# 4 0.0000 0.0000 0.0000 3.9949 0.0000 0.0000
# 5 0.0000 0.0000 0.0000 0.0000 4.1490 0.0000
# 6 0.0000 0.0000 0.0000 0.0000 0.0000 30.4804
#
#
#
# Elastic Compliance Matrix: (Units=1/GPa)
#
#
# Indices 1 2 3 4 5 6 
#
# 1 0.008971 -0.003913 -0.005455 0.000000 0.000000 0.000000
# 2 -0.003913 0.011163 -0.001984 0.000000 0.000000 0.000000
# 3 -0.005455 -0.001984 0.032275 0.000000 0.000000 0.000000
# 4 0.000000 0.000000 0.000000 0.250321 0.000000 0.000000
# 5 0.000000 0.000000 0.000000 0.000000 0.241023 0.000000
# 6 0.000000 0.000000 0.000000 0.000000 0.000000 0.032808
#
#
# Mechanical properties :
#
#
# Convention : Reuss Voigt Hill
#
# Bulk Modulus (GPa) = 33.66392 57.88527 45.77459
# Shear Modulus (GPa) = 8.20793 21.02606 14.61699
#
# Velocity S-wave (km/s) = 2.16122 3.45909 2.88411
# Velocity P-wave (km/s) = 5.03834 6.99245 6.09423
#
# Compressibility (1/GPa) = 0.02970540
#
# Stress axis : x y z
#
# Youngs Moduli (GPa) = 111.47369 89.57979 30.98330
#
# Poissons Ratio (x) = 0.35053 0.16900
# Poissons Ratio (y) = 0.43620 0.06148
# Poissons Ratio (z) = 0.60806 0.17775
#
# Static dielectric constant tensor:
#      x y z
#    x 3.538120 0.000000 0.000000 
#    y 0.000000 3.209510 0.000000 
#    z 0.000000 0.000000 2.588600 
# 
# 
# High freq. dielectric constant tensor:
#      x y z
#    x 1.698760 0.000000 0.000000 
#    y 0.000000 1.671070 0.000000 
#    z 0.000000 0.000000 1.602080 
# 
# From -- ./inp_files/3950.got.cif
#   From: 2010.03.12/outbox.cif.g09.slc.cpg/sg47_2_cif.got.tgz:3950.got - 2010.04.14 03:12:58.
