data_PCOD8193686
_publ_section_title
;
Structure prediction by ZEFSAII (Michael W. Deem and Ramdas Pophale) SiO2 
 PCOD8193686
Probable space group: P M M M
;
_chemical_formula_sum "Si O2"
_cell_formula_units_Z 52
_cell_length_a 7.878877
_cell_length_b 12.030765
_cell_length_c 30.159159
_cell_angle_alpha 90.000000
_cell_angle_beta 90.000000
_cell_angle_gamma 90.000000
_cell_volume 2858.754039
_symmetry_space_group_name_H-M "P M M M"
_symmetry_group_IT_number 47
_symmetry_cell_setting 'orthorhombic'
loop_
_space_group_symop_operation_xyz
x,y,z
-x,-y,z
x,-y,-z
-x,y,-z
-x,-y,-z
x,y,-z
-x,y,z
x,-y,z
loop_
_atom_site_type_symbol
_atom_site_label
_atom_site_fract_x
_atom_site_fract_y
_atom_site_fract_z
Si Si1 0.797541 0.729756 0.049509
Si Si2 0.189244 0.867674 0.391788
Si Si3 0.200437 0.123433 0.706878
Si Si4 0.692305 0.500000 0.181925
Si Si5 0.500000 0.132656 0.550120
Si Si6 0.193045 0.500000 0.915293
Si Si7 0.202142 0.124422 0.870498
Si Si8 0.798370 0.267520 0.212382
O O1 0.720292 0.610780 0.064797
O O2 0.730848 0.823759 0.083271
O O3 0.000000 0.725370 0.051510
O O4 0.733404 0.758254 0.000000
O O5 0.243784 0.830496 0.342214
O O6 0.329919 0.821318 0.425943
O O7 0.000000 0.822032 0.404020
O O8 0.183393 0.000000 0.393071
O O9 0.274381 0.207767 0.743513
O O10 0.000000 0.114006 0.712407
O O11 0.279198 0.000000 0.713992
O O12 0.500000 0.500000 0.165682
O O13 0.806409 0.500000 0.137987
O O14 0.729370 0.392515 0.211828
O O15 0.500000 0.177614 0.500000
O O16 0.500000 0.000000 0.551354
O O17 0.000000 0.500000 0.931223
O O18 0.270015 0.199571 0.830133
O O19 0.000000 0.121586 0.869590
O O20 0.275793 0.000000 0.865968
O O21 0.000000 0.270543 0.212522
#
# Coordination Sequence:
#
# PCOD8193686 Si02
#       8
#     8   8   8   4   4   4   8   8
#     4   9  16  25  42  69  95 115 141 183 229 271
#     4   8  14  25  39  58  87 122 161 205 248 286
#     4   8  14  26  47  72  94 118 153 196 237 279
#     4  12  24  35  47  67  94 118 146 189 235 274
#     4   9  16  24  36  58  88 127 173 211 244 284
#     4  10  17  32  52  68  84 114 154 186 223 273
#     4   9  16  25  42  70  97 117 143 182 226 274
#     4  10  18  32  52  70  89 119 154 186 228 282
#
# _framework density 18.189743
#
# number of rings (size 3 to 8) (size 9 to 14) (size 15 to 20)
#    0.000    2.846    1.538    2.308    0.000    3.385 
#    1.385    3.077    0.000    2.308    0.000    0.000 
#    0.000    1.231    0.000    1.385    0.000   12.308 
#
# Total GULP energy -644534.702317 kJ/mol
# GULP energy per Si atom -12394.898121 kJ/mol
# Density = 1.814834 g / cm^3
# Si number density = 18.189743 Si / 1000 Ang^3
#
#
#
# Elastic Constant Matrix: (Units=GPa)
#
#
# Indices 1 2 3 4 5 6 
#
# 1 45.2649 17.1143 39.4574 0.0000 0.0000 0.0000
# 2 17.1143 113.2401 59.8844 0.0000 0.0000 0.0000
# 3 39.4574 59.8844 160.5185 0.0000 0.0000 0.0000
# 4 0.0000 0.0000 0.0000 13.3318 0.0000 0.0000
# 5 0.0000 0.0000 0.0000 0.0000 3.0769 0.0000
# 6 0.0000 0.0000 0.0000 0.0000 0.0000 1.1739
#
#
#
# Elastic Compliance Matrix: (Units=1/GPa)
#
#
# Indices 1 2 3 4 5 6 
#
# 1 0.028167 -0.000742 -0.006647 0.000000 0.000000 0.000000
# 2 -0.000742 0.011021 -0.003929 0.000000 0.000000 0.000000
# 3 -0.006647 -0.003929 0.009330 0.000000 0.000000 0.000000
# 4 0.000000 0.000000 0.000000 0.075009 0.000000 0.000000
# 5 0.000000 0.000000 0.000000 0.000000 0.325002 0.000000
# 6 0.000000 0.000000 0.000000 0.000000 0.000000 0.851839
#
#
# Mechanical properties :
#
#
# Convention : Reuss Voigt Hill
#
# Bulk Modulus (GPa) = 38.63808 61.32620 49.98214
# Shear Modulus (GPa) = 3.75480 17.02101 10.38790
#
# Velocity S-wave (km/s) = 1.43830 3.06232 2.39233
# Velocity P-wave (km/s) = 4.90368 6.80380 5.93033
#
# Compressibility (1/GPa) = 0.02588120
#
# Stress axis : x y z
#
# Youngs Moduli (GPa) = 35.50278 90.73794 107.18608
#
# Poissons Ratio (x) = 0.06731 0.71247
# Poissons Ratio (y) = 0.02634 0.42115
# Poissons Ratio (z) = 0.23599 0.35652
#
# Static dielectric constant tensor:
#      x y z
#    x 3.055940 0.000000 0.000000 
#    y 0.000000 3.282510 0.000000 
#    z 0.000000 0.000000 3.526550 
# 
# 
# High freq. dielectric constant tensor:
#      x y z
#    x 1.674970 0.000000 0.000000 
#    y 0.000000 1.667660 0.000000 
#    z 0.000000 0.000000 1.699730 
# 
# From -- ./inp_files/34354.got.cif
#   From: 2010.03.12/outbox.cif.g09.slc.cpg/sg47_18_cif.got.tgz:34354.got - 2010.04.14 03:12:58.
