data_PCOD8193941
_publ_section_title
;
Structure prediction by ZEFSAII (Michael W. Deem and Ramdas Pophale) SiO2 
 PCOD8193941
Probable space group: P M M M
;
_chemical_formula_sum "Si O2"
_cell_formula_units_Z 64
_cell_length_a 20.634329
_cell_length_b 19.593067
_cell_length_c 9.225655
_cell_angle_alpha 90.000000
_cell_angle_beta 90.000000
_cell_angle_gamma 90.000000
_cell_volume 3729.838128
_symmetry_space_group_name_H-M "P M M M"
_symmetry_group_IT_number 47
_symmetry_cell_setting 'orthorhombic'
loop_
_space_group_symop_operation_xyz
x,y,z
-x,-y,z
x,-y,-z
-x,y,-z
-x,-y,-z
x,y,-z
-x,y,z
x,-y,z
loop_
_atom_site_type_symbol
_atom_site_label
_atom_site_fract_x
_atom_site_fract_y
_atom_site_fract_z
Si Si1 0.678582 0.816935 0.826271
Si Si2 0.572045 0.076007 0.171927
Si Si3 0.574984 0.579155 0.835566
Si Si4 0.810975 0.337371 0.341164
Si Si5 0.669141 0.675155 0.327453
Si Si6 0.929615 0.336111 0.838041
Si Si7 0.807548 0.175314 0.337713
Si Si8 0.071717 0.173850 0.837089
O O1 0.624533 0.870186 0.771518
O O2 0.657715 0.745033 0.758481
O O3 0.746752 0.843757 0.763313
O O4 0.683380 0.810817 0.000000
O O5 0.500000 0.096848 0.226984
O O6 0.589521 0.000000 0.229063
O O7 0.572613 0.075791 0.000000
O O8 0.500000 0.597043 0.813021
O O9 0.587846 0.500000 0.804719
O O10 0.614806 0.621898 0.718875
O O11 0.595873 0.597618 0.000000
O O12 0.821075 0.368454 0.500000
O O13 0.739295 0.356594 0.283095
O O14 0.868980 0.369165 0.246225
O O15 0.814969 0.256078 0.345665
O O16 0.666556 0.689190 0.500000
O O17 0.923439 0.255100 0.838281
O O18 0.000000 0.356659 0.770144
O O19 0.925747 0.364824 0.000000
O O20 0.798336 0.145492 0.500000
O O21 0.872920 0.143210 0.267826
O O22 0.000000 0.151380 0.782323
O O23 0.083260 0.146458 0.000000
#
# Coordination Sequence:
#
# PCOD8193941 Si02
#       8
#     8   8   8   8   8   8   8   8
#     4  10  18  28  46  69  92 121 154 189 231 275
#     4   8  15  29  48  69  91 114 145 188 233 274
#     4   9  19  36  55  73  93 118 151 190 228 269
#     4   8  15  25  35  51  78 112 146 178 213 255
#     4  10  20  32  46  68  97 125 154 188 227 273
#     4   8  13  20  31  49  73 103 140 179 217 257
#     4   9  16  25  36  53  82 116 148 184 224 268
#     4   8  13  21  33  50  74 106 145 185 222 264
#
# _framework density 17.158922
#
# number of rings (size 3 to 8) (size 9 to 14) (size 15 to 20)
#    0.000    3.250    0.000    3.375    0.000    5.000 
#    0.000    4.375    0.000    2.625    0.000    3.500 
#    0.000    1.000    0.000   11.250    0.000   14.875 
#
# Total GULP energy -793040.361222 kJ/mol
# GULP energy per Si atom -12391.255644 kJ/mol
# Density = 1.711987 g / cm^3
# Si number density = 17.158922 Si / 1000 Ang^3
#
#
#
# Elastic Constant Matrix: (Units=GPa)
#
#
# Indices 1 2 3 4 5 6 
#
# 1 149.5279 49.4739 65.0194 0.0000 0.0000 0.0000
# 2 49.4739 36.3167 29.3237 0.0000 0.0000 0.0000
# 3 65.0194 29.3237 86.0132 0.0000 0.0000 0.0000
# 4 0.0000 0.0000 0.0000 6.8667 0.0000 0.0000
# 5 0.0000 0.0000 0.0000 0.0000 25.4475 0.0000
# 6 0.0000 0.0000 0.0000 0.0000 0.0000 -0.1034
#
#
#
# Elastic Compliance Matrix: (Units=1/GPa)
#
#
# Indices 1 2 3 4 5 6 
#
# 1 0.013880 -0.014401 -0.005583 0.000000 0.000000 0.000000
# 2 -0.014401 0.052936 -0.007161 0.000000 0.000000 0.000000
# 3 -0.005583 -0.007161 0.018288 0.000000 0.000000 0.000000
# 4 0.000000 0.000000 0.000000 0.145631 0.000000 0.000000
# 5 0.000000 0.000000 0.000000 0.000000 0.039297 0.000000
# 6 0.000000 0.000000 0.000000 0.000000 0.000000 -9.666560
#
#
# Mechanical properties :
#
#
# Convention : Reuss Voigt Hill
#
# Bulk Modulus (GPa) = 32.45250 62.16575 47.30912
# Shear Modulus (GPa) = -0.53579 14.97821 7.22121
#
# Velocity S-wave (km/s) = -0.55940 2.95771 2.05367
# Velocity P-wave (km/s) = 4.30543 6.92619 5.76667
#
# Compressibility (1/GPa) = 0.03081427
#
# Stress axis : x y z
#
# Youngs Moduli (GPa) = 72.04607 18.89083 54.68215
#
# Poissons Ratio (x) = 0.27204 0.30527
# Poissons Ratio (y) = 1.03753 0.39158
# Poissons Ratio (z) = 0.40221 0.13528
#
# Static dielectric constant tensor:
#      x y z
#    x 3.599730 0.000000 0.000000 
#    y 0.000000 2.683150 0.000000 
#    z 0.000000 0.000000 3.252660 
# 
# 
# High freq. dielectric constant tensor:
#      x y z
#    x 1.681080 0.000000 0.000000 
#    y 0.000000 1.594930 0.000000 
#    z 0.000000 0.000000 1.655090 
# 
# From -- ./inp_files/11816.got.cif
#   From: 2010.03.12/outbox.cif.g09.slc.cpg/sg47_6_cif.got.tgz:11816.got - 2010.04.14 03:12:58.
