data_PCOD8193407
_publ_section_title
;
Structure prediction by ZEFSAII (Michael W. Deem and Ramdas Pophale) SiO2 
 PCOD8193407
Probable space group: I M A 2
;
_chemical_formula_sum "Si O2"
_cell_formula_units_Z 32
_cell_length_a 15.351939
_cell_length_b 5.113817
_cell_length_c 16.627023
_cell_angle_alpha 90.000000
_cell_angle_beta 90.000000
_cell_angle_gamma 90.000000
_cell_volume 1305.337805
_symmetry_space_group_name_H-M "I M A 2"
_symmetry_group_IT_number 46
_symmetry_cell_setting 'orthorhombic'
loop_
_space_group_symop_operation_xyz
x,y,z
-x,-y,z
1/2-x,y,z
1/2+x,-y,z
1/2+x,1/2+y,1/2+z
1/2-x,1/2-y,1/2+z
-x,1/2+y,1/2+z
x,1/2-y,1/2+z
loop_
_atom_site_type_symbol
_atom_site_label
_atom_site_fract_x
_atom_site_fract_y
_atom_site_fract_z
Si Si1 0.500000 0.000000 0.246820
Si Si2 0.750000 0.497100 0.249378
Si Si3 0.907530 0.645791 0.534508
Si Si4 0.092471 0.354209 0.352314
Si Si5 0.750000 0.497121 0.637445
Si Si6 0.500000 0.000000 0.640001
O O1 0.581132 0.919718 0.303973
O O2 0.471564 0.750000 0.193411
O O3 0.834079 0.481864 0.307048
O O4 0.750000 0.249975 0.193417
O O5 0.750000 0.749976 0.193406
O O6 0.878707 0.706016 0.443411
O O7 0.834079 0.481865 0.579774
O O8 0.918868 0.919718 0.582848
O O9 0.000000 0.500000 0.537294
O O10 0.000000 0.500000 0.349527
#
# Coordination Sequence:
#
# PCOD8193407 Si02
#       6
#     4   4   8   8   4   4
#     4  12  25  44  79 114 152 200 262 320 391 472
#     4  12  31  48  77 116 153 204 261 320 389 468
#     4  11  27  51  79 112 157 206 260 326 397 471
#     4  11  27  51  79 112 157 206 260 326 397 471
#     4  12  31  48  77 116 153 204 261 320 389 468
#     4  12  25  44  79 114 152 200 262 320 391 472
#
# _framework density 24.514727000000001
#
# number of rings (size 3 to 8) (size 9 to 14) (size 15 to 20)
#    0.000    0.500    2.500    3.000   14.000    0.000 
#    0.000    2.500    0.000    0.000    0.000    0.000 
#    0.000    0.000    0.000    0.000    0.000    0.000 
#
# Total GULP energy -198350.965524 kJ/mol
# GULP energy per Si atom -12396.935345 kJ/mol
# Density = 2.445893 g / cm^3
# Si number density = 24.514727 Si / 1000 Ang^3
#
#
#
# Elastic Constant Matrix: (Units=GPa)
#
#
# Indices 1 2 3 4 5 6 
#
# 1 157.1539 50.1654 86.5232 0.0000 0.0000 0.0000
# 2 50.1654 169.5947 106.1455 0.0000 0.0000 0.0000
# 3 86.5232 106.1455 266.2807 0.0000 0.0000 0.0000
# 4 0.0000 0.0000 0.0000 8.5660 0.0000 0.0000
# 5 0.0000 0.0000 0.0000 0.0000 50.0858 0.0000
# 6 0.0000 0.0000 0.0000 0.0000 0.0000 30.5106
#
#
#
# Elastic Compliance Matrix: (Units=1/GPa)
#
#
# Indices 1 2 3 4 5 6 
#
# 1 0.007867 -0.000969 -0.002170 0.000000 0.000000 0.000000
# 2 -0.000969 0.007976 -0.002865 0.000000 0.000000 0.000000
# 3 -0.002170 -0.002865 0.005602 0.000000 0.000000 0.000000
# 4 0.000000 0.000000 0.000000 0.116741 0.000000 0.000000
# 5 0.000000 0.000000 0.000000 0.000000 0.019966 0.000000
# 6 0.000000 0.000000 0.000000 0.000000 0.000000 0.032775
#
#
# Mechanical properties :
#
#
# Convention : Reuss Voigt Hill
#
# Bulk Modulus (GPa) = 105.94903 119.85528 112.90216
# Shear Modulus (GPa) = 24.26230 41.17883 32.72057
#
# Velocity S-wave (km/s) = 3.14937 4.10293 3.65736
# Velocity P-wave (km/s) = 7.51911 8.45238 7.99937
#
# Compressibility (1/GPa) = 0.00943850
#
# Stress axis : x y z
#
# Youngs Moduli (GPa) = 127.10929 125.37854 178.49365
#
# Poissons Ratio (x) = 0.12148 0.38735
# Poissons Ratio (y) = 0.12315 0.51130
# Poissons Ratio (z) = 0.27584 0.35915
#
# Static dielectric constant tensor:
#      x y z
#    x 4.463620 0.000000 0.000000 
#    y 0.000000 4.482400 0.000000 
#    z 0.000000 0.000000 5.309740 
# 
# 
# High freq. dielectric constant tensor:
#      x y z
#    x 1.967710 0.000000 0.000000 
#    y 0.000000 1.971570 0.000000 
#    z 0.000000 0.000000 2.006200 
# 
# From -- ./inp_files/19169.got.cif
#   From: 2010.03.12/outbox.cif.g09.slc.cpg/sg46_10_cif.got.tgz:19169.got - 2010.04.14 02:56:35.
