data_PCOD8193441
_publ_section_title
;
Structure prediction by ZEFSAII (Michael W. Deem and Ramdas Pophale) SiO2 
 PCOD8193441
Probable space group: P M M M
;
_chemical_formula_sum "Si O2"
_cell_formula_units_Z 52
_cell_length_a 22.949748
_cell_length_b 12.925165
_cell_length_c 13.885595
_cell_angle_alpha 90.000000
_cell_angle_beta 90.000000
_cell_angle_gamma 90.000000
_cell_volume 4118.874042
_symmetry_space_group_name_H-M "P M M M"
_symmetry_group_IT_number 47
_symmetry_cell_setting 'orthorhombic'
loop_
_space_group_symop_operation_xyz
x,y,z
-x,-y,z
x,-y,-z
-x,y,-z
-x,-y,-z
x,y,-z
-x,y,z
x,-y,z
loop_
_atom_site_type_symbol
_atom_site_label
_atom_site_fract_x
_atom_site_fract_y
_atom_site_fract_z
Si Si1 0.064185 0.876521 0.791109
Si Si2 0.359351 0.194588 0.385323
Si Si3 0.564915 0.000000 0.386191
Si Si4 0.244357 0.121602 0.292825
Si Si5 0.821911 0.877109 0.106292
Si Si6 0.564942 0.614833 0.614185
Si Si7 0.126227 0.877789 0.605181
O O1 0.113673 0.835109 0.864378
O O2 0.079893 0.836183 0.683459
O O3 0.000000 0.834310 0.820072
O O4 0.064354 0.000000 0.791754
O O5 0.347937 0.191532 0.500000
O O6 0.299142 0.187287 0.327986
O O7 0.389135 0.300576 0.349022
O O8 0.401025 0.101569 0.351838
O O9 0.500000 0.000000 0.340705
O O10 0.559672 0.000000 0.500000
O O11 0.227051 0.156061 0.183867
O O12 0.191456 0.150762 0.362973
O O13 0.258998 0.000000 0.298436
O O14 0.825121 0.000000 0.105821
O O15 0.805857 0.834047 0.000000
O O16 0.562322 0.620343 0.500000
O O17 0.500000 0.639079 0.654360
O O18 0.584796 0.500000 0.647787
O O19 0.113512 0.828371 0.500000
O O20 0.120605 0.000000 0.599171
#
# Coordination Sequence:
#
# PCOD8193441 Si02
#       7
#     8   8   4   8   8   8   8
#     4   8  13  19  26  38  53  71 103 143 173 195
#     4  10  16  21  32  48  67  91 113 135 162 192
#     4   9  16  22  28  44  69  91 108 129 161 195
#     4   9  15  22  30  43  62  81 108 139 167 201
#     4   8  14  23  32  40  54  78 105 137 173 204
#     4   8  14  24  35  46  64  92 120 139 156 184
#     4   8  13  19  26  35  53  81 106 131 162 195
#
# _framework density 12.62481
#
# number of rings (size 3 to 8) (size 9 to 14) (size 15 to 20)
#    0.000    3.462    0.769    3.231    0.000    3.077 
#    0.000    3.077    0.000    0.000    0.000    0.000 
#    0.000    3.692    0.000    1.692    0.000   12.462 
#
# Total GULP energy -644223.888585 kJ/mol
# GULP energy per Si atom -12388.920934 kJ/mol
# Density = 1.259608 g / cm^3
# Si number density = 12.624810 Si / 1000 Ang^3
#
#
#
# Elastic Constant Matrix: (Units=GPa)
#
#
# Indices 1 2 3 4 5 6 
#
# 1 88.5353 31.7125 27.5130 0.0000 0.0000 0.0000
# 2 31.7125 44.8004 11.7069 0.0000 0.0000 0.0000
# 3 27.5130 11.7069 65.6160 0.0000 0.0000 0.0000
# 4 0.0000 0.0000 0.0000 3.7194 0.0000 0.0000
# 5 0.0000 0.0000 0.0000 0.0000 11.0644 0.0000
# 6 0.0000 0.0000 0.0000 0.0000 0.0000 9.0377
#
#
#
# Elastic Compliance Matrix: (Units=1/GPa)
#
#
# Indices 1 2 3 4 5 6 
#
# 1 0.016617 -0.010428 -0.005107 0.000000 0.000000 0.000000
# 2 -0.010428 0.029957 -0.000972 0.000000 0.000000 0.000000
# 3 -0.005107 -0.000972 0.017555 0.000000 0.000000 0.000000
# 4 0.000000 0.000000 0.000000 0.268864 0.000000 0.000000
# 5 0.000000 0.000000 0.000000 0.000000 0.090380 0.000000
# 6 0.000000 0.000000 0.000000 0.000000 0.000000 0.110647
#
#
# Mechanical properties :
#
#
# Convention : Reuss Voigt Hill
#
# Bulk Modulus (GPa) = 32.13954 37.86848 35.00401
# Shear Modulus (GPa) = 8.65940 13.29892 10.97916
#
# Velocity S-wave (km/s) = 2.62182 3.24913 2.95218
# Velocity P-wave (km/s) = 5.88880 6.64351 6.27750
#
# Compressibility (1/GPa) = 0.03111432
#
# Stress axis : x y z
#
# Youngs Moduli (GPa) = 60.17826 33.38118 56.96350
#
# Poissons Ratio (x) = 0.34811 0.29092
# Poissons Ratio (y) = 0.62755 0.05538
# Poissons Ratio (z) = 0.30734 0.03245
#
# Static dielectric constant tensor:
#      x y z
#    x 2.688520 0.000000 0.000000 
#    y 0.000000 2.214820 0.000000 
#    z 0.000000 0.000000 2.715790 
# 
# 
# High freq. dielectric constant tensor:
#      x y z
#    x 1.486810 0.000000 0.000000 
#    y 0.000000 1.417030 0.000000 
#    z 0.000000 0.000000 1.454060 
# 
# From -- ./inp_files/25290.got.cif
#   From: 2010.03.12/outbox.cif.g09.slc.cpg/sg47_13_cif.got.tgz:25290.got - 2010.04.14 03:12:58.
