data_PCOD8193816
_publ_section_title
;
Structure prediction by ZEFSAII (Michael W. Deem and Ramdas Pophale) SiO2 
 PCOD8193816
Probable space group: P M M M
;
_chemical_formula_sum "Si O2"
_cell_formula_units_Z 56
_cell_length_a 23.364364
_cell_length_b 14.467156
_cell_length_c 9.191628
_cell_angle_alpha 90.000000
_cell_angle_beta 90.000000
_cell_angle_gamma 90.000000
_cell_volume 3106.916400
_symmetry_space_group_name_H-M "P M M M"
_symmetry_group_IT_number 47
_symmetry_cell_setting 'orthorhombic'
loop_
_space_group_symop_operation_xyz
x,y,z
-x,-y,z
x,-y,-z
-x,y,-z
-x,-y,-z
x,y,-z
-x,y,z
x,-y,z
loop_
_atom_site_type_symbol
_atom_site_label
_atom_site_fract_x
_atom_site_fract_y
_atom_site_fract_z
Si Si1 0.772417 0.893757 0.333776
Si Si2 0.886478 0.894319 0.829112
Si Si3 0.563998 0.103327 0.327163
Si Si4 0.847056 0.608097 0.165490
Si Si5 0.716958 0.605048 0.170942
Si Si6 0.064304 0.732120 0.332255
Si Si7 0.665190 0.230098 0.328821
O O1 0.790901 0.874511 0.500000
O O2 0.824082 0.865392 0.228719
O O3 0.718597 0.833538 0.286957
O O4 0.754849 0.000000 0.312208
O O5 0.932771 0.829733 0.751595
O O6 0.900723 0.000000 0.788406
O O7 0.888205 0.877555 0.000000
O O8 0.568530 0.100952 0.500000
O O9 0.500000 0.132162 0.277995
O O10 0.608724 0.178781 0.266211
O O11 0.578340 0.000000 0.268306
O O12 0.859485 0.500000 0.177065
O O13 0.782207 0.629455 0.216153
O O14 0.891020 0.659188 0.269663
O O15 0.856353 0.642126 0.000000
O O16 0.702784 0.500000 0.216393
O O17 0.672237 0.670862 0.252897
O O18 0.709423 0.618058 0.000000
O O19 0.079143 0.749132 0.500000
O O20 0.000000 0.693154 0.313007
O O21 0.660455 0.246502 0.500000
#
# Coordination Sequence:
#
# PCOD8193816 Si02
#       7
#     8   8   8   8   8   8   8
#     4   9  17  29  46  71 103 131 153 187 241 300
#     4  10  21  36  53  72  95 126 165 206 245 289
#     4   8  14  26  45  70 102 138 171 202 238 281
#     4   9  19  37  59  79  99 126 160 198 242 293
#     4   9  19  35  52  71  97 128 160 196 243 296
#     4  11  24  38  52  73 100 129 161 198 242 293
#     4  10  18  27  46  76 102 126 163 206 242 281
#
# _framework density 18.024301999999999
#
# number of rings (size 3 to 8) (size 9 to 14) (size 15 to 20)
#    0.000    2.571    0.000    3.429    0.000    8.286 
#    0.000    4.286    0.000    2.143    0.000    4.000 
#    0.000    0.000    0.000    0.000    0.000    0.000 
#
# Total GULP energy -694384.496687 kJ/mol
# GULP energy per Si atom -12399.723155 kJ/mol
# Density = 1.798328 g / cm^3
# Si number density = 18.024302 Si / 1000 Ang^3
#
#
#
# Elastic Constant Matrix: (Units=GPa)
#
#
# Indices 1 2 3 4 5 6 
#
# 1 102.7578 67.6406 41.3450 0.0000 0.0000 0.0000
# 2 67.6406 99.5285 37.2688 0.0000 0.0000 0.0000
# 3 41.3450 37.2688 59.6899 0.0000 0.0000 0.0000
# 4 0.0000 0.0000 0.0000 31.1864 0.0000 0.0000
# 5 0.0000 0.0000 0.0000 0.0000 12.0659 0.0000
# 6 0.0000 0.0000 0.0000 0.0000 0.0000 28.0015
#
#
#
# Elastic Compliance Matrix: (Units=1/GPa)
#
#
# Indices 1 2 3 4 5 6 
#
# 1 0.019539 -0.010717 -0.006843 0.000000 0.000000 0.000000
# 2 -0.010717 0.018991 -0.004434 0.000000 0.000000 0.000000
# 3 -0.006843 -0.004434 0.024262 0.000000 0.000000 0.000000
# 4 0.000000 0.000000 0.000000 0.032065 0.000000 0.000000
# 5 0.000000 0.000000 0.000000 0.000000 0.082878 0.000000
# 6 0.000000 0.000000 0.000000 0.000000 0.000000 0.035712
#
#
# Mechanical properties :
#
#
# Convention : Reuss Voigt Hill
#
# Bulk Modulus (GPa) = 53.18009 61.60946 57.39477
# Shear Modulus (GPa) = 18.96064 21.96553 20.46309
#
# Velocity S-wave (km/s) = 3.24689 3.49472 3.37308
# Velocity P-wave (km/s) = 6.60493 7.10912 6.86166
#
# Compressibility (1/GPa) = 0.01880403
#
# Stress axis : x y z
#
# Youngs Moduli (GPa) = 51.17924 52.65635 41.21708
#
# Poissons Ratio (x) = 0.56430 0.28204
# Poissons Ratio (y) = 0.54847 0.18278
# Poissons Ratio (z) = 0.35021 0.23350
#
# Static dielectric constant tensor:
#      x y z
#    x 3.333330 0.000000 0.000000 
#    y 0.000000 3.406340 0.000000 
#    z 0.000000 0.000000 3.136450 
# 
# 
# High freq. dielectric constant tensor:
#      x y z
#    x 1.685550 0.000000 0.000000 
#    y 0.000000 1.701930 0.000000 
#    z 0.000000 0.000000 1.680580 
# 
# From -- ./inp_files/7260.got.cif
#   From: 2010.03.12/outbox.cif.g09.slc.cpg/sg47_4_cif.got.tgz:7260.got - 2010.04.14 03:12:58.
