data_PCOD8193997
_publ_section_title
;
Structure prediction by ZEFSAII (Michael W. Deem and Ramdas Pophale) SiO2 
 PCOD8193997
Probable space group: P M M M
;
_chemical_formula_sum "Si O2"
_cell_formula_units_Z 48
_cell_length_a 18.176335
_cell_length_b 23.532260
_cell_length_c 8.142896
_cell_angle_alpha 90.000000
_cell_angle_beta 90.000000
_cell_angle_gamma 90.000000
_cell_volume 3482.962869
_symmetry_space_group_name_H-M "P M M M"
_symmetry_group_IT_number 47
_symmetry_cell_setting 'orthorhombic'
loop_
_space_group_symop_operation_xyz
x,y,z
-x,-y,z
x,-y,-z
-x,y,-z
-x,-y,-z
x,y,-z
-x,y,z
x,-y,z
loop_
_atom_site_type_symbol
_atom_site_label
_atom_site_fract_x
_atom_site_fract_y
_atom_site_fract_z
Si Si1 0.767585 0.065159 0.187674
Si Si2 0.636452 0.864612 0.688743
Si Si3 0.500000 0.063392 0.695637
Si Si4 0.587378 0.631818 0.682544
Si Si5 0.416617 0.249084 0.811474
Si Si6 0.079553 0.067326 0.685555
Si Si7 0.587687 0.435306 0.000000
O O1 0.714512 0.104632 0.293717
O O2 0.851300 0.088298 0.206731
O O3 0.761409 0.000000 0.250874
O O4 0.743611 0.069678 0.000000
O O5 0.620580 0.851645 0.500000
O O6 0.572527 0.904825 0.762116
O O7 0.636406 0.804557 0.782335
O O8 0.500000 0.060605 0.500000
O O9 0.500000 0.000000 0.769856
O O10 0.614799 0.611771 0.500000
O O11 0.500000 0.628160 0.690125
O O12 0.611908 0.697218 0.707139
O O13 0.619343 0.593552 0.832215
O O14 0.500000 0.232337 0.759727
O O15 0.413960 0.267926 0.000000
O O16 0.091575 0.088665 0.500000
O O17 0.000000 0.090483 0.751744
O O18 0.076678 0.000000 0.691136
O O19 0.615018 0.500000 0.000000
O O20 0.500000 0.431076 0.000000
#
# Coordination Sequence:
#
# PCOD8193997 Si02
#       7
#     8   8   4   8   8   8   4
#     4  10  20  31  41  56  78  99 119 148 193 243
#     4  11  20  30  43  57  72  94 127 162 198 239
#     4   9  18  30  41  53  69  89 119 160 201 243
#     4   9  16  26  40  56  74  98 125 154 190 230
#     4  10  18  29  43  56  74  94 123 163 200 233
#     4   8  14  26  44  62  76  92 115 141 174 223
#     4   9  16  26  38  56  80 100 120 150 189 232
#
# _framework density 13.781370000000001
#
# number of rings (size 3 to 8) (size 9 to 14) (size 15 to 20)
#    0.000    2.500    1.667    2.500    0.000    3.000 
#    0.000    3.333    0.000    2.000    0.000    0.000 
#    0.000    0.000    0.000    0.000    0.000    0.000 
#
# Total GULP energy -594930.547985 kJ/mol
# GULP energy per Si atom -12394.386416 kJ/mol
# Density = 1.375000 g / cm^3
# Si number density = 13.781370 Si / 1000 Ang^3
#
#
#
# Elastic Constant Matrix: (Units=GPa)
#
#
# Indices 1 2 3 4 5 6 
#
# 1 59.5917 20.7603 11.9426 0.0000 0.0000 0.0000
# 2 20.7603 74.0032 33.1214 0.0000 0.0000 0.0000
# 3 11.9426 33.1214 67.5917 0.0000 0.0000 0.0000
# 4 0.0000 0.0000 0.0000 17.1047 0.0000 0.0000
# 5 0.0000 0.0000 0.0000 0.0000 13.1860 0.0000
# 6 0.0000 0.0000 0.0000 0.0000 0.0000 3.9648
#
#
#
# Elastic Compliance Matrix: (Units=1/GPa)
#
#
# Indices 1 2 3 4 5 6 
#
# 1 0.018645 -0.004811 -0.000937 0.000000 0.000000 0.000000
# 2 -0.004811 0.018551 -0.008240 0.000000 0.000000 0.000000
# 3 -0.000937 -0.008240 0.018998 0.000000 0.000000 0.000000
# 4 0.000000 0.000000 0.000000 0.058463 0.000000 0.000000
# 5 0.000000 0.000000 0.000000 0.000000 0.075838 0.000000
# 6 0.000000 0.000000 0.000000 0.000000 0.000000 0.252221
#
#
# Mechanical properties :
#
#
# Convention : Reuss Voigt Hill
#
# Bulk Modulus (GPa) = 35.43922 36.98170 36.21046
# Shear Modulus (GPa) = 10.41454 15.87525 13.14489
#
# Velocity S-wave (km/s) = 2.75198 3.39770 3.09174
# Velocity P-wave (km/s) = 5.98907 6.50271 6.25117
#
# Compressibility (1/GPa) = 0.02821733
#
# Stress axis : x y z
#
# Youngs Moduli (GPa) = 53.63457 53.90648 52.63689
#
# Poissons Ratio (x) = 0.25936 0.04930
# Poissons Ratio (y) = 0.25805 0.43374
# Poissons Ratio (z) = 0.05024 0.44420
#
# Static dielectric constant tensor:
#      x y z
#    x 2.654910 0.000000 0.000000 
#    y 0.000000 2.540090 0.000000 
#    z 0.000000 0.000000 2.818340 
# 
# 
# High freq. dielectric constant tensor:
#      x y z
#    x 1.477930 0.000000 0.000000 
#    y 0.000000 1.493790 0.000000 
#    z 0.000000 0.000000 1.536470 
# 
# From -- ./inp_files/9763.got.cif
#   From: 2010.03.12/outbox.cif.g09.slc.cpg/sg47_5_cif.got.tgz:9763.got - 2010.04.14 03:12:58.
