data_PCOD8193177
_publ_section_title
;
Structure prediction by ZEFSAII (Michael W. Deem and Ramdas Pophale) SiO2 
 PCOD8193177
Probable space group: I M A 2
;
_chemical_formula_sum "Si O2"
_cell_formula_units_Z 32
_cell_length_a 17.329355
_cell_length_b 6.606170
_cell_length_c 13.295421
_cell_angle_alpha 90.000000
_cell_angle_beta 90.000000
_cell_angle_gamma 90.000000
_cell_volume 1522.068639
_symmetry_space_group_name_H-M "I M A 2"
_symmetry_group_IT_number 46
_symmetry_cell_setting 'orthorhombic'
loop_
_space_group_symop_operation_xyz
x,y,z
-x,-y,z
1/2-x,y,z
1/2+x,-y,z
1/2+x,1/2+y,1/2+z
1/2-x,1/2-y,1/2+z
-x,1/2+y,1/2+z
x,1/2-y,1/2+z
loop_
_atom_site_type_symbol
_atom_site_label
_atom_site_fract_x
_atom_site_fract_y
_atom_site_fract_z
Si Si1 0.838479 0.704096 0.418690
Si Si2 0.419846 0.021392 0.563115
Si Si3 0.928730 0.654390 0.728584
Si Si4 0.838535 0.388253 0.585368
O O1 0.750000 0.709446 0.380882
O O2 0.898547 0.737739 0.329427
O O3 0.856259 0.493738 0.477149
O O4 0.850965 0.884613 0.498141
O O5 0.390639 0.806670 0.600976
O O6 0.500000 0.000000 0.499230
O O7 0.449289 0.161178 0.655297
O O8 0.857927 0.534190 0.678271
O O9 0.000000 0.500000 0.747206
O O10 0.750000 0.326766 0.593374
#
# Coordination Sequence:
#
# PCOD8193177 Si02
#       4
#     8   8   8   8
#     4  10  23  40  62  92 128 167 214 267 321 383
#     4  11  22  41  63  90 126 168 217 267 320 382
#     4  11  22  41  64  98 130 166 217 267 326 391
#     4  10  22  41  65  92 130 174 216 266 322 382
#
# _framework density 21.024021000000001
#
# number of rings (size 3 to 8) (size 9 to 14) (size 15 to 20)
#    0.000    1.500    2.500    2.250    0.000    5.000 
#    4.500    2.500    0.000    0.000    0.000    0.000 
#    0.000    0.000    0.000    0.000    0.000    0.000 
#
# Total GULP energy -198307.271624 kJ/mol
# GULP energy per Si atom -12394.204476 kJ/mol
# Density = 2.097617 g / cm^3
# Si number density = 21.024021 Si / 1000 Ang^3
#
#
#
# Elastic Constant Matrix: (Units=GPa)
#
#
# Indices 1 2 3 4 5 6 
#
# 1 128.2652 48.5399 36.8329 0.0000 0.0000 0.0000
# 2 48.5399 108.1912 16.8423 0.0000 0.0000 0.0000
# 3 36.8329 16.8423 78.2087 0.0000 0.0000 0.0000
# 4 0.0000 0.0000 0.0000 18.4878 0.0000 0.0000
# 5 0.0000 0.0000 0.0000 0.0000 31.5442 0.0000
# 6 0.0000 0.0000 0.0000 0.0000 0.0000 39.2572
#
#
#
# Elastic Compliance Matrix: (Units=1/GPa)
#
#
# Indices 1 2 3 4 5 6 
#
# 1 0.010510 -0.004082 -0.004071 0.000000 0.000000 0.000000
# 2 -0.004082 0.011149 -0.000479 0.000000 0.000000 0.000000
# 3 -0.004071 -0.000479 0.014807 0.000000 0.000000 0.000000
# 4 0.000000 0.000000 0.000000 0.054090 0.000000 0.000000
# 5 0.000000 0.000000 0.000000 0.000000 0.031702 0.000000
# 6 0.000000 0.000000 0.000000 0.000000 0.000000 0.025473
#
#
# Mechanical properties :
#
#
# Convention : Reuss Voigt Hill
#
# Bulk Modulus (GPa) = 52.07477 57.67727 54.87602
# Shear Modulus (GPa) = 29.17287 32.02118 30.59703
#
# Velocity S-wave (km/s) = 3.72909 3.90689 3.81903
# Velocity P-wave (km/s) = 6.58517 6.91703 6.75314
#
# Compressibility (1/GPa) = 0.01920316
#
# Stress axis : x y z
#
# Youngs Moduli (GPa) = 95.14830 89.69742 67.53787
#
# Poissons Ratio (x) = 0.36611 0.27493
# Poissons Ratio (y) = 0.38835 0.03233
# Poissons Ratio (z) = 0.38732 0.04293
#
# Static dielectric constant tensor:
#      x y z
#    x 3.771190 0.000000 0.000000 
#    y 0.000000 3.833110 0.000000 
#    z 0.000000 0.000000 3.604540 
# 
# 
# High freq. dielectric constant tensor:
#      x y z
#    x 1.838650 0.000000 0.000000 
#    y 0.000000 1.832910 0.000000 
#    z 0.000000 0.000000 1.805780 
# 
# From -- ./inp_files/10750.got.cif
#   From: 2010.03.12/outbox.cif.g09.slc.cpg/sg46_6_cif.got.tgz:10750.got - 2010.04.14 02:56:35.
