data_PCOD8193863
_publ_section_title
;
Structure prediction by ZEFSAII (Michael W. Deem and Ramdas Pophale) SiO2 
 PCOD8193863
Probable space group: P M M M
;
_chemical_formula_sum "Si O2"
_cell_formula_units_Z 52
_cell_length_a 7.900022
_cell_length_b 13.748017
_cell_length_c 28.237549
_cell_angle_alpha 90.000000
_cell_angle_beta 90.000000
_cell_angle_gamma 90.000000
_cell_volume 3066.869940
_symmetry_space_group_name_H-M "P M M M"
_symmetry_group_IT_number 47
_symmetry_cell_setting 'orthorhombic'
loop_
_space_group_symop_operation_xyz
x,y,z
-x,-y,z
x,-y,-z
-x,y,-z
-x,-y,-z
x,y,-z
-x,y,z
x,-y,z
loop_
_atom_site_type_symbol
_atom_site_label
_atom_site_fract_x
_atom_site_fract_y
_atom_site_fract_z
Si Si1 0.301119 0.890942 0.733256
Si Si2 0.500000 0.615285 0.947224
Si Si3 0.800111 0.391236 0.300032
Si Si4 0.810635 0.387600 0.883636
Si Si5 0.805417 0.212966 0.357308
Si Si6 0.693875 0.708565 0.791609
Si Si7 0.201578 0.109395 0.552028
O O1 0.500000 0.879390 0.725395
O O2 0.213397 0.868561 0.683220
O O3 0.240823 0.814252 0.773300
O O4 0.251305 0.000000 0.749404
O O5 0.500000 0.500000 0.950499
O O6 0.329389 0.650924 0.920760
O O7 0.500000 0.660553 0.000000
O O8 0.754269 0.500000 0.316613
O O9 0.727197 0.315597 0.339209
O O10 0.712249 0.370268 0.250016
O O11 0.000000 0.376775 0.293196
O O12 0.773291 0.500000 0.870613
O O13 0.804477 0.323644 0.836200
O O14 0.000000 0.376418 0.905331
O O15 0.718924 0.177032 0.406401
O O16 0.000000 0.230505 0.368375
O O17 0.500000 0.713081 0.808062
O O18 0.256909 0.148724 0.500000
O O19 0.000000 0.107515 0.555839
O O20 0.270809 0.000000 0.558922
#
# Coordination Sequence:
#
# PCOD8193863 Si02
#       7
#     8   4   8   8   8   8   8
#     4   9  18  30  42  59  86 116 141 171 215 264
#     4   9  18  32  48  68  95 127 163 197 229 270
#     4   9  17  27  38  55  80 108 138 174 214 255
#     4  10  19  30  46  68  95 126 157 192 231 267
#     4   9  16  26  41  58  76 103 138 172 208 255
#     4  10  18  28  43  62  86 116 149 182 216 260
#     4   8  13  21  35  56  77  95 123 168 216 259
#
# _framework density 16.955397000000001
#
# number of rings (size 3 to 8) (size 9 to 14) (size 15 to 20)
#    0.000    2.846    0.769    1.846    0.000    4.000 
#    0.000    1.538    0.000    0.923    0.000    5.385 
#    0.000    1.231    0.000    9.077    0.000    8.462 
#
# Total GULP energy -644486.559812 kJ/mol
# GULP energy per Si atom -12393.972304 kJ/mol
# Density = 1.691681 g / cm^3
# Si number density = 16.955397 Si / 1000 Ang^3
#
#
#
# Elastic Constant Matrix: (Units=GPa)
#
#
# Indices 1 2 3 4 5 6 
#
# 1 50.0308 17.1738 31.6175 0.0000 0.0000 0.0000
# 2 17.1738 99.3461 51.9013 0.0000 0.0000 0.0000
# 3 31.6175 51.9013 129.6469 0.0000 0.0000 0.0000
# 4 0.0000 0.0000 0.0000 19.9277 0.0000 0.0000
# 5 0.0000 0.0000 0.0000 0.0000 12.9481 0.0000
# 6 0.0000 0.0000 0.0000 0.0000 0.0000 12.6270
#
#
#
# Elastic Compliance Matrix: (Units=1/GPa)
#
#
# Indices 1 2 3 4 5 6 
#
# 1 0.023775 -0.001367 -0.005251 0.000000 0.000000 0.000000
# 2 -0.001367 0.012806 -0.004793 0.000000 0.000000 0.000000
# 3 -0.005251 -0.004793 0.010913 0.000000 0.000000 0.000000
# 4 0.000000 0.000000 0.000000 0.050181 0.000000 0.000000
# 5 0.000000 0.000000 0.000000 0.000000 0.077231 0.000000
# 6 0.000000 0.000000 0.000000 0.000000 0.000000 0.079195
#
#
# Mechanical properties :
#
#
# Convention : Reuss Voigt Hill
#
# Bulk Modulus (GPa) = 40.53171 53.37879 46.95525
# Shear Modulus (GPa) = 17.53471 20.98932 19.26202
#
# Velocity S-wave (km/s) = 3.21934 3.52222 3.37418
# Velocity P-wave (km/s) = 6.14619 6.93481 6.55237
#
# Compressibility (1/GPa) = 0.02467204
#
# Stress axis : x y z
#
# Youngs Moduli (GPa) = 42.06049 78.08662 91.63562
#
# Poissons Ratio (x) = 0.10672 0.48118
# Poissons Ratio (y) = 0.05748 0.43925
# Poissons Ratio (z) = 0.22086 0.37430
#
# Static dielectric constant tensor:
#      x y z
#    x 3.051970 0.000000 0.000000 
#    y 0.000000 3.216620 0.000000 
#    z 0.000000 0.000000 3.246250 
# 
# 
# High freq. dielectric constant tensor:
#      x y z
#    x 1.646490 0.000000 0.000000 
#    y 0.000000 1.629670 0.000000 
#    z 0.000000 0.000000 1.634190 
# 
# From -- ./inp_files/33380.got.cif
#   From: 2010.03.12/outbox.cif.g09.slc.cpg/sg47_17_cif.got.tgz:33380.got - 2010.04.14 03:12:58.
