data_PCOD8193618
_publ_section_title
;
Structure prediction by ZEFSAII (Michael W. Deem and Ramdas Pophale) SiO2 
 PCOD8193618
Probable space group: P M M M
;
_chemical_formula_sum "Si O2"
_cell_formula_units_Z 52
_cell_length_a 9.250376
_cell_length_b 11.705948
_cell_length_c 28.261940
_cell_angle_alpha 90.000000
_cell_angle_beta 90.000000
_cell_angle_gamma 90.000000
_cell_volume 3060.327793
_symmetry_space_group_name_H-M "P M M M"
_symmetry_group_IT_number 47
_symmetry_cell_setting 'orthorhombic'
loop_
_space_group_symop_operation_xyz
x,y,z
-x,-y,z
x,-y,-z
-x,y,-z
-x,-y,-z
x,y,-z
-x,y,z
x,-y,z
loop_
_atom_site_type_symbol
_atom_site_label
_atom_site_fract_x
_atom_site_fract_y
_atom_site_fract_z
Si Si1 0.169608 0.000000 0.327473
Si Si2 0.340601 0.864732 0.087743
Si Si3 0.338082 0.000000 0.579520
Si Si4 0.172655 0.228873 0.278337
Si Si5 0.161068 0.863445 0.000000
Si Si6 0.666849 0.249602 0.449298
Si Si7 0.332672 0.366160 0.645084
Si Si8 0.329093 0.131879 0.806260
O O1 0.218895 0.000000 0.380689
O O2 0.228612 0.112690 0.302409
O O3 0.000000 0.000000 0.325755
O O4 0.500000 0.812785 0.079556
O O5 0.285067 0.833666 0.140245
O O6 0.349515 0.000000 0.083200
O O7 0.236793 0.814415 0.047254
O O8 0.313942 0.886986 0.548752
O O9 0.500000 0.000000 0.601631
O O10 0.240259 0.331800 0.308798
O O11 0.240047 0.221568 0.225882
O O12 0.000000 0.242789 0.275805
O O13 0.000000 0.815026 0.000000
O O14 0.163362 0.000000 0.000000
O O15 0.732383 0.294168 0.500000
O O16 0.500000 0.284832 0.447880
O O17 0.735889 0.305741 0.402063
O O18 0.500000 0.330165 0.652883
O O19 0.316900 0.500000 0.637531
O O20 0.500000 0.146827 0.798249
O O21 0.283907 0.000000 0.796062
#
# Coordination Sequence:
#
# PCOD8193618 Si02
#       8
#     4   8   4   8   4   8   8   8
#     4  10  20  31  45  69  96 121 149 184 227 280
#     4   8  14  24  36  52  77 113 154 193 231 273
#     4  10  17  28  50  74  96 122 149 183 225 276
#     4  11  21  33  49  69  95 123 152 190 238 287
#     4   9  15  21  31  49  75 113 158 199 232 265
#     4   9  17  29  48  75 100 119 145 186 233 276
#     4  10  21  36  53  72  92 119 158 196 229 273
#     4   9  17  28  44  66  91 119 154 195 239 284
#
# _framework density 16.991644000000001
#
# number of rings (size 3 to 8) (size 9 to 14) (size 15 to 20)
#    0.000    2.538    2.308    1.846    0.000    3.692 
#    0.000    3.077    0.000    2.308    0.000    1.077 
#    0.000    0.000    0.000    0.692    0.000   13.462 
#
# Total GULP energy -644417.199098 kJ/mol
# GULP energy per Si atom -12392.638444 kJ/mol
# Density = 1.695297 g / cm^3
# Si number density = 16.991644 Si / 1000 Ang^3
#
#
#
# Elastic Constant Matrix: (Units=GPa)
#
#
# Indices 1 2 3 4 5 6 
#
# 1 54.3846 21.5522 52.4436 0.0000 0.0000 0.0000
# 2 21.5522 49.5157 30.3092 0.0000 0.0000 0.0000
# 3 52.4436 30.3092 148.8246 0.0000 0.0000 0.0000
# 4 0.0000 0.0000 0.0000 11.4288 0.0000 0.0000
# 5 0.0000 0.0000 0.0000 0.0000 15.1849 0.0000
# 6 0.0000 0.0000 0.0000 0.0000 0.0000 13.8156
#
#
#
# Elastic Compliance Matrix: (Units=1/GPa)
#
#
# Indices 1 2 3 4 5 6 
#
# 1 0.030141 -0.007560 -0.009082 0.000000 0.000000 0.000000
# 2 -0.007560 0.024968 -0.002421 0.000000 0.000000 0.000000
# 3 -0.009082 -0.002421 0.010413 0.000000 0.000000 0.000000
# 4 0.000000 0.000000 0.000000 0.087498 0.000000 0.000000
# 5 0.000000 0.000000 0.000000 0.000000 0.065855 0.000000
# 6 0.000000 0.000000 0.000000 0.000000 0.000000 0.072382
#
#
# Mechanical properties :
#
#
# Convention : Reuss Voigt Hill
#
# Bulk Modulus (GPa) = 36.50111 51.25946 43.88029
# Shear Modulus (GPa) = 14.77044 17.98052 16.37548
#
# Velocity S-wave (km/s) = 2.95155 3.25652 3.10778
# Velocity P-wave (km/s) = 5.75708 6.66130 6.22563
#
# Compressibility (1/GPa) = 0.02739643
#
# Stress axis : x y z
#
# Youngs Moduli (GPa) = 33.17730 40.05111 96.03796
#
# Poissons Ratio (x) = 0.30280 0.87218
# Poissons Ratio (y) = 0.25083 0.23249
# Poissons Ratio (z) = 0.30130 0.09696
#
# Static dielectric constant tensor:
#      x y z
#    x 3.039770 0.000000 0.000000 
#    y 0.000000 2.797370 0.000000 
#    z 0.000000 0.000000 3.401880 
# 
# 
# High freq. dielectric constant tensor:
#      x y z
#    x 1.635860 0.000000 0.000000 
#    y 0.000000 1.600210 0.000000 
#    z 0.000000 0.000000 1.669150 
# 
# From -- ./inp_files/33307.got.cif
#   From: 2010.03.12/outbox.cif.g09.slc.cpg/sg47_17_cif.got.tgz:33307.got - 2010.04.14 03:12:58.
