data_PCOD8193485
_publ_section_title
;
Structure prediction by ZEFSAII (Michael W. Deem and Ramdas Pophale) SiO2 
 PCOD8193485
Probable space group: P M M M
;
_chemical_formula_sum "Si O2"
_cell_formula_units_Z 48
_cell_length_a 23.653935
_cell_length_b 9.258698
_cell_length_c 16.845357
_cell_angle_alpha 90.000000
_cell_angle_beta 90.000000
_cell_angle_gamma 90.000000
_cell_volume 3689.211357
_symmetry_space_group_name_H-M "P M M M"
_symmetry_group_IT_number 47
_symmetry_cell_setting 'orthorhombic'
loop_
_space_group_symop_operation_xyz
x,y,z
-x,-y,z
x,-y,-z
-x,y,-z
-x,-y,-z
x,y,-z
-x,y,z
x,-y,z
loop_
_atom_site_type_symbol
_atom_site_label
_atom_site_fract_x
_atom_site_fract_y
_atom_site_fract_z
Si Si1 0.000000 0.329197 0.588292
Si Si2 0.789023 0.328100 0.588310
Si Si3 0.665516 0.340243 0.405562
Si Si4 0.438272 0.161683 0.405693
Si Si5 0.066364 0.830450 0.843772
Si Si6 0.894145 0.328251 0.308218
Si Si7 0.933000 0.336303 0.000000
O O1 0.055398 0.277008 0.634583
O O2 0.000000 0.500000 0.581283
O O3 0.000000 0.260881 0.500000
O O4 0.803614 0.268284 0.500000
O O5 0.787062 0.500000 0.583596
O O6 0.726963 0.272137 0.616444
O O7 0.836039 0.277653 0.650662
O O8 0.660621 0.346325 0.500000
O O9 0.660235 0.500000 0.369362
O O10 0.613700 0.250335 0.367904
O O11 0.432951 0.161214 0.500000
O O12 0.500000 0.226708 0.381567
O O13 0.433550 0.000000 0.372573
O O14 0.101576 0.758155 0.773321
O O15 0.000000 0.803006 0.829560
O O16 0.079865 0.000000 0.849866
O O17 0.087887 0.751694 0.923275
O O18 0.896507 0.500000 0.292136
O O19 0.908355 0.500000 0.000000
O O20 0.000000 0.342839 0.000000
#
# Coordination Sequence:
#
# PCOD8193485 Si02
#       7
#     4   8   8   8   8   8   4
#     4   9  16  24  37  56  71  86 117 159 192 215
#     4   8  14  24  37  52  69  90 119 157 193 217
#     4   8  13  21  32  45  61  82 109 141 178 216
#     4   8  13  20  29  42  60  80 102 132 172 213
#     4  10  19  30  42  57  79  99 112 133 175 222
#     4  10  17  26  41  57  72  91 121 155 183 215
#     4   9  17  29  47  65  77  89 111 137 164 207
#
# _framework density 13.010911
#
# number of rings (size 3 to 8) (size 9 to 14) (size 15 to 20)
#    0.000    3.167    0.833    2.750    0.000    4.000 
#    0.000    2.500    0.000    3.500    0.000    0.000 
#    0.000    0.000    0.000    0.000    0.000    0.000 
#
# Total GULP energy -594812.711850 kJ/mol
# GULP energy per Si atom -12391.931497 kJ/mol
# Density = 1.298130 g / cm^3
# Si number density = 13.010911 Si / 1000 Ang^3
#
#
#
# Elastic Constant Matrix: (Units=GPa)
#
#
# Indices 1 2 3 4 5 6 
#
# 1 109.4291 38.0488 41.2689 0.0000 0.0000 0.0000
# 2 38.0488 55.1419 33.3687 0.0000 0.0000 0.0000
# 3 41.2689 33.3687 76.3257 0.0000 0.0000 0.0000
# 4 0.0000 0.0000 0.0000 10.0376 0.0000 0.0000
# 5 0.0000 0.0000 0.0000 0.0000 2.7220 0.0000
# 6 0.0000 0.0000 0.0000 0.0000 0.0000 12.0787
#
#
#
# Elastic Compliance Matrix: (Units=1/GPa)
#
#
# Indices 1 2 3 4 5 6 
#
# 1 0.012946 -0.006387 -0.004208 0.000000 0.000000 0.000000
# 2 -0.006387 0.027810 -0.008705 0.000000 0.000000 0.000000
# 3 -0.004208 -0.008705 0.019182 0.000000 0.000000 0.000000
# 4 0.000000 0.000000 0.000000 0.099626 0.000000 0.000000
# 5 0.000000 0.000000 0.000000 0.000000 0.367383 0.000000
# 6 0.000000 0.000000 0.000000 0.000000 0.000000 0.082791
#
#
# Mechanical properties :
#
#
# Convention : Reuss Voigt Hill
#
# Bulk Modulus (GPa) = 46.86088 51.80772 49.33430
# Shear Modulus (GPa) = 7.62837 13.51499 10.57168
#
# Velocity S-wave (km/s) = 2.42400 3.22645 2.85357
# Velocity P-wave (km/s) = 6.62791 7.33383 6.98979
#
# Compressibility (1/GPa) = 0.02133976
#
# Stress axis : x y z
#
# Youngs Moduli (GPa) = 77.24530 35.95890 52.13121
#
# Poissons Ratio (x) = 0.22966 0.21935
# Poissons Ratio (y) = 0.49334 0.45379
# Poissons Ratio (z) = 0.32501 0.31301
#
# Static dielectric constant tensor:
#      x y z
#    x 2.803710 0.000000 0.000000 
#    y 0.000000 2.572910 0.000000 
#    z 0.000000 0.000000 2.375340 
# 
# 
# High freq. dielectric constant tensor:
#      x y z
#    x 1.485160 0.000000 0.000000 
#    y 0.000000 1.481600 0.000000 
#    z 0.000000 0.000000 1.448860 
# 
# From -- ./inp_files/28691.got.cif
#   From: 2010.03.12/outbox.cif.g09.slc.cpg/sg47_15_cif.got.tgz:28691.got - 2010.04.14 03:12:58.
