data_PCOD8193741
_publ_section_title
;
Structure prediction by ZEFSAII (Michael W. Deem and Ramdas Pophale) SiO2 
 PCOD8193741
Probable space group: P M M M
;
_chemical_formula_sum "Si O2"
_cell_formula_units_Z 60
_cell_length_a 23.398986
_cell_length_b 9.508355
_cell_length_c 18.365228
_cell_angle_alpha 90.000000
_cell_angle_beta 90.000000
_cell_angle_gamma 90.000000
_cell_volume 4086.003647
_symmetry_space_group_name_H-M "P M M M"
_symmetry_group_IT_number 47
_symmetry_cell_setting 'orthorhombic'
loop_
_space_group_symop_operation_xyz
x,y,z
-x,-y,z
x,-y,-z
-x,y,-z
-x,-y,-z
x,y,-z
-x,y,z
x,-y,z
loop_
_atom_site_type_symbol
_atom_site_label
_atom_site_fract_x
_atom_site_fract_y
_atom_site_fract_z
Si Si1 0.841347 0.164821 0.663864
Si Si2 0.614579 0.667600 0.157477
Si Si3 0.934382 0.659435 0.584643
Si Si4 0.209653 0.343139 0.782429
Si Si5 0.724498 0.836187 0.416876
Si Si6 0.726950 0.667342 0.080421
Si Si7 0.670807 0.656439 0.699797
Si Si8 0.500000 0.332156 0.916887
O O1 0.897811 0.229529 0.629318
O O2 0.832546 0.234411 0.743082
O O3 0.787835 0.199256 0.611776
O O4 0.850374 0.000000 0.674505
O O5 0.615338 0.500000 0.153877
O O6 0.666152 0.728302 0.108034
O O7 0.623271 0.712814 0.242431
O O8 0.555328 0.727445 0.125630
O O9 0.926723 0.693144 0.500000
O O10 0.914083 0.500000 0.601230
O O11 0.000000 0.678280 0.607957
O O12 0.182404 0.500000 0.781958
O O13 0.221593 0.289286 0.864919
O O14 0.269939 0.348356 0.742315
O O15 0.720648 0.784534 0.500000
O O16 0.675862 0.757152 0.370183
O O17 0.711530 0.000000 0.409720
O O18 0.722669 0.500000 0.079124
O O19 0.740074 0.727855 0.000000
O O20 0.654911 0.500000 0.672035
O O21 0.500000 0.500000 0.916538
O O22 0.500000 0.276906 0.000000
#
# Coordination Sequence:
#
# PCOD8193741 Si02
#       8
#     8   8   8   8   8   8   8   4
#     4  10  18  27  40  57  79 105 130 158 192 228
#     4   8  13  20  30  48  76 105 130 157 188 224
#     4   9  18  31  44  58  78 105 135 163 189 218
#     4   8  14  24  37  53  74 101 131 160 191 228
#     4   9  17  27  38  55  77  97 121 157 197 231
#     4   8  12  19  33  52  74 101 132 163 192 224
#     4   8  14  24  36  51  73 100 127 154 187 228
#     4   9  14  18  28  50  80 109 130 150 185 229
#
# _framework density 14.684275
#
# number of rings (size 3 to 8) (size 9 to 14) (size 15 to 20)
#    0.000    3.400    0.000    3.200    0.000    3.467 
#    0.000    0.667    0.000    0.400    0.000    0.933 
#    0.000    6.400    0.000    6.133    0.000    2.000 
#
# Total GULP energy -743578.151538 kJ/mol
# GULP energy per Si atom -12392.969192 kJ/mol
# Density = 1.465085 g / cm^3
# Si number density = 14.684275 Si / 1000 Ang^3
#
#
#
# Elastic Constant Matrix: (Units=GPa)
#
#
# Indices 1 2 3 4 5 6 
#
# 1 64.1889 34.2205 51.2816 0.0000 0.0000 0.0000
# 2 34.2205 50.6124 45.7385 0.0000 0.0000 0.0000
# 3 51.2816 45.7385 125.3040 0.0000 0.0000 0.0000
# 4 0.0000 0.0000 0.0000 9.8986 0.0000 0.0000
# 5 0.0000 0.0000 0.0000 0.0000 25.5476 0.0000
# 6 0.0000 0.0000 0.0000 0.0000 0.0000 10.2519
#
#
#
# Elastic Compliance Matrix: (Units=1/GPa)
#
#
# Indices 1 2 3 4 5 6 
#
# 1 0.027688 -0.012655 -0.006712 0.000000 0.000000 0.000000
# 2 -0.012655 0.035268 -0.007694 0.000000 0.000000 0.000000
# 3 -0.006712 -0.007694 0.013536 0.000000 0.000000 0.000000
# 4 0.000000 0.000000 0.000000 0.101024 0.000000 0.000000
# 5 0.000000 0.000000 0.000000 0.000000 0.039143 0.000000
# 6 0.000000 0.000000 0.000000 0.000000 0.000000 0.097543
#
#
# Mechanical properties :
#
#
# Convention : Reuss Voigt Hill
#
# Bulk Modulus (GPa) = 44.70450 55.84295 50.27373
# Shear Modulus (GPa) = 13.30563 16.39728 14.85146
#
# Velocity S-wave (km/s) = 3.01344 3.34527 3.18368
# Velocity P-wave (km/s) = 6.52822 7.28236 6.91557
#
# Compressibility (1/GPa) = 0.02236911
#
# Stress axis : x y z
#
# Youngs Moduli (GPa) = 36.11648 28.35461 73.87573
#
# Poissons Ratio (x) = 0.35882 0.49588
# Poissons Ratio (y) = 0.45705 0.56842
# Poissons Ratio (z) = 0.24243 0.21817
#
# Static dielectric constant tensor:
#      x y z
#    x 2.701370 0.000000 0.000000 
#    y 0.000000 2.622560 0.000000 
#    z 0.000000 0.000000 3.143260 
# 
# 
# High freq. dielectric constant tensor:
#      x y z
#    x 1.527260 0.000000 0.000000 
#    y 0.000000 1.531790 0.000000 
#    z 0.000000 0.000000 1.560740 
# 
# From -- ./inp_files/28892.got.cif
#   From: 2010.03.12/outbox.cif.g09.slc.cpg/sg47_15_cif.got.tgz:28892.got - 2010.04.14 03:12:58.
