data_PCOD8193043
_publ_section_title
;
Structure prediction by ZEFSAII (Michael W. Deem and Ramdas Pophale) SiO2 
 PCOD8193043
Probable space group: I M A 2
;
_chemical_formula_sum "Si O2"
_cell_formula_units_Z 64
_cell_length_a 8.761760
_cell_length_b 14.435122
_cell_length_c 23.752306
_cell_angle_alpha 90.000000
_cell_angle_beta 90.000000
_cell_angle_gamma 90.000000
_cell_volume 3004.122176
_symmetry_space_group_name_H-M "I M A 2"
_symmetry_group_IT_number 46
_symmetry_cell_setting 'orthorhombic'
loop_
_space_group_symop_operation_xyz
x,y,z
-x,-y,z
1/2-x,y,z
1/2+x,-y,z
1/2+x,1/2+y,1/2+z
1/2-x,1/2-y,1/2+z
-x,1/2+y,1/2+z
x,1/2-y,1/2+z
loop_
_atom_site_type_symbol
_atom_site_label
_atom_site_fract_x
_atom_site_fract_y
_atom_site_fract_z
Si Si1 0.431398 0.899785 0.115430
Si Si2 0.431856 0.097837 0.774244
Si Si3 0.579301 0.678774 0.389316
Si Si4 0.913517 0.889102 0.396672
Si Si5 0.072819 0.593499 0.006511
Si Si6 0.927787 0.237026 0.215350
Si Si7 0.067044 0.292991 0.513386
Si Si8 0.419603 0.414700 0.774686
O O1 0.250000 0.907842 0.111874
O O2 0.481548 0.821439 0.160666
O O3 0.499390 0.866474 0.056374
O O4 0.500000 0.000000 0.130679
O O5 0.250000 0.097034 0.775380
O O6 0.499627 0.124969 0.836682
O O7 0.484746 0.166319 0.723974
O O8 0.500000 0.000000 0.756961
O O9 0.750000 0.639580 0.393634
O O10 0.575161 0.785652 0.373093
O O11 0.505749 0.670969 0.452075
O O12 0.750000 0.901080 0.429408
O O13 0.912289 0.947661 0.339684
O O14 0.050847 0.916026 0.438570
O O15 0.250000 0.598997 0.022186
O O16 0.000000 0.500000 0.034534
O O17 0.991957 0.688388 0.026703
O O18 0.750000 0.258368 0.213789
O O19 0.973593 0.174664 0.268703
O O20 0.250000 0.290777 0.515326
O O21 0.500000 0.500000 0.741489
O O22 0.250000 0.397115 0.750006
#
# Coordination Sequence:
#
# PCOD8193043 Si02
#       8
#     8   8   8   8   8   8   8   8
#     4  11  25  45  68  95 126 161 209 263 318 377
#     4  11  22  40  64  93 128 167 207 254 312 374
#     4   8  16  34  58  86 122 163 202 249 304 363
#     4   9  17  32  51  77 115 159 203 249 300 359
#     4  11  21  34  54  84 122 166 210 254 307 368
#     4  11  24  42  63  89 122 160 206 259 313 373
#     4  10  21  40  65  93 127 166 211 263 319 374
#     4  11  21  33  52  81 117 157 201 250 303 364
#
# _framework density 21.30406
#
# number of rings (size 3 to 8) (size 9 to 14) (size 15 to 20)
#    0.000    1.750    1.250    4.500    0.000    5.500 
#    0.000    3.750    0.000    3.000    0.000    0.000 
#    0.000    0.000    0.000    0.000    0.000    0.000 
#
# Total GULP energy -396463.024768 kJ/mol
# GULP energy per Si atom -12389.469524 kJ/mol
# Density = 2.125557 g / cm^3
# Si number density = 21.304060 Si / 1000 Ang^3
#
#
#
# Elastic Constant Matrix: (Units=GPa)
#
#
# Indices 1 2 3 4 5 6 
#
# 1 97.1611 50.3218 38.7223 0.0000 0.0000 0.0000
# 2 50.3218 142.2298 45.7616 0.0000 0.0000 0.0000
# 3 38.7223 45.7616 88.8769 0.0000 0.0000 0.0000
# 4 0.0000 0.0000 0.0000 11.3212 0.0000 0.0000
# 5 0.0000 0.0000 0.0000 0.0000 13.5977 0.0000
# 6 0.0000 0.0000 0.0000 0.0000 0.0000 37.8663
#
#
#
# Elastic Compliance Matrix: (Units=1/GPa)
#
#
# Indices 1 2 3 4 5 6 
#
# 1 0.013791 -0.003531 -0.004190 0.000000 0.000000 0.000000
# 2 -0.003531 0.009331 -0.003266 0.000000 0.000000 0.000000
# 3 -0.004190 -0.003266 0.014759 0.000000 0.000000 0.000000
# 4 0.000000 0.000000 0.000000 0.088330 0.000000 0.000000
# 5 0.000000 0.000000 0.000000 0.000000 0.073542 0.000000
# 6 0.000000 0.000000 0.000000 0.000000 0.000000 0.026409
#
#
# Mechanical properties :
#
#
# Convention : Reuss Voigt Hill
#
# Bulk Modulus (GPa) = 62.86982 66.43102 64.65042
# Shear Modulus (GPa) = 19.72864 25.45450 22.59157
#
# Velocity S-wave (km/s) = 3.04641 3.46037 3.25997
# Velocity P-wave (km/s) = 6.47680 6.87136 6.67699
#
# Compressibility (1/GPa) = 0.01590588
#
# Stress axis : x y z
#
# Youngs Moduli (GPa) = 72.51070 107.16940 67.75603
#
# Poissons Ratio (x) = 0.37843 0.28393
# Poissons Ratio (y) = 0.25604 0.22129
# Poissons Ratio (z) = 0.30385 0.35001
#
# Static dielectric constant tensor:
#      x y z
#    x 3.823890 0.000000 0.000000 
#    y 0.000000 3.935150 0.000000 
#    z 0.000000 0.000000 3.746710 
# 
# 
# High freq. dielectric constant tensor:
#      x y z
#    x 1.827280 0.000000 0.000000 
#    y 0.000000 1.840740 0.000000 
#    z 0.000000 0.000000 1.815460 
# 
# From -- ./inp_files/23225.got.cif
#   From: 2010.03.12/outbox.cif.g09.slc.cpg/sg46_12_cif.got.tgz:23225.got - 2010.04.14 02:56:35.
