data_PCOD8193117
_publ_section_title
;
Structure prediction by ZEFSAII (Michael W. Deem and Ramdas Pophale) SiO2 
 PCOD8193117
Probable space group: I M A 2
;
_chemical_formula_sum "Si O2"
_cell_formula_units_Z 56
_cell_length_a 16.159006
_cell_length_b 11.204015
_cell_length_c 14.146641
_cell_angle_alpha 90.000000
_cell_angle_beta 90.000000
_cell_angle_gamma 90.000000
_cell_volume 2561.189168
_symmetry_space_group_name_H-M "I M A 2"
_symmetry_group_IT_number 46
_symmetry_cell_setting 'orthorhombic'
loop_
_space_group_symop_operation_xyz
x,y,z
-x,-y,z
1/2-x,y,z
1/2+x,-y,z
1/2+x,1/2+y,1/2+z
1/2-x,1/2-y,1/2+z
-x,1/2+y,1/2+z
x,1/2-y,1/2+z
loop_
_atom_site_type_symbol
_atom_site_label
_atom_site_fract_x
_atom_site_fract_y
_atom_site_fract_z
Si Si1 0.551961 0.850418 0.815750
Si Si2 0.080422 0.772575 0.183830
Si Si3 0.342656 0.976426 0.693588
Si Si4 0.844053 0.988843 0.147780
Si Si5 0.463891 0.338448 0.523203
Si Si6 0.658408 0.861764 0.336762
Si Si7 0.916696 0.928682 0.514745
O O1 0.493873 0.761908 0.754625
O O2 0.632840 0.776147 0.844099
O O3 0.583747 0.968967 0.760263
O O4 0.509738 0.880498 0.917006
O O5 0.144685 0.664585 0.183971
O O6 0.130553 0.892696 0.207681
O O7 0.047274 0.808577 0.080145
O O8 0.250000 0.000899 0.733248
O O9 0.347648 0.028697 0.588301
O O10 0.750000 0.001756 0.107134
O O11 0.908701 0.946651 0.066880
O O12 0.848393 0.888187 0.226654
O O13 0.416156 0.213461 0.526659
O O14 0.750000 0.873393 0.376423
O O15 0.605615 0.951112 0.404694
O O16 0.000000 0.000000 0.540824
#
# Coordination Sequence:
#
# PCOD8193117 Si02
#       7
#     8   8   8   8   8   8   8
#     4  11  24  42  69  99 132 175 229 277 332 406
#     4  12  24  43  65  97 131 177 225 277 337 412
#     4  12  24  42  66  95 136 175 219 282 343 405
#     4  11  25  43  65  97 133 173 222 278 344 404
#     4  11  24  42  70  96 131 176 225 278 330 399
#     4  10  22  38  63  98 130 167 216 274 337 393
#     4  11  21  39  66  98 130 168 221 277 333 405
#
# _framework density 21.864843
#
# number of rings (size 3 to 8) (size 9 to 14) (size 15 to 20)
#    0.000    0.857    4.286    2.143    4.000    6.857 
#    0.000    0.000    0.000    5.143    0.000    0.000 
#    0.000    0.000    0.000    0.000    0.000    0.000 
#
# Total GULP energy -346959.064921 kJ/mol
# GULP energy per Si atom -12391.395176 kJ/mol
# Density = 2.181508 g / cm^3
# Si number density = 21.864843 Si / 1000 Ang^3
#
#
#
# Elastic Constant Matrix: (Units=GPa)
#
#
# Indices 1 2 3 4 5 6 
#
# 1 78.6536 15.5310 18.5217 0.0000 0.0000 0.0000
# 2 15.5310 114.5102 15.6111 0.0000 0.0000 0.0000
# 3 18.5217 15.6111 105.4986 0.0000 0.0000 0.0000
# 4 0.0000 0.0000 0.0000 20.3086 0.0000 0.0000
# 5 0.0000 0.0000 0.0000 0.0000 20.9401 0.0000
# 6 0.0000 0.0000 0.0000 0.0000 0.0000 31.8275
#
#
#
# Elastic Compliance Matrix: (Units=1/GPa)
#
#
# Indices 1 2 3 4 5 6 
#
# 1 0.013524 -0.001542 -0.002146 0.000000 0.000000 0.000000
# 2 -0.001542 0.009088 -0.001074 0.000000 0.000000 0.000000
# 3 -0.002146 -0.001074 0.010015 0.000000 0.000000 0.000000
# 4 0.000000 0.000000 0.000000 0.049240 0.000000 0.000000
# 5 0.000000 0.000000 0.000000 0.000000 0.047755 0.000000
# 6 0.000000 0.000000 0.000000 0.000000 0.000000 0.031419
#
#
# Mechanical properties :
#
#
# Convention : Reuss Voigt Hill
#
# Bulk Modulus (GPa) = 43.28498 44.22113 43.75305
# Shear Modulus (GPa) = 28.04787 31.21513 29.63150
#
# Velocity S-wave (km/s) = 3.58548 3.78251 3.68531
# Velocity P-wave (km/s) = 6.08116 6.27257 6.17761
#
# Compressibility (1/GPa) = 0.02310270
#
# Stress axis : x y z
#
# Youngs Moduli (GPa) = 73.94379 110.03057 99.85480
#
# Poissons Ratio (x) = 0.16963 0.21430
# Poissons Ratio (y) = 0.11400 0.10726
# Poissons Ratio (z) = 0.15870 0.11819
#
# Static dielectric constant tensor:
#      x y z
#    x 3.889980 0.000000 0.000000 
#    y 0.000000 4.039540 0.000000 
#    z 0.000000 0.000000 4.116410 
# 
# 
# High freq. dielectric constant tensor:
#      x y z
#    x 1.849550 0.000000 0.000000 
#    y 0.000000 1.869480 0.000000 
#    z 0.000000 0.000000 1.860010 
# 
# From -- ./inp_files/15969.got.cif
#   From: 2010.03.12/outbox.cif.g09.slc.cpg/sg46_8_cif.got.tgz:15969.got - 2010.04.14 02:56:35.
