data_PCOD8193519
_publ_section_title
;
Structure prediction by ZEFSAII (Michael W. Deem and Ramdas Pophale) SiO2 
 PCOD8193519
Probable space group: P M M M
;
_chemical_formula_sum "Si O2"
_cell_formula_units_Z 56
_cell_length_a 14.470486
_cell_length_b 23.777161
_cell_length_c 8.992846
_cell_angle_alpha 90.000000
_cell_angle_beta 90.000000
_cell_angle_gamma 90.000000
_cell_volume 3094.142222
_symmetry_space_group_name_H-M "P M M M"
_symmetry_group_IT_number 47
_symmetry_cell_setting 'orthorhombic'
loop_
_space_group_symop_operation_xyz
x,y,z
-x,-y,z
x,-y,-z
-x,y,-z
-x,-y,-z
x,y,-z
-x,y,z
x,-y,z
loop_
_atom_site_type_symbol
_atom_site_label
_atom_site_fract_x
_atom_site_fract_y
_atom_site_fract_z
Si Si1 0.214292 0.168161 0.176717
Si Si2 0.105368 0.619204 0.824838
Si Si3 0.890761 0.732746 0.331217
Si Si4 0.896365 0.062267 0.176624
Si Si5 0.391862 0.650764 0.168719
Si Si6 0.601340 0.223106 0.823570
Si Si7 0.264700 0.563454 0.671509
O O1 0.148459 0.214079 0.246645
O O2 0.178890 0.107382 0.235043
O O3 0.320368 0.178803 0.229217
O O4 0.206089 0.172766 0.000000
O O5 0.142681 0.676778 0.752410
O O6 0.169217 0.569663 0.762425
O O7 0.000000 0.606392 0.778350
O O8 0.115737 0.624558 0.000000
O O9 0.854296 0.731140 0.500000
O O10 0.000000 0.737488 0.324771
O O11 0.000000 0.077732 0.233039
O O12 0.868647 0.000000 0.235359
O O13 0.896608 0.062165 0.000000
O O14 0.500000 0.638244 0.174932
O O15 0.371781 0.713907 0.229412
O O16 0.342302 0.606042 0.272684
O O17 0.354812 0.644184 0.000000
O O18 0.500000 0.205475 0.759515
O O19 0.594748 0.224657 0.000000
O O20 0.243924 0.575908 0.500000
O O21 0.300844 0.500000 0.695573
#
# Coordination Sequence:
#
# PCOD8193519 Si02
#       7
#     8   8   8   8   8   8   8
#     4  10  17  26  47  72  92 124 169 207 237 282
#     4  10  21  37  56  75  96 126 165 205 241 285
#     4  10  20  32  47  71 103 130 150 186 246 303
#     4   8  14  24  38  61  95 130 165 208 250 283
#     4   9  18  34  55  75  96 125 161 202 250 303
#     4   8  15  28  46  70  96 118 146 192 248 294
#     4  11  24  38  52  73 101 131 161 198 248 301
#
# _framework density 18.098716
#
# number of rings (size 3 to 8) (size 9 to 14) (size 15 to 20)
#    0.000    2.571    0.000    3.857    0.000    5.429 
#    0.000    2.857    0.000    2.143    0.000    5.000 
#    0.000    0.000    0.000    1.286    0.000    1.571 
#
# Total GULP energy -694220.865373 kJ/mol
# GULP energy per Si atom -12396.801167 kJ/mol
# Density = 1.805752 g / cm^3
# Si number density = 18.098716 Si / 1000 Ang^3
#
#
#
# Elastic Constant Matrix: (Units=GPa)
#
#
# Indices 1 2 3 4 5 6 
#
# 1 88.4800 71.7795 22.6397 0.0000 0.0000 0.0000
# 2 71.7795 120.4437 27.8449 0.0000 0.0000 0.0000
# 3 22.6397 27.8449 43.0559 0.0000 0.0000 0.0000
# 4 0.0000 0.0000 0.0000 3.7156 0.0000 0.0000
# 5 0.0000 0.0000 0.0000 0.0000 18.4977 0.0000
# 6 0.0000 0.0000 0.0000 0.0000 0.0000 27.7099
#
#
#
# Elastic Compliance Matrix: (Units=1/GPa)
#
#
# Indices 1 2 3 4 5 6 
#
# 1 0.022369 -0.012477 -0.003693 0.000000 0.000000 0.000000
# 2 -0.012477 0.016722 -0.004253 0.000000 0.000000 0.000000
# 3 -0.003693 -0.004253 0.027918 0.000000 0.000000 0.000000
# 4 0.000000 0.000000 0.000000 0.269138 0.000000 0.000000
# 5 0.000000 0.000000 0.000000 0.000000 0.054061 0.000000
# 6 0.000000 0.000000 0.000000 0.000000 0.000000 0.036088
#
#
# Mechanical properties :
#
#
# Convention : Reuss Voigt Hill
#
# Bulk Modulus (GPa) = 38.22354 55.16755 46.69554
# Shear Modulus (GPa) = 10.50720 18.63234 14.56977
#
# Velocity S-wave (km/s) = 2.41207 3.21204 2.84036
# Velocity P-wave (km/s) = 5.37799 6.65612 6.05090
#
# Compressibility (1/GPa) = 0.02616189
#
# Stress axis : x y z
#
# Youngs Moduli (GPa) = 44.70431 59.80148 35.81889
#
# Poissons Ratio (x) = 0.74617 0.13228
# Poissons Ratio (y) = 0.55779 0.15235
# Poissons Ratio (z) = 0.16509 0.25436
#
# Static dielectric constant tensor:
#      x y z
#    x 3.616950 0.000000 0.000000 
#    y 0.000000 3.472620 0.000000 
#    z 0.000000 0.000000 3.109900 
# 
# 
# High freq. dielectric constant tensor:
#      x y z
#    x 1.704620 0.000000 0.000000 
#    y 0.000000 1.690400 0.000000 
#    z 0.000000 0.000000 1.674020 
# 
# From -- ./inp_files/7294.got.cif
#   From: 2010.03.12/outbox.cif.g09.slc.cpg/sg47_4_cif.got.tgz:7294.got - 2010.04.14 03:12:58.
