data_PCOD8193168
_publ_section_title
;
Structure prediction by ZEFSAII (Michael W. Deem and Ramdas Pophale) SiO2 
 PCOD8193168
Probable space group: I M A 2
;
_chemical_formula_sum "Si O2"
_cell_formula_units_Z 56
_cell_length_a 20.110890
_cell_length_b 15.394797
_cell_length_c 8.551120
_cell_angle_alpha 90.000000
_cell_angle_beta 90.000000
_cell_angle_gamma 90.000000
_cell_volume 2647.452996
_symmetry_space_group_name_H-M "I M A 2"
_symmetry_group_IT_number 46
_symmetry_cell_setting 'orthorhombic'
loop_
_space_group_symop_operation_xyz
x,y,z
-x,-y,z
1/2-x,y,z
1/2+x,-y,z
1/2+x,1/2+y,1/2+z
1/2-x,1/2-y,1/2+z
-x,1/2+y,1/2+z
x,1/2-y,1/2+z
loop_
_atom_site_type_symbol
_atom_site_label
_atom_site_fract_x
_atom_site_fract_y
_atom_site_fract_z
Si Si1 0.604978 0.689686 0.957640
Si Si2 0.250000 0.769556 0.110828
Si Si3 0.362245 0.001837 0.952984
Si Si4 0.458032 0.422077 0.200207
Si Si5 0.750000 0.117225 0.816115
Si Si6 0.109462 0.660472 0.625172
Si Si7 0.823732 0.664913 0.640286
Si Si8 0.029307 0.765538 0.854018
O O1 0.626342 0.657937 0.786357
O O2 0.534839 0.738536 0.952278
O O3 0.596941 0.608306 0.074427
O O4 0.658623 0.754966 0.028525
O O5 0.250000 0.664317 0.144599
O O6 0.317228 0.810906 0.183602
O O7 0.250000 0.797563 0.928545
O O8 0.392947 0.942327 0.090724
O O9 0.322493 0.078048 0.037782
O O10 0.314407 0.943171 0.843040
O O11 0.421459 0.043651 0.854573
O O12 0.500000 0.500000 0.123627
O O13 0.509644 0.346100 0.243612
O O14 0.054547 0.683290 0.754501
O O15 0.090254 0.709288 0.464918
O O16 0.750000 0.680434 0.706386
#
# Coordination Sequence:
#
# PCOD8193168 Si02
#       8
#     8   4   8   8   4   8   8   8
#     4  12  25  44  69  98 133 174 229 278 332 409
#     4  10  22  40  66  94 132 174 220 272 322 404
#     4  11  23  42  68  97 135 176 220 275 337 395
#     4  12  25  42  67  99 134 171 222 282 339 398
#     4  10  22  44  66  98 130 180 222 274 336 396
#     4  11  23  40  69  96 131 178 225 267 335 396
#     4  12  24  45  70  97 135 178 224 277 337 400
#     4  12  22  42  68  97 131 176 225 271 334 401
#
# _framework density 21.152405000000002
#
# number of rings (size 3 to 8) (size 9 to 14) (size 15 to 20)
#    0.000    0.571    6.429    2.143    0.000    1.143 
#    2.571    2.857    0.000    0.000    0.000    0.000 
#    0.000    0.000    0.000    0.000    0.000    0.000 
#
# Total GULP energy -347212.772223 kJ/mol
# GULP energy per Si atom -12400.456151 kJ/mol
# Density = 2.110426 g / cm^3
# Si number density = 21.152405 Si / 1000 Ang^3
#
#
#
# Elastic Constant Matrix: (Units=GPa)
#
#
# Indices 1 2 3 4 5 6 
#
# 1 102.7696 41.6187 22.6202 0.0000 0.0000 0.0000
# 2 41.6187 121.6167 39.8547 0.0000 0.0000 0.0000
# 3 22.6202 39.8547 65.5698 0.0000 0.0000 0.0000
# 4 0.0000 0.0000 0.0000 48.6987 0.0000 0.0000
# 5 0.0000 0.0000 0.0000 0.0000 29.3851 0.0000
# 6 0.0000 0.0000 0.0000 0.0000 0.0000 20.3214
#
#
#
# Elastic Compliance Matrix: (Units=1/GPa)
#
#
# Indices 1 2 3 4 5 6 
#
# 1 0.011495 -0.003290 -0.001966 0.000000 0.000000 0.000000
# 2 -0.003290 0.011209 -0.005678 0.000000 0.000000 0.000000
# 3 -0.001966 -0.005678 0.019381 0.000000 0.000000 0.000000
# 4 0.000000 0.000000 0.000000 0.020534 0.000000 0.000000
# 5 0.000000 0.000000 0.000000 0.000000 0.034031 0.000000
# 6 0.000000 0.000000 0.000000 0.000000 0.000000 0.049209
#
#
# Mechanical properties :
#
#
# Convention : Reuss Voigt Hill
#
# Bulk Modulus (GPa) = 49.46327 55.34923 52.40625
# Shear Modulus (GPa) = 28.65876 32.07189 30.36532
#
# Velocity S-wave (km/s) = 3.68485 3.89810 3.79297
# Velocity P-wave (km/s) = 6.44509 6.81791 6.63412
#
# Compressibility (1/GPa) = 0.02021702
#
# Stress axis : x y z
#
# Youngs Moduli (GPa) = 86.99101 89.21332 51.59798
#
# Poissons Ratio (x) = 0.29347 0.10145
# Poissons Ratio (y) = 0.28616 0.29299
# Poissons Ratio (z) = 0.17105 0.50658
#
# Static dielectric constant tensor:
#      x y z
#    x 3.839870 0.000000 0.000000 
#    y 0.000000 3.955620 0.000000 
#    z 0.000000 0.000000 3.670130 
# 
# 
# High freq. dielectric constant tensor:
#      x y z
#    x 1.841760 0.000000 0.000000 
#    y 0.000000 1.828580 0.000000 
#    z 0.000000 0.000000 1.815410 
# 
# From -- ./inp_files/7437.got.cif
#   From: 2010.03.12/outbox.cif.g09.slc.cpg/sg46_4_cif.got.tgz:7437.got - 2010.04.14 02:56:35.
