data_PCOD8193031
_publ_section_title
;
Structure prediction by ZEFSAII (Michael W. Deem and Ramdas Pophale) SiO2 
 PCOD8193031
Probable space group: I M A 2
;
_chemical_formula_sum "Si O2"
_cell_formula_units_Z 60
_cell_length_a 23.423710
_cell_length_b 9.291766
_cell_length_c 13.144403
_cell_angle_alpha 90.000000
_cell_angle_beta 90.000000
_cell_angle_gamma 90.000000
_cell_volume 2860.848189
_symmetry_space_group_name_H-M "I M A 2"
_symmetry_group_IT_number 46
_symmetry_cell_setting 'orthorhombic'
loop_
_space_group_symop_operation_xyz
x,y,z
-x,-y,z
1/2-x,y,z
1/2+x,-y,z
1/2+x,1/2+y,1/2+z
1/2-x,1/2-y,1/2+z
-x,1/2+y,1/2+z
x,1/2-y,1/2+z
loop_
_atom_site_type_symbol
_atom_site_label
_atom_site_fract_x
_atom_site_fract_y
_atom_site_fract_z
Si Si1 0.186181 0.135288 0.146710
Si Si2 0.594874 0.294960 0.912906
Si Si3 0.899942 0.801090 0.309265
Si Si4 0.857668 0.403749 0.115826
Si Si5 0.500000 0.000000 0.347719
Si Si6 0.313126 0.841034 0.243853
Si Si7 0.313824 0.347898 0.981461
Si Si8 0.434156 0.989087 0.798444
O O1 0.250000 0.177207 0.184913
O O2 0.138489 0.219420 0.210189
O O3 0.176166 0.964897 0.159425
O O4 0.179540 0.187958 0.030034
O O5 0.537454 0.390970 0.914720
O O6 0.640840 0.359105 0.833236
O O7 0.580883 0.131519 0.882084
O O8 0.618552 0.300075 0.026865
O O9 0.861697 0.876197 0.396763
O O10 0.915377 0.641443 0.345754
O O11 0.955735 0.899851 0.283533
O O12 0.815958 0.310087 0.186054
O O13 0.908335 0.458743 0.187555
O O14 0.822172 0.536110 0.070823
O O15 0.250000 0.854041 0.292814
O O16 0.250000 0.365078 0.934882
O O17 0.500000 0.000000 0.776257
#
# Coordination Sequence:
#
# PCOD8193031 Si02
#       8
#     8   8   8   8   4   8   8   8
#     4  10  21  40  63  93 126 162 210 264 324 387
#     4  11  24  42  65  95 126 171 218 267 325 391
#     4  12  23  42  67  92 130 171 211 266 324 376
#     4  11  23  41  67  95 130 171 224 262 330 393
#     4  12  22  40  68  90 124 166 218 256 306 386
#     4  10  22  41  64  93 131 168 212 272 328 388
#     4  11  23  39  64  97 127 165 214 265 324 388
#     4  11  25  43  64  94 137 173 216 273 326 382
#
# _framework density 20.972798999999998
#
# number of rings (size 3 to 8) (size 9 to 14) (size 15 to 20)
#    0.000    1.067    5.333    0.800    2.800    2.133 
#    0.000    0.667    7.333    0.000    0.000    0.000 
#    0.000    0.000    0.000    0.000    0.000    0.000 
#
# Total GULP energy -371901.857393 kJ/mol
# GULP energy per Si atom -12396.728580 kJ/mol
# Density = 2.092506 g / cm^3
# Si number density = 20.972799 Si / 1000 Ang^3
#
#
#
# Elastic Constant Matrix: (Units=GPa)
#
#
# Indices 1 2 3 4 5 6 
#
# 1 135.4200 43.8992 32.7892 0.0000 0.0000 0.0000
# 2 43.8992 115.6577 19.8739 0.0000 0.0000 0.0000
# 3 32.7892 19.8739 72.0367 0.0000 0.0000 0.0000
# 4 0.0000 0.0000 0.0000 29.0109 0.0000 0.0000
# 5 0.0000 0.0000 0.0000 0.0000 8.2956 0.0000
# 6 0.0000 0.0000 0.0000 0.0000 0.0000 28.8682
#
#
#
# Elastic Compliance Matrix: (Units=1/GPa)
#
#
# Indices 1 2 3 4 5 6 
#
# 1 0.009135 -0.002890 -0.003361 0.000000 0.000000 0.000000
# 2 -0.002890 0.009991 -0.001441 0.000000 0.000000 0.000000
# 3 -0.003361 -0.001441 0.015809 0.000000 0.000000 0.000000
# 4 0.000000 0.000000 0.000000 0.034470 0.000000 0.000000
# 5 0.000000 0.000000 0.000000 0.000000 0.120546 0.000000
# 6 0.000000 0.000000 0.000000 0.000000 0.000000 0.034640
#
#
# Mechanical properties :
#
#
# Convention : Reuss Voigt Hill
#
# Bulk Modulus (GPa) = 51.14625 57.35988 54.25306
# Shear Modulus (GPa) = 20.28469 28.33840 24.31154
#
# Velocity S-wave (km/s) = 3.11334 3.67985 3.40839
# Velocity P-wave (km/s) = 6.11259 6.74271 6.43537
#
# Compressibility (1/GPa) = 0.01955177
#
# Stress axis : x y z
#
# Youngs Moduli (GPa) = 109.46962 100.09357 63.25488
#
# Poissons Ratio (x) = 0.28925 0.21258
# Poissons Ratio (y) = 0.31634 0.09115
# Poissons Ratio (z) = 0.36790 0.14423
#
# Static dielectric constant tensor:
#      x y z
#    x 3.915270 0.000000 0.000000 
#    y 0.000000 4.073140 0.000000 
#    z 0.000000 0.000000 3.453430 
# 
# 
# High freq. dielectric constant tensor:
#      x y z
#    x 1.834250 0.000000 0.000000 
#    y 0.000000 1.840290 0.000000 
#    z 0.000000 0.000000 1.790840 
# 
# From -- ./inp_files/17349.got.cif
#   From: 2010.03.12/outbox.cif.g09.slc.cpg/sg46_9_cif.got.tgz:17349.got - 2010.04.14 02:56:35.
