data_PCOD8193319
_publ_section_title
;
Structure prediction by ZEFSAII (Michael W. Deem and Ramdas Pophale) SiO2 
 PCOD8193319
Probable space group: I M A 2
;
_chemical_formula_sum "Si O2"
_cell_formula_units_Z 48
_cell_length_a 22.728527
_cell_length_b 4.998911
_cell_length_c 20.001209
_cell_angle_alpha 90.000000
_cell_angle_beta 90.000000
_cell_angle_gamma 90.000000
_cell_volume 2272.495037
_symmetry_space_group_name_H-M "I M A 2"
_symmetry_group_IT_number 46
_symmetry_cell_setting 'orthorhombic'
loop_
_space_group_symop_operation_xyz
x,y,z
-x,-y,z
1/2-x,y,z
1/2+x,-y,z
1/2+x,1/2+y,1/2+z
1/2-x,1/2-y,1/2+z
-x,1/2+y,1/2+z
x,1/2-y,1/2+z
loop_
_atom_site_type_symbol
_atom_site_label
_atom_site_fract_x
_atom_site_fract_y
_atom_site_fract_z
Si Si1 0.160655 0.763316 0.905070
Si Si2 0.438777 0.640390 0.199801
Si Si3 0.038921 0.760197 0.851389
Si Si4 0.686348 0.777665 0.323082
Si Si5 0.750000 0.699955 0.607734
Si Si6 0.631033 0.841961 0.185900
Si Si7 0.750000 0.216403 0.519152
O O1 0.090775 0.698378 0.904560
O O2 0.193879 0.568960 0.854561
O O3 0.167983 0.068577 0.880622
O O4 0.189582 0.700412 0.976755
O O5 0.500000 0.500000 0.178116
O O6 0.434248 0.649055 0.280142
O O7 0.391577 0.448095 0.164386
O O8 0.419907 0.933790 0.171673
O O9 0.000000 0.500000 0.839838
O O10 0.000000 0.000000 0.881512
O O11 0.750000 0.692771 0.293107
O O12 0.638462 0.813452 0.265633
O O13 0.807126 0.612689 0.650059
O O14 0.750000 0.519099 0.543128
O O15 0.750000 0.005018 0.580619
#
# Coordination Sequence:
#
# PCOD8193319 Si02
#       7
#     8   8   8   8   4   8   4
#     4  12  23  39  64  90 132 164 203 261 318 387
#     4  11  22  37  61  97 137 168 196 247 323 401
#     4  11  21  35  58  95 132 163 193 243 314 388
#     4  12  20  36  59  99 125 162 199 252 339 390
#     4  12  28  44  66  90 124 172 226 272 316 364
#     4  12  22  40  63  93 133 166 207 262 322 389
#     4  12  26  46  62  90 122 174 224 268 318 364
#
# _framework density 21.122157999999999
#
# number of rings (size 3 to 8) (size 9 to 14) (size 15 to 20)
#    0.000    0.333    5.833    5.500    0.000    0.000 
#    0.000    0.000    0.000   10.000    0.000    0.000 
#    0.000    0.000    0.000    0.000    0.000    0.000 
#
# Total GULP energy -297381.945708 kJ/mol
# GULP energy per Si atom -12390.914405 kJ/mol
# Density = 2.107408 g / cm^3
# Si number density = 21.122158 Si / 1000 Ang^3
#
#
#
# Elastic Constant Matrix: (Units=GPa)
#
#
# Indices 1 2 3 4 5 6 
#
# 1 132.7682 39.5068 29.0338 0.0000 0.0000 0.0000
# 2 39.5068 123.6598 18.9077 0.0000 0.0000 0.0000
# 3 29.0338 18.9077 51.9972 0.0000 0.0000 0.0000
# 4 0.0000 0.0000 0.0000 25.5370 0.0000 0.0000
# 5 0.0000 0.0000 0.0000 0.0000 13.8209 0.0000
# 6 0.0000 0.0000 0.0000 0.0000 0.0000 38.9031
#
#
#
# Elastic Compliance Matrix: (Units=1/GPa)
#
#
# Indices 1 2 3 4 5 6 
#
# 1 0.009142 -0.002266 -0.004281 0.000000 0.000000 0.000000
# 2 -0.002266 0.009125 -0.002053 0.000000 0.000000 0.000000
# 3 -0.004281 -0.002053 0.022368 0.000000 0.000000 0.000000
# 4 0.000000 0.000000 0.000000 0.039159 0.000000 0.000000
# 5 0.000000 0.000000 0.000000 0.000000 0.072354 0.000000
# 6 0.000000 0.000000 0.000000 0.000000 0.000000 0.025705
#
#
# Mechanical properties :
#
#
# Convention : Reuss Voigt Hill
#
# Bulk Modulus (GPa) = 42.66899 53.70240 48.18570
# Shear Modulus (GPa) = 24.64699 30.38400 27.51550
#
# Velocity S-wave (km/s) = 3.41967 3.79686 3.61319
# Velocity P-wave (km/s) = 5.98641 6.68591 6.34580
#
# Compressibility (1/GPa) = 0.02343623
#
# Stress axis : x y z
#
# Youngs Moduli (GPa) = 109.38044 109.59424 44.70591
#
# Poissons Ratio (x) = 0.24837 0.19138
# Poissons Ratio (y) = 0.24789 0.09176
# Poissons Ratio (z) = 0.46823 0.22494
#
# Static dielectric constant tensor:
#      x y z
#    x 4.232200 0.000000 0.000000 
#    y 0.000000 4.032260 0.000000 
#    z 0.000000 0.000000 3.269280 
# 
# 
# High freq. dielectric constant tensor:
#      x y z
#    x 1.845900 0.000000 0.000000 
#    y 0.000000 1.852060 0.000000 
#    z 0.000000 0.000000 1.765830 
# 
# From -- ./inp_files/22372.got.cif
#   From: 2010.03.12/outbox.cif.g09.slc.cpg/sg46_12_cif.got.tgz:22372.got - 2010.04.14 02:56:35.
