data_PCOD8193337
_publ_section_title
;
Structure prediction by ZEFSAII (Michael W. Deem and Ramdas Pophale) SiO2 
 PCOD8193337
Probable space group: I M A 2
;
_chemical_formula_sum "Si O2"
_cell_formula_units_Z 40
_cell_length_a 8.989197
_cell_length_b 28.231740
_cell_length_c 9.370759
_cell_angle_alpha 90.000000
_cell_angle_beta 90.000000
_cell_angle_gamma 90.000000
_cell_volume 2378.117521
_symmetry_space_group_name_H-M "I M A 2"
_symmetry_group_IT_number 46
_symmetry_cell_setting 'orthorhombic'
loop_
_space_group_symop_operation_xyz
x,y,z
-x,-y,z
1/2-x,y,z
1/2+x,-y,z
1/2+x,1/2+y,1/2+z
1/2-x,1/2-y,1/2+z
-x,1/2+y,1/2+z
x,1/2-y,1/2+z
loop_
_atom_site_type_symbol
_atom_site_label
_atom_site_fract_x
_atom_site_fract_y
_atom_site_fract_z
Si Si1 0.917515 0.548207 0.360130
Si Si2 0.924696 0.787598 0.489046
Si Si3 0.420514 0.628323 0.487011
Si Si4 0.417086 0.140557 0.720334
Si Si5 0.576601 0.211944 0.187145
O O1 0.750000 0.535813 0.403630
O O2 0.925572 0.582679 0.219794
O O3 0.000000 0.500000 0.324063
O O4 0.990944 0.578012 0.491868
O O5 0.750000 0.782668 0.452644
O O6 0.961817 0.837484 0.568276
O O7 0.023153 0.786358 0.348628
O O8 0.974426 0.746218 0.594514
O O9 0.250000 0.615874 0.462901
O O10 0.477409 0.659244 0.349524
O O11 0.446479 0.658410 0.629935
O O12 0.250000 0.157389 0.758436
O O13 0.750000 0.226710 0.176919
#
# Coordination Sequence:
#
# PCOD8193337 Si02
#       5
#     8   8   8   8   8
#     4   9  17  31  53  80 107 132 172 219 263 310
#     4  11  22  36  54  75 103 143 184 219 264 318
#     4   9  18  32  51  74 103 136 172 211 259 312
#     4   8  18  33  50  74 103 132 171 216 257 308
#     4  11  23  36  51  76 108 141 178 222 269 315
#
# _framework density 16.820025999999999
#
# number of rings (size 3 to 8) (size 9 to 14) (size 15 to 20)
#    1.200    1.200    0.000    3.000    0.000    8.000 
#    0.000    0.000    0.000    1.200    0.000    5.600 
#    0.000    0.000    0.000    0.000    0.000    0.000 
#
# Total GULP energy -247768.635017 kJ/mol
# GULP energy per Si atom -12388.431751 kJ/mol
# Density = 1.678174 g / cm^3
# Si number density = 16.820026 Si / 1000 Ang^3
#
#
#
# Elastic Constant Matrix: (Units=GPa)
#
#
# Indices 1 2 3 4 5 6 
#
# 1 88.8418 41.0740 24.5294 -0.0002 -0.0007 0.0000
# 2 41.0740 89.6122 31.6039 -0.0003 0.0001 0.0000
# 3 24.5294 31.6039 78.4397 0.0074 -0.0012 0.0038
# 4 -0.0002 -0.0003 0.0074 22.3558 -0.0001 0.0005
# 5 -0.0007 0.0001 -0.0012 -0.0001 27.6157 0.0012
# 6 0.0000 0.0000 0.0038 0.0005 0.0012 27.8910
#
#
#
# Elastic Compliance Matrix: (Units=1/GPa)
#
#
# Indices 1 2 3 4 5 6 
#
# 1 0.014595 -0.005921 -0.002178 0.000001 0.000000 0.000000
# 2 -0.005921 0.015410 -0.004357 0.000002 0.000000 0.000001
# 3 -0.002178 -0.004357 0.015185 -0.000005 0.000001 -0.000002
# 4 0.000001 0.000002 -0.000005 0.044731 0.000000 -0.000001
# 5 0.000000 0.000000 0.000001 0.000000 0.036211 -0.000002
# 6 0.000000 0.000001 -0.000002 -0.000001 -0.000002 0.035854
#
#
# Mechanical properties :
#
#
# Convention : Reuss Voigt Hill
#
# Bulk Modulus (GPa) = 49.31773 50.14539 49.73156
# Shear Modulus (GPa) = 25.81857 26.21826 26.01841
#
# Velocity S-wave (km/s) = 3.92215 3.95239 3.93730
# Velocity P-wave (km/s) = 7.06367 7.12082 7.09230
#
# Compressibility (1/GPa) = 0.02027668
#
# Stress axis : x y z
#
# Youngs Moduli (GPa) = 68.51641 64.89328 65.85308
#
# Poissons Ratio (x) = 0.38426 0.14345
# Poissons Ratio (y) = 0.40572 0.28692
# Poissons Ratio (z) = 0.14925 0.28274
#
# Static dielectric constant tensor:
#      x y z
#    x 3.310330 0.000000 0.000000 
#    y 0.000000 3.100310 0.000000 
#    z 0.000000 0.000000 2.985110 
# 
# 
# High freq. dielectric constant tensor:
#      x y z
#    x 1.667830 0.000000 0.000000 
#    y 0.000000 1.638970 0.000000 
#    z 0.000000 0.000000 1.616690 
# 
# From -- ./inp_files/3677.got.cif
#   From: 2010.03.12/outbox.cif.g09.slc.cpg/sg46_2_cif.got.tgz:3677.got - 2010.04.14 02:56:35.
