data_PCOD8193756
_publ_section_title
;
Structure prediction by ZEFSAII (Michael W. Deem and Ramdas Pophale) SiO2 
 PCOD8193756
Probable space group: P M M M
;
_chemical_formula_sum "Si O2"
_cell_formula_units_Z 64
_cell_length_a 19.197271
_cell_length_b 9.043145
_cell_length_c 24.089564
_cell_angle_alpha 90.000000
_cell_angle_beta 90.000000
_cell_angle_gamma 90.000000
_cell_volume 4182.037568
_symmetry_space_group_name_H-M "P M M M"
_symmetry_group_IT_number 47
_symmetry_cell_setting 'orthorhombic'
loop_
_space_group_symop_operation_xyz
x,y,z
-x,-y,z
x,-y,-z
-x,y,-z
-x,-y,-z
x,y,-z
-x,y,z
x,-y,z
loop_
_atom_site_type_symbol
_atom_site_label
_atom_site_fract_x
_atom_site_fract_y
_atom_site_fract_z
Si Si1 0.713038 0.324434 0.939054
Si Si2 0.163521 0.675675 0.334767
Si Si3 0.722265 0.827898 0.272115
Si Si4 0.209228 0.674481 0.831389
Si Si5 0.923671 0.326443 0.229624
Si Si6 0.576668 0.169404 0.234035
Si Si7 0.576576 0.674674 0.880800
Si Si8 0.922008 0.675693 0.561600
O O1 0.712295 0.500000 0.941903
O O2 0.769706 0.272941 0.893279
O O3 0.636180 0.265475 0.922179
O O4 0.732171 0.259506 0.000000
O O5 0.172751 0.500000 0.334400
O O6 0.238917 0.748244 0.323459
O O7 0.110822 0.730247 0.286726
O O8 0.132880 0.735599 0.393092
O O9 0.744869 0.760696 0.213220
O O10 0.638695 0.801232 0.278388
O O11 0.741429 0.000000 0.273188
O O12 0.223155 0.500000 0.822713
O O13 0.127455 0.712409 0.821825
O O14 0.933489 0.500000 0.234558
O O15 0.000000 0.252365 0.220854
O O16 0.500000 0.205742 0.260003
O O17 0.590890 0.267548 0.180494
O O18 0.579523 0.000000 0.214280
O O19 0.500000 0.725060 0.902360
O O20 0.581249 0.500000 0.876957
O O21 0.898667 0.727993 0.500000
O O22 0.923717 0.500000 0.564584
O O23 0.000000 0.735108 0.574586
#
# Coordination Sequence:
#
# PCOD8193756 Si02
#       8
#     8   8   8   8   8   8   8   8
#     4   9  16  25  38  56  77  99 125 159 196 236
#     4   9  16  25  40  61  85 111 137 166 197 230
#     4  10  18  27  41  59  80 104 130 164 202 239
#     4   9  16  27  42  57  75  99 128 160 198 243
#     4   8  13  21  36  57  76  97 127 160 191 226
#     4   9  17  28  41  56  76 103 130 157 196 243
#     4   9  16  25  39  57  75  97 126 158 189 229
#     4   8  13  22  39  64  91 118 149 179 199 221
#
# _framework density 15.303545
#
# number of rings (size 3 to 8) (size 9 to 14) (size 15 to 20)
#    0.000    3.125    1.250    1.875    0.000    2.250 
#    0.000    1.250    0.000   11.625    0.000    5.250 
#    0.000    0.500    0.000   10.750    0.000    5.000 
#
# Total GULP energy -792913.221069 kJ/mol
# GULP energy per Si atom -12389.269079 kJ/mol
# Density = 1.526871 g / cm^3
# Si number density = 15.303545 Si / 1000 Ang^3
#
#
#
# Elastic Constant Matrix: (Units=GPa)
#
#
# Indices 1 2 3 4 5 6 
#
# 1 122.5719 18.0004 70.5341 0.0000 0.0000 0.0000
# 2 18.0004 19.0469 15.5241 0.0000 0.0000 0.0000
# 3 70.5341 15.5241 111.5198 0.0000 0.0000 0.0000
# 4 0.0000 0.0000 0.0000 3.8580 0.0000 0.0000
# 5 0.0000 0.0000 0.0000 0.0000 26.4728 0.0000
# 6 0.0000 0.0000 0.0000 0.0000 0.0000 14.0874
#
#
#
# Elastic Compliance Matrix: (Units=1/GPa)
#
#
# Indices 1 2 3 4 5 6 
#
# 1 0.013514 -0.006548 -0.007636 0.000000 0.000000 0.000000
# 2 -0.006548 0.062394 -0.004544 0.000000 0.000000 0.000000
# 3 -0.007636 -0.004544 0.014429 0.000000 0.000000 0.000000
# 4 0.000000 0.000000 0.000000 0.259198 0.000000 0.000000
# 5 0.000000 0.000000 0.000000 0.000000 0.037775 0.000000
# 6 0.000000 0.000000 0.000000 0.000000 0.000000 0.070986
#
#
# Mechanical properties :
#
#
# Convention : Reuss Voigt Hill
#
# Bulk Modulus (GPa) = 18.91029 51.25064 35.08047
# Shear Modulus (GPa) = 9.73940 18.82232 14.28086
#
# Velocity S-wave (km/s) = 2.52546 3.51084 3.05810
# Velocity P-wave (km/s) = 4.57029 7.07084 5.95333
#
# Compressibility (1/GPa) = 0.05288125
#
# Stress axis : x y z
#
# Youngs Moduli (GPa) = 73.99621 16.02720 69.30411
#
# Poissons Ratio (x) = 0.10495 0.52920
# Poissons Ratio (y) = 0.48453 0.31492
# Poissons Ratio (z) = 0.56503 0.07283
#
# Static dielectric constant tensor:
#      x y z
#    x 3.332040 0.000000 0.000000 
#    y 0.000000 2.631480 0.000000 
#    z 0.000000 0.000000 2.961820 
# 
# 
# High freq. dielectric constant tensor:
#      x y z
#    x 1.591330 0.000000 0.000000 
#    y 0.000000 1.553010 0.000000 
#    z 0.000000 0.000000 1.554940 
# 
# From -- ./inp_files/32256.got.cif
#   From: 2010.03.12/outbox.cif.g09.slc.cpg/sg47_17_cif.got.tgz:32256.got - 2010.04.14 03:12:58.
