data_PCOD8193833
_publ_section_title
;
Structure prediction by ZEFSAII (Michael W. Deem and Ramdas Pophale) SiO2 
 PCOD8193833
Probable space group: P M M M
;
_chemical_formula_sum "Si O2"
_cell_formula_units_Z 60
_cell_length_a 9.291845
_cell_length_b 19.431748
_cell_length_c 28.464186
_cell_angle_alpha 90.000000
_cell_angle_beta 90.000000
_cell_angle_gamma 90.000000
_cell_volume 5139.402068
_symmetry_space_group_name_H-M "P M M M"
_symmetry_group_IT_number 47
_symmetry_cell_setting 'orthorhombic'
loop_
_space_group_symop_operation_xyz
x,y,z
-x,-y,z
x,-y,-z
-x,y,-z
-x,-y,-z
x,y,-z
-x,y,z
x,-y,z
loop_
_atom_site_type_symbol
_atom_site_label
_atom_site_fract_x
_atom_site_fract_y
_atom_site_fract_z
Si Si1 0.661628 0.081818 0.948088
Si Si2 0.830783 0.836019 0.588039
Si Si3 0.833327 0.079223 0.680308
Si Si4 0.838745 0.575762 0.555727
Si Si5 0.170802 0.076439 0.500000
Si Si6 0.837873 0.917815 0.860332
Si Si7 0.668542 0.706891 0.445043
Si Si8 0.662287 0.081837 0.228768
O O1 0.500000 0.108544 0.938130
O O2 0.767720 0.111480 0.908329
O O3 0.662147 0.000000 0.946070
O O4 0.712885 0.106311 0.000000
O O5 0.792435 0.874071 0.636179
O O6 0.774431 0.884198 0.546027
O O7 0.745860 0.764713 0.585922
O O8 0.000000 0.821070 0.583241
O O9 0.740532 0.106772 0.723939
O O10 0.000000 0.086548 0.693973
O O11 0.797139 0.000000 0.667913
O O12 0.837424 0.574098 0.500000
O O13 0.792128 0.500000 0.574684
O O14 0.727812 0.633567 0.573498
O O15 0.000000 0.593507 0.573463
O O16 0.000000 0.071553 0.500000
O O17 0.237887 0.000000 0.500000
O O18 0.747680 0.888965 0.816226
O O19 0.000000 0.889586 0.856886
O O20 0.836757 0.000000 0.860277
O O21 0.705152 0.718096 0.500000
O O22 0.500000 0.709338 0.435469
O O23 0.500000 0.110868 0.227946
O O24 0.662112 0.000000 0.226892
#
# Coordination Sequence:
#
# PCOD8193833 Si02
#       8
#     8   8   8   8   4   8   8   8
#     4   8  13  20  28  38  54  75  95 113 135 168
#     4  10  18  28  42  55  67  85 106 130 158 191
#     4   9  17  28  40  53  65  76  97 132 168 196
#     4   8  14  25  41  58  73  89 109 129 146 168
#     4   9  16  26  41  57  66  77 104 135 159 188
#     4   9  15  21  30  43  57  72  91 117 145 173
#     4  10  19  28  38  53  74  94 109 126 148 178
#     4   9  16  25  36  47  58  74  94 117 150 191
#
# _framework density 11.674509
#
# number of rings (size 3 to 8) (size 9 to 14) (size 15 to 20)
#    0.000    3.000    0.667    2.400    0.000    6.400 
#    0.000    2.667    0.000    1.600    0.000    0.000 
#    0.000    0.000    0.000    0.000    0.000    0.000 
#
# Total GULP energy -743747.991104 kJ/mol
# GULP energy per Si atom -12395.799852 kJ/mol
# Density = 1.164794 g / cm^3
# Si number density = 11.674509 Si / 1000 Ang^3
#
#
#
# Elastic Constant Matrix: (Units=GPa)
#
#
# Indices 1 2 3 4 5 6 
#
# 1 76.9437 29.8258 51.5796 0.0000 0.0000 0.0000
# 2 29.8258 53.5715 25.8688 0.0000 0.0000 0.0000
# 3 51.5796 25.8688 88.7539 0.0000 0.0000 0.0000
# 4 0.0000 0.0000 0.0000 1.1439 0.0000 0.0000
# 5 0.0000 0.0000 0.0000 0.0000 19.3603 0.0000
# 6 0.0000 0.0000 0.0000 0.0000 0.0000 8.6029
#
#
#
# Elastic Compliance Matrix: (Units=1/GPa)
#
#
# Indices 1 2 3 4 5 6 
#
# 1 0.023688 -0.007612 -0.011548 0.000000 0.000000 0.000000
# 2 -0.007612 0.024170 -0.002621 0.000000 0.000000 0.000000
# 3 -0.011548 -0.002621 0.018742 0.000000 0.000000 0.000000
# 4 0.000000 0.000000 0.000000 0.874186 0.000000 0.000000
# 5 0.000000 0.000000 0.000000 0.000000 0.051652 0.000000
# 6 0.000000 0.000000 0.000000 0.000000 0.000000 0.116240
#
#
# Mechanical properties :
#
#
# Convention : Reuss Voigt Hill
#
# Bulk Modulus (GPa) = 43.40516 48.20194 45.80355
# Shear Modulus (GPa) = 4.31064 13.28774 8.79919
#
# Velocity S-wave (km/s) = 1.92363 3.37736 2.74836
# Velocity P-wave (km/s) = 6.49569 7.52240 7.02782
#
# Compressibility (1/GPa) = 0.02303873
#
# Stress axis : x y z
#
# Youngs Moduli (GPa) = 42.21469 41.37296 53.35573
#
# Poissons Ratio (x) = 0.31494 0.61615
# Poissons Ratio (y) = 0.32135 0.13985
# Poissons Ratio (z) = 0.48749 0.10844
#
# Static dielectric constant tensor:
#      x y z
#    x 2.516300 0.000000 0.000000 
#    y 0.000000 2.198840 0.000000 
#    z 0.000000 0.000000 2.426230 
# 
# 
# High freq. dielectric constant tensor:
#      x y z
#    x 1.448360 0.000000 0.000000 
#    y 0.000000 1.387980 0.000000 
#    z 0.000000 0.000000 1.425930 
# 
# From -- ./inp_files/33489.got.cif
#   From: 2010.03.12/outbox.cif.g09.slc.cpg/sg47_17_cif.got.tgz:33489.got - 2010.04.14 03:12:58.
