data_PCOD8193247
_publ_section_title
;
Structure prediction by ZEFSAII (Michael W. Deem and Ramdas Pophale) SiO2 
 PCOD8193247
Probable space group: I M A 2
;
_chemical_formula_sum "Si O2"
_cell_formula_units_Z 40
_cell_length_a 8.589223
_cell_length_b 28.414814
_cell_length_c 7.722237
_cell_angle_alpha 90.000000
_cell_angle_beta 90.000000
_cell_angle_gamma 90.000000
_cell_volume 1884.698228
_symmetry_space_group_name_H-M "I M A 2"
_symmetry_group_IT_number 46
_symmetry_cell_setting 'orthorhombic'
loop_
_space_group_symop_operation_xyz
x,y,z
-x,-y,z
1/2-x,y,z
1/2+x,-y,z
1/2+x,1/2+y,1/2+z
1/2-x,1/2-y,1/2+z
-x,1/2+y,1/2+z
x,1/2-y,1/2+z
loop_
_atom_site_type_symbol
_atom_site_label
_atom_site_fract_x
_atom_site_fract_y
_atom_site_fract_z
Si Si1 0.927478 0.800325 0.318390
Si Si2 0.568010 0.615358 0.292603
Si Si3 0.429541 0.791979 0.676841
Si Si4 0.427114 0.099138 0.173470
Si Si5 0.431916 0.948659 0.493200
O O1 0.750000 0.796785 0.384467
O O2 0.950843 0.845129 0.195734
O O3 0.042097 0.807193 0.479656
O O4 0.969234 0.754186 0.210633
O O5 0.750000 0.625886 0.272929
O O6 0.479556 0.665170 0.299752
O O7 0.532545 0.588019 0.472604
O O8 0.513671 0.585189 0.130080
O O9 0.250000 0.780226 0.709535
O O10 0.250000 0.084464 0.216803
O O11 0.538167 0.069159 0.297952
O O12 0.250000 0.949166 0.530826
O O13 0.500000 0.000000 0.519024
#
# Coordination Sequence:
#
# PCOD8193247 Si02
#       5
#     8   8   8   8   8
#     4  11  22  39  63  91 130 179 225 268 329 399
#     4  11  23  43  69  98 134 175 223 273 333 400
#     4  12  24  38  60  95 135 174 222 277 331 389
#     4  10  23  43  69  97 130 174 222 273 329 396
#     4  12  26  45  71  99 133 174 221 278 340 399
#
# _framework density 21.223557
#
# number of rings (size 3 to 8) (size 9 to 14) (size 15 to 20)
#    0.000    0.800    2.000    6.000    0.000    4.800 
#    0.000    0.000    0.000    0.000    0.000    0.000 
#    0.000    0.000    0.000    0.000    0.000    0.000 
#
# Total GULP energy -248125.135208 kJ/mol
# GULP energy per Si atom -12406.256760 kJ/mol
# Density = 2.117525 g / cm^3
# Si number density = 21.223557 Si / 1000 Ang^3
#
#
#
# Elastic Constant Matrix: (Units=GPa)
#
#
# Indices 1 2 3 4 5 6 
#
# 1 72.2449 13.7852 18.2544 0.0000 -0.0005 0.0000
# 2 13.7852 69.4981 -4.9659 0.0022 -0.0022 -0.0019
# 3 18.2544 -4.9659 88.1476 0.0057 -0.0069 0.0003
# 4 0.0000 0.0022 0.0057 26.5352 -0.0001 0.0007
# 5 -0.0005 -0.0022 -0.0069 -0.0001 25.0380 0.0034
# 6 0.0000 -0.0019 0.0003 0.0007 0.0034 31.8482
#
#
#
# Elastic Compliance Matrix: (Units=1/GPa)
#
#
# Indices 1 2 3 4 5 6 
#
# 1 0.015315 -0.003278 -0.003356 0.000001 -0.000001 0.000000
# 2 -0.003278 0.015148 0.001532 -0.000002 0.000002 0.000001
# 3 -0.003356 0.001532 0.012126 -0.000003 0.000003 0.000000
# 4 0.000001 -0.000002 -0.000003 0.037686 0.000000 -0.000001
# 5 -0.000001 0.000002 0.000003 0.000000 0.039939 -0.000004
# 6 0.000000 0.000001 0.000000 -0.000001 -0.000004 0.031399
#
#
# Mechanical properties :
#
#
# Convention : Reuss Voigt Hill
#
# Bulk Modulus (GPa) = 30.87735 31.55980 31.21857
# Shear Modulus (GPa) = 28.96661 30.20543 29.58602
#
# Velocity S-wave (km/s) = 3.69837 3.77663 3.73771
# Velocity P-wave (km/s) = 5.72865 5.82406 5.77655
#
# Compressibility (1/GPa) = 0.03238620
#
# Stress axis : x y z
#
# Youngs Moduli (GPa) = 65.29437 66.01322 82.46764
#
# Poissons Ratio (x) = 0.21637 0.27678
# Poissons Ratio (y) = 0.21401 -0.12635
# Poissons Ratio (z) = 0.21915 -0.10114
#
# Static dielectric constant tensor:
#      x y z
#    x 3.837830 0.000000 0.000000 
#    y 0.000000 3.802890 -0.000010 
#    z 0.000000 -0.000010 3.878730 
# 
# 
# High freq. dielectric constant tensor:
#      x y z
#    x 1.836520 0.000000 0.000000 
#    y 0.000000 1.830330 0.000000 
#    z 0.000000 0.000000 1.841930 
# 
# From -- ./inp_files/3667.got.cif
#   From: 2010.03.12/outbox.cif.g09.slc.cpg/sg46_2_cif.got.tgz:3667.got - 2010.04.14 02:56:35.
