data_PCOD8193445
_publ_section_title
;
Structure prediction by ZEFSAII (Michael W. Deem and Ramdas Pophale) SiO2 
 PCOD8193445
Probable space group: P M M M
;
_chemical_formula_sum "Si O2"
_cell_formula_units_Z 60
_cell_length_a 12.923016
_cell_length_b 24.862639
_cell_length_c 14.592605
_cell_angle_alpha 90.000000
_cell_angle_beta 90.000000
_cell_angle_gamma 90.000000
_cell_volume 4688.608096
_symmetry_space_group_name_H-M "P M M M"
_symmetry_group_IT_number 47
_symmetry_cell_setting 'orthorhombic'
loop_
_space_group_symop_operation_xyz
x,y,z
-x,-y,z
x,-y,-z
-x,y,-z
-x,-y,-z
x,y,-z
-x,y,z
x,-y,z
loop_
_atom_site_type_symbol
_atom_site_label
_atom_site_fract_x
_atom_site_fract_y
_atom_site_fract_z
Si Si1 0.622814 0.159641 0.602477
Si Si2 0.377411 0.230119 0.099765
Si Si3 0.622922 0.890552 0.900136
Si Si4 0.622499 0.266919 0.292989
Si Si5 0.500000 0.560083 0.391403
Si Si6 0.114883 0.560052 0.391259
Si Si7 0.623424 0.940625 0.716249
Si Si8 0.694430 0.629318 0.609039
O O1 0.668146 0.165134 0.500000
O O2 0.500000 0.156939 0.599719
O O3 0.657429 0.210560 0.662510
O O4 0.666800 0.104490 0.646747
O O5 0.500000 0.226445 0.101160
O O6 0.333414 0.169886 0.112810
O O7 0.343114 0.266902 0.185765
O O8 0.340525 0.253384 0.000000
O O9 0.500000 0.888591 0.894688
O O10 0.665609 0.928088 0.818765
O O11 0.657781 0.913172 0.000000
O O12 0.500000 0.276503 0.305940
O O13 0.685816 0.313209 0.343332
O O14 0.500000 0.500000 0.349267
O O15 0.500000 0.556342 0.500000
O O16 0.398715 0.591344 0.357249
O O17 0.120643 0.558153 0.500000
O O18 0.139122 0.500000 0.353658
O O19 0.199523 0.602242 0.355160
O O20 0.000000 0.578264 0.359274
O O21 0.500000 0.939298 0.715820
O O22 0.663257 0.000000 0.687116
O O23 0.691866 0.637585 0.500000
#
# Coordination Sequence:
#
# PCOD8193445 Si02
#       8
#     8   8   8   8   4   8   8   8
#     4   9  16  23  29  36  51  80 110 138 172 205
#     4   8  13  21  33  44  56  79 109 139 173 211
#     4   8  12  19  29  39  50  66  93 133 181 219
#     4  10  16  23  33  46  67  88 112 142 175 212
#     4   9  16  24  32  46  73 101 118 138 170 203
#     4   8  14  25  39  52  69  97 128 151 170 196
#     4   9  15  21  27  36  49  68 102 144 179 210
#     4  10  17  23  33  52  74  97 122 144 170 204
#
# _framework density 12.796975
#
# number of rings (size 3 to 8) (size 9 to 14) (size 15 to 20)
#    0.000    3.133    2.000    2.000    0.000    2.667 
#    0.000    2.667    0.000    0.000    0.000    0.000 
#    0.000    3.200    0.000    1.467    0.000    0.800 
#
# Total GULP energy -743364.155762 kJ/mol
# GULP energy per Si atom -12389.402596 kJ/mol
# Density = 1.276785 g / cm^3
# Si number density = 12.796975 Si / 1000 Ang^3
#
#
#
# Elastic Constant Matrix: (Units=GPa)
#
#
# Indices 1 2 3 4 5 6 
#
# 1 39.6305 31.2878 16.6324 0.0000 0.0000 0.0000
# 2 31.2878 97.9173 42.1527 0.0000 0.0000 0.0000
# 3 16.6324 42.1527 78.2214 0.0000 0.0000 0.0000
# 4 0.0000 0.0000 0.0000 12.9218 0.0000 0.0000
# 5 0.0000 0.0000 0.0000 0.0000 3.2166 0.0000
# 6 0.0000 0.0000 0.0000 0.0000 0.0000 6.6577
#
#
#
# Elastic Compliance Matrix: (Units=1/GPa)
#
#
# Indices 1 2 3 4 5 6 
#
# 1 0.033937 -0.010075 -0.001787 0.000000 0.000000 0.000000
# 2 -0.010075 0.016288 -0.006635 0.000000 0.000000 0.000000
# 3 -0.001787 -0.006635 0.016740 0.000000 0.000000 0.000000
# 4 0.000000 0.000000 0.000000 0.077388 0.000000 0.000000
# 5 0.000000 0.000000 0.000000 0.000000 0.310889 0.000000
# 6 0.000000 0.000000 0.000000 0.000000 0.000000 0.150201
#
#
# Mechanical properties :
#
#
# Convention : Reuss Voigt Hill
#
# Bulk Modulus (GPa) = 33.36547 43.99054 38.67801
# Shear Modulus (GPa) = 7.66368 12.93898 10.30133
#
# Velocity S-wave (km/s) = 2.44983 3.18322 2.84030
# Velocity P-wave (km/s) = 5.84224 6.92538 6.40674
#
# Compressibility (1/GPa) = 0.02997111
#
# Stress axis : x y z
#
# Youngs Moduli (GPa) = 29.46651 61.39332 59.73723
#
# Poissons Ratio (x) = 0.61852 0.10675
# Poissons Ratio (y) = 0.29687 0.39638
# Poissons Ratio (z) = 0.05265 0.40737
#
# Static dielectric constant tensor:
#      x y z
#    x 2.156430 0.000000 0.000000 
#    y 0.000000 2.681790 0.000000 
#    z 0.000000 0.000000 2.731130 
# 
# 
# High freq. dielectric constant tensor:
#      x y z
#    x 1.411850 0.000000 0.000000 
#    y 0.000000 1.489250 0.000000 
#    z 0.000000 0.000000 1.473800 
# 
# From -- ./inp_files/23147.got.cif
#   From: 2010.03.12/outbox.cif.g09.slc.cpg/sg47_12_cif.got.tgz:23147.got - 2010.04.14 03:12:58.
