data_PCOD8193424
_publ_section_title
;
Structure prediction by ZEFSAII (Michael W. Deem and Ramdas Pophale) SiO2 
 PCOD8193424
Probable space group: I M A 2
;
_chemical_formula_sum "Si O2"
_cell_formula_units_Z 32
_cell_length_a 16.215546
_cell_length_b 4.814266
_cell_length_c 17.083190
_cell_angle_alpha 90.000000
_cell_angle_beta 90.000000
_cell_angle_gamma 90.000000
_cell_volume 1333.615487
_symmetry_space_group_name_H-M "I M A 2"
_symmetry_group_IT_number 46
_symmetry_cell_setting 'orthorhombic'
loop_
_space_group_symop_operation_xyz
x,y,z
-x,-y,z
1/2-x,y,z
1/2+x,-y,z
1/2+x,1/2+y,1/2+z
1/2-x,1/2-y,1/2+z
-x,1/2+y,1/2+z
x,1/2-y,1/2+z
loop_
_atom_site_type_symbol
_atom_site_label
_atom_site_fract_x
_atom_site_fract_y
_atom_site_fract_z
Si Si1 0.592613 0.892013 0.219400
Si Si2 0.844634 0.611178 0.553282
Si Si3 0.907956 0.390098 0.965078
Si Si4 0.656006 0.379761 0.306778
O O1 0.619586 0.772966 0.135123
O O2 0.602618 0.649213 0.283618
O O3 0.500000 0.000000 0.221212
O O4 0.652181 0.150471 0.238502
O O5 0.750000 0.518361 0.560677
O O6 0.899994 0.345911 0.530988
O O7 0.850206 0.850462 0.487642
O O8 0.881136 0.258403 0.883717
O O9 0.000000 0.500000 0.960088
O O10 0.750000 0.472926 0.320590
#
# Coordination Sequence:
#
# PCOD8193424 Si02
#       4
#     8   8   8   8
#     4  12  26  45  70 103 142 187 234 288 348 415
#     4  12  25  46  72 104 142 186 233 288 349 416
#     4  12  26  46  72 104 141 185 233 289 350 416
#     4  12  25  45  70 103 141 186 236 289 347 415
#
# _framework density 23.99492
#
# number of rings (size 3 to 8) (size 9 to 14) (size 15 to 20)
#    0.000    0.000    0.000   11.250    0.000    2.000 
#    0.000    0.000    0.000    0.000    0.000    0.000 
#    0.000    0.000    0.000    0.000    0.000    0.000 
#
# Total GULP energy -198531.830228 kJ/mol
# GULP energy per Si atom -12408.239389 kJ/mol
# Density = 2.394031 g / cm^3
# Si number density = 23.994920 Si / 1000 Ang^3
#
#
#
# Elastic Constant Matrix: (Units=GPa)
#
#
# Indices 1 2 3 4 5 6 
#
# 1 166.0980 68.8049 90.9862 0.0000 0.0000 0.0000
# 2 68.8049 148.7686 49.5779 0.0000 0.0000 0.0000
# 3 90.9862 49.5779 121.5002 0.0000 0.0000 0.0000
# 4 0.0000 0.0000 0.0000 53.9319 0.0000 0.0000
# 5 0.0000 0.0000 0.0000 0.0000 37.6736 0.0000
# 6 0.0000 0.0000 0.0000 0.0000 0.0000 43.5105
#
#
#
# Elastic Compliance Matrix: (Units=1/GPa)
#
#
# Indices 1 2 3 4 5 6 
#
# 1 0.011092 -0.002734 -0.007191 0.000000 0.000000 0.000000
# 2 -0.002734 0.008453 -0.001402 0.000000 0.000000 0.000000
# 3 -0.007191 -0.001402 0.014188 0.000000 0.000000 0.000000
# 4 0.000000 0.000000 0.000000 0.018542 0.000000 0.000000
# 5 0.000000 0.000000 0.000000 0.000000 0.026544 0.000000
# 6 0.000000 0.000000 0.000000 0.000000 0.000000 0.022983
#
#
# Mechanical properties :
#
#
# Convention : Reuss Voigt Hill
#
# Bulk Modulus (GPa) = 90.25742 95.01163 92.63453
# Shear Modulus (GPa) = 39.01725 42.15637 40.58681
#
# Velocity S-wave (km/s) = 4.03682 4.19607 4.11722
# Velocity P-wave (km/s) = 7.70875 7.94723 7.82890
#
# Compressibility (1/GPa) = 0.01107942
#
# Stress axis : x y z
#
# Youngs Moduli (GPa) = 90.15530 118.29462 70.48417
#
# Poissons Ratio (x) = 0.32337 0.50684
# Poissons Ratio (y) = 0.24645 0.09884
# Poissons Ratio (z) = 0.64829 0.16589
#
# Static dielectric constant tensor:
#      x y z
#    x 4.423810 0.000000 0.000000 
#    y 0.000000 4.592270 0.000000 
#    z 0.000000 0.000000 4.520600 
# 
# 
# High freq. dielectric constant tensor:
#      x y z
#    x 1.959400 0.000000 0.000000 
#    y 0.000000 1.967580 0.000000 
#    z 0.000000 0.000000 1.963440 
# 
# From -- ./inp_files/19109.got.cif
#   From: 2010.03.12/outbox.cif.g09.slc.cpg/sg46_10_cif.got.tgz:19109.got - 2010.04.14 02:56:35.
