data_PCOD8193755
_publ_section_title
;
Structure prediction by ZEFSAII (Michael W. Deem and Ramdas Pophale) SiO2 
 PCOD8193755
Probable space group: P M M M
;
_chemical_formula_sum "Si O2"
_cell_formula_units_Z 64
_cell_length_a 9.134140
_cell_length_b 18.517782
_cell_length_c 26.870740
_cell_angle_alpha 90.000000
_cell_angle_beta 90.000000
_cell_angle_gamma 90.000000
_cell_volume 4545.024803
_symmetry_space_group_name_H-M "P M M M"
_symmetry_group_IT_number 47
_symmetry_cell_setting 'orthorhombic'
loop_
_space_group_symop_operation_xyz
x,y,z
-x,-y,z
x,-y,-z
-x,y,-z
-x,-y,-z
x,y,-z
-x,y,z
x,-y,z
loop_
_atom_site_type_symbol
_atom_site_label
_atom_site_fract_x
_atom_site_fract_y
_atom_site_fract_z
Si Si1 0.335368 0.085710 0.445553
Si Si2 0.670889 0.322935 0.944188
Si Si3 0.172223 0.082598 0.650784
Si Si4 0.668376 0.283031 0.196875
Si Si5 0.665992 0.842251 0.261931
Si Si6 0.329606 0.578894 0.854347
Si Si7 0.670286 0.917826 0.157541
Si Si8 0.827042 0.794815 0.889985
O O1 0.281789 0.114126 0.500000
O O2 0.500000 0.113104 0.435418
O O3 0.232264 0.114345 0.401392
O O4 0.331192 0.000000 0.446184
O O5 0.500000 0.307458 0.935207
O O6 0.729588 0.382611 0.904725
O O7 0.757390 0.247573 0.936758
O O8 0.700513 0.351538 0.000000
O O9 0.226503 0.133655 0.694791
O O10 0.000000 0.086684 0.648577
O O11 0.225616 0.000000 0.659710
O O12 0.500000 0.267731 0.179033
O O13 0.689576 0.244090 0.250498
O O14 0.698576 0.369627 0.194368
O O15 0.782733 0.247894 0.159487
O O16 0.500000 0.857492 0.279233
O O17 0.703068 0.886703 0.212296
O O18 0.500000 0.566098 0.861436
O O19 0.253753 0.500000 0.846897
O O20 0.500000 0.910499 0.144712
O O21 0.761561 0.875475 0.115242
O O22 0.723802 0.000000 0.156597
O O23 0.000000 0.798969 0.896211
#
# Coordination Sequence:
#
# PCOD8193755 Si02
#       8
#     8   8   8   8   8   8   8   8
#     4   8  14  25  39  51  64  89 127 165 198 235
#     4   9  17  29  44  60  79 103 127 149 176 215
#     4  10  19  26  33  50  75  99 125 163 206 237
#     4   8  15  28  42  56  76 102 130 154 180 221
#     4   9  16  26  39  53  72  99 128 155 183 220
#     4   8  13  23  42  66  85  98 119 154 187 213
#     4   9  17  29  44  59  75  97 124 154 190 231
#     4  10  18  27  41  59  78  99 123 152 184 219
#
# _framework density 14.081331
#
# number of rings (size 3 to 8) (size 9 to 14) (size 15 to 20)
#    0.000    3.125    0.000    3.750    0.000    4.250 
#    0.000    2.500    0.000    6.375    0.000    6.125 
#    0.000    0.000    0.000    0.000    0.000    0.625 
#
# Total GULP energy -792868.905071 kJ/mol
# GULP energy per Si atom -12388.576642 kJ/mol
# Density = 1.404928 g / cm^3
# Si number density = 14.081331 Si / 1000 Ang^3
#
#
#
# Elastic Constant Matrix: (Units=GPa)
#
#
# Indices 1 2 3 4 5 6 
#
# 1 49.8436 28.7663 27.0665 0.0000 0.0000 0.0000
# 2 28.7663 100.6316 44.3143 0.0000 0.0000 0.0000
# 3 27.0665 44.3143 68.3032 0.0000 0.0000 0.0000
# 4 0.0000 0.0000 0.0000 10.4776 0.0000 0.0000
# 5 0.0000 0.0000 0.0000 0.0000 12.9766 0.0000
# 6 0.0000 0.0000 0.0000 0.0000 0.0000 7.7955
#
#
#
# Elastic Compliance Matrix: (Units=1/GPa)
#
#
# Indices 1 2 3 4 5 6 
#
# 1 0.026759 -0.004172 -0.007897 0.000000 0.000000 0.000000
# 2 -0.004172 0.014562 -0.007795 0.000000 0.000000 0.000000
# 3 -0.007897 -0.007795 0.022827 0.000000 0.000000 0.000000
# 4 0.000000 0.000000 0.000000 0.095442 0.000000 0.000000
# 5 0.000000 0.000000 0.000000 0.000000 0.077062 0.000000
# 6 0.000000 0.000000 0.000000 0.000000 0.000000 0.128279
#
#
# Mechanical properties :
#
#
# Convention : Reuss Voigt Hill
#
# Bulk Modulus (GPa) = 40.94822 46.56364 43.75593
# Shear Modulus (GPa) = 12.11247 14.15870 13.13559
#
# Velocity S-wave (km/s) = 2.93606 3.17439 3.05755
# Velocity P-wave (km/s) = 6.37471 6.82460 6.60348
#
# Compressibility (1/GPa) = 0.02442109
#
# Stress axis : x y z
#
# Youngs Moduli (GPa) = 37.37100 68.67094 43.80754
#
# Poissons Ratio (x) = 0.28647 0.34596
# Poissons Ratio (y) = 0.15590 0.34147
# Poissons Ratio (z) = 0.29513 0.53527
#
# Static dielectric constant tensor:
#      x y z
#    x 2.620100 0.000000 0.000000 
#    y 0.000000 2.927580 0.000000 
#    z 0.000000 0.000000 2.781540 
# 
# 
# High freq. dielectric constant tensor:
#      x y z
#    x 1.526500 0.000000 0.000000 
#    y 0.000000 1.512500 0.000000 
#    z 0.000000 0.000000 1.511660 
# 
# From -- ./inp_files/28955.got.cif
#   From: 2010.03.12/outbox.cif.g09.slc.cpg/sg47_15_cif.got.tgz:28955.got - 2010.04.14 03:12:58.
