data_PCOD8193534
_publ_section_title
;
Structure prediction by ZEFSAII (Michael W. Deem and Ramdas Pophale) SiO2 
 PCOD8193534
Probable space group: P M M M
;
_chemical_formula_sum "Si O2"
_cell_formula_units_Z 64
_cell_length_a 8.926152
_cell_length_b 20.581938
_cell_length_c 20.029187
_cell_angle_alpha 90.000000
_cell_angle_beta 90.000000
_cell_angle_gamma 90.000000
_cell_volume 3679.712304
_symmetry_space_group_name_H-M "P M M M"
_symmetry_group_IT_number 47
_symmetry_cell_setting 'orthorhombic'
loop_
_space_group_symop_operation_xyz
x,y,z
-x,-y,z
x,-y,-z
-x,y,-z
-x,-y,-z
x,y,-z
-x,y,z
x,-y,z
loop_
_atom_site_type_symbol
_atom_site_label
_atom_site_fract_x
_atom_site_fract_y
_atom_site_fract_z
Si Si1 0.331673 0.781604 0.070363
Si Si2 0.176142 0.816007 0.343045
Si Si3 0.174479 0.364225 0.796505
Si Si4 0.331816 0.627050 0.927009
Si Si5 0.671141 0.925561 0.577458
Si Si6 0.320768 0.226237 0.212988
Si Si7 0.176126 0.428789 0.339715
Si Si8 0.821350 0.309189 0.424575
O O1 0.500000 0.808254 0.066338
O O2 0.332613 0.704290 0.073373
O O3 0.261532 0.804176 0.141453
O O4 0.249830 0.803619 0.000000
O O5 0.215082 0.882025 0.380845
O O6 0.257504 0.818451 0.271619
O O7 0.235789 0.754640 0.385718
O O8 0.000000 0.811411 0.331313
O O9 0.226552 0.396974 0.866435
O O10 0.262119 0.299024 0.777967
O O11 0.210458 0.414674 0.737733
O O12 0.000000 0.347045 0.800666
O O13 0.500000 0.600903 0.915008
O O14 0.273647 0.602369 0.000000
O O15 0.707626 0.915443 0.500000
O O16 0.500000 0.905457 0.592670
O O17 0.698298 0.000000 0.598064
O O18 0.500000 0.227503 0.214010
O O19 0.243854 0.500000 0.357335
O O20 0.244798 0.373265 0.387917
O O21 0.000000 0.429830 0.351826
O O22 0.758829 0.307365 0.500000
O O23 0.000000 0.310033 0.424430
#
# Coordination Sequence:
#
# PCOD8193534 Si02
#       8
#     8   8   8   8   8   8   8   8
#     4   7  11  21  37  58  84 114 150 190 229 274
#     4  11  20  31  48  74 105 132 162 203 246 285
#     4  10  17  27  43  65  91 116 150 198 248 294
#     4   8  14  25  41  61  85 115 150 186 229 286
#     4   9  19  36  55  75 102 136 171 203 237 286
#     4  10  18  28  45  67  93 129 165 196 241 294
#     4   9  17  29  44  63  89 120 154 197 249 300
#     4   9  17  29  45  67  93 119 151 195 245 291
#
# _framework density 17.392662999999999
#
# number of rings (size 3 to 8) (size 9 to 14) (size 15 to 20)
#    0.000    2.875    1.250    3.375    0.000    1.500 
#    0.000    1.875    0.000    3.000    0.000    2.625 
#    0.000    1.500    0.000    5.750    0.000    1.750 
#
# Total GULP energy -792913.517716 kJ/mol
# GULP energy per Si atom -12389.273714 kJ/mol
# Density = 1.735308 g / cm^3
# Si number density = 17.392663 Si / 1000 Ang^3
#
#
#
# Elastic Constant Matrix: (Units=GPa)
#
#
# Indices 1 2 3 4 5 6 
#
# 1 46.0196 18.3987 35.3298 0.0000 0.0000 0.0000
# 2 18.3987 69.2196 48.7227 0.0000 0.0000 0.0000
# 3 35.3298 48.7227 153.2596 0.0000 0.0000 0.0000
# 4 0.0000 0.0000 0.0000 13.9779 0.0000 0.0000
# 5 0.0000 0.0000 0.0000 0.0000 24.5277 0.0000
# 6 0.0000 0.0000 0.0000 0.0000 0.0000 11.5608
#
#
#
# Elastic Compliance Matrix: (Units=1/GPa)
#
#
# Indices 1 2 3 4 5 6 
#
# 1 0.027086 -0.003613 -0.005095 0.000000 0.000000 0.000000
# 2 -0.003613 0.019093 -0.005237 0.000000 0.000000 0.000000
# 3 -0.005095 -0.005237 0.009364 0.000000 0.000000 0.000000
# 4 0.000000 0.000000 0.000000 0.071541 0.000000 0.000000
# 5 0.000000 0.000000 0.000000 0.000000 0.040770 0.000000
# 6 0.000000 0.000000 0.000000 0.000000 0.000000 0.086499
#
#
# Mechanical properties :
#
#
# Convention : Reuss Voigt Hill
#
# Bulk Modulus (GPa) = 36.16242 52.60014 44.38128
# Shear Modulus (GPa) = 17.15482 21.08313 19.11897
#
# Velocity S-wave (km/s) = 3.14399 3.48542 3.31910
# Velocity P-wave (km/s) = 5.83236 6.81953 6.34517
#
# Compressibility (1/GPa) = 0.02765302
#
# Stress axis : x y z
#
# Youngs Moduli (GPa) = 36.91933 52.37395 106.78749
#
# Poissons Ratio (x) = 0.18923 0.54412
# Poissons Ratio (y) = 0.13339 0.55926
# Poissons Ratio (z) = 0.18812 0.27429
#
# Static dielectric constant tensor:
#      x y z
#    x 2.963160 0.000000 0.000000 
#    y 0.000000 2.901090 0.000000 
#    z 0.000000 0.000000 3.865600 
# 
# 
# High freq. dielectric constant tensor:
#      x y z
#    x 1.637670 0.000000 0.000000 
#    y 0.000000 1.623650 0.000000 
#    z 0.000000 0.000000 1.694590 
# 
# From -- ./inp_files/30013.got.cif
#   From: 2010.03.12/outbox.cif.g09.slc.cpg/sg47_16_cif.got.tgz:30013.got - 2010.04.14 03:12:58.
