data_PCOD8193835
_publ_section_title
;
Structure prediction by ZEFSAII (Michael W. Deem and Ramdas Pophale) SiO2 
 PCOD8193835
Probable space group: P M M M
;
_chemical_formula_sum "Si O2"
_cell_formula_units_Z 40
_cell_length_a 19.009842
_cell_length_b 10.412671
_cell_length_c 13.629133
_cell_angle_alpha 90.000000
_cell_angle_beta 90.000000
_cell_angle_gamma 90.000000
_cell_volume 2697.794615
_symmetry_space_group_name_H-M "P M M M"
_symmetry_group_IT_number 47
_symmetry_cell_setting 'orthorhombic'
loop_
_space_group_symop_operation_xyz
x,y,z
-x,-y,z
x,-y,-z
-x,y,-z
-x,-y,-z
x,y,-z
-x,y,z
x,-y,z
loop_
_atom_site_type_symbol
_atom_site_label
_atom_site_fract_x
_atom_site_fract_y
_atom_site_fract_z
Si Si1 0.720651 0.252949 0.616123
Si Si2 0.798949 0.000000 0.616813
Si Si3 0.916704 0.753080 0.109511
Si Si4 0.190969 0.500000 0.615349
Si Si5 0.916796 0.500000 0.778650
Si Si6 0.423278 0.645229 0.616755
Si Si7 0.083090 0.000000 0.767616
O O1 0.717919 0.246542 0.500000
O O2 0.755739 0.123049 0.655836
O O3 0.765759 0.375405 0.649001
O O4 0.640683 0.267129 0.657749
O O5 0.876432 0.000000 0.664113
O O6 0.809653 0.000000 0.500000
O O7 0.890067 0.624048 0.161888
O O8 0.892574 0.876325 0.170969
O O9 0.000000 0.750674 0.101879
O O10 0.884284 0.760478 0.000000
O O11 0.174689 0.500000 0.500000
O O12 0.116661 0.500000 0.670690
O O13 0.000000 0.500000 0.763220
O O14 0.420325 0.643597 0.500000
O O15 0.500000 0.698326 0.651555
O O16 0.413022 0.500000 0.655248
O O17 0.000000 0.000000 0.744760
#
# Coordination Sequence:
#
# PCOD8193835 Si02
#       7
#     8   4   8   4   4   8   4
#     4   9  16  27  39  54  76 107 143 174 204 239
#     4  10  20  30  40  56  84 116 143 174 208 240
#     4   9  17  30  47  64  80  97 124 170 222 266
#     4  10  18  28  42  56  78 114 151 176 196 232
#     4  10  19  29  42  62  84 106 136 173 214 254
#     4   8  12  20  37  58  75  95 133 179 207 230
#     4  10  19  31  46  62  78 104 146 181 206 244
#
# _framework density 14.826926
#
# number of rings (size 3 to 8) (size 9 to 14) (size 15 to 20)
#    0.000    2.800    1.000    2.400    0.000    2.800 
#    0.000    0.500    0.000   10.200    0.000    0.000 
#    0.000    0.000    0.000    0.000    0.000   70.000 
#
# Total GULP energy -495748.397466 kJ/mol
# GULP energy per Si atom -12393.709937 kJ/mol
# Density = 1.479318 g / cm^3
# Si number density = 14.826926 Si / 1000 Ang^3
#
#
#
# Elastic Constant Matrix: (Units=GPa)
#
#
# Indices 1 2 3 4 5 6 
#
# 1 89.2629 46.9540 38.4504 0.0000 0.0000 0.0000
# 2 46.9540 128.6787 32.9271 0.0000 0.0000 0.0000
# 3 38.4504 32.9271 51.3438 0.0000 0.0000 0.0000
# 4 0.0000 0.0000 0.0000 10.8971 0.0000 0.0000
# 5 0.0000 0.0000 0.0000 0.0000 3.1366 0.0000
# 6 0.0000 0.0000 0.0000 0.0000 0.0000 13.5486
#
#
#
# Elastic Compliance Matrix: (Units=1/GPa)
#
#
# Indices 1 2 3 4 5 6 
#
# 1 0.017906 -0.003712 -0.011029 0.000000 0.000000 0.000000
# 2 -0.003712 0.010066 -0.003676 0.000000 0.000000 0.000000
# 3 -0.011029 -0.003676 0.030094 0.000000 0.000000 0.000000
# 4 0.000000 0.000000 0.000000 0.091768 0.000000 0.000000
# 5 0.000000 0.000000 0.000000 0.000000 0.318821 0.000000
# 6 0.000000 0.000000 0.000000 0.000000 0.000000 0.073809
#
#
# Mechanical properties :
#
#
# Convention : Reuss Voigt Hill
#
# Bulk Modulus (GPa) = 47.09823 56.21650 51.65737
# Shear Modulus (GPa) = 8.52698 15.58004 12.05351
#
# Velocity S-wave (km/s) = 2.40073 3.24511 2.85432
# Velocity P-wave (km/s) = 6.28641 7.21377 6.76600
#
# Compressibility (1/GPa) = 0.02123222
#
# Stress axis : x y z
#
# Youngs Moduli (GPa) = 55.84674 99.34167 33.22959
#
# Poissons Ratio (x) = 0.36872 0.36650
# Poissons Ratio (y) = 0.20728 0.12215
# Poissons Ratio (z) = 0.61595 0.36518
#
# Static dielectric constant tensor:
#      x y z
#    x 2.937560 0.000000 0.000000 
#    y 0.000000 3.169540 0.000000 
#    z 0.000000 0.000000 2.526300 
# 
# 
# High freq. dielectric constant tensor:
#      x y z
#    x 1.552660 0.000000 0.000000 
#    y 0.000000 1.577770 0.000000 
#    z 0.000000 0.000000 1.517400 
# 
# From -- ./inp_files/24881.got.cif
#   From: 2010.03.12/outbox.cif.g09.slc.cpg/sg47_13_cif.got.tgz:24881.got - 2010.04.14 03:12:58.
