data_PCOD8193365
_publ_section_title
;
Structure prediction by ZEFSAII (Michael W. Deem and Ramdas Pophale) SiO2 
 PCOD8193365
Probable space group: I M A 2
;
_chemical_formula_sum "Si O2"
_cell_formula_units_Z 64
_cell_length_a 16.876096
_cell_length_b 8.966067
_cell_length_c 23.099249
_cell_angle_alpha 90.000000
_cell_angle_beta 90.000000
_cell_angle_gamma 90.000000
_cell_volume 3495.198356
_symmetry_space_group_name_H-M "I M A 2"
_symmetry_group_IT_number 46
_symmetry_cell_setting 'orthorhombic'
loop_
_space_group_symop_operation_xyz
x,y,z
-x,-y,z
1/2-x,y,z
1/2+x,-y,z
1/2+x,1/2+y,1/2+z
1/2-x,1/2-y,1/2+z
-x,1/2+y,1/2+z
x,1/2-y,1/2+z
loop_
_atom_site_type_symbol
_atom_site_label
_atom_site_fract_x
_atom_site_fract_y
_atom_site_fract_z
Si Si1 0.840026 0.174540 0.051200
Si Si2 0.162296 0.801774 0.917260
Si Si3 0.427518 0.893920 0.332742
Si Si4 0.340140 0.146968 0.911124
Si Si5 0.427876 0.393620 0.523817
Si Si6 0.659012 0.667698 0.799942
Si Si7 0.513509 0.829192 0.222847
Si Si8 0.483979 0.826679 0.605972
O O1 0.750000 0.192237 0.072810
O O2 0.894157 0.282948 0.089703
O O3 0.863863 0.999677 0.056201
O O4 0.850541 0.223774 0.984988
O O5 0.250000 0.745547 0.899473
O O6 0.093469 0.713411 0.885096
O O7 0.153174 0.972323 0.899165
O O8 0.453380 0.799364 0.276228
O O9 0.500000 0.000000 0.351579
O O10 0.351147 0.995047 0.317931
O O11 0.250000 0.194228 0.925096
O O12 0.370213 0.231826 0.854107
O O13 0.392719 0.188279 0.967205
O O14 0.500000 0.500000 0.504171
O O15 0.453902 0.266166 0.567940
O O16 0.750000 0.701205 0.783329
O O17 0.603564 0.699447 0.744440
O O18 0.495899 0.711798 0.173018
O O19 0.500000 0.000000 0.200917
O O20 0.500000 0.000000 0.595451
#
# Coordination Sequence:
#
# PCOD8193365 Si02
#       8
#     8   8   8   8   8   8   8   8
#     4   9  19  37  58  79 108 145 182 216 257 318
#     4   9  17  31  52  78 107 137 168 206 255 309
#     4   9  19  32  50  76 105 135 172 211 252 306
#     4   9  18  32  51  79 109 134 168 212 256 309
#     4   9  18  33  55  78 104 142 181 212 255 315
#     4   9  18  33  53  77 105 134 167 211 261 310
#     4   9  20  38  53  70 100 139 183 218 252 312
#     4  11  23  38  55  79 109 138 177 230 278 315
#
# _framework density 18.310835000000001
#
# number of rings (size 3 to 8) (size 9 to 14) (size 15 to 20)
#    0.000    3.000    0.000    2.625    0.000    8.500 
#    0.000   10.625    0.000    0.000    0.000    0.000 
#    0.000    0.000    0.000    0.000    0.000    0.000 
#
# Total GULP energy -396702.085602 kJ/mol
# GULP energy per Si atom -12396.940175 kJ/mol
# Density = 1.826916 g / cm^3
# Si number density = 18.310835 Si / 1000 Ang^3
#
#
#
# Elastic Constant Matrix: (Units=GPa)
#
#
# Indices 1 2 3 4 5 6 
#
# 1 111.2985 51.6621 68.9536 0.0000 0.0000 0.0000
# 2 51.6621 77.8378 58.2591 0.0000 0.0000 0.0000
# 3 68.9536 58.2591 97.8623 0.0000 0.0000 0.0000
# 4 0.0000 0.0000 0.0000 28.9424 0.0000 0.0000
# 5 0.0000 0.0000 0.0000 0.0000 22.0986 0.0000
# 6 0.0000 0.0000 0.0000 0.0000 0.0000 22.4226
#
#
#
# Elastic Compliance Matrix: (Units=1/GPa)
#
#
# Indices 1 2 3 4 5 6 
#
# 1 0.016638 -0.004092 -0.009287 0.000000 0.000000 0.000000
# 2 -0.004092 0.024178 -0.011511 0.000000 0.000000 0.000000
# 3 -0.009287 -0.011511 0.023615 0.000000 0.000000 0.000000
# 4 0.000000 0.000000 0.000000 0.034551 0.000000 0.000000
# 5 0.000000 0.000000 0.000000 0.000000 0.045252 0.000000
# 6 0.000000 0.000000 0.000000 0.000000 0.000000 0.044598
#
#
# Mechanical properties :
#
#
# Convention : Reuss Voigt Hill
#
# Bulk Modulus (GPa) = 68.25148 71.63868 69.94508
# Shear Modulus (GPa) = 20.53429 21.90098 21.21763
#
# Velocity S-wave (km/s) = 3.35241 3.46217 3.40773
# Velocity P-wave (km/s) = 7.23461 7.42905 7.33247
#
# Compressibility (1/GPa) = 0.01465170
#
# Stress axis : x y z
#
# Youngs Moduli (GPa) = 60.10401 41.35918 42.34638
#
# Poissons Ratio (x) = 0.16923 0.39328
# Poissons Ratio (y) = 0.24592 0.48744
# Poissons Ratio (z) = 0.55820 0.47608
#
# Static dielectric constant tensor:
#      x y z
#    x 3.537200 0.000000 0.000000 
#    y 0.000000 3.238490 0.000000 
#    z 0.000000 0.000000 3.215690 
# 
# 
# High freq. dielectric constant tensor:
#      x y z
#    x 1.717530 0.000000 0.000000 
#    y 0.000000 1.692120 0.000000 
#    z 0.000000 0.000000 1.698610 
# 
# From -- ./inp_files/23811.got.cif
#   From: 2010.03.12/outbox.cif.g09.slc.cpg/sg46_12_cif.got.tgz:23811.got - 2010.04.14 02:56:35.
