data_PCOD8193576
_publ_section_title
;
Structure prediction by ZEFSAII (Michael W. Deem and Ramdas Pophale) SiO2 
 PCOD8193576
Probable space group: P M M M
;
_chemical_formula_sum "Si O2"
_cell_formula_units_Z 38
_cell_length_a 15.399038
_cell_length_b 12.406718
_cell_length_c 11.927302
_cell_angle_alpha 90.000000
_cell_angle_beta 90.000000
_cell_angle_gamma 90.000000
_cell_volume 2278.729200
_symmetry_space_group_name_H-M "P M M M"
_symmetry_group_IT_number 47
_symmetry_cell_setting 'orthorhombic'
loop_
_space_group_symop_operation_xyz
x,y,z
-x,-y,z
x,-y,-z
-x,y,-z
-x,-y,-z
x,y,-z
-x,y,z
x,-y,z
loop_
_atom_site_type_symbol
_atom_site_label
_atom_site_fract_x
_atom_site_fract_y
_atom_site_fract_z
Si Si1 0.905443 0.372720 0.739470
Si Si2 0.601925 0.765450 0.257640
Si Si3 0.595032 0.000000 0.742123
Si Si4 0.738585 0.372778 0.129675
Si Si5 0.353584 0.000000 0.500000
Si Si6 0.840323 0.625912 0.500000
Si Si7 0.329052 0.766167 0.500000
O O1 0.905136 0.500000 0.754265
O O2 0.826535 0.325389 0.813492
O O3 0.894448 0.341015 0.609451
O O4 0.000000 0.327569 0.778977
O O5 0.500000 0.755265 0.229294
O O6 0.654097 0.679625 0.184766
O O7 0.613905 0.742731 0.389634
O O8 0.639163 0.885835 0.223475
O O9 0.500000 0.000000 0.795997
O O10 0.584352 0.000000 0.607554
O O11 0.730869 0.500000 0.148946
O O12 0.742101 0.342000 0.000000
O O13 0.295212 0.890895 0.500000
O O14 0.817884 0.500000 0.500000
O O15 0.750671 0.687064 0.500000
#
# Coordination Sequence:
#
# PCOD8193576 Si02
#       7
#     8   8   4   8   2   4   4
#     4   9  17  30  49  72  97 124 154 192 240 289
#     4  10  19  32  50  72  98 128 161 197 237 281
#     4   8  15  28  47  70  93 119 157 201 239 275
#     4  10  21  35  49  68  96 129 164 200 238 282
#     4   8  15  24  42  70  95 124 154 184 233 288
#     4  10  17  27  47  74 102 125 148 189 241 288
#     4  10  17  29  48  72 100 126 155 193 236 283
#
# _framework density 16.675961999999998
#
# number of rings (size 3 to 8) (size 9 to 14) (size 15 to 20)
#    0.000    2.526    2.105    0.789    0.000    5.053 
#    0.000    3.684    0.000    3.789    0.000    3.684 
#    0.000    1.684    0.000    0.000    0.000    0.000 
#
# Total GULP energy -470775.813550 kJ/mol
# GULP energy per Si atom -12388.837199 kJ/mol
# Density = 1.663801 g / cm^3
# Si number density = 16.675962 Si / 1000 Ang^3
#
#
#
# Elastic Constant Matrix: (Units=GPa)
#
#
# Indices 1 2 3 4 5 6 
#
# 1 117.2316 35.7487 50.1686 0.0000 0.0000 0.0000
# 2 35.7487 40.9697 40.5469 0.0000 0.0000 0.0000
# 3 50.1686 40.5469 99.3272 0.0000 0.0000 0.0000
# 4 0.0000 0.0000 0.0000 16.2548 0.0000 0.0000
# 5 0.0000 0.0000 0.0000 0.0000 12.9057 0.0000
# 6 0.0000 0.0000 0.0000 0.0000 0.0000 2.1149
#
#
#
# Elastic Compliance Matrix: (Units=1/GPa)
#
#
# Indices 1 2 3 4 5 6 
#
# 1 0.012144 -0.007594 -0.003034 0.000000 0.000000 0.000000
# 2 -0.007594 0.045703 -0.014821 0.000000 0.000000 0.000000
# 3 -0.003034 -0.014821 0.017650 0.000000 0.000000 0.000000
# 4 0.000000 0.000000 0.000000 0.061520 0.000000 0.000000
# 5 0.000000 0.000000 0.000000 0.000000 0.077485 0.000000
# 6 0.000000 0.000000 0.000000 0.000000 0.000000 0.472846
#
#
# Mechanical properties :
#
#
# Convention : Reuss Voigt Hill
#
# Bulk Modulus (GPa) = 40.65136 56.71742 48.68439
# Shear Modulus (GPa) = 6.69841 14.99269 10.84555
#
# Velocity S-wave (km/s) = 2.00637 3.00169 2.55300
# Velocity P-wave (km/s) = 5.45871 6.78961 6.16021
#
# Compressibility (1/GPa) = 0.02459942
#
# Stress axis : x y z
#
# Youngs Moduli (GPa) = 82.34404 21.88063 56.65677
#
# Poissons Ratio (x) = 0.16616 0.17189
# Poissons Ratio (y) = 0.62533 0.83970
# Poissons Ratio (z) = 0.24982 0.32429
#
# Static dielectric constant tensor:
#      x y z
#    x 3.196780 0.000000 0.000000 
#    y 0.000000 3.115210 0.000000 
#    z 0.000000 0.000000 3.205310 
# 
# 
# High freq. dielectric constant tensor:
#      x y z
#    x 1.630870 0.000000 0.000000 
#    y 0.000000 1.617960 0.000000 
#    z 0.000000 0.000000 1.637310 
# 
# From -- ./inp_files/17297.got.cif
#   From: 2010.03.12/outbox.cif.g09.slc.cpg/sg47_9_cif.got.tgz:17297.got - 2010.04.14 03:12:58.
