data_PCOD8193824
_publ_section_title
;
Structure prediction by ZEFSAII (Michael W. Deem and Ramdas Pophale) SiO2 
 PCOD8193824
Probable space group: P M M M
;
_chemical_formula_sum "Si O2"
_cell_formula_units_Z 52
_cell_length_a 9.277888
_cell_length_b 18.228321
_cell_length_c 24.586133
_cell_angle_alpha 90.000000
_cell_angle_beta 90.000000
_cell_angle_gamma 90.000000
_cell_volume 4158.014697
_symmetry_space_group_name_H-M "P M M M"
_symmetry_group_IT_number 47
_symmetry_cell_setting 'orthorhombic'
loop_
_space_group_symop_operation_xyz
x,y,z
-x,-y,z
x,-y,-z
-x,y,-z
-x,-y,-z
x,y,-z
-x,y,z
x,-y,z
loop_
_atom_site_type_symbol
_atom_site_label
_atom_site_fract_x
_atom_site_fract_y
_atom_site_fract_z
Si Si1 0.831150 0.219440 0.562028
Si Si2 0.338142 0.412750 0.939814
Si Si3 0.662397 0.919733 0.435392
Si Si4 0.170581 0.361702 0.370561
Si Si5 0.330562 0.585666 0.731998
Si Si6 0.161734 0.587155 0.161303
Si Si7 0.829232 0.500000 0.560376
O O1 0.779928 0.234588 0.500000
O O2 0.760681 0.145981 0.587268
O O3 0.784611 0.287325 0.599234
O O4 0.000000 0.207312 0.563599
O O5 0.500000 0.383795 0.928693
O O6 0.338779 0.500000 0.936655
O O7 0.231148 0.380368 0.894119
O O8 0.286225 0.387485 0.000000
O O9 0.668924 0.919223 0.500000
O O10 0.500000 0.906328 0.415067
O O11 0.716571 0.000000 0.414559
O O12 0.256679 0.365688 0.314423
O O13 0.224232 0.428069 0.408394
O O14 0.000000 0.366343 0.359037
O O15 0.500000 0.601532 0.734210
O O16 0.298233 0.500000 0.721101
O O17 0.260219 0.612027 0.788378
O O18 0.157061 0.500000 0.158215
O O19 0.000000 0.618727 0.167812
O O20 0.761409 0.500000 0.500000
O O21 0.000000 0.500000 0.556084
#
# Coordination Sequence:
#
# PCOD8193824 Si02
#       7
#     8   8   8   8   8   8   4
#     4   9  17  27  39  57  76  90 108 136 170 208
#     4   8  13  21  32  46  65  86 104 124 157 201
#     4   8  14  25  40  56  73  93 113 129 152 194
#     4  10  18  28  41  54  68  87 113 143 174 211
#     4  10  19  29  39  49  63  83 111 145 179 212
#     4   9  16  24  35  49  63  80 105 136 169 204
#     4   9  16  26  41  55  65  83 110 139 172 211
#
# _framework density 12.505967999999999
#
# number of rings (size 3 to 8) (size 9 to 14) (size 15 to 20)
#    0.000    3.000    0.769    2.308    0.000    5.538 
#    0.000    3.077    0.000    1.846    0.000    0.000 
#    0.000    0.000    0.000    0.000    0.000    0.000 
#
# Total GULP energy -644534.054350 kJ/mol
# GULP energy per Si atom -12394.885661 kJ/mol
# Density = 1.247750 g / cm^3
# Si number density = 12.505968 Si / 1000 Ang^3
#
#
#
# Elastic Constant Matrix: (Units=GPa)
#
#
# Indices 1 2 3 4 5 6 
#
# 1 61.1703 31.0533 45.5806 0.0000 0.0000 0.0000
# 2 31.0533 71.2679 33.0470 0.0000 0.0000 0.0000
# 3 45.5806 33.0470 92.6409 0.0000 0.0000 0.0000
# 4 0.0000 0.0000 0.0000 2.8260 0.0000 0.0000
# 5 0.0000 0.0000 0.0000 0.0000 21.1042 0.0000
# 6 0.0000 0.0000 0.0000 0.0000 0.0000 14.3865
#
#
#
# Elastic Compliance Matrix: (Units=1/GPa)
#
#
# Indices 1 2 3 4 5 6 
#
# 1 0.028519 -0.007093 -0.011501 0.000000 0.000000 0.000000
# 2 -0.007093 0.018577 -0.003137 0.000000 0.000000 0.000000
# 3 -0.011501 -0.003137 0.017572 0.000000 0.000000 0.000000
# 4 0.000000 0.000000 0.000000 0.353856 0.000000 0.000000
# 5 0.000000 0.000000 0.000000 0.000000 0.047384 0.000000
# 6 0.000000 0.000000 0.000000 0.000000 0.000000 0.069510
#
#
# Mechanical properties :
#
#
# Convention : Reuss Voigt Hill
#
# Bulk Modulus (GPa) = 47.15852 49.38231 48.27042
# Shear Modulus (GPa) = 8.53318 15.35655 11.94487
#
# Velocity S-wave (km/s) = 2.61498 3.50800 3.09388
# Velocity P-wave (km/s) = 6.84895 7.48203 7.17248
#
# Compressibility (1/GPa) = 0.02120507
#
# Stress axis : x y z
#
# Youngs Moduli (GPa) = 35.06444 53.83057 56.90820
#
# Poissons Ratio (x) = 0.38183 0.65452
# Poissons Ratio (y) = 0.24872 0.17851
# Poissons Ratio (z) = 0.40329 0.16885
#
# Static dielectric constant tensor:
#      x y z
#    x 2.607350 0.000000 0.000000 
#    y 0.000000 2.378150 0.000000 
#    z 0.000000 0.000000 2.565320 
# 
# 
# High freq. dielectric constant tensor:
#      x y z
#    x 1.477660 0.000000 0.000000 
#    y 0.000000 1.425110 0.000000 
#    z 0.000000 0.000000 1.460630 
# 
# From -- ./inp_files/32176.got.cif
#   From: 2010.03.12/outbox.cif.g09.slc.cpg/sg47_17_cif.got.tgz:32176.got - 2010.04.14 03:12:58.
