data_PCOD8193342
_publ_section_title
;
Structure prediction by ZEFSAII (Michael W. Deem and Ramdas Pophale) SiO2 
 PCOD8193342
Probable space group: I M A 2
;
_chemical_formula_sum "Si O2"
_cell_formula_units_Z 64
_cell_length_a 18.283120
_cell_length_b 8.656380
_cell_length_c 19.408864
_cell_angle_alpha 90.000000
_cell_angle_beta 90.000000
_cell_angle_gamma 90.000000
_cell_volume 3071.756172
_symmetry_space_group_name_H-M "I M A 2"
_symmetry_group_IT_number 46
_symmetry_cell_setting 'orthorhombic'
loop_
_space_group_symop_operation_xyz
x,y,z
-x,-y,z
1/2-x,y,z
1/2+x,-y,z
1/2+x,1/2+y,1/2+z
1/2-x,1/2-y,1/2+z
-x,1/2+y,1/2+z
x,1/2-y,1/2+z
loop_
_atom_site_type_symbol
_atom_site_label
_atom_site_fract_x
_atom_site_fract_y
_atom_site_fract_z
Si Si1 0.166946 0.632960 0.889100
Si Si2 0.595083 0.635365 0.313117
Si Si3 0.333794 0.282848 0.931950
Si Si4 0.932250 0.294178 0.279754
Si Si5 0.334789 0.183644 0.198439
Si Si6 0.925597 0.409014 0.649565
Si Si7 0.836907 0.610988 0.075490
Si Si8 0.663903 0.228205 0.542046
O O1 0.250000 0.671286 0.867130
O O2 0.157448 0.450748 0.898014
O O3 0.113392 0.680524 0.828008
O O4 0.148676 0.724087 0.960090
O O5 0.619734 0.651404 0.392563
O O6 0.604235 0.463038 0.283826
O O7 0.513646 0.698746 0.308606
O O8 0.651058 0.745536 0.272878
O O9 0.250000 0.228608 0.932348
O O10 0.365766 0.293595 0.009357
O O11 0.937179 0.236236 0.200830
O O12 0.250000 0.156918 0.186166
O O13 0.367769 0.303758 0.142567
O O14 0.372771 0.019937 0.192129
O O15 0.886107 0.357740 0.578632
O O16 0.000000 0.500000 0.631418
O O17 0.750000 0.608678 0.071495
O O18 0.862759 0.433968 0.074798
O O19 0.750000 0.259956 0.556450
#
# Coordination Sequence:
#
# PCOD8193342 Si02
#       8
#     8   8   8   8   8   8   8   8
#     4   9  20  39  65  92 121 155 201 252 308 374
#     4  11  23  40  57  83 120 160 203 253 300 366
#     4   9  18  36  63  91 117 152 197 247 300 364
#     4  11  25  41  57  84 123 165 202 251 313 367
#     4  11  22  38  62  89 115 156 206 253 300 361
#     4  12  24  41  60  87 128 168 207 259 312 373
#     4   8  17  36  62  91 120 151 196 251 307 363
#     4   9  19  40  65  92 123 160 205 259 311 374
#
# _framework density 20.834987999999999
#
# number of rings (size 3 to 8) (size 9 to 14) (size 15 to 20)
#    0.000    2.000    1.250    3.750    0.000    4.000 
#    4.500    2.500    0.000    0.000    0.000    0.000 
#    0.000    0.000    0.000    0.000    0.000    0.000 
#
# Total GULP energy -396784.571713 kJ/mol
# GULP energy per Si atom -12399.517866 kJ/mol
# Density = 2.078757 g / cm^3
# Si number density = 20.834988 Si / 1000 Ang^3
#
#
#
# Elastic Constant Matrix: (Units=GPa)
#
#
# Indices 1 2 3 4 5 6 
#
# 1 68.9338 26.9390 22.9728 0.0000 0.0000 0.0000
# 2 26.9390 64.3829 18.3559 0.0000 0.0000 0.0000
# 3 22.9728 18.3559 76.1949 0.0000 0.0000 0.0000
# 4 0.0000 0.0000 0.0000 41.4310 0.0000 0.0000
# 5 0.0000 0.0000 0.0000 0.0000 24.2261 0.0000
# 6 0.0000 0.0000 0.0000 0.0000 0.0000 26.6615
#
#
#
# Elastic Compliance Matrix: (Units=1/GPa)
#
#
# Indices 1 2 3 4 5 6 
#
# 1 0.018394 -0.006566 -0.003964 0.000000 0.000000 0.000000
# 2 -0.006566 0.019022 -0.002603 0.000000 0.000000 0.000000
# 3 -0.003964 -0.002603 0.014946 0.000000 0.000000 0.000000
# 4 0.000000 0.000000 0.000000 0.024137 0.000000 0.000000
# 5 0.000000 0.000000 0.000000 0.000000 0.041278 0.000000
# 6 0.000000 0.000000 0.000000 0.000000 0.000000 0.037507
#
#
# Mechanical properties :
#
#
# Convention : Reuss Voigt Hill
#
# Bulk Modulus (GPa) = 38.31991 38.44966 38.38478
# Shear Modulus (GPa) = 26.28156 27.87996 27.08076
#
# Velocity S-wave (km/s) = 3.55549 3.66202 3.60915
# Velocity P-wave (km/s) = 5.94032 6.03116 5.98591
#
# Compressibility (1/GPa) = 0.02609609
#
# Stress axis : x y z
#
# Youngs Moduli (GPa) = 54.36642 52.57203 66.90588
#
# Poissons Ratio (x) = 0.34520 0.26521
# Poissons Ratio (y) = 0.35698 0.17414
# Poissons Ratio (z) = 0.21550 0.13683
#
# Static dielectric constant tensor:
#      x y z
#    x 3.571090 0.000000 0.000000 
#    y 0.000000 3.786900 0.000000 
#    z 0.000000 0.000000 3.869630 
# 
# 
# High freq. dielectric constant tensor:
#      x y z
#    x 1.800470 0.000000 0.000000 
#    y 0.000000 1.814580 0.000000 
#    z 0.000000 0.000000 1.821550 
# 
# From -- ./inp_files/22225.got.cif
#   From: 2010.03.12/outbox.cif.g09.slc.cpg/sg46_12_cif.got.tgz:22225.got - 2010.04.14 02:56:35.
