data_PCOD8193317
_publ_section_title
;
Structure prediction by ZEFSAII (Michael W. Deem and Ramdas Pophale) SiO2 
 PCOD8193317
Probable space group: I M A 2
;
_chemical_formula_sum "Si O2"
_cell_formula_units_Z 64
_cell_length_a 8.390102
_cell_length_b 19.470283
_cell_length_c 20.682904
_cell_angle_alpha 90.000000
_cell_angle_beta 90.000000
_cell_angle_gamma 90.000000
_cell_volume 3378.710806
_symmetry_space_group_name_H-M "I M A 2"
_symmetry_group_IT_number 46
_symmetry_cell_setting 'orthorhombic'
loop_
_space_group_symop_operation_xyz
x,y,z
-x,-y,z
1/2-x,y,z
1/2+x,-y,z
1/2+x,1/2+y,1/2+z
1/2-x,1/2-y,1/2+z
-x,1/2+y,1/2+z
x,1/2-y,1/2+z
loop_
_atom_site_type_symbol
_atom_site_label
_atom_site_fract_x
_atom_site_fract_y
_atom_site_fract_z
Si Si1 0.436442 0.426184 0.284950
Si Si2 0.935376 0.795227 0.205812
Si Si3 0.064609 0.790478 0.452636
Si Si4 0.063483 0.073816 0.397925
Si Si5 0.564792 0.703356 0.087126
Si Si6 0.564311 0.071033 0.643566
Si Si7 0.436300 0.787513 0.825170
Si Si8 0.564404 0.070964 0.256699
O O1 0.500000 0.500000 0.308032
O O2 0.250000 0.420719 0.298235
O O3 0.470178 0.413678 0.209536
O O4 0.526852 0.368424 0.326635
O O5 0.750000 0.813049 0.202365
O O6 0.994053 0.756850 0.141282
O O7 0.967262 0.747664 0.267469
O O8 0.033009 0.866380 0.208174
O O9 0.250000 0.779604 0.464790
O O10 0.004659 0.744508 0.392728
O O11 0.028643 0.870094 0.439762
O O12 0.971581 0.765581 0.516627
O O13 0.250000 0.080025 0.411628
O O14 0.029970 0.086367 0.322500
O O15 0.000000 0.000000 0.420466
O O16 0.750000 0.687383 0.095969
O O17 0.467606 0.632338 0.093798
O O18 0.750000 0.064410 0.659843
O O19 0.500000 0.000000 0.612774
O O20 0.250000 0.773080 0.814301
O O21 0.750000 0.064046 0.273025
O O22 0.500000 0.000000 0.225572
#
# Coordination Sequence:
#
# PCOD8193317 Si02
#       8
#     8   8   8   8   8   8   8   8
#     4  11  21  35  57  86 118 150 190 237 289 341
#     4  11  22  37  60  87 116 151 193 238 287 341
#     4  11  24  40  58  83 116 153 195 237 287 343
#     4  11  21  35  56  81 115 153 194 236 283 339
#     4  11  24  40  58  83 116 153 195 237 287 343
#     4  11  21  35  56  81 115 153 194 236 283 339
#     4  11  22  37  60  87 116 151 193 238 287 341
#     4  11  21  35  57  86 118 150 190 237 289 341
#
# _framework density 18.942138
#
# number of rings (size 3 to 8) (size 9 to 14) (size 15 to 20)
#    0.000    1.000    2.500    7.500    0.000    3.500 
#    0.000    2.500    0.000    0.750    0.000    5.250 
#    0.000    0.000    0.000    0.000    0.000    0.000 
#
# Total GULP energy -396999.829596 kJ/mol
# GULP energy per Si atom -12406.244675 kJ/mol
# Density = 1.889902 g / cm^3
# Si number density = 18.942138 Si / 1000 Ang^3
#
#
#
# Elastic Constant Matrix: (Units=GPa)
#
#
# Indices 1 2 3 4 5 6 
#
# 1 60.5432 14.9197 10.7546 0.0000 0.0000 0.0000
# 2 14.9197 118.3126 55.2058 0.0000 0.0000 0.0000
# 3 10.7546 55.2058 103.2835 0.0000 0.0000 0.0000
# 4 0.0000 0.0000 0.0000 21.9577 0.0000 0.0000
# 5 0.0000 0.0000 0.0000 0.0000 25.1532 0.0000
# 6 0.0000 0.0000 0.0000 0.0000 0.0000 32.7836
#
#
#
# Elastic Compliance Matrix: (Units=1/GPa)
#
#
# Indices 1 2 3 4 5 6 
#
# 1 0.017101 -0.001766 -0.000837 0.000000 0.000000 0.000000
# 2 -0.001766 0.011443 -0.005932 0.000000 0.000000 0.000000
# 3 -0.000837 -0.005932 0.012940 0.000000 0.000000 0.000000
# 4 0.000000 0.000000 0.000000 0.045542 0.000000 0.000000
# 5 0.000000 0.000000 0.000000 0.000000 0.039756 0.000000
# 6 0.000000 0.000000 0.000000 0.000000 0.000000 0.030503
#
#
# Mechanical properties :
#
#
# Convention : Reuss Voigt Hill
#
# Bulk Modulus (GPa) = 40.96070 49.32216 45.14143
# Shear Modulus (GPa) = 27.39815 29.39619 28.39717
#
# Velocity S-wave (km/s) = 3.80730 3.94368 3.87609
# Velocity P-wave (km/s) = 6.40300 6.84337 6.62684
#
# Compressibility (1/GPa) = 0.02441365
#
# Stress axis : x y z
#
# Youngs Moduli (GPa) = 58.47624 87.38927 77.27878
#
# Poissons Ratio (x) = 0.15434 0.06466
# Poissons Ratio (y) = 0.10327 0.45846
# Poissons Ratio (z) = 0.04893 0.51844
#
# Static dielectric constant tensor:
#      x y z
#    x 3.483160 0.000000 0.000000 
#    y 0.000000 3.719710 0.000000 
#    z 0.000000 0.000000 3.282960 
# 
# 
# High freq. dielectric constant tensor:
#      x y z
#    x 1.752550 0.000000 0.000000 
#    y 0.000000 1.740760 0.000000 
#    z 0.000000 0.000000 1.705460 
# 
# From -- ./inp_files/21449.got.cif
#   From: 2010.03.12/outbox.cif.g09.slc.cpg/sg46_11_cif.got.tgz:21449.got - 2010.04.14 02:56:35.
