data_PCOD8193944
_publ_section_title
;
Structure prediction by ZEFSAII (Michael W. Deem and Ramdas Pophale) SiO2 
 PCOD8193944
Probable space group: P M M M
;
_chemical_formula_sum "Si O2"
_cell_formula_units_Z 64
_cell_length_a 31.083360
_cell_length_b 14.245500
_cell_length_c 9.142524
_cell_angle_alpha 90.000000
_cell_angle_beta 90.000000
_cell_angle_gamma 90.000000
_cell_volume 4048.291387
_symmetry_space_group_name_H-M "P M M M"
_symmetry_group_IT_number 47
_symmetry_cell_setting 'orthorhombic'
loop_
_space_group_symop_operation_xyz
x,y,z
-x,-y,z
x,-y,-z
-x,y,-z
-x,-y,-z
x,y,-z
-x,y,z
x,-y,z
loop_
_atom_site_type_symbol
_atom_site_label
_atom_site_fract_x
_atom_site_fract_y
_atom_site_fract_z
Si Si1 0.340761 0.393720 0.831291
Si Si2 0.209679 0.202227 0.173951
Si Si3 0.373053 0.222727 0.672796
Si Si4 0.711323 0.109416 0.331118
Si Si5 0.452474 0.894944 0.673736
Si Si6 0.047327 0.888627 0.836129
Si Si7 0.130297 0.110618 0.669228
Si Si8 0.243865 0.398054 0.173396
O O1 0.357070 0.500000 0.810047
O O2 0.371852 0.326314 0.740329
O O3 0.292331 0.382853 0.768625
O O4 0.342404 0.363799 0.000000
O O5 0.248903 0.140628 0.232491
O O6 0.165544 0.165357 0.239027
O O7 0.214562 0.311093 0.225405
O O8 0.208489 0.192988 0.000000
O O9 0.375697 0.231549 0.500000
O O10 0.331206 0.163785 0.720692
O O11 0.415582 0.172603 0.737627
O O12 0.722470 0.130862 0.500000
O O13 0.702614 0.000000 0.306761
O O14 0.449038 0.897496 0.500000
O O15 0.500000 0.858849 0.721366
O O16 0.444952 0.000000 0.734623
O O17 0.083711 0.853149 0.724218
O O18 0.000000 0.851542 0.786726
O O19 0.046662 0.000000 0.836399
O O20 0.057789 0.852250 0.000000
O O21 0.135028 0.136261 0.500000
O O22 0.136173 0.000000 0.696338
O O23 0.226246 0.500000 0.230405
O O24 0.246049 0.401231 0.000000
#
# Coordination Sequence:
#
# PCOD8193944 Si02
#       8
#     8   8   8   8   8   8   8   8
#     4   9  17  31  49  66  87 115 145 178 221 271
#     4  11  20  30  46  64  84 114 152 187 217 256
#     4  10  18  28  46  70  91 111 143 186 223 257
#     4  10  20  31  41  58  89 122 145 171 213 261
#     4   8  14  26  45  68  92 118 148 180 217 264
#     4   8  14  26  44  64  85 111 149 196 234 261
#     4  10  20  31  42  59  89 127 158 184 220 265
#     4   8  15  29  47  64  82 107 142 183 224 264
#
# _framework density 15.809138000000001
#
# number of rings (size 3 to 8) (size 9 to 14) (size 15 to 20)
#    0.000    2.750    1.250    3.000    0.000    4.500 
#    0.000    1.250    0.000    3.375    0.000    3.500 
#    0.000    0.500    0.000    5.750    0.000    1.875 
#
# Total GULP energy -793289.648572 kJ/mol
# GULP energy per Si atom -12395.150759 kJ/mol
# Density = 1.577316 g / cm^3
# Si number density = 15.809138 Si / 1000 Ang^3
#
#
#
# Elastic Constant Matrix: (Units=GPa)
#
#
# Indices 1 2 3 4 5 6 
#
# 1 116.0331 51.1047 37.7351 0.0000 0.0000 0.0000
# 2 51.1047 84.9040 31.3810 0.0000 0.0000 0.0000
# 3 37.7351 31.3810 43.2654 0.0000 0.0000 0.0000
# 4 0.0000 0.0000 0.0000 20.5110 0.0000 0.0000
# 5 0.0000 0.0000 0.0000 0.0000 16.9093 0.0000
# 6 0.0000 0.0000 0.0000 0.0000 0.0000 10.8291
#
#
#
# Elastic Compliance Matrix: (Units=1/GPa)
#
#
# Indices 1 2 3 4 5 6 
#
# 1 0.013503 -0.005157 -0.008036 0.000000 0.000000 0.000000
# 2 -0.005157 0.018062 -0.008602 0.000000 0.000000 0.000000
# 3 -0.008036 -0.008602 0.036362 0.000000 0.000000 0.000000
# 4 0.000000 0.000000 0.000000 0.048754 0.000000 0.000000
# 5 0.000000 0.000000 0.000000 0.000000 0.059139 0.000000
# 6 0.000000 0.000000 0.000000 0.000000 0.000000 0.092344
#
#
# Mechanical properties :
#
#
# Convention : Reuss Voigt Hill
#
# Bulk Modulus (GPa) = 41.09406 53.84933 47.47169
# Shear Modulus (GPa) = 15.63147 17.91534 16.77341
#
# Velocity S-wave (km/s) = 3.14787 3.37000 3.26082
# Velocity P-wave (km/s) = 6.26597 7.01987 6.65361
#
# Compressibility (1/GPa) = 0.02433442
#
# Stress axis : x y z
#
# Youngs Moduli (GPa) = 74.05606 55.36560 27.50149
#
# Poissons Ratio (x) = 0.28555 0.22102
# Poissons Ratio (y) = 0.38194 0.23657
# Poissons Ratio (z) = 0.59515 0.47627
#
# Static dielectric constant tensor:
#      x y z
#    x 3.169750 0.000000 0.000000 
#    y 0.000000 3.090290 0.000000 
#    z 0.000000 0.000000 2.825070 
# 
# 
# High freq. dielectric constant tensor:
#      x y z
#    x 1.599290 0.000000 0.000000 
#    y 0.000000 1.589510 0.000000 
#    z 0.000000 0.000000 1.588220 
# 
# From -- ./inp_files/8325.got.cif
#   From: 2010.03.12/outbox.cif.g09.slc.cpg/sg47_5_cif.got.tgz:8325.got - 2010.04.14 03:12:58.
