data_PCOD8193555
_publ_section_title
;
Structure prediction by ZEFSAII (Michael W. Deem and Ramdas Pophale) SiO2 
 PCOD8193555
Probable space group: P M M M
;
_chemical_formula_sum "Si O2"
_cell_formula_units_Z 64
_cell_length_a 9.308593
_cell_length_b 14.221090
_cell_length_c 31.412418
_cell_angle_alpha 90.000000
_cell_angle_beta 90.000000
_cell_angle_gamma 90.000000
_cell_volume 4158.323713
_symmetry_space_group_name_H-M "P M M M"
_symmetry_group_IT_number 47
_symmetry_cell_setting 'orthorhombic'
loop_
_space_group_symop_operation_xyz
x,y,z
-x,-y,z
x,-y,-z
-x,y,-z
-x,-y,-z
x,y,-z
-x,y,z
x,-y,z
loop_
_atom_site_type_symbol
_atom_site_label
_atom_site_fract_x
_atom_site_fract_y
_atom_site_fract_z
Si Si1 0.333313 0.892451 0.838126
Si Si2 0.170729 0.728422 0.125022
Si Si3 0.165062 0.104911 0.751946
Si Si4 0.168155 0.390658 0.372731
Si Si5 0.829523 0.604955 0.047279
Si Si6 0.168279 0.707178 0.711060
Si Si7 0.338324 0.611715 0.453342
Si Si8 0.170801 0.394514 0.794786
O O1 0.500000 0.864711 0.836039
O O2 0.250515 0.828457 0.872378
O O3 0.265826 0.875535 0.791865
O O4 0.312427 0.000000 0.852585
O O5 0.227793 0.678275 0.082149
O O6 0.221657 0.665012 0.164662
O O7 0.000000 0.744362 0.124647
O O8 0.201243 0.181191 0.715374
O O9 0.000000 0.118059 0.767247
O O10 0.190208 0.000000 0.733353
O O11 0.205290 0.500000 0.365591
O O12 0.234204 0.333119 0.332722
O O13 0.238794 0.348895 0.415633
O O14 0.000000 0.374376 0.377712
O O15 0.770222 0.500000 0.057064
O O16 0.000000 0.601514 0.049844
O O17 0.779910 0.637059 0.000000
O O18 0.233356 0.652830 0.751876
O O19 0.000000 0.686586 0.709634
O O20 0.284427 0.647080 0.500000
O O21 0.500000 0.647340 0.445460
O O22 0.333160 0.500000 0.452742
O O23 0.232419 0.500000 0.798567
O O24 0.000000 0.396422 0.793447
#
# Coordination Sequence:
#
# PCOD8193555 Si02
#       8
#     8   8   8   8   8   8   8   8
#     4  10  20  32  45  62  85 111 139 176 222 261
#     4  10  17  27  46  69  87 110 145 177 206 246
#     4   9  16  28  46  64  81 105 142 182 213 245
#     4   9  16  24  36  55  79 108 138 165 196 238
#     4   8  14  25  43  70  99 118 136 171 215 252
#     4   9  15  24  37  58  85 110 135 167 204 241
#     4   8  14  25  39  53  72 101 136 172 207 240
#     4   9  15  22  36  60  86 111 140 170 196 232
#
# _framework density 15.390817
#
# number of rings (size 3 to 8) (size 9 to 14) (size 15 to 20)
#    0.000    3.000    1.250    1.875    0.000    4.000 
#    0.000    1.875    0.000    2.250    0.000    3.500 
#    0.000    0.500    0.000    6.250    0.000    1.250 
#
# Total GULP energy -793215.432890 kJ/mol
# GULP energy per Si atom -12393.991139 kJ/mol
# Density = 1.535579 g / cm^3
# Si number density = 15.390817 Si / 1000 Ang^3
#
#
#
# Elastic Constant Matrix: (Units=GPa)
#
#
# Indices 1 2 3 4 5 6 
#
# 1 37.2707 31.6465 36.4187 0.0000 0.0000 0.0000
# 2 31.6465 94.5327 63.2833 0.0000 0.0000 0.0000
# 3 36.4187 63.2833 139.5821 0.0000 0.0000 0.0000
# 4 0.0000 0.0000 0.0000 14.6618 0.0000 0.0000
# 5 0.0000 0.0000 0.0000 0.0000 6.6493 0.0000
# 6 0.0000 0.0000 0.0000 0.0000 0.0000 10.4241
#
#
#
# Elastic Compliance Matrix: (Units=1/GPa)
#
#
# Indices 1 2 3 4 5 6 
#
# 1 0.041170 -0.009464 -0.006451 0.000000 0.000000 0.000000
# 2 -0.009464 0.017363 -0.005403 0.000000 0.000000 0.000000
# 3 -0.006451 -0.005403 0.011297 0.000000 0.000000 0.000000
# 4 0.000000 0.000000 0.000000 0.068204 0.000000 0.000000
# 5 0.000000 0.000000 0.000000 0.000000 0.150392 0.000000
# 6 0.000000 0.000000 0.000000 0.000000 0.000000 0.095931
#
#
# Mechanical properties :
#
#
# Convention : Reuss Voigt Hill
#
# Bulk Modulus (GPa) = 36.77182 59.34250 48.05716
# Shear Modulus (GPa) = 11.46633 15.68284 13.57458
#
# Velocity S-wave (km/s) = 2.73245 3.19560 2.97306
# Velocity P-wave (km/s) = 5.82228 7.22887 6.56337
#
# Compressibility (1/GPa) = 0.02719474
#
# Stress axis : x y z
#
# Youngs Moduli (GPa) = 24.28945 57.59220 88.51919
#
# Poissons Ratio (x) = 0.54505 0.57105
# Poissons Ratio (y) = 0.22987 0.47826
# Poissons Ratio (z) = 0.15669 0.31117
#
# Static dielectric constant tensor:
#      x y z
#    x 2.653990 0.000000 0.000000 
#    y 0.000000 2.991530 0.000000 
#    z 0.000000 0.000000 3.159670 
# 
# 
# High freq. dielectric constant tensor:
#      x y z
#    x 1.552780 0.000000 0.000000 
#    y 0.000000 1.574580 0.000000 
#    z 0.000000 0.000000 1.582390 
# 
# From -- ./inp_files/34451.got.cif
#   From: 2010.03.12/outbox.cif.g09.slc.cpg/sg47_18_cif.got.tgz:34451.got - 2010.04.14 03:12:58.
