data_PCOD8193326
_publ_section_title
;
Structure prediction by ZEFSAII (Michael W. Deem and Ramdas Pophale) SiO2 
 PCOD8193326
Probable space group: I M A 2
;
_chemical_formula_sum "Si O2"
_cell_formula_units_Z 48
_cell_length_a 8.575496
_cell_length_b 27.584516
_cell_length_c 9.850795
_cell_angle_alpha 90.000000
_cell_angle_beta 90.000000
_cell_angle_gamma 90.000000
_cell_volume 2330.214488
_symmetry_space_group_name_H-M "I M A 2"
_symmetry_group_IT_number 46
_symmetry_cell_setting 'orthorhombic'
loop_
_space_group_symop_operation_xyz
x,y,z
-x,-y,z
1/2-x,y,z
1/2+x,-y,z
1/2+x,1/2+y,1/2+z
1/2-x,1/2-y,1/2+z
-x,1/2+y,1/2+z
x,1/2-y,1/2+z
loop_
_atom_site_type_symbol
_atom_site_label
_atom_site_fract_x
_atom_site_fract_y
_atom_site_fract_z
Si Si1 0.434785 0.217025 0.201980
Si Si2 0.068200 0.048822 0.353099
Si Si3 0.069101 0.598898 0.098001
Si Si4 0.932985 0.553841 0.358558
Si Si5 0.431569 0.384734 0.606004
Si Si6 0.433404 0.705540 0.000274
O O1 0.250000 0.214308 0.223161
O O2 0.497412 0.169953 0.118430
O O3 0.480233 0.263286 0.114385
O O4 0.511151 0.220024 0.350390
O O5 0.250000 0.044065 0.385783
O O6 0.032460 0.091747 0.250265
O O7 0.972269 0.057710 0.489851
O O8 0.000000 0.000000 0.286911
O O9 0.250000 0.596442 0.135931
O O10 0.020908 0.650416 0.034655
O O11 0.969790 0.587668 0.230950
O O12 0.750000 0.547649 0.375793
O O13 0.008190 0.582881 0.486773
O O14 0.000000 0.500000 0.345316
O O15 0.250000 0.382384 0.573860
O O16 0.250000 0.714523 0.010902
#
# Coordination Sequence:
#
# PCOD8193326 Si02
#       6
#     8   8   8   8   8   8
#     4  11  23  43  69  97 126 167 216 259 314 383
#     4  11  21  38  63  91 123 159 204 256 310 371
#     4  11  24  42  62  89 125 166 209 254 311 374
#     4  11  23  41  63  91 127 166 211 260 312 372
#     4   9  21  40  63  92 124 159 205 256 307 369
#     4  11  25  44  65  96 132 166 208 264 325 380
#
# _framework density 20.598960000000002
#
# number of rings (size 3 to 8) (size 9 to 14) (size 15 to 20)
#    0.000    1.333    1.667    3.500    2.333    2.000 
#    0.000    5.000    0.000    0.000    0.000    0.000 
#    0.000    0.000    0.000    0.000    0.000    0.000 
#
# Total GULP energy -297644.086571 kJ/mol
# GULP energy per Si atom -12401.836940 kJ/mol
# Density = 2.055208 g / cm^3
# Si number density = 20.598960 Si / 1000 Ang^3
#
#
#
# Elastic Constant Matrix: (Units=GPa)
#
#
# Indices 1 2 3 4 5 6 
#
# 1 47.7228 25.7417 17.6452 0.0004 -0.0006 -0.0001
# 2 25.7417 96.1800 28.1386 0.0027 -0.0001 0.0000
# 3 17.6452 28.1386 103.6848 0.0037 -0.0005 -0.0001
# 4 0.0004 0.0027 0.0037 17.0174 0.0000 0.0000
# 5 -0.0006 -0.0001 -0.0005 0.0000 24.0883 0.0003
# 6 -0.0001 0.0000 -0.0001 0.0000 0.0003 30.0707
#
#
#
# Elastic Compliance Matrix: (Units=1/GPa)
#
#
# Indices 1 2 3 4 5 6 
#
# 1 0.025150 -0.005952 -0.002665 0.000001 0.000000 0.000000
# 2 -0.005952 0.012702 -0.002434 -0.000001 0.000000 0.000000
# 3 -0.002665 -0.002434 0.010759 -0.000002 0.000000 0.000000
# 4 0.000001 -0.000001 -0.000002 0.058763 0.000000 0.000000
# 5 0.000000 0.000000 0.000000 0.000000 0.041514 0.000000
# 6 0.000000 0.000000 0.000000 0.000000 0.000000 0.033255
#
#
# Mechanical properties :
#
#
# Convention : Reuss Voigt Hill
#
# Bulk Modulus (GPa) = 37.72243 43.40428 40.56335
# Shear Modulus (GPa) = 23.46524 25.97276 24.71900
#
# Velocity S-wave (km/s) = 3.37879 3.55474 3.46788
# Velocity P-wave (km/s) = 5.79432 6.16158 5.98077
#
# Compressibility (1/GPa) = 0.02650942
#
# Stress axis : x y z
#
# Youngs Moduli (GPa) = 39.76155 78.72620 92.94733
#
# Poissons Ratio (x) = 0.46854 0.24769
# Poissons Ratio (y) = 0.23664 0.22627
# Poissons Ratio (z) = 0.10596 0.19165
#
# Static dielectric constant tensor:
#      x y z
#    x 3.626910 0.000000 0.000000 
#    y 0.000000 3.930810 0.000000 
#    z 0.000000 0.000000 3.777730 
# 
# 
# High freq. dielectric constant tensor:
#      x y z
#    x 1.797290 0.000000 0.000000 
#    y 0.000000 1.822050 0.000000 
#    z 0.000000 0.000000 1.815860 
# 
# From -- ./inp_files/3884.got.cif
#   From: 2010.03.12/outbox.cif.g09.slc.cpg/sg46_2_cif.got.tgz:3884.got - 2010.04.14 02:56:35.
