data_PCOD8193661
_publ_section_title
;
Structure prediction by ZEFSAII (Michael W. Deem and Ramdas Pophale) SiO2 
 PCOD8193661
Probable space group: P M M M
;
_chemical_formula_sum "Si O2"
_cell_formula_units_Z 52
_cell_length_a 9.471416
_cell_length_b 25.286547
_cell_length_c 11.971501
_cell_angle_alpha 90.000000
_cell_angle_beta 90.000000
_cell_angle_gamma 90.000000
_cell_volume 2867.167377
_symmetry_space_group_name_H-M "P M M M"
_symmetry_group_IT_number 47
_symmetry_cell_setting 'orthorhombic'
loop_
_space_group_symop_operation_xyz
x,y,z
-x,-y,z
x,-y,-z
-x,y,-z
-x,-y,-z
x,y,-z
-x,y,z
x,-y,z
loop_
_atom_site_type_symbol
_atom_site_label
_atom_site_fract_x
_atom_site_fract_y
_atom_site_fract_z
Si Si1 0.838924 0.406642 0.000000
Si Si2 0.667991 0.697019 0.000000
Si Si3 0.166556 0.342192 0.375415
Si Si4 0.840210 0.857308 0.872422
Si Si5 0.164256 0.442882 0.243545
Si Si6 0.335416 0.061949 0.741150
Si Si7 0.667199 0.058142 0.500000
Si Si8 0.837450 0.743677 0.199297
O O1 0.812464 0.440730 0.889434
O O2 0.721148 0.362302 0.000000
O O3 0.000000 0.383625 0.000000
O O4 0.726978 0.725197 0.891471
O O5 0.500000 0.699361 0.000000
O O6 0.232234 0.340203 0.500000
O O7 0.233064 0.392601 0.308197
O O8 0.201857 0.286809 0.313726
O O9 0.000000 0.349225 0.382532
O O10 0.744009 0.905918 0.836098
O O11 0.817838 0.806892 0.790592
O O12 0.000000 0.877375 0.864288
O O13 0.803104 0.841141 0.000000
O O14 0.227268 0.500000 0.283621
O O15 0.000000 0.442024 0.271480
O O16 0.500000 0.071181 0.760471
O O17 0.287993 0.084908 0.617941
O O18 0.298104 0.000000 0.751339
O O19 0.500000 0.052124 0.500000
O O20 0.735079 0.000000 0.500000
O O21 0.000000 0.730506 0.164078
#
# Coordination Sequence:
#
# PCOD8193661 Si02
#       8
#     4   4   8   8   8   8   4   8
#     4  10  17  30  50  72 102 139 171 205 258 317
#     4  12  22  31  53  83 101 125 174 223 262 304
#     4   9  17  29  49  76 103 134 172 214 259 306
#     4  10  21  35  52  75 104 137 173 212 258 313
#     4   9  16  25  44  75 105 133 170 215 257 302
#     4   9  18  34  56  79 105 139 177 213 253 303
#     4   7  12  28  53  75  97 133 175 209 242 289
#     4  10  19  37  57  73 101 140 175 206 257 320
#
# _framework density 18.136367
#
# number of rings (size 3 to 8) (size 9 to 14) (size 15 to 20)
#    0.000    2.538    2.308    1.846    0.000    2.769 
#    1.385    3.462    0.000    2.769    0.000    0.000 
#    0.000    1.231    0.000    0.000    0.000    0.000 
#
# Total GULP energy -644226.507751 kJ/mol
# GULP energy per Si atom -12388.971303 kJ/mol
# Density = 1.809509 g / cm^3
# Si number density = 18.136367 Si / 1000 Ang^3
#
#
#
# Elastic Constant Matrix: (Units=GPa)
#
#
# Indices 1 2 3 4 5 6 
#
# 1 54.0939 37.6759 28.9851 0.0000 0.0000 0.0000
# 2 37.6759 116.9331 63.0655 0.0000 0.0000 0.0000
# 3 28.9851 63.0655 121.4033 0.0000 0.0000 0.0000
# 4 0.0000 0.0000 0.0000 21.6653 0.0000 0.0000
# 5 0.0000 0.0000 0.0000 0.0000 19.6775 0.0000
# 6 0.0000 0.0000 0.0000 0.0000 0.0000 7.6656
#
#
#
# Elastic Compliance Matrix: (Units=1/GPa)
#
#
# Indices 1 2 3 4 5 6 
#
# 1 0.024334 -0.006539 -0.002413 0.000000 0.000000 0.000000
# 2 -0.006539 0.013638 -0.005523 0.000000 0.000000 0.000000
# 3 -0.002413 -0.005523 0.011682 0.000000 0.000000 0.000000
# 4 0.000000 0.000000 0.000000 0.046157 0.000000 0.000000
# 5 0.000000 0.000000 0.000000 0.000000 0.050819 0.000000
# 6 0.000000 0.000000 0.000000 0.000000 0.000000 0.130453
#
#
# Mechanical properties :
#
#
# Convention : Reuss Voigt Hill
#
# Bulk Modulus (GPa) = 48.30121 61.32037 54.81079
# Shear Modulus (GPa) = 15.97785 20.64859 18.31322
#
# Velocity S-wave (km/s) = 2.97136 3.37785 3.18111
# Velocity P-wave (km/s) = 6.20177 7.00695 6.61662
#
# Compressibility (1/GPa) = 0.02070342
#
# Stress axis : x y z
#
# Youngs Moduli (GPa) = 41.09543 73.32698 85.60045
#
# Poissons Ratio (x) = 0.47948 0.20654
# Poissons Ratio (y) = 0.26872 0.47278
# Poissons Ratio (z) = 0.09916 0.40499
#
# Static dielectric constant tensor:
#      x y z
#    x 2.860150 0.000000 0.000000 
#    y 0.000000 3.395300 0.000000 
#    z 0.000000 0.000000 3.585620 
# 
# 
# High freq. dielectric constant tensor:
#      x y z
#    x 1.646990 0.000000 0.000000 
#    y 0.000000 1.702060 0.000000 
#    z 0.000000 0.000000 1.703770 
# 
# From -- ./inp_files/15594.got.cif
#   From: 2010.03.12/outbox.cif.g09.slc.cpg/sg47_8_cif.got.tgz:15594.got - 2010.04.14 03:12:58.
