data_PCOD8193422
_publ_section_title
;
Structure prediction by ZEFSAII (Michael W. Deem and Ramdas Pophale) SiO2 
 PCOD8193422
Probable space group: I M A 2
;
_chemical_formula_sum "Si O2"
_cell_formula_units_Z 48
_cell_length_a 29.032652
_cell_length_b 7.460170
_cell_length_c 9.540413
_cell_angle_alpha 90.000000
_cell_angle_beta 90.000000
_cell_angle_gamma 90.000000
_cell_volume 2066.343927
_symmetry_space_group_name_H-M "I M A 2"
_symmetry_group_IT_number 46
_symmetry_cell_setting 'orthorhombic'
loop_
_space_group_symop_operation_xyz
x,y,z
-x,-y,z
1/2-x,y,z
1/2+x,-y,z
1/2+x,1/2+y,1/2+z
1/2-x,1/2-y,1/2+z
-x,1/2+y,1/2+z
x,1/2-y,1/2+z
loop_
_atom_site_type_symbol
_atom_site_label
_atom_site_fract_x
_atom_site_fract_y
_atom_site_fract_z
Si Si1 0.198259 0.058924 0.205490
Si Si2 0.489949 0.190367 0.158381
Si Si3 0.932548 0.743271 0.409698
Si Si4 0.420803 0.855493 0.513010
Si Si5 0.330487 0.371160 0.394196
Si Si6 0.361194 0.715194 0.274845
O O1 0.250000 0.981990 0.192873
O O2 0.199685 0.224459 0.313573
O O3 0.164217 0.905285 0.260064
O O4 0.181853 0.135134 0.056853
O O5 0.467097 0.305716 0.281949
O O6 0.500000 0.000000 0.230268
O O7 0.451292 0.138414 0.043907
O O8 0.532442 0.287472 0.084392
O O9 0.883476 0.671996 0.365080
O O10 0.930280 0.951037 0.450296
O O11 0.404125 0.731969 0.383202
O O12 0.379831 0.854282 0.626192
O O13 0.323671 0.571361 0.331711
#
# Coordination Sequence:
#
# PCOD8193422 Si02
#       6
#     8   8   8   8   8   8
#     4  12  28  50  77 112 149 195 258 320 387 465
#     4  12  25  40  64 102 144 194 243 302 350 435
#     4  12  25  44  68 104 145 193 249 297 370 439
#     4  12  24  45  72 104 153 200 251 309 374 442
#     4  12  26  49  77 111 151 202 246 311 390 455
#     4  12  25  48  75 110 147 205 246 309 383 456
#
# _framework density 23.229434000000001
#
# number of rings (size 3 to 8) (size 9 to 14) (size 15 to 20)
#    0.000    0.000    3.333    8.000    0.000    2.667 
#    0.000    0.000    0.000    0.000    0.000    0.000 
#    0.000    0.000    0.000    0.000    0.000    0.000 
#
# Total GULP energy -297674.659878 kJ/mol
# GULP energy per Si atom -12403.110828 kJ/mol
# Density = 2.317656 g / cm^3
# Si number density = 23.229434 Si / 1000 Ang^3
#
#
#
# Elastic Constant Matrix: (Units=GPa)
#
#
# Indices 1 2 3 4 5 6 
#
# 1 102.3794 27.4494 33.6298 0.0000 0.0000 0.0000
# 2 27.4494 91.6946 36.3049 0.0000 0.0000 0.0000
# 3 33.6298 36.3049 144.8368 0.0000 0.0000 0.0000
# 4 0.0000 0.0000 0.0000 38.1128 0.0000 0.0000
# 5 0.0000 0.0000 0.0000 0.0000 18.4030 0.0000
# 6 0.0000 0.0000 0.0000 0.0000 0.0000 24.6135
#
#
#
# Elastic Compliance Matrix: (Units=1/GPa)
#
#
# Indices 1 2 3 4 5 6 
#
# 1 0.011088 -0.002553 -0.001934 0.000000 0.000000 0.000000
# 2 -0.002553 0.012695 -0.002589 0.000000 0.000000 0.000000
# 3 -0.001934 -0.002589 0.008003 0.000000 0.000000 0.000000
# 4 0.000000 0.000000 0.000000 0.026238 0.000000 0.000000
# 5 0.000000 0.000000 0.000000 0.000000 0.054339 0.000000
# 6 0.000000 0.000000 0.000000 0.000000 0.000000 0.040628
#
#
# Mechanical properties :
#
#
# Convention : Reuss Voigt Hill
#
# Bulk Modulus (GPa) = 56.71722 59.29766 58.00744
# Shear Modulus (GPa) = 28.89812 32.32764 30.61288
#
# Velocity S-wave (km/s) = 3.53091 3.73455 3.63416
# Velocity P-wave (km/s) = 6.41032 6.64667 6.52956
#
# Compressibility (1/GPa) = 0.01763133
#
# Stress axis : x y z
#
# Youngs Moduli (GPa) = 90.19103 78.76920 124.96031
#
# Poissons Ratio (x) = 0.20112 0.24173
# Poissons Ratio (y) = 0.23028 0.32357
# Poissons Ratio (z) = 0.17447 0.20396
#
# Static dielectric constant tensor:
#      x y z
#    x 4.212530 0.000000 0.000000 
#    y 0.000000 4.350360 0.000000 
#    z 0.000000 0.000000 4.425260 
# 
# 
# High freq. dielectric constant tensor:
#      x y z
#    x 1.910510 0.000000 0.000000 
#    y 0.000000 1.925400 0.000000 
#    z 0.000000 0.000000 1.940160 
# 
# From -- ./inp_files/8391.got.cif
#   From: 2010.03.12/outbox.cif.g09.slc.cpg/sg46_5_cif.got.tgz:8391.got - 2010.04.14 02:56:35.
