data_PCOD8193344
_publ_section_title
;
Structure prediction by ZEFSAII (Michael W. Deem and Ramdas Pophale) SiO2 
 PCOD8193344
Probable space group: I M A 2
;
_chemical_formula_sum "Si O2"
_cell_formula_units_Z 40
_cell_length_a 22.820405
_cell_length_b 12.181152
_cell_length_c 7.283028
_cell_angle_alpha 90.000000
_cell_angle_beta 90.000000
_cell_angle_gamma 90.000000
_cell_volume 2024.527544
_symmetry_space_group_name_H-M "I M A 2"
_symmetry_group_IT_number 46
_symmetry_cell_setting 'orthorhombic'
loop_
_space_group_symop_operation_xyz
x,y,z
-x,-y,z
1/2-x,y,z
1/2+x,-y,z
1/2+x,1/2+y,1/2+z
1/2-x,1/2-y,1/2+z
-x,1/2+y,1/2+z
x,1/2-y,1/2+z
loop_
_atom_site_type_symbol
_atom_site_label
_atom_site_fract_x
_atom_site_fract_y
_atom_site_fract_z
Si Si1 0.485041 0.650877 0.811230
Si Si2 0.360920 0.364453 0.272610
Si Si3 0.011831 0.380879 0.397831
Si Si4 0.596601 0.530033 0.926210
Si Si5 0.816195 0.632060 0.651079
O O1 0.493819 0.605376 0.608076
O O2 0.473796 0.782108 0.808568
O O3 0.543209 0.618551 0.927645
O O4 0.428515 0.592518 0.900817
O O5 0.421600 0.342581 0.378577
O O6 0.316729 0.400262 0.434604
O O7 0.338146 0.257004 0.168463
O O8 0.369419 0.459382 0.120261
O O9 0.000000 0.500000 0.301327
O O10 0.642506 0.550544 0.763425
O O11 0.750000 0.621158 0.724902
#
# Coordination Sequence:
#
# PCOD8193344 Si02
#       5
#     8   8   8   8   8
#     4  11  22  39  58  92 133 171 204 255 324 396
#     4  12  22  36  58  90 129 171 212 264 321 390
#     4  12  22  38  61  91 136 171 208 257 318 394
#     4  11  23  40  57  88 133 167 209 261 325 393
#     4  12  23  39  61  91 131 172 220 275 328 381
#
# _framework density 19.757697
#
# number of rings (size 3 to 8) (size 9 to 14) (size 15 to 20)
#    0.000    0.400    8.000    1.800    5.600    0.800 
#    0.000    0.000    0.000    0.000    0.000    7.000 
#    0.000    0.000    0.000    0.000    0.000    0.000 
#
# Total GULP energy -247986.995248 kJ/mol
# GULP energy per Si atom -12399.349762 kJ/mol
# Density = 1.971273 g / cm^3
# Si number density = 19.757697 Si / 1000 Ang^3
#
#
#
# Elastic Constant Matrix: (Units=GPa)
#
#
# Indices 1 2 3 4 5 6 
#
# 1 105.7945 48.1106 28.4924 0.0000 0.0000 0.0000
# 2 48.1106 148.9381 26.1232 0.0000 0.0000 0.0000
# 3 28.4924 26.1232 100.5627 0.0000 0.0000 0.0000
# 4 0.0000 0.0000 0.0000 21.6744 0.0000 0.0000
# 5 0.0000 0.0000 0.0000 0.0000 23.4776 0.0000
# 6 0.0000 0.0000 0.0000 0.0000 0.0000 21.3135
#
#
#
# Elastic Compliance Matrix: (Units=1/GPa)
#
#
# Indices 1 2 3 4 5 6 
#
# 1 0.011619 -0.003328 -0.002428 0.000000 0.000000 0.000000
# 2 -0.003328 0.007988 -0.001132 0.000000 0.000000 0.000000
# 3 -0.002428 -0.001132 0.010926 0.000000 0.000000 0.000000
# 4 0.000000 0.000000 0.000000 0.046137 0.000000 0.000000
# 5 0.000000 0.000000 0.000000 0.000000 0.042594 0.000000
# 6 0.000000 0.000000 0.000000 0.000000 0.000000 0.046919
#
#
# Mechanical properties :
#
#
# Convention : Reuss Voigt Hill
#
# Bulk Modulus (GPa) = 59.67238 62.30531 60.98884
# Shear Modulus (GPa) = 26.94784 30.13104 28.53944
#
# Velocity S-wave (km/s) = 3.69713 3.90940 3.80474
# Velocity P-wave (km/s) = 6.96367 7.20979 7.08780
#
# Compressibility (1/GPa) = 0.01675817
#
# Stress axis : x y z
#
# Youngs Moduli (GPa) = 86.06360 125.19337 91.52486
#
# Poissons Ratio (x) = 0.41658 0.22220
# Poissons Ratio (y) = 0.28638 0.10362
# Poissons Ratio (z) = 0.20894 0.14174
#
# Static dielectric constant tensor:
#      x y z
#    x 3.422920 0.000000 0.000000 
#    y 0.000000 3.466220 0.000000 
#    z 0.000000 0.000000 3.740930 
# 
# 
# High freq. dielectric constant tensor:
#      x y z
#    x 1.737460 0.000000 0.000000 
#    y 0.000000 1.741710 0.000000 
#    z 0.000000 0.000000 1.793030 
# 
# From -- ./inp_files/7262.got.cif
#   From: 2010.03.12/outbox.cif.g09.slc.cpg/sg46_4_cif.got.tgz:7262.got - 2010.04.14 02:56:35.
