data_PCOD8193992
_publ_section_title
;
Structure prediction by ZEFSAII (Michael W. Deem and Ramdas Pophale) SiO2 
 PCOD8193992
Probable space group: P M M M
;
_chemical_formula_sum "Si O2"
_cell_formula_units_Z 48
_cell_length_a 11.638528
_cell_length_b 12.324181
_cell_length_c 21.169216
_cell_angle_alpha 90.000000
_cell_angle_beta 90.000000
_cell_angle_gamma 90.000000
_cell_volume 3036.413391
_symmetry_space_group_name_H-M "P M M M"
_symmetry_group_IT_number 47
_symmetry_cell_setting 'orthorhombic'
loop_
_space_group_symop_operation_xyz
x,y,z
-x,-y,z
x,-y,-z
-x,y,-z
-x,-y,-z
x,y,-z
-x,y,z
x,-y,z
loop_
_atom_site_type_symbol
_atom_site_label
_atom_site_fract_x
_atom_site_fract_y
_atom_site_fract_z
Si Si1 0.124003 0.500000 0.071242
Si Si2 0.862905 0.878632 0.000000
Si Si3 0.000000 0.377361 0.425593
Si Si4 0.632600 0.874237 0.427581
Si Si5 0.867815 0.626472 0.761861
Si Si6 0.865606 0.721526 0.891969
Si Si7 0.364474 0.500000 0.571027
Si Si8 0.768274 0.691347 0.632616
O O1 0.194661 0.608969 0.086313
O O2 0.000000 0.500000 0.109922
O O3 0.089259 0.500000 0.000000
O O4 0.816557 0.820214 0.064964
O O5 0.000000 0.883563 0.000000
O O6 0.811568 0.000000 0.000000
O O7 0.110970 0.313235 0.402812
O O8 0.000000 0.500000 0.397218
O O9 0.000000 0.382301 0.500000
O O10 0.656951 0.838519 0.500000
O O11 0.500000 0.851321 0.411049
O O12 0.713852 0.809481 0.379089
O O13 0.661954 0.000000 0.418596
O O14 0.840407 0.500000 0.782078
O O15 0.845431 0.718195 0.816466
O O16 0.784673 0.665419 0.706288
O O17 0.000000 0.633297 0.739176
O O18 0.000000 0.716703 0.908345
O O19 0.500000 0.500000 0.571527
O O20 0.315301 0.500000 0.500000
O O21 0.321293 0.393851 0.605588
#
# Coordination Sequence:
#
# PCOD8193992 Si02
#       8
#     4   4   4   8   8   8   4   8
#     4   9  12  17  32  54  72  91 136 196 233 249
#     4   9  16  25  37  57  83 114 155 202 246 277
#     4  11  20  30  45  67  97 136 166 190 240 299
#     4   9  19  37  58  74  88 114 157 210 263 303
#     4  10  18  29  42  63  93 132 166 192 229 287
#     4   9  15  23  38  56  80 114 158 199 229 265
#     4  11  22  32  47  73  99 124 160 210 264 307
#     4  12  20  32  48  70 100 128 162 204 244 297
#
# _framework density 15.808123999999999
#
# number of rings (size 3 to 8) (size 9 to 14) (size 15 to 20)
#    0.000    2.000    4.167    2.500    0.000    1.333 
#    0.000    1.250    0.000    2.500    0.000    0.000 
#    0.000    0.000    0.000    3.750    0.000    7.250 
#
# Total GULP energy -594643.564221 kJ/mol
# GULP energy per Si atom -12388.407588 kJ/mol
# Density = 1.577214 g / cm^3
# Si number density = 15.808124 Si / 1000 Ang^3
#
#
#
# Elastic Constant Matrix: (Units=GPa)
#
#
# Indices 1 2 3 4 5 6 
#
# 1 45.3065 31.2246 26.7384 0.0000 0.0000 0.0000
# 2 31.2246 108.8363 53.6265 0.0000 0.0000 0.0000
# 3 26.7384 53.6265 104.2273 0.0000 0.0000 0.0000
# 4 0.0000 0.0000 0.0000 24.8164 0.0000 0.0000
# 5 0.0000 0.0000 0.0000 0.0000 26.1038 0.0000
# 6 0.0000 0.0000 0.0000 0.0000 0.0000 23.0331
#
#
#
# Elastic Compliance Matrix: (Units=1/GPa)
#
#
# Indices 1 2 3 4 5 6 
#
# 1 0.028825 -0.006197 -0.004206 0.000000 0.000000 0.000000
# 2 -0.006197 0.013641 -0.005429 0.000000 0.000000 0.000000
# 3 -0.004206 -0.005429 0.013467 0.000000 0.000000 0.000000
# 4 0.000000 0.000000 0.000000 0.040296 0.000000 0.000000
# 5 0.000000 0.000000 0.000000 0.000000 0.038309 0.000000
# 6 0.000000 0.000000 0.000000 0.000000 0.000000 0.043416
#
#
# Mechanical properties :
#
#
# Convention : Reuss Voigt Hill
#
# Bulk Modulus (GPa) = 41.20556 53.50545 47.35551
# Shear Modulus (GPa) = 22.96663 24.57602 23.77132
#
# Velocity S-wave (km/s) = 3.81575 3.94718 3.88202
# Velocity P-wave (km/s) = 6.74803 7.39553 7.07919
#
# Compressibility (1/GPa) = 0.02426857
#
# Stress axis : x y z
#
# Youngs Moduli (GPa) = 34.69160 73.30887 74.25800
#
# Poissons Ratio (x) = 0.45432 0.31234
# Poissons Ratio (y) = 0.21500 0.40312
# Poissons Ratio (z) = 0.14592 0.39796
#
# Static dielectric constant tensor:
#      x y z
#    x 2.748980 0.000000 0.000000 
#    y 0.000000 3.126450 0.000000 
#    z 0.000000 0.000000 3.076340 
# 
# 
# High freq. dielectric constant tensor:
#      x y z
#    x 1.551650 0.000000 0.000000 
#    y 0.000000 1.601750 0.000000 
#    z 0.000000 0.000000 1.612030 
# 
# From -- ./inp_files/30479.got.cif
#   From: 2010.03.12/outbox.cif.g09.slc.cpg/sg47_16_cif.got.tgz:30479.got - 2010.04.14 03:12:58.
