data_PCOD8193948
_publ_section_title
;
Structure prediction by ZEFSAII (Michael W. Deem and Ramdas Pophale) SiO2 
 PCOD8193948
Probable space group: P M M M
;
_chemical_formula_sum "Si O2"
_cell_formula_units_Z 64
_cell_length_a 8.683649
_cell_length_b 20.092877
_cell_length_c 20.389171
_cell_angle_alpha 90.000000
_cell_angle_beta 90.000000
_cell_angle_gamma 90.000000
_cell_volume 3557.492183
_symmetry_space_group_name_H-M "P M M M"
_symmetry_group_IT_number 47
_symmetry_cell_setting 'orthorhombic'
loop_
_space_group_symop_operation_xyz
x,y,z
-x,-y,z
x,-y,-z
-x,y,-z
-x,-y,-z
x,y,-z
-x,y,z
x,-y,z
loop_
_atom_site_type_symbol
_atom_site_label
_atom_site_fract_x
_atom_site_fract_y
_atom_site_fract_z
Si Si1 0.321742 0.715013 0.624746
Si Si2 0.318188 0.074516 0.688567
Si Si3 0.817325 0.287227 0.768143
Si Si4 0.675527 0.428840 0.639673
Si Si5 0.320066 0.157793 0.187360
Si Si6 0.178859 0.429966 0.777072
Si Si7 0.176791 0.923050 0.925022
Si Si8 0.176798 0.157771 0.574387
O O1 0.500000 0.734879 0.619940
O O2 0.270281 0.723158 0.699838
O O3 0.292536 0.638885 0.598353
O O4 0.226971 0.765273 0.579620
O O5 0.500000 0.070416 0.692892
O O6 0.254894 0.115076 0.751268
O O7 0.274070 0.110555 0.621420
O O8 0.247536 0.000000 0.689743
O O9 0.769531 0.227831 0.816212
O O10 0.762871 0.357636 0.802715
O O11 0.000000 0.287775 0.755525
O O12 0.500000 0.424114 0.666657
O O13 0.695954 0.500000 0.600623
O O14 0.793429 0.429074 0.699428
O O15 0.500000 0.171618 0.194846
O O16 0.289150 0.119610 0.120067
O O17 0.253423 0.500000 0.805822
O O18 0.000000 0.434531 0.791358
O O19 0.000000 0.909453 0.905778
O O20 0.217808 0.000000 0.914695
O O21 0.206756 0.902209 0.000000
O O22 0.203624 0.133852 0.500000
O O23 0.000000 0.151784 0.595004
#
# Coordination Sequence:
#
# PCOD8193948 Si02
#       8
#     8   8   8   8   8   8   8   8
#     4  10  18  30  49  71  95 125 161 201 249 301
#     4  10  22  39  57  77 100 127 160 201 251 303
#     4  10  18  28  46  71 100 134 169 206 249 294
#     4   8  14  24  40  64  92 120 152 192 238 290
#     4  11  21  33  52  79 109 139 171 207 247 293
#     4   8  14  24  38  60  92 128 164 201 242 288
#     4   9  19  36  56  78 106 141 178 212 248 293
#     4  11  24  39  54  72  94 124 164 208 255 308
#
# _framework density 17.990200999999999
#
# number of rings (size 3 to 8) (size 9 to 14) (size 15 to 20)
#    0.000    2.375    1.250    2.250    0.000    4.000 
#    0.000    1.875    0.000    0.375    0.000    2.625 
#    0.000    0.500    0.000    5.750    0.000    1.625 
#
# Total GULP energy -792884.399019 kJ/mol
# GULP energy per Si atom -12388.818735 kJ/mol
# Density = 1.794925 g / cm^3
# Si number density = 17.990201 Si / 1000 Ang^3
#
#
#
# Elastic Constant Matrix: (Units=GPa)
#
#
# Indices 1 2 3 4 5 6 
#
# 1 20.6802 19.5904 12.7658 0.0000 0.0000 0.0000
# 2 19.5904 155.0988 39.4450 0.0000 0.0000 0.0000
# 3 12.7658 39.4450 56.5661 0.0000 0.0000 0.0000
# 4 0.0000 0.0000 0.0000 16.5217 0.0000 0.0000
# 5 0.0000 0.0000 0.0000 0.0000 21.0615 0.0000
# 6 0.0000 0.0000 0.0000 0.0000 0.0000 23.0738
#
#
#
# Elastic Compliance Matrix: (Units=1/GPa)
#
#
# Indices 1 2 3 4 5 6 
#
# 1 0.059158 -0.004956 -0.009895 0.000000 0.000000 0.000000
# 2 -0.004956 0.008253 -0.004636 0.000000 0.000000 0.000000
# 3 -0.009895 -0.004636 0.023145 0.000000 0.000000 0.000000
# 4 0.000000 0.000000 0.000000 0.060526 0.000000 0.000000
# 5 0.000000 0.000000 0.000000 0.000000 0.047480 0.000000
# 6 0.000000 0.000000 0.000000 0.000000 0.000000 0.043339
#
#
# Mechanical properties :
#
#
# Convention : Reuss Voigt Hill
#
# Bulk Modulus (GPa) = 19.38691 41.77193 30.57942
# Shear Modulus (GPa) = 16.77466 22.83433 19.80450
#
# Velocity S-wave (km/s) = 3.05689 3.56654 3.32150
# Velocity P-wave (km/s) = 4.82278 6.34271 5.63423
#
# Compressibility (1/GPa) = 0.05158121
#
# Stress axis : x y z
#
# Youngs Moduli (GPa) = 16.90385 121.17435 43.20677
#
# Poissons Ratio (x) = 0.60050 0.42753
# Poissons Ratio (y) = 0.08377 0.20032
# Poissons Ratio (z) = 0.16726 0.56180
#
# Static dielectric constant tensor:
#      x y z
#    x 3.257940 0.000000 0.000000 
#    y 0.000000 4.016480 0.000000 
#    z 0.000000 0.000000 2.810980 
# 
# 
# High freq. dielectric constant tensor:
#      x y z
#    x 1.694800 0.000000 0.000000 
#    y 0.000000 1.724930 0.000000 
#    z 0.000000 0.000000 1.632520 
# 
# From -- ./inp_files/11599.got.cif
#   From: 2010.03.12/outbox.cif.g09.slc.cpg/sg47_6_cif.got.tgz:11599.got - 2010.04.14 03:12:58.
