data_PCOD8193380
_publ_section_title
;
Structure prediction by ZEFSAII (Michael W. Deem and Ramdas Pophale) SiO2 
 PCOD8193380
Probable space group: I M A 2
;
_chemical_formula_sum "Si O2"
_cell_formula_units_Z 48
_cell_length_a 22.880197
_cell_length_b 4.919799
_cell_length_c 19.546663
_cell_angle_alpha 90.000000
_cell_angle_beta 90.000000
_cell_angle_gamma 90.000000
_cell_volume 2200.289087
_symmetry_space_group_name_H-M "I M A 2"
_symmetry_group_IT_number 46
_symmetry_cell_setting 'orthorhombic'
loop_
_space_group_symop_operation_xyz
x,y,z
-x,-y,z
1/2-x,y,z
1/2+x,-y,z
1/2+x,1/2+y,1/2+z
1/2-x,1/2-y,1/2+z
-x,1/2+y,1/2+z
x,1/2-y,1/2+z
loop_
_atom_site_type_symbol
_atom_site_label
_atom_site_fract_x
_atom_site_fract_y
_atom_site_fract_z
Si Si1 0.156631 0.163299 0.297690
Si Si2 0.438228 0.131953 0.526248
Si Si3 0.750000 0.568121 0.908502
Si Si4 0.250000 0.551984 0.498684
Si Si5 0.817314 0.168698 0.709950
Si Si6 0.960353 0.750487 0.371591
Si Si7 0.369798 0.857685 0.072842
O O1 0.178416 0.359391 0.236637
O O2 0.092476 0.252204 0.318831
O O3 0.194084 0.164279 0.366305
O O4 0.161852 0.856120 0.272026
O O5 0.440775 0.254385 0.450466
O O6 0.413689 0.379649 0.573663
O O7 0.500000 0.000000 0.551695
O O8 0.394250 0.879607 0.524520
O O9 0.750000 0.739605 0.977303
O O10 0.750000 0.253125 0.932609
O O11 0.193395 0.572840 0.545111
O O12 0.750000 0.226536 0.689109
O O13 0.861838 0.231936 0.648294
O O14 0.000000 0.500000 0.353871
O O15 0.000000 0.000000 0.353756
#
# Coordination Sequence:
#
# PCOD8193380 Si02
#       7
#     8   8   4   4   8   8   8
#     4  12  24  43  66  96 131 173 228 263 330 394
#     4  11  24  44  69  97 132 175 218 275 338 394
#     4  12  24  38  64  98 132 164 214 284 334 392
#     4  12  24  38  64 100 132 162 214 286 340 388
#     4  12  24  45  65  94 134 186 214 265 331 395
#     4  11  23  43  69  96 131 173 215 273 337 390
#     4  12  24  43  66  98 132 174 226 268 332 398
#
# _framework density 21.815315999999999
#
# number of rings (size 3 to 8) (size 9 to 14) (size 15 to 20)
#    0.000    0.333    2.500    8.500    0.000    0.000 
#    0.000    8.333    0.000    0.000    0.000    0.000 
#    0.000    0.000    0.000    0.000    0.000    0.000 
#
# Total GULP energy -297613.868860 kJ/mol
# GULP energy per Si atom -12400.577869 kJ/mol
# Density = 2.176566 g / cm^3
# Si number density = 21.815316 Si / 1000 Ang^3
#
#
#
# Elastic Constant Matrix: (Units=GPa)
#
#
# Indices 1 2 3 4 5 6 
#
# 1 111.0807 22.8558 29.6406 0.0000 0.0000 0.0000
# 2 22.8558 103.4747 8.3165 0.0000 0.0000 0.0000
# 3 29.6406 8.3165 58.6798 0.0000 0.0000 0.0000
# 4 0.0000 0.0000 0.0000 28.1570 0.0000 0.0000
# 5 0.0000 0.0000 0.0000 0.0000 106.0841 0.0000
# 6 0.0000 0.0000 0.0000 0.0000 0.0000 67.0973
#
#
#
# Elastic Compliance Matrix: (Units=1/GPa)
#
#
# Indices 1 2 3 4 5 6 
#
# 1 0.010787 -0.001967 -0.005170 0.000000 0.000000 0.000000
# 2 -0.001967 0.010134 -0.000443 0.000000 0.000000 0.000000
# 3 -0.005170 -0.000443 0.019716 0.000000 0.000000 0.000000
# 4 0.000000 0.000000 0.000000 0.035515 0.000000 0.000000
# 5 0.000000 0.000000 0.000000 0.000000 0.009426 0.000000
# 6 0.000000 0.000000 0.000000 0.000000 0.000000 0.014904
#
#
# Mechanical properties :
#
#
# Convention : Reuss Voigt Hill
#
# Bulk Modulus (GPa) = 39.25024 43.87346 41.56185
# Shear Modulus (GPa) = 40.27910 54.42919 47.35414
#
# Velocity S-wave (km/s) = 4.30160 5.00042 4.66411
# Velocity P-wave (km/s) = 6.53474 7.31395 6.93530
#
# Compressibility (1/GPa) = 0.02547755
#
# Stress axis : x y z
#
# Youngs Moduli (GPa) = 92.70657 98.67510 50.72076
#
# Poissons Ratio (x) = 0.19410 0.26222
# Poissons Ratio (y) = 0.18236 0.02245
# Poissons Ratio (z) = 0.47928 0.04368
#
# Static dielectric constant tensor:
#      x y z
#    x 2.693710 0.000000 0.000000 
#    y 0.000000 4.104910 0.000000 
#    z 0.000000 0.000000 3.693350 
# 
# 
# High freq. dielectric constant tensor:
#      x y z
#    x 1.869670 0.000000 0.000000 
#    y 0.000000 1.877660 0.000000 
#    z 0.000000 0.000000 1.843610 
# 
# From -- ./inp_files/22381.got.cif
#   From: 2010.03.12/outbox.cif.g09.slc.cpg/sg46_12_cif.got.tgz:22381.got - 2010.04.14 02:56:35.
