data_PCOD8193626
_publ_section_title
;
Structure prediction by ZEFSAII (Michael W. Deem and Ramdas Pophale) SiO2 
 PCOD8193626
Probable space group: P M M M
;
_chemical_formula_sum "Si O2"
_cell_formula_units_Z 52
_cell_length_a 16.347834
_cell_length_b 20.809057
_cell_length_c 8.969050
_cell_angle_alpha 90.000000
_cell_angle_beta 90.000000
_cell_angle_gamma 90.000000
_cell_volume 3051.118422
_symmetry_space_group_name_H-M "P M M M"
_symmetry_group_IT_number 47
_symmetry_cell_setting 'orthorhombic'
loop_
_space_group_symop_operation_xyz
x,y,z
-x,-y,z
x,-y,-z
-x,y,-z
-x,-y,-z
x,y,-z
-x,y,z
x,-y,z
loop_
_atom_site_type_symbol
_atom_site_label
_atom_site_fract_x
_atom_site_fract_y
_atom_site_fract_z
Si Si1 0.592783 0.804331 0.326029
Si Si2 0.841557 0.364722 0.676816
Si Si3 0.309886 0.071962 0.329316
Si Si4 0.738382 0.262688 0.824269
Si Si5 0.093186 0.500000 0.323272
Si Si6 0.000000 0.147006 0.676764
Si Si7 0.165700 0.864206 0.824996
Si Si8 0.000000 0.291991 0.676446
O O1 0.602288 0.789049 0.500000
O O2 0.500000 0.795076 0.271849
O O3 0.618215 0.877911 0.290885
O O4 0.648737 0.754552 0.236174
O O5 0.830849 0.359201 0.500000
O O6 0.763854 0.331325 0.754494
O O7 0.854063 0.438368 0.728563
O O8 0.920569 0.327460 0.738238
O O9 0.281043 0.081035 0.500000
O O10 0.232493 0.083602 0.223199
O O11 0.343436 0.000000 0.301196
O O12 0.802506 0.206769 0.776103
O O13 0.733488 0.269449 0.000000
O O14 0.083913 0.500000 0.500000
O O15 0.000000 0.500000 0.257354
O O16 0.918009 0.115768 0.742641
O O17 0.000000 0.219910 0.734771
O O18 0.000000 0.139759 0.500000
O O19 0.151197 0.868042 0.000000
O O20 0.000000 0.295409 0.500000
#
# Coordination Sequence:
#
# PCOD8193626 Si02
#       8
#     8   8   8   8   4   4   8   4
#     4   9  18  33  54  79 102 123 151 191 239 290
#     4  10  17  29  47  70  98 132 171 206 242 283
#     4   9  18  33  52  73  98 127 156 188 231 286
#     4  10  20  32  47  69  98 131 163 198 240 287
#     4   9  16  26  45  71 100 133 172 213 245 278
#     4  11  19  29  47  70  91 120 165 211 251 286
#     4  10  20  32  46  67  95 126 162 203 243 282
#     4   9  16  24  43  69  92 123 162 203 243 280
#
# _framework density 17.042930999999999
#
# number of rings (size 3 to 8) (size 9 to 14) (size 15 to 20)
#    0.000    2.385    2.308    1.154    0.000    2.154 
#    0.000    2.692    0.000    2.769    0.000    4.846 
#    0.000    4.308    0.000    0.000    0.000    0.000 
#
# Total GULP energy -644736.287777 kJ/mol
# GULP energy per Si atom -12398.774765 kJ/mol
# Density = 1.700414 g / cm^3
# Si number density = 17.042931 Si / 1000 Ang^3
#
#
#
# Elastic Constant Matrix: (Units=GPa)
#
#
# Indices 1 2 3 4 5 6 
#
# 1 121.7024 45.8682 41.3688 0.0000 0.0000 0.0000
# 2 45.8682 97.3460 25.8961 0.0000 0.0000 0.0000
# 3 41.3688 25.8961 54.9650 0.0000 0.0000 0.0000
# 4 0.0000 0.0000 0.0000 16.3396 0.0000 0.0000
# 5 0.0000 0.0000 0.0000 0.0000 17.7722 0.0000
# 6 0.0000 0.0000 0.0000 0.0000 0.0000 19.1029
#
#
#
# Elastic Compliance Matrix: (Units=1/GPa)
#
#
# Indices 1 2 3 4 5 6 
#
# 1 0.012137 -0.003760 -0.007363 0.000000 0.000000 0.000000
# 2 -0.003760 0.012909 -0.003252 0.000000 0.000000 0.000000
# 3 -0.007363 -0.003252 0.025267 0.000000 0.000000 0.000000
# 4 0.000000 0.000000 0.000000 0.061201 0.000000 0.000000
# 5 0.000000 0.000000 0.000000 0.000000 0.056268 0.000000
# 6 0.000000 0.000000 0.000000 0.000000 0.000000 0.052348
#
#
# Mechanical properties :
#
#
# Convention : Reuss Voigt Hill
#
# Bulk Modulus (GPa) = 46.37578 55.58659 50.98119
# Shear Modulus (GPa) = 19.52604 21.36831 20.44717
#
# Velocity S-wave (km/s) = 3.38849 3.54474 3.46749
# Velocity P-wave (km/s) = 6.52529 7.03136 6.78304
#
# Compressibility (1/GPa) = 0.02156298
#
# Stress axis : x y z
#
# Youngs Moduli (GPa) = 82.39490 77.46274 39.57665
#
# Poissons Ratio (x) = 0.29125 0.29141
# Poissons Ratio (y) = 0.30980 0.12871
# Poissons Ratio (z) = 0.60668 0.25193
#
# Static dielectric constant tensor:
#      x y z
#    x 3.085750 0.000000 0.000000 
#    y 0.000000 3.172900 0.000000 
#    z 0.000000 0.000000 2.963180 
# 
# 
# High freq. dielectric constant tensor:
#      x y z
#    x 1.642720 0.000000 0.000000 
#    y 0.000000 1.641430 0.000000 
#    z 0.000000 0.000000 1.643890 
# 
# From -- ./inp_files/7128.got.cif
#   From: 2010.03.12/outbox.cif.g09.slc.cpg/sg47_4_cif.got.tgz:7128.got - 2010.04.14 03:12:58.
