data_PCOD8193747
_publ_section_title
;
Structure prediction by ZEFSAII (Michael W. Deem and Ramdas Pophale) SiO2 
 PCOD8193747
Probable space group: P M M M
;
_chemical_formula_sum "Si O2"
_cell_formula_units_Z 64
_cell_length_a 18.573437
_cell_length_b 26.225242
_cell_length_c 8.989189
_cell_angle_alpha 90.000000
_cell_angle_beta 90.000000
_cell_angle_gamma 90.000000
_cell_volume 4378.569960
_symmetry_space_group_name_H-M "P M M M"
_symmetry_group_IT_number 47
_symmetry_cell_setting 'orthorhombic'
loop_
_space_group_symop_operation_xyz
x,y,z
-x,-y,z
x,-y,-z
-x,y,-z
-x,-y,-z
x,y,-z
-x,y,z
x,-y,z
loop_
_atom_site_type_symbol
_atom_site_label
_atom_site_fract_x
_atom_site_fract_y
_atom_site_fract_z
Si Si1 0.582381 0.251654 0.824898
Si Si2 0.343649 0.853773 0.830675
Si Si3 0.419471 0.056869 0.324329
Si Si4 0.082120 0.440861 0.671441
Si Si5 0.921600 0.260261 0.173126
Si Si6 0.216904 0.211438 0.829204
Si Si7 0.707246 0.302151 0.324886
Si Si8 0.829543 0.356537 0.175893
O O1 0.500000 0.256095 0.774013
O O2 0.611379 0.195699 0.778203
O O3 0.626661 0.296411 0.741789
O O4 0.591909 0.259451 0.000000
O O5 0.362118 0.902980 0.735252
O O6 0.257501 0.842682 0.810007
O O7 0.362704 0.866703 0.000000
O O8 0.417532 0.058753 0.500000
O O9 0.500000 0.070592 0.267710
O O10 0.398628 0.000000 0.269102
O O11 0.094412 0.426073 0.500000
O O12 0.098808 0.500000 0.697793
O O13 0.136788 0.409829 0.774032
O O14 0.000000 0.428513 0.717887
O O15 0.869324 0.210984 0.202989
O O16 0.882537 0.311281 0.232299
O O17 0.000000 0.252602 0.251210
O O18 0.934831 0.267023 0.000000
O O19 0.251424 0.250332 0.713816
O O20 0.230010 0.231106 0.000000
O O21 0.702638 0.310791 0.500000
O O22 0.750970 0.349162 0.251116
O O23 0.819464 0.356098 0.000000
#
# Coordination Sequence:
#
# PCOD8193747 Si02
#       8
#     8   8   8   8   8   8   8   8
#     4   9  17  29  43  59  82 109 134 163 200 239
#     4   9  16  26  40  57  77 103 132 159 192 234
#     4   9  18  30  40  52  73  99 127 162 200 232
#     4   9  18  31  44  60  85 113 139 172 213 249
#     4   8  13  22  38  58  77 100 131 163 193 228
#     4   8  15  27  39  54  79 105 129 161 198 235
#     4  10  18  27  40  58  80 106 137 169 201 239
#     4  10  18  28  42  59  81 109 142 175 204 238
#
# _framework density 14.616644000000001
#
# number of rings (size 3 to 8) (size 9 to 14) (size 15 to 20)
#    0.000    3.000    0.000    4.500    0.000    4.250 
#    0.000    1.250    0.000    3.375    0.000    0.000 
#    0.000    1.000    0.000   11.500    0.000    3.250 
#
# Total GULP energy -793009.451400 kJ/mol
# GULP energy per Si atom -12390.772678 kJ/mol
# Density = 1.458338 g / cm^3
# Si number density = 14.616644 Si / 1000 Ang^3
#
#
#
# Elastic Constant Matrix: (Units=GPa)
#
#
# Indices 1 2 3 4 5 6 
#
# 1 113.2265 48.4183 32.1051 0.0000 0.0000 0.0000
# 2 48.4183 68.5671 30.1225 0.0000 0.0000 0.0000
# 3 32.1051 30.1225 52.9598 0.0000 0.0000 0.0000
# 4 0.0000 0.0000 0.0000 22.5766 0.0000 0.0000
# 5 0.0000 0.0000 0.0000 0.0000 18.3892 0.0000
# 6 0.0000 0.0000 0.0000 0.0000 0.0000 25.7462
#
#
#
# Elastic Compliance Matrix: (Units=1/GPa)
#
#
# Indices 1 2 3 4 5 6 
#
# 1 0.013144 -0.007707 -0.003585 0.000000 0.000000 0.000000
# 2 -0.007707 0.023961 -0.008957 0.000000 0.000000 0.000000
# 3 -0.003585 -0.008957 0.026150 0.000000 0.000000 0.000000
# 4 0.000000 0.000000 0.000000 0.044294 0.000000 0.000000
# 5 0.000000 0.000000 0.000000 0.000000 0.054380 0.000000
# 6 0.000000 0.000000 0.000000 0.000000 0.000000 0.038841
#
#
# Mechanical properties :
#
#
# Convention : Reuss Voigt Hill
#
# Bulk Modulus (GPa) = 43.93931 50.67168 47.30550
# Shear Modulus (GPa) = 20.09236 21.61622 20.85429
#
# Velocity S-wave (km/s) = 3.71161 3.84979 3.78133
# Velocity P-wave (km/s) = 6.96380 7.38265 7.17628
#
# Compressibility (1/GPa) = 0.02275866
#
# Stress axis : x y z
#
# Youngs Moduli (GPa) = 76.08147 41.73435 38.24143
#
# Poissons Ratio (x) = 0.32163 0.13708
# Poissons Ratio (y) = 0.58633 0.34252
# Poissons Ratio (z) = 0.27272 0.37380
#
# Static dielectric constant tensor:
#      x y z
#    x 3.149530 0.000000 0.000000 
#    y 0.000000 2.636960 0.000000 
#    z 0.000000 0.000000 2.678390 
# 
# 
# High freq. dielectric constant tensor:
#      x y z
#    x 1.555580 0.000000 0.000000 
#    y 0.000000 1.520860 0.000000 
#    z 0.000000 0.000000 1.550890 
# 
# From -- ./inp_files/10265.got.cif
#   From: 2010.03.12/outbox.cif.g09.slc.cpg/sg47_6_cif.got.tgz:10265.got - 2010.04.14 03:12:58.
