data_PCOD8193955
_publ_section_title
;
Structure prediction by ZEFSAII (Michael W. Deem and Ramdas Pophale) SiO2 
 PCOD8193955
Probable space group: P M M M
;
_chemical_formula_sum "Si O2"
_cell_formula_units_Z 56
_cell_length_a 29.458692
_cell_length_b 8.674923
_cell_length_c 13.726137
_cell_angle_alpha 90.000000
_cell_angle_beta 90.000000
_cell_angle_gamma 90.000000
_cell_volume 3507.740181
_symmetry_space_group_name_H-M "P M M M"
_symmetry_group_IT_number 47
_symmetry_cell_setting 'orthorhombic'
loop_
_space_group_symop_operation_xyz
x,y,z
-x,-y,z
x,-y,-z
-x,y,-z
-x,-y,-z
x,y,-z
-x,y,z
x,-y,z
loop_
_atom_site_type_symbol
_atom_site_label
_atom_site_fract_x
_atom_site_fract_y
_atom_site_fract_z
Si Si1 0.640264 0.681359 0.609439
Si Si2 0.728493 0.682299 0.719255
Si Si3 0.220245 0.819938 0.111419
Si Si4 0.549226 0.174973 0.615587
Si Si5 0.137183 0.317407 0.779643
Si Si6 0.949929 0.683008 0.891043
Si Si7 0.188553 0.820385 0.388687
O O1 0.645658 0.750859 0.500000
O O2 0.643263 0.500000 0.603491
O O3 0.680560 0.744039 0.677813
O O4 0.591713 0.727869 0.656585
O O5 0.728425 0.500000 0.735604
O O6 0.737500 0.765754 0.822284
O O7 0.767069 0.724827 0.641237
O O8 0.175556 0.726309 0.142023
O O9 0.211008 0.000000 0.127915
O O10 0.232280 0.782159 0.000000
O O11 0.548933 0.187133 0.500000
O O12 0.500000 0.236747 0.654249
O O13 0.555771 0.000000 0.649860
O O14 0.137427 0.500000 0.764351
O O15 0.088757 0.254801 0.818414
O O16 0.146157 0.234337 0.676681
O O17 0.947414 0.500000 0.894733
O O18 0.000000 0.736038 0.854539
O O19 0.941206 0.747767 0.000000
O O20 0.176291 0.784552 0.500000
O O21 0.198240 0.000000 0.370919
#
# Coordination Sequence:
#
# PCOD8193955 Si02
#       7
#     8   8   8   8   8   8   8
#     4   9  17  27  39  58  84 112 140 172 211 249
#     4  10  19  30  45  64  86 111 142 180 215 250
#     4  10  20  32  45  62  87 116 142 171 208 251
#     4   8  14  24  37  54  77 107 143 177 206 240
#     4  10  18  28  47  70  88 110 141 175 210 249
#     4   8  14  25  42  66  93 114 133 164 208 255
#     4  10  20  32  45  61  84 115 147 177 211 251
#
# _framework density 15.964694
#
# number of rings (size 3 to 8) (size 9 to 14) (size 15 to 20)
#    0.000    2.714    0.000    5.143    0.000    4.857 
#    0.000    2.857    0.000    2.143    0.000    8.000 
#    0.000    0.571    0.000    6.286    0.000    4.857 
#
# Total GULP energy -694104.721622 kJ/mol
# GULP energy per Si atom -12394.727172 kJ/mol
# Density = 1.592836 g / cm^3
# Si number density = 15.964694 Si / 1000 Ang^3
#
#
#
# Elastic Constant Matrix: (Units=GPa)
#
#
# Indices 1 2 3 4 5 6 
#
# 1 134.4695 11.2597 56.8834 0.0000 0.0000 0.0000
# 2 11.2597 28.0708 19.0279 0.0000 0.0000 0.0000
# 3 56.8834 19.0279 100.7416 0.0000 0.0000 0.0000
# 4 0.0000 0.0000 0.0000 21.6649 0.0000 0.0000
# 5 0.0000 0.0000 0.0000 0.0000 21.5726 0.0000
# 6 0.0000 0.0000 0.0000 0.0000 0.0000 6.8817
#
#
#
# Elastic Compliance Matrix: (Units=1/GPa)
#
#
# Indices 1 2 3 4 5 6 
#
# 1 0.009771 -0.000206 -0.005478 0.000000 0.000000 0.000000
# 2 -0.000206 0.040859 -0.007601 0.000000 0.000000 0.000000
# 3 -0.005478 -0.007601 0.014455 0.000000 0.000000 0.000000
# 4 0.000000 0.000000 0.000000 0.046158 0.000000 0.000000
# 5 0.000000 0.000000 0.000000 0.000000 0.046355 0.000000
# 6 0.000000 0.000000 0.000000 0.000000 0.000000 0.145312
#
#
# Mechanical properties :
#
#
# Convention : Reuss Voigt Hill
#
# Bulk Modulus (GPa) = 25.96388 48.62489 37.29438
# Shear Modulus (GPa) = 14.60619 21.76456 18.18538
#
# Velocity S-wave (km/s) = 3.02802 3.69629 3.37872
# Velocity P-wave (km/s) = 5.34077 6.98145 6.21548
#
# Compressibility (1/GPa) = 0.03851505
#
# Stress axis : x y z
#
# Youngs Moduli (GPa) = 102.33961 24.47424 69.17782
#
# Poissons Ratio (x) = 0.00504 0.37899
# Poissons Ratio (y) = 0.02107 0.52583
# Poissons Ratio (z) = 0.56067 0.18603
#
# Static dielectric constant tensor:
#      x y z
#    x 3.423930 0.000000 0.000000 
#    y 0.000000 2.957640 0.000000 
#    z 0.000000 0.000000 2.960920 
# 
# 
# High freq. dielectric constant tensor:
#      x y z
#    x 1.612200 0.000000 0.000000 
#    y 0.000000 1.609330 0.000000 
#    z 0.000000 0.000000 1.582210 
# 
# From -- ./inp_files/25788.got.cif
#   From: 2010.03.12/outbox.cif.g09.slc.cpg/sg47_13_cif.got.tgz:25788.got - 2010.04.14 03:12:58.
