data_PCOD8193616
_publ_section_title
;
Structure prediction by ZEFSAII (Michael W. Deem and Ramdas Pophale) SiO2 
 PCOD8193616
Probable space group: P M M M
;
_chemical_formula_sum "Si O2"
_cell_formula_units_Z 64
_cell_length_a 20.004532
_cell_length_b 9.199424
_cell_length_c 20.157570
_cell_angle_alpha 90.000000
_cell_angle_beta 90.000000
_cell_angle_gamma 90.000000
_cell_volume 3709.601070
_symmetry_space_group_name_H-M "P M M M"
_symmetry_group_IT_number 47
_symmetry_cell_setting 'orthorhombic'
loop_
_space_group_symop_operation_xyz
x,y,z
-x,-y,z
x,-y,-z
-x,y,-z
-x,-y,-z
x,y,-z
-x,y,z
x,-y,z
loop_
_atom_site_type_symbol
_atom_site_label
_atom_site_fract_x
_atom_site_fract_y
_atom_site_fract_z
Si Si1 0.176115 0.173351 0.686342
Si Si2 0.260302 0.331351 0.893241
Si Si3 0.071762 0.171055 0.207502
Si Si4 0.868998 0.834461 0.072640
Si Si5 0.925391 0.827518 0.574394
Si Si6 0.574155 0.830908 0.784126
Si Si7 0.386820 0.833652 0.071618
Si Si8 0.703534 0.670674 0.744191
O O1 0.132687 0.231303 0.748854
O O2 0.134159 0.227469 0.622157
O O3 0.248437 0.252154 0.689647
O O4 0.187585 0.000000 0.686541
O O5 0.261997 0.500000 0.907118
O O6 0.194051 0.268677 0.924627
O O7 0.321237 0.262624 0.932343
O O8 0.264244 0.295443 0.815284
O O9 0.079760 0.211765 0.130101
O O10 0.000000 0.236501 0.230269
O O11 0.069810 0.000000 0.218795
O O12 0.845201 0.000000 0.084680
O O13 0.903167 0.817990 0.000000
O O14 0.909702 0.771943 0.500000
O O15 0.000000 0.772603 0.596231
O O16 0.926324 0.000000 0.576553
O O17 0.500000 0.796183 0.755922
O O18 0.571070 0.790316 0.862963
O O19 0.628588 0.737543 0.743382
O O20 0.591964 0.000000 0.774449
O O21 0.364454 0.000000 0.078828
O O22 0.424911 0.811127 0.000000
O O23 0.698359 0.500000 0.728449
#
# Coordination Sequence:
#
# PCOD8193616 Si02
#       8
#     8   8   8   8   8   8   8   8
#     4  10  17  28  50  73  94 124 160 196 230 270
#     4  10  19  30  43  59  81 110 146 189 235 281
#     4   9  17  28  43  64  86 110 147 193 236 278
#     4  10  19  29  42  59  80 107 141 188 244 291
#     4   8  14  25  44  75 111 138 161 194 236 279
#     4   9  18  32  49  68  91 119 151 190 237 289
#     4   9  17  28  43  63  86 111 141 180 230 288
#     4  10  20  32  47  67  92 121 155 196 237 276
#
# _framework density 17.252528999999999
#
# number of rings (size 3 to 8) (size 9 to 14) (size 15 to 20)
#    0.000    2.625    1.250    1.875    0.000    5.250 
#    0.000    2.500    0.000    3.000    0.000    5.250 
#    0.000    0.500    0.000    5.750    0.000    1.625 
#
# Total GULP energy -792979.721646 kJ/mol
# GULP energy per Si atom -12390.308151 kJ/mol
# Density = 1.721326 g / cm^3
# Si number density = 17.252529 Si / 1000 Ang^3
#
#
#
# Elastic Constant Matrix: (Units=GPa)
#
#
# Indices 1 2 3 4 5 6 
#
# 1 116.4510 38.1413 45.5008 0.0000 0.0000 0.0000
# 2 38.1413 44.2683 20.8024 0.0000 0.0000 0.0000
# 3 45.5008 20.8024 73.6242 0.0000 0.0000 0.0000
# 4 0.0000 0.0000 0.0000 10.2257 0.0000 0.0000
# 5 0.0000 0.0000 0.0000 0.0000 17.9230 0.0000
# 6 0.0000 0.0000 0.0000 0.0000 0.0000 -14.3071
#
#
#
# Elastic Compliance Matrix: (Units=1/GPa)
#
#
# Indices 1 2 3 4 5 6 
#
# 1 0.013951 -0.009189 -0.006026 0.000000 0.000000 0.000000
# 2 -0.009189 0.032100 -0.003391 0.000000 0.000000 0.000000
# 3 -0.006026 -0.003391 0.018265 0.000000 0.000000 0.000000
# 4 0.000000 0.000000 0.000000 0.097793 0.000000 0.000000
# 5 0.000000 0.000000 0.000000 0.000000 0.055794 0.000000
# 6 0.000000 0.000000 0.000000 0.000000 0.000000 -0.069895
#
#
# Mechanical properties :
#
#
# Convention : Reuss Voigt Hill
#
# Bulk Modulus (GPa) = 36.89387 49.24804 43.07096
# Shear Modulus (GPa) = 25.73946 11.42826 18.58386
#
# Velocity S-wave (km/s) = 3.86673 2.57653 3.28558
# Velocity P-wave (km/s) = 6.43168 6.12035 6.27795
#
# Compressibility (1/GPa) = 0.02710477
#
# Stress axis : x y z
#
# Youngs Moduli (GPa) = 71.67747 31.15263 54.75045
#
# Poissons Ratio (x) = 0.28625 0.32992
# Poissons Ratio (y) = 0.65863 0.18566
# Poissons Ratio (z) = 0.43192 0.10564
#
# Static dielectric constant tensor:
#      x y z
#    x 2.840890 0.000000 0.000000 
#    y 0.000000 2.916920 0.000000 
#    z 0.000000 0.000000 3.465700 
# 
# 
# High freq. dielectric constant tensor:
#      x y z
#    x 1.658410 0.000000 0.000000 
#    y 0.000000 1.635150 0.000000 
#    z 0.000000 0.000000 1.636940 
# 
# From -- ./inp_files/11905.got.cif
#   From: 2010.03.12/outbox.cif.g09.slc.cpg/sg47_6_cif.got.tgz:11905.got - 2010.04.14 03:12:58.
