data_PCOD8193560
_publ_section_title
;
Structure prediction by ZEFSAII (Michael W. Deem and Ramdas Pophale) SiO2 
 PCOD8193560
Probable space group: P M M M
;
_chemical_formula_sum "Si O2"
_cell_formula_units_Z 52
_cell_length_a 9.140900
_cell_length_b 13.279806
_cell_length_c 24.736175
_cell_angle_alpha 90.000000
_cell_angle_beta 90.000000
_cell_angle_gamma 90.000000
_cell_volume 3002.708914
_symmetry_space_group_name_H-M "P M M M"
_symmetry_group_IT_number 47
_symmetry_cell_setting 'orthorhombic'
loop_
_space_group_symop_operation_xyz
x,y,z
-x,-y,z
x,-y,-z
-x,y,-z
-x,-y,-z
x,y,-z
-x,y,z
x,-y,z
loop_
_atom_site_type_symbol
_atom_site_label
_atom_site_fract_x
_atom_site_fract_y
_atom_site_fract_z
Si Si1 0.331092 0.000000 0.563570
Si Si2 0.662518 0.382935 0.773027
Si Si3 0.173797 0.759545 0.840174
Si Si4 0.172391 0.109812 0.740648
Si Si5 0.826180 0.112728 0.060074
Si Si6 0.829069 0.386363 0.337203
Si Si7 0.170124 0.820957 0.377124
O O1 0.260359 0.895771 0.584680
O O2 0.500000 0.000000 0.580578
O O3 0.309396 0.000000 0.500000
O O4 0.500000 0.335533 0.769529
O O5 0.651247 0.500000 0.781248
O O6 0.748227 0.345681 0.826887
O O7 0.747091 0.357334 0.717768
O O8 0.232533 0.827938 0.790955
O O9 0.233315 0.807544 0.896088
O O10 0.000000 0.745708 0.841450
O O11 0.216147 0.158694 0.684203
O O12 0.000000 0.101452 0.746122
O O13 0.244938 0.000000 0.743247
O O14 0.000000 0.110291 0.063114
O O15 0.767732 0.000000 0.073081
O O16 0.774638 0.145911 0.000000
O O17 0.786552 0.500000 0.357670
O O18 0.795015 0.300215 0.383286
O O19 0.000000 0.381171 0.322809
O O20 0.000000 0.843779 0.388486
#
# Coordination Sequence:
#
# PCOD8193560 Si02
#       7
#     4   8   8   8   8   8   8
#     4  11  25  41  55  75 105 141 178 213 250 292
#     4  10  20  31  43  64  97 132 164 200 244 297
#     4  10  17  27  46  69  93 125 162 200 244 292
#     4   9  15  24  41  69 100 125 151 188 235 288
#     4   8  14  25  43  69  97 123 155 197 244 294
#     4   9  17  31  52  78 107 136 167 205 251 303
#     4  10  18  32  54  78 103 133 169 207 248 300
#
# _framework density 17.317696000000002
#
# number of rings (size 3 to 8) (size 9 to 14) (size 15 to 20)
#    0.000    2.538    2.308    1.615    0.000    4.000 
#    0.000    0.000    0.000    2.769    0.000    7.538 
#    0.000    0.000    0.000    0.000    0.000    0.000 
#
# Total GULP energy -644236.456042 kJ/mol
# GULP energy per Si atom -12389.162616 kJ/mol
# Density = 1.727828 g / cm^3
# Si number density = 17.317696 Si / 1000 Ang^3
#
#
#
# Elastic Constant Matrix: (Units=GPa)
#
#
# Indices 1 2 3 4 5 6 
#
# 1 57.0719 39.8374 36.2864 0.0000 0.0000 0.0000
# 2 39.8374 90.8569 49.5694 0.0000 0.0000 0.0000
# 3 36.2864 49.5694 81.7652 0.0000 0.0000 0.0000
# 4 0.0000 0.0000 0.0000 15.8581 0.0000 0.0000
# 5 0.0000 0.0000 0.0000 0.0000 9.7488 0.0000
# 6 0.0000 0.0000 0.0000 0.0000 0.0000 14.8464
#
#
#
# Elastic Compliance Matrix: (Units=1/GPa)
#
#
# Indices 1 2 3 4 5 6 
#
# 1 0.027984 -0.008210 -0.007442 0.000000 0.000000 0.000000
# 2 -0.008210 0.018854 -0.007787 0.000000 0.000000 0.000000
# 3 -0.007442 -0.007787 0.020253 0.000000 0.000000 0.000000
# 4 0.000000 0.000000 0.000000 0.063059 0.000000 0.000000
# 5 0.000000 0.000000 0.000000 0.000000 0.102577 0.000000
# 6 0.000000 0.000000 0.000000 0.000000 0.000000 0.067356
#
#
# Mechanical properties :
#
#
# Convention : Reuss Voigt Hill
#
# Bulk Modulus (GPa) = 49.46888 53.45339 51.46114
# Shear Modulus (GPa) = 14.13631 15.02405 14.58018
#
# Velocity S-wave (km/s) = 2.86018 2.94862 2.90474
# Velocity P-wave (km/s) = 6.28769 6.52119 6.40550
#
# Compressibility (1/GPa) = 0.02021473
#
# Stress axis : x y z
#
# Youngs Moduli (GPa) = 35.73479 53.03814 49.37441
#
# Poissons Ratio (x) = 0.43544 0.36743
# Poissons Ratio (y) = 0.29338 0.38447
# Poissons Ratio (z) = 0.26593 0.41300
#
# Static dielectric constant tensor:
#      x y z
#    x 3.040650 0.000000 0.000000 
#    y 0.000000 4.082110 0.000000 
#    z 0.000000 0.000000 3.183100 
# 
# 
# High freq. dielectric constant tensor:
#      x y z
#    x 1.635650 0.000000 0.000000 
#    y 0.000000 1.680660 0.000000 
#    z 0.000000 0.000000 1.640240 
# 
# From -- ./inp_files/32017.got.cif
#   From: 2010.03.12/outbox.cif.g09.slc.cpg/sg47_17_cif.got.tgz:32017.got - 2010.04.14 03:12:58.
