data_PCOD8193224
_publ_section_title
;
Structure prediction by ZEFSAII (Michael W. Deem and Ramdas Pophale) SiO2 
 PCOD8193224
Probable space group: I M A 2
;
_chemical_formula_sum "Si O2"
_cell_formula_units_Z 56
_cell_length_a 20.047684
_cell_length_b 8.825283
_cell_length_c 14.589968
_cell_angle_alpha 90.000000
_cell_angle_beta 90.000000
_cell_angle_gamma 90.000000
_cell_volume 2581.351752
_symmetry_space_group_name_H-M "I M A 2"
_symmetry_group_IT_number 46
_symmetry_cell_setting 'orthorhombic'
loop_
_space_group_symop_operation_xyz
x,y,z
-x,-y,z
1/2-x,y,z
1/2+x,-y,z
1/2+x,1/2+y,1/2+z
1/2-x,1/2-y,1/2+z
-x,1/2+y,1/2+z
x,1/2-y,1/2+z
loop_
_atom_site_type_symbol
_atom_site_label
_atom_site_fract_x
_atom_site_fract_y
_atom_site_fract_z
Si Si1 0.413643 0.705181 0.849890
Si Si2 0.084518 0.951239 0.704826
Si Si3 0.081478 0.396327 0.589388
Si Si4 0.324188 0.368505 0.072925
Si Si5 0.554395 0.280194 0.548295
Si Si6 0.555885 0.767558 0.278326
Si Si7 0.327601 0.423844 0.865214
O O1 0.390540 0.851101 0.790787
O O2 0.492238 0.673320 0.834667
O O3 0.364059 0.569783 0.820568
O O4 0.407174 0.722521 0.958996
O O5 0.047897 0.845773 0.628744
O O6 0.145646 0.026835 0.651747
O O7 0.041248 0.093254 0.745597
O O8 0.146061 0.299435 0.566698
O O9 0.097398 0.573507 0.578514
O O10 0.058793 0.379159 0.693270
O O11 0.020837 0.335836 0.524858
O O12 0.250000 0.342700 0.105040
O O13 0.329704 0.445809 0.974144
O O14 0.626230 0.780187 0.334531
O O15 0.250000 0.406743 0.832043
#
# Coordination Sequence:
#
# PCOD8193224 Si02
#       7
#     8   8   8   8   8   8   8
#     4  12  24  41  71 101 138 175 227 291 348 405
#     4  11  24  43  67 103 134 175 224 287 341 408
#     4  10  23  40  68  96 136 174 222 281 341 412
#     4  10  23  45  66  93 137 186 230 274 341 415
#     4  11  23  41  67 103 136 172 220 288 349 401
#     4  11  24  40  70  99 135 173 232 281 342 412
#     4  11  25  45  67  97 137 186 234 280 339 413
#
# _framework density 21.69406
#
# number of rings (size 3 to 8) (size 9 to 14) (size 15 to 20)
#    0.000    1.143    2.857    2.571   10.000    2.857 
#    0.000    1.429    0.000    0.000    0.000    0.000 
#    0.000    0.000    0.000    0.000    0.000    0.000 
#
# Total GULP energy -347033.345634 kJ/mol
# GULP energy per Si atom -12394.048058 kJ/mol
# Density = 2.164468 g / cm^3
# Si number density = 21.694060 Si / 1000 Ang^3
#
#
#
# Elastic Constant Matrix: (Units=GPa)
#
#
# Indices 1 2 3 4 5 6 
#
# 1 140.1206 54.2473 21.3373 0.0000 0.0000 0.0000
# 2 54.2473 129.8746 37.1647 0.0000 0.0000 0.0000
# 3 21.3373 37.1647 82.3898 0.0000 0.0000 0.0000
# 4 0.0000 0.0000 0.0000 20.5347 0.0000 0.0000
# 5 0.0000 0.0000 0.0000 0.0000 32.1187 0.0000
# 6 0.0000 0.0000 0.0000 0.0000 0.0000 18.5953
#
#
#
# Elastic Compliance Matrix: (Units=1/GPa)
#
#
# Indices 1 2 3 4 5 6 
#
# 1 0.008548 -0.003372 -0.000693 0.000000 0.000000 0.000000
# 2 -0.003372 0.010171 -0.003715 0.000000 0.000000 0.000000
# 3 -0.000693 -0.003715 0.013992 0.000000 0.000000 0.000000
# 4 0.000000 0.000000 0.000000 0.048698 0.000000 0.000000
# 5 0.000000 0.000000 0.000000 0.000000 0.031134 0.000000
# 6 0.000000 0.000000 0.000000 0.000000 0.000000 0.053777
#
#
# Mechanical properties :
#
#
# Convention : Reuss Voigt Hill
#
# Bulk Modulus (GPa) = 58.30060 64.20928 61.25494
# Shear Modulus (GPa) = 26.65286 30.22548 28.43917
#
# Velocity S-wave (km/s) = 3.50891 3.73669 3.62459
# Velocity P-wave (km/s) = 6.58399 6.94831 6.76860
#
# Compressibility (1/GPa) = 0.01715248
#
# Stress axis : x y z
#
# Youngs Moduli (GPa) = 116.99092 98.31648 71.46709
#
# Poissons Ratio (x) = 0.33153 0.04950
# Poissons Ratio (y) = 0.39450 0.26548
# Poissons Ratio (z) = 0.08103 0.36522
#
# Static dielectric constant tensor:
#      x y z
#    x 3.859270 0.000000 0.000000 
#    y 0.000000 4.095630 0.000000 
#    z 0.000000 0.000000 3.958930 
# 
# 
# High freq. dielectric constant tensor:
#      x y z
#    x 1.830520 0.000000 0.000000 
#    y 0.000000 1.859710 0.000000 
#    z 0.000000 0.000000 1.858700 
# 
# From -- ./inp_files/17097.got.cif
#   From: 2010.03.12/outbox.cif.g09.slc.cpg/sg46_9_cif.got.tgz:17097.got - 2010.04.14 02:56:35.
