data_PCOD8193182
_publ_section_title
;
Structure prediction by ZEFSAII (Michael W. Deem and Ramdas Pophale) SiO2 
 PCOD8193182
Probable space group: I M A 2
;
_chemical_formula_sum "Si O2"
_cell_formula_units_Z 40
_cell_length_a 13.052534
_cell_length_b 16.198113
_cell_length_c 7.632160
_cell_angle_alpha 90.000000
_cell_angle_beta 90.000000
_cell_angle_gamma 90.000000
_cell_volume 1613.640271
_symmetry_space_group_name_H-M "I M A 2"
_symmetry_group_IT_number 46
_symmetry_cell_setting 'orthorhombic'
loop_
_space_group_symop_operation_xyz
x,y,z
-x,-y,z
1/2-x,y,z
1/2+x,-y,z
1/2+x,1/2+y,1/2+z
1/2-x,1/2-y,1/2+z
-x,1/2+y,1/2+z
x,1/2-y,1/2+z
loop_
_atom_site_type_symbol
_atom_site_label
_atom_site_fract_x
_atom_site_fract_y
_atom_site_fract_z
Si Si1 0.635453 0.878172 0.648320
Si Si2 0.059380 0.850609 0.206876
Si Si3 0.869856 0.174257 0.823747
Si Si4 0.365108 0.278217 0.804227
Si Si5 0.126835 0.948056 0.527537
O O1 0.750000 0.906663 0.697324
O O2 0.591496 0.818807 0.804750
O O3 0.634047 0.807311 0.501809
O O4 0.578951 0.961886 0.585524
O O5 0.100326 0.769357 0.307439
O O6 0.089891 0.927511 0.330659
O O7 0.936673 0.840717 0.193538
O O8 0.104831 0.863039 0.014455
O O9 0.750000 0.167213 0.797322
O O10 0.918810 0.118354 0.667528
O O11 0.250000 0.281360 0.725008
O O12 0.250000 0.951068 0.525002
#
# Coordination Sequence:
#
# PCOD8193182 Si02
#       5
#     8   8   8   8   8
#     4   9  20  42  68  93 128 178 225 281 342 392
#     4  12  22  38  67  98 134 183 226 267 346 411
#     4  11  22  38  63  98 138 177 221 276 341 414
#     4  10  22  43  67  91 129 175 227 282 336 395
#     4  10  22  41  67 101 140 174 220 283 342 409
#
# _framework density 24.788672999999999
#
# number of rings (size 3 to 8) (size 9 to 14) (size 15 to 20)
#    0.000    1.600    2.000    3.000    0.000    0.800 
#    3.600    0.000    4.400    0.000    0.000    0.000 
#    0.000    0.000    0.000    0.000    0.000    0.000 
#
# Total GULP energy -247854.078089 kJ/mol
# GULP energy per Si atom -12392.703904 kJ/mol
# Density = 2.473225 g / cm^3
# Si number density = 24.788673 Si / 1000 Ang^3
#
#
#
# Elastic Constant Matrix: (Units=GPa)
#
#
# Indices 1 2 3 4 5 6 
#
# 1 39.8587 31.7547 14.8846 0.0000 0.0000 0.0000
# 2 31.7547 143.0540 44.7849 0.0000 0.0000 0.0000
# 3 14.8846 44.7849 111.3020 0.0000 0.0000 0.0000
# 4 0.0000 0.0000 0.0000 43.5824 0.0000 0.0000
# 5 0.0000 0.0000 0.0000 0.0000 27.0510 0.0000
# 6 0.0000 0.0000 0.0000 0.0000 0.0000 35.0003
#
#
#
# Elastic Compliance Matrix: (Units=1/GPa)
#
#
# Indices 1 2 3 4 5 6 
#
# 1 0.030714 -0.006329 -0.001561 0.000000 0.000000 0.000000
# 2 -0.006329 0.009302 -0.002896 0.000000 0.000000 0.000000
# 3 -0.001561 -0.002896 0.010359 0.000000 0.000000 0.000000
# 4 0.000000 0.000000 0.000000 0.022945 0.000000 0.000000
# 5 0.000000 0.000000 0.000000 0.000000 0.036967 0.000000
# 6 0.000000 0.000000 0.000000 0.000000 0.000000 0.028571
#
#
# Mechanical properties :
#
#
# Convention : Reuss Voigt Hill
#
# Bulk Modulus (GPa) = 34.71996 53.00701 43.86348
# Shear Modulus (GPa) = 29.40633 34.64610 32.02622
#
# Velocity S-wave (km/s) = 3.44798 3.74258 3.59830
# Velocity P-wave (km/s) = 5.46701 6.33292 5.91583
#
# Compressibility (1/GPa) = 0.02880187
#
# Stress axis : x y z
#
# Youngs Moduli (GPa) = 32.55868 107.50281 96.53671
#
# Poissons Ratio (x) = 0.68040 0.15067
# Poissons Ratio (y) = 0.20607 0.27962
# Poissons Ratio (z) = 0.05081 0.31138
#
# Static dielectric constant tensor:
#      x y z
#    x 4.910490 0.000000 0.000000 
#    y 0.000000 4.630120 0.000000 
#    z 0.000000 0.000000 4.309860 
# 
# 
# High freq. dielectric constant tensor:
#      x y z
#    x 2.022330 0.000000 0.000000 
#    y 0.000000 1.975980 0.000000 
#    z 0.000000 0.000000 1.974090 
# 
# From -- ./inp_files/5397.got.cif
#   From: 2010.03.12/outbox.cif.g09.slc.cpg/sg46_3_cif.got.tgz:5397.got - 2010.04.14 02:56:35.
