data_PCOD8193288
_publ_section_title
;
Structure prediction by ZEFSAII (Michael W. Deem and Ramdas Pophale) SiO2 
 PCOD8193288
Probable space group: I M A 2
;
_chemical_formula_sum "Si O2"
_cell_formula_units_Z 48
_cell_length_a 14.062340
_cell_length_b 9.450559
_cell_length_c 18.974183
_cell_angle_alpha 90.000000
_cell_angle_beta 90.000000
_cell_angle_gamma 90.000000
_cell_volume 2521.611502
_symmetry_space_group_name_H-M "I M A 2"
_symmetry_group_IT_number 46
_symmetry_cell_setting 'orthorhombic'
loop_
_space_group_symop_operation_xyz
x,y,z
-x,-y,z
1/2-x,y,z
1/2+x,-y,z
1/2+x,1/2+y,1/2+z
1/2-x,1/2-y,1/2+z
-x,1/2+y,1/2+z
x,1/2-y,1/2+z
loop_
_atom_site_type_symbol
_atom_site_label
_atom_site_fract_x
_atom_site_fract_y
_atom_site_fract_z
Si Si1 0.942253 0.143248 0.860050
Si Si2 0.250000 0.570626 0.421746
Si Si3 0.954235 0.358161 0.735911
Si Si4 0.449253 0.643087 0.985817
Si Si5 0.250000 0.648194 0.663015
Si Si6 0.042357 0.347106 0.588999
Si Si7 0.750000 0.318455 0.031180
Si Si8 0.250000 0.401928 0.551327
O O1 0.835163 0.091388 0.867861
O O2 0.959429 0.225431 0.787579
O O3 0.967924 0.247741 0.923148
O O4 0.000000 0.000000 0.862476
O O5 0.250000 0.672789 0.488468
O O6 0.250000 0.423519 0.465744
O O7 0.844326 0.373709 0.710482
O O8 0.000000 0.500000 0.772075
O O9 0.026081 0.329818 0.671842
O O10 0.500000 0.500000 0.964986
O O11 0.485244 0.718486 0.055876
O O12 0.341511 0.596849 0.003343
O O13 0.250000 0.794602 0.616868
O O14 0.250000 0.537641 0.600534
O O15 0.152711 0.320658 0.570214
O O16 0.000000 0.500000 0.562934
#
# Coordination Sequence:
#
# PCOD8193288 Si02
#       8
#     8   4   8   8   4   8   4   4
#     4  11  23  41  60  85 121 162 205 250 298 370
#     4   9  19  36  62  87 108 157 210 241 293 368
#     4  11  22  36  60  89 121 160 204 246 309 364
#     4  11  22  38  62  89 120 153 200 256 305 357
#     4  11  17  36  61  85 118 158 201 238 285 378
#     4  11  20  36  61  90 118 157 201 250 311 368
#     4   9  18  35  60  86 114 152 197 240 299 363
#     4  11  18  33  63  94 118 147 204 259 301 355
#
# _framework density 19.035446
#
# number of rings (size 3 to 8) (size 9 to 14) (size 15 to 20)
#    0.000    1.333    5.000    4.500    0.000    1.333 
#    0.000    2.500    0.000    0.000    0.000    0.000 
#    0.000    0.000    0.000    0.000    0.000    0.000 
#
# Total GULP energy -297370.538913 kJ/mol
# GULP energy per Si atom -12390.439121 kJ/mol
# Density = 1.899212 g / cm^3
# Si number density = 19.035446 Si / 1000 Ang^3
#
#
#
# Elastic Constant Matrix: (Units=GPa)
#
#
# Indices 1 2 3 4 5 6 
#
# 1 157.0260 67.0120 42.0316 0.0000 0.0000 0.0000
# 2 67.0120 104.9697 52.5271 0.0000 0.0000 0.0000
# 3 42.0316 52.5271 68.0463 0.0000 0.0000 0.0000
# 4 0.0000 0.0000 0.0000 30.2390 0.0000 0.0000
# 5 0.0000 0.0000 0.0000 0.0000 0.0911 0.0000
# 6 0.0000 0.0000 0.0000 0.0000 0.0000 19.8704
#
#
#
# Elastic Compliance Matrix: (Units=1/GPa)
#
#
# Indices 1 2 3 4 5 6 
#
# 1 0.008888 -0.004769 -0.001809 0.000000 0.000000 0.000000
# 2 -0.004769 0.018081 -0.011012 0.000000 0.000000 0.000000
# 3 -0.001809 -0.011012 0.024314 0.000000 0.000000 0.000000
# 4 0.000000 0.000000 0.000000 0.033070 0.000000 0.000000
# 5 0.000000 0.000000 0.000000 0.000000 10.971038 0.000000
# 6 0.000000 0.000000 0.000000 0.000000 0.000000 0.050326
#
#
# Mechanical properties :
#
#
# Convention : Reuss Voigt Hill
#
# Bulk Modulus (GPa) = 62.09719 72.57593 67.33656
# Shear Modulus (GPa) = 0.44858 21.27153 10.86005
#
# Velocity S-wave (km/s) = 0.48597 3.34648 2.39114
# Velocity P-wave (km/s) = 5.74522 7.28982 6.56312
#
# Compressibility (1/GPa) = 0.01610379
#
# Stress axis : x y z
#
# Youngs Moduli (GPa) = 112.51647 55.30582 41.12938
#
# Poissons Ratio (x) = 0.26374 0.07439
# Poissons Ratio (y) = 0.53656 0.45291
# Poissons Ratio (z) = 0.20350 0.60902
#
# Static dielectric constant tensor:
#      x y z
#    x 5.671300 0.000000 0.000000 
#    y 0.000000 3.315370 0.000000 
#    z 0.000000 0.000000 3.474360 
# 
# 
# High freq. dielectric constant tensor:
#      x y z
#    x 1.756080 0.000000 0.000000 
#    y 0.000000 1.710420 0.000000 
#    z 0.000000 0.000000 1.737080 
# 
# From -- ./inp_files/19449.got.cif
#   From: 2010.03.12/outbox.cif.g09.slc.cpg/sg46_10_cif.got.tgz:19449.got - 2010.04.14 02:56:35.
