data_PCOD8193376
_publ_section_title
;
Structure prediction by ZEFSAII (Michael W. Deem and Ramdas Pophale) SiO2 
 PCOD8193376
Probable space group: I M A 2
;
_chemical_formula_sum "Si O2"
_cell_formula_units_Z 24
_cell_length_a 8.460578
_cell_length_b 18.697680
_cell_length_c 7.419366
_cell_angle_alpha 90.000000
_cell_angle_beta 90.000000
_cell_angle_gamma 90.000000
_cell_volume 1173.693102
_symmetry_space_group_name_H-M "I M A 2"
_symmetry_group_IT_number 46
_symmetry_cell_setting 'orthorhombic'
loop_
_space_group_symop_operation_xyz
x,y,z
-x,-y,z
1/2-x,y,z
1/2+x,-y,z
1/2+x,1/2+y,1/2+z
1/2-x,1/2-y,1/2+z
-x,1/2+y,1/2+z
x,1/2-y,1/2+z
loop_
_atom_site_type_symbol
_atom_site_label
_atom_site_fract_x
_atom_site_fract_y
_atom_site_fract_z
Si Si1 0.436378 0.577029 0.621200
Si Si2 0.066912 0.334859 0.306106
Si Si3 0.566551 0.188183 0.427761
O O1 0.500000 0.500000 0.678475
O O2 0.250000 0.575539 0.593321
O O3 0.518657 0.600514 0.436221
O O4 0.486211 0.630875 0.779692
O O5 0.250000 0.340740 0.257615
O O6 0.033364 0.260081 0.404782
O O7 0.966293 0.343565 0.124447
O O8 0.750000 0.208100 0.408113
#
# Coordination Sequence:
#
# PCOD8193376 Si02
#       3
#     8   8   8
#     4  11  25  44  67  94 132 172 214 268 327 385
#     4  12  24  39  66  98 130 168 218 268 319 384
#     4  11  23  41  66  94 129 172 217 265 323 382
#
# _framework density 20.448277000000001
#
# number of rings (size 3 to 8) (size 9 to 14) (size 15 to 20)
#    0.000    0.667    3.333    5.000    0.000    5.333 
#    0.000    3.333    0.000    0.000    0.000    0.000 
#    0.000    0.000    0.000    0.000    0.000    0.000 
#
# Total GULP energy -148913.816534 kJ/mol
# GULP energy per Si atom -12409.484711 kJ/mol
# Density = 2.040174 g / cm^3
# Si number density = 20.448277 Si / 1000 Ang^3
#
#
#
# Elastic Constant Matrix: (Units=GPa)
#
#
# Indices 1 2 3 4 5 6 
#
# 1 65.2359 22.9347 7.9244 0.0006 -0.0001 -0.0001
# 2 22.9347 89.7423 15.2516 -0.0011 0.0005 0.0002
# 3 7.9244 15.2516 111.8607 -0.0018 0.0005 0.0003
# 4 0.0006 -0.0011 -0.0018 16.9961 0.0005 0.0002
# 5 -0.0001 0.0005 0.0005 0.0005 29.7703 -0.0001
# 6 -0.0001 0.0002 0.0003 0.0002 -0.0001 35.4770
#
#
#
# Elastic Compliance Matrix: (Units=1/GPa)
#
#
# Indices 1 2 3 4 5 6 
#
# 1 0.016884 -0.004209 -0.000622 -0.000001 0.000000 0.000000
# 2 -0.004209 0.012457 -0.001400 0.000001 0.000000 0.000000
# 3 -0.000622 -0.001400 0.009175 0.000001 0.000000 0.000000
# 4 -0.000001 0.000001 0.000001 0.058837 -0.000001 0.000000
# 5 0.000000 0.000000 0.000000 -0.000001 0.033591 0.000000
# 6 0.000000 0.000000 0.000000 0.000000 0.000000 0.028187
#
#
# Mechanical properties :
#
#
# Convention : Reuss Voigt Hill
#
# Bulk Modulus (GPa) = 38.38418 39.89560 39.13989
# Shear Modulus (GPa) = 27.73490 31.16387 29.44938
#
# Velocity S-wave (km/s) = 3.68685 3.90812 3.79910
# Velocity P-wave (km/s) = 6.07750 6.31802 6.19893
#
# Compressibility (1/GPa) = 0.02605240
#
# Stress axis : x y z
#
# Youngs Moduli (GPa) = 59.22630 80.27801 108.99559
#
# Poissons Ratio (x) = 0.33791 0.06782
# Poissons Ratio (y) = 0.24930 0.15262
# Poissons Ratio (z) = 0.03685 0.11241
#
# Static dielectric constant tensor:
#      x y z
#    x 3.715740 0.000000 0.000000 
#    y 0.000000 3.810910 0.000000 
#    z 0.000000 0.000000 3.824430 
# 
# 
# High freq. dielectric constant tensor:
#      x y z
#    x 1.810390 0.000000 0.000000 
#    y 0.000000 1.793580 0.000000 
#    z 0.000000 0.000000 1.814170 
# 
# From -- ./inp_files/290.got.cif
#   From: 2010.03.12/outbox.cif.g09.slc.cpg/sg46_1_cif.got.tgz:290.got - 2010.04.14 02:56:35.
