data_PCOD8193348
_publ_section_title
;
Structure prediction by ZEFSAII (Michael W. Deem and Ramdas Pophale) SiO2 
 PCOD8193348
Probable space group: I M A 2
;
_chemical_formula_sum "Si O2"
_cell_formula_units_Z 40
_cell_length_a 8.309701
_cell_length_b 17.152449
_cell_length_c 12.697059
_cell_angle_alpha 90.000000
_cell_angle_beta 90.000000
_cell_angle_gamma 90.000000
_cell_volume 1809.733691
_symmetry_space_group_name_H-M "I M A 2"
_symmetry_group_IT_number 46
_symmetry_cell_setting 'orthorhombic'
loop_
_space_group_symop_operation_xyz
x,y,z
-x,-y,z
1/2-x,y,z
1/2+x,-y,z
1/2+x,1/2+y,1/2+z
1/2-x,1/2-y,1/2+z
-x,1/2+y,1/2+z
x,1/2-y,1/2+z
loop_
_atom_site_type_symbol
_atom_site_label
_atom_site_fract_x
_atom_site_fract_y
_atom_site_fract_z
Si Si1 0.435323 0.083094 0.060900
Si Si2 0.565146 0.671460 0.167802
Si Si3 0.566109 0.329403 0.742507
Si Si4 0.566664 0.083156 0.855501
Si Si5 0.441069 0.589861 0.959347
O O1 0.250000 0.087238 0.094759
O O2 0.550845 0.101668 0.158167
O O3 0.500000 0.000000 0.021526
O O4 0.469371 0.128389 0.950491
O O5 0.750000 0.648169 0.186885
O O6 0.545438 0.763925 0.187220
O O7 0.446282 0.634717 0.252029
O O8 0.515194 0.641505 0.052711
O O9 0.750000 0.300977 0.752580
O O10 0.504108 0.364251 0.853472
O O11 0.750000 0.076181 0.891398
O O12 0.500000 0.000000 0.820205
O O13 0.500000 0.500000 0.959758
O O14 0.250000 0.588407 0.968807
#
# Coordination Sequence:
#
# PCOD8193348 Si02
#       5
#     8   8   8   8   8
#     4  11  22  39  64  95 129 168 214 265 323 389
#     4  12  26  43  66  96 134 174 221 275 333 397
#     4  11  25  44  67  96 133 175 220 273 334 396
#     4  11  22  40  65  93 128 168 215 266 323 390
#     4  11  25  46  72 100 135 179 229 279 337 406
#
# _framework density 22.102696999999999
#
# number of rings (size 3 to 8) (size 9 to 14) (size 15 to 20)
#    0.000    0.800    0.000    9.000    2.800    4.800 
#    0.000    0.000    0.000    0.000    0.000    0.000 
#    0.000    0.000    0.000    0.000    0.000    0.000 
#
# Total GULP energy -247905.596706 kJ/mol
# GULP energy per Si atom -12395.279835 kJ/mol
# Density = 2.205239 g / cm^3
# Si number density = 22.102697 Si / 1000 Ang^3
#
#
#
# Elastic Constant Matrix: (Units=GPa)
#
#
# Indices 1 2 3 4 5 6 
#
# 1 108.6721 30.7086 31.5152 0.0001 -0.0001 0.0000
# 2 30.7086 87.8765 53.1964 -0.0003 0.0004 0.0000
# 3 31.5152 53.1964 178.8703 -0.0006 0.0008 0.0001
# 4 0.0001 -0.0003 -0.0006 34.3734 0.0007 0.0001
# 5 -0.0001 0.0004 0.0008 0.0007 31.0528 -0.0001
# 6 0.0000 0.0000 0.0001 0.0001 -0.0001 34.9748
#
#
#
# Elastic Compliance Matrix: (Units=1/GPa)
#
#
# Indices 1 2 3 4 5 6 
#
# 1 0.010330 -0.003059 -0.000910 0.000000 0.000000 0.000000
# 2 -0.003059 0.014784 -0.003858 0.000000 0.000000 0.000000
# 3 -0.000910 -0.003858 0.006898 0.000000 0.000000 0.000000
# 4 0.000000 0.000000 0.000000 0.029092 -0.000001 0.000000
# 5 0.000000 0.000000 0.000000 -0.000001 0.032203 0.000000
# 6 0.000000 0.000000 0.000000 0.000000 0.000000 0.028592
#
#
# Mechanical properties :
#
#
# Convention : Reuss Voigt Hill
#
# Bulk Modulus (GPa) = 61.13037 67.36216 64.24626
# Shear Modulus (GPa) = 34.96331 37.41345 36.18838
#
# Velocity S-wave (km/s) = 3.98157 4.11872 4.05073
# Velocity P-wave (km/s) = 6.98961 7.29119 7.14200
#
# Compressibility (1/GPa) = 0.01635848
#
# Stress axis : x y z
#
# Youngs Moduli (GPa) = 96.80181 67.64128 144.96181
#
# Poissons Ratio (x) = 0.20690 0.13197
# Poissons Ratio (y) = 0.29610 0.55924
# Poissons Ratio (z) = 0.08813 0.26095
#
# Static dielectric constant tensor:
#      x y z
#    x 3.916660 0.000020 0.000000 
#    y 0.000020 6.955620 0.000000 
#    z 0.000000 0.000000 4.121670 
# 
# 
# High freq. dielectric constant tensor:
#      x y z
#    x 1.876270 0.000000 0.000000 
#    y 0.000000 1.862580 0.000000 
#    z 0.000000 0.000000 1.894620 
# 
# From -- ./inp_files/9042.got.cif
#   From: 2010.03.12/outbox.cif.g09.slc.cpg/sg46_5_cif.got.tgz:9042.got - 2010.04.14 02:56:35.
