data_PCOD8193126
_publ_section_title
;
Structure prediction by ZEFSAII (Michael W. Deem and Ramdas Pophale) SiO2 
 PCOD8193126
Probable space group: I M A 2
;
_chemical_formula_sum "Si O2"
_cell_formula_units_Z 64
_cell_length_a 17.497507
_cell_length_b 8.763629
_cell_length_c 20.810555
_cell_angle_alpha 90.000000
_cell_angle_beta 90.000000
_cell_angle_gamma 90.000000
_cell_volume 3191.125044
_symmetry_space_group_name_H-M "I M A 2"
_symmetry_group_IT_number 46
_symmetry_cell_setting 'orthorhombic'
loop_
_space_group_symop_operation_xyz
x,y,z
-x,-y,z
1/2-x,y,z
1/2+x,-y,z
1/2+x,1/2+y,1/2+z
1/2-x,1/2-y,1/2+z
-x,1/2+y,1/2+z
x,1/2-y,1/2+z
loop_
_atom_site_type_symbol
_atom_site_label
_atom_site_fract_x
_atom_site_fract_y
_atom_site_fract_z
Si Si1 0.165747 0.582219 0.919090
Si Si2 0.659024 0.376606 0.058368
Si Si3 0.088126 0.549161 0.553252
Si Si4 0.840212 0.589515 0.679192
Si Si5 0.160435 0.430108 0.179021
Si Si6 0.918896 0.069119 0.295182
Si Si7 0.163962 0.553994 0.421828
Si Si8 0.581310 0.070839 0.795642
O O1 0.250000 0.522590 0.900977
O O2 0.109816 0.511623 0.865282
O O3 0.165371 0.764466 0.920492
O O4 0.143683 0.531918 0.991516
O O5 0.750000 0.330935 0.063414
O O6 0.604029 0.229374 0.061487
O O7 0.630761 0.489754 0.114068
O O8 0.126660 0.468690 0.612946
O O9 0.126096 0.490658 0.486977
O O10 0.000000 0.500000 0.551598
O O11 0.750000 0.587419 0.673959
O O12 0.873634 0.760471 0.688224
O O13 0.862368 0.482983 0.738986
O O14 0.250000 0.417703 0.174340
O O15 0.139282 0.533667 0.238973
O O16 0.925300 0.249088 0.298473
O O17 0.000000 0.000000 0.279059
O O18 0.250000 0.488534 0.416514
O O19 0.113968 0.497376 0.361318
O O20 0.500000 0.000000 0.779737
#
# Coordination Sequence:
#
# PCOD8193126 Si02
#       8
#     8   8   8   8   8   8   8   8
#     4   8  16  33  58  84 108 142 189 234 276 333
#     4   9  18  37  62  84 110 149 193 232 276 336
#     4  11  21  35  57  87 118 148 186 231 284 339
#     4  11  23  39  58  83 115 150 192 239 283 334
#     4  10  22  39  58  82 112 149 195 241 282 331
#     4  11  22  37  57  84 116 149 187 232 287 343
#     4   9  18  35  59  84 110 145 191 236 278 332
#     4  11  22  37  58  84 116 150 188 235 287 340
#
# _framework density 20.055623000000001
#
# number of rings (size 3 to 8) (size 9 to 14) (size 15 to 20)
#    0.000    2.000    0.000    4.875    0.000    3.500 
#    0.000    6.875    0.000    6.000    0.000    0.000 
#    0.000    0.000    0.000    0.000    0.000    0.000 
#
# Total GULP energy -396740.286609 kJ/mol
# GULP energy per Si atom -12398.133957 kJ/mol
# Density = 2.000998 g / cm^3
# Si number density = 20.055623 Si / 1000 Ang^3
#
#
#
# Elastic Constant Matrix: (Units=GPa)
#
#
# Indices 1 2 3 4 5 6 
#
# 1 78.8705 35.4037 36.8310 0.0000 0.0000 0.0000
# 2 35.4037 65.8821 40.8242 0.0000 0.0000 0.0000
# 3 36.8310 40.8242 162.5100 0.0000 0.0000 0.0000
# 4 0.0000 0.0000 0.0000 32.1948 0.0000 0.0000
# 5 0.0000 0.0000 0.0000 0.0000 23.5860 0.0000
# 6 0.0000 0.0000 0.0000 0.0000 0.0000 21.2795
#
#
#
# Elastic Compliance Matrix: (Units=1/GPa)
#
#
# Indices 1 2 3 4 5 6 
#
# 1 0.017174 -0.008074 -0.001864 0.000000 0.000000 0.000000
# 2 -0.008074 0.021773 -0.003640 0.000000 0.000000 0.000000
# 3 -0.001864 -0.003640 0.007490 0.000000 0.000000 0.000000
# 4 0.000000 0.000000 0.000000 0.031061 0.000000 0.000000
# 5 0.000000 0.000000 0.000000 0.000000 0.042398 0.000000
# 6 0.000000 0.000000 0.000000 0.000000 0.000000 0.046994
#
#
# Mechanical properties :
#
#
# Convention : Reuss Voigt Hill
#
# Bulk Modulus (GPa) = 51.86268 59.26448 55.56358
# Shear Modulus (GPa) = 24.94126 28.35897 26.65012
#
# Velocity S-wave (km/s) = 3.53030 3.76442 3.64924
# Velocity P-wave (km/s) = 6.52173 6.96482 6.74691
#
# Compressibility (1/GPa) = 0.01928169
#
# Stress axis : x y z
#
# Youngs Moduli (GPa) = 58.22883 45.92923 133.50690
#
# Poissons Ratio (x) = 0.37082 0.24886
# Poissons Ratio (y) = 0.47012 0.48592
# Poissons Ratio (z) = 0.10854 0.16717
#
# Static dielectric constant tensor:
#      x y z
#    x 3.677310 0.000000 0.000000 
#    y 0.000000 3.615580 0.000000 
#    z 0.000000 0.000000 4.042440 
# 
# 
# High freq. dielectric constant tensor:
#      x y z
#    x 1.780350 0.000000 0.000000 
#    y 0.000000 1.758570 0.000000 
#    z 0.000000 0.000000 1.806720 
# 
# From -- ./inp_files/22233.got.cif
#   From: 2010.03.12/outbox.cif.g09.slc.cpg/sg46_12_cif.got.tgz:22233.got - 2010.04.14 02:56:35.
