data_PCOD8193508
_publ_section_title
;
Structure prediction by ZEFSAII (Michael W. Deem and Ramdas Pophale) SiO2 
 PCOD8193508
Probable space group: P M M M
;
_chemical_formula_sum "Si O2"
_cell_formula_units_Z 56
_cell_length_a 14.267269
_cell_length_b 9.560366
_cell_length_c 26.464216
_cell_angle_alpha 90.000000
_cell_angle_beta 90.000000
_cell_angle_gamma 90.000000
_cell_volume 3609.727358
_symmetry_space_group_name_H-M "P M M M"
_symmetry_group_IT_number 47
_symmetry_cell_setting 'orthorhombic'
loop_
_space_group_symop_operation_xyz
x,y,z
-x,-y,z
x,-y,-z
-x,y,-z
-x,-y,-z
x,y,-z
-x,y,z
x,-y,z
loop_
_atom_site_type_symbol
_atom_site_label
_atom_site_fract_x
_atom_site_fract_y
_atom_site_fract_z
Si Si1 0.395251 0.334014 0.851890
Si Si2 0.270305 0.661180 0.056560
Si Si3 0.274823 0.666132 0.243790
Si Si4 0.106287 0.160765 0.093881
Si Si5 0.605309 0.667191 0.661655
Si Si6 0.611345 0.343309 0.553484
Si Si7 0.106539 0.838815 0.788995
O O1 0.500000 0.270049 0.849275
O O2 0.401754 0.500000 0.851350
O O3 0.346260 0.280674 0.903461
O O4 0.335877 0.281827 0.803908
O O5 0.247858 0.500000 0.068437
O O6 0.173341 0.743953 0.060439
O O7 0.311146 0.679839 0.000000
O O8 0.260812 0.500000 0.243082
O O9 0.326643 0.719300 0.294227
O O10 0.173837 0.739355 0.243394
O O11 0.118340 0.199851 0.152420
O O12 0.000000 0.189345 0.076507
O O13 0.132951 0.000000 0.084597
O O14 0.500000 0.721885 0.673018
O O15 0.603687 0.500000 0.659449
O O16 0.643391 0.726481 0.606937
O O17 0.642288 0.267460 0.500000
O O18 0.500000 0.349331 0.555986
O O19 0.651858 0.500000 0.551262
O O20 0.000000 0.810478 0.771620
O O21 0.133282 0.000000 0.779601
#
# Coordination Sequence:
#
# PCOD8193508 Si02
#       7
#     8   8   8   8   8   8   8
#     4   9  17  29  44  62  84 110 138 166 199 239
#     4  10  20  32  46  66  88 108 135 171 205 237
#     4  10  17  26  44  67  87 108 136 171 208 243
#     4   9  18  33  51  67  83 106 134 163 202 254
#     4   8  13  20  32  55  86 116 145 175 204 237
#     4   7   9  14  25  43  73 114 150 173 197 233
#     4   9  18  32  48  64  83 108 135 164 204 254
#
# _framework density 15.513636
#
# number of rings (size 3 to 8) (size 9 to 14) (size 15 to 20)
#    0.000    3.143    1.429    2.571    0.000    3.143 
#    0.000    4.286    0.000    3.000    0.000    1.000 
#    0.000    1.143    0.000   10.714    0.000    4.286 
#
# Total GULP energy -693841.906690 kJ/mol
# GULP energy per Si atom -12390.034048 kJ/mol
# Density = 1.547833 g / cm^3
# Si number density = 15.513636 Si / 1000 Ang^3
#
#
#
# Elastic Constant Matrix: (Units=GPa)
#
#
# Indices 1 2 3 4 5 6 
#
# 1 85.3616 26.3769 52.9683 0.0000 0.0000 0.0000
# 2 26.3769 24.5418 23.7405 0.0000 0.0000 0.0000
# 3 52.9683 23.7405 132.7322 0.0000 0.0000 0.0000
# 4 0.0000 0.0000 0.0000 7.7584 0.0000 0.0000
# 5 0.0000 0.0000 0.0000 0.0000 15.7420 0.0000
# 6 0.0000 0.0000 0.0000 0.0000 0.0000 3.5879
#
#
#
# Elastic Compliance Matrix: (Units=1/GPa)
#
#
# Indices 1 2 3 4 5 6 
#
# 1 0.019942 -0.016608 -0.004987 0.000000 0.000000 0.000000
# 2 -0.016608 0.063104 -0.004659 0.000000 0.000000 0.000000
# 3 -0.004987 -0.004659 0.010358 0.000000 0.000000 0.000000
# 4 0.000000 0.000000 0.000000 0.128892 0.000000 0.000000
# 5 0.000000 0.000000 0.000000 0.000000 0.063524 0.000000
# 6 0.000000 0.000000 0.000000 0.000000 0.000000 0.278713
#
#
# Mechanical properties :
#
#
# Convention : Reuss Voigt Hill
#
# Bulk Modulus (GPa) = 24.45362 49.86745 37.16053
# Shear Modulus (GPa) = 7.92804 14.72099 11.32452
#
# Velocity S-wave (km/s) = 2.26306 3.08377 2.70473
# Velocity P-wave (km/s) = 4.75663 6.70027 5.81030
#
# Compressibility (1/GPa) = 0.04089374
#
# Stress axis : x y z
#
# Youngs Moduli (GPa) = 50.14636 15.84688 96.54785
#
# Poissons Ratio (x) = 0.26319 0.48152
# Poissons Ratio (y) = 0.83284 0.44982
# Poissons Ratio (z) = 0.25010 0.07383
#
# Static dielectric constant tensor:
#      x y z
#    x 2.865930 0.000000 0.000000 
#    y 0.000000 2.531640 0.000000 
#    z 0.000000 0.000000 3.317050 
# 
# 
# High freq. dielectric constant tensor:
#      x y z
#    x 1.573170 0.000000 0.000000 
#    y 0.000000 1.547920 0.000000 
#    z 0.000000 0.000000 1.599110 
# 
# From -- ./inp_files/16734.got.cif
#   From: 2010.03.12/outbox.cif.g09.slc.cpg/sg47_9_cif.got.tgz:16734.got - 2010.04.14 03:12:58.
