data_PCOD8193204
_publ_section_title
;
Structure prediction by ZEFSAII (Michael W. Deem and Ramdas Pophale) SiO2 
 PCOD8193204
Probable space group: I M A 2
;
_chemical_formula_sum "Si O2"
_cell_formula_units_Z 64
_cell_length_a 18.879518
_cell_length_b 9.402785
_cell_length_c 17.601432
_cell_angle_alpha 90.000000
_cell_angle_beta 90.000000
_cell_angle_gamma 90.000000
_cell_volume 3124.607065
_symmetry_space_group_name_H-M "I M A 2"
_symmetry_group_IT_number 46
_symmetry_cell_setting 'orthorhombic'
loop_
_space_group_symop_operation_xyz
x,y,z
-x,-y,z
1/2-x,y,z
1/2+x,-y,z
1/2+x,1/2+y,1/2+z
1/2-x,1/2-y,1/2+z
-x,1/2+y,1/2+z
x,1/2-y,1/2+z
loop_
_atom_site_type_symbol
_atom_site_label
_atom_site_fract_x
_atom_site_fract_y
_atom_site_fract_z
Si Si1 0.444001 0.749211 0.276990
Si Si2 0.913724 0.699315 0.870380
Si Si3 0.432226 0.828523 0.603938
Si Si4 0.078370 0.981435 0.891574
Si Si5 0.671980 0.870653 0.114537
Si Si6 0.328818 0.641025 0.515856
Si Si7 0.925591 0.641755 0.042645
Si Si8 0.666216 0.003624 0.269103
O O1 0.514337 0.811165 0.319448
O O2 0.453996 0.716057 0.188693
O O3 0.426201 0.594480 0.310369
O O4 0.378993 0.857005 0.289960
O O5 0.888322 0.862281 0.881501
O O6 0.849213 0.618745 0.830178
O O7 0.919666 0.622226 0.952138
O O8 0.361859 0.747904 0.577279
O O9 0.499156 0.779993 0.553813
O O10 0.420899 0.995526 0.589606
O O11 0.000000 0.000000 0.928175
O O12 0.124294 0.871443 0.940754
O O13 0.750000 0.818790 0.137895
O O14 0.633543 0.735185 0.081772
O O15 0.674663 0.983776 0.047928
O O16 0.637491 0.943305 0.188657
O O17 0.250000 0.697214 0.496157
O O18 0.750000 0.041592 0.267618
#
# Coordination Sequence:
#
# PCOD8193204 Si02
#       8
#     8   8   8   8   8   8   8   8
#     4  11  24  42  65  94 132 169 213 268 325 386
#     4  11  24  42  66  95 131 168 213 268 325 383
#     4  11  25  40  66  97 130 167 216 270 329 384
#     4  10  23  41  67  94 129 165 215 266 322 386
#     4  10  22  43  65  90 124 168 216 266 320 390
#     4  11  23  43  66  93 127 169 214 265 325 392
#     4  11  25  41  67  97 130 165 219 271 330 387
#     4  11  25  43  65  93 130 171 219 264 321 393
#
# _framework density 20.482575000000001
#
# number of rings (size 3 to 8) (size 9 to 14) (size 15 to 20)
#    0.000    1.250    2.500    2.625   12.250    2.000 
#    0.000    0.000    0.000    0.000    0.000    0.000 
#    0.000    0.000    0.000    0.000    0.000    0.000 
#
# Total GULP energy -396702.010919 kJ/mol
# GULP energy per Si atom -12396.937841 kJ/mol
# Density = 2.043596 g / cm^3
# Si number density = 20.482575 Si / 1000 Ang^3
#
#
#
# Elastic Constant Matrix: (Units=GPa)
#
#
# Indices 1 2 3 4 5 6 
#
# 1 98.8785 34.8599 37.5835 0.0000 0.0000 0.0000
# 2 34.8599 85.0629 21.4838 0.0000 0.0000 0.0000
# 3 37.5835 21.4838 88.9576 0.0000 0.0000 0.0000
# 4 0.0000 0.0000 0.0000 33.5730 0.0000 0.0000
# 5 0.0000 0.0000 0.0000 0.0000 29.5692 0.0000
# 6 0.0000 0.0000 0.0000 0.0000 0.0000 31.7581
#
#
#
# Elastic Compliance Matrix: (Units=1/GPa)
#
#
# Indices 1 2 3 4 5 6 
#
# 1 0.013391 -0.004323 -0.004614 0.000000 0.000000 0.000000
# 2 -0.004323 0.013915 -0.001534 0.000000 0.000000 0.000000
# 3 -0.004614 -0.001534 0.013561 0.000000 0.000000 0.000000
# 4 0.000000 0.000000 0.000000 0.029786 0.000000 0.000000
# 5 0.000000 0.000000 0.000000 0.000000 0.033819 0.000000
# 6 0.000000 0.000000 0.000000 0.000000 0.000000 0.031488
#
#
# Mechanical properties :
#
#
# Convention : Reuss Voigt Hill
#
# Bulk Modulus (GPa) = 50.18561 51.19480 50.69021
# Shear Modulus (GPa) = 30.57303 30.91150 30.74227
#
# Velocity S-wave (km/s) = 3.86766 3.88901 3.87835
# Velocity P-wave (km/s) = 6.67082 6.72417 6.69755
#
# Compressibility (1/GPa) = 0.01992603
#
# Stress axis : x y z
#
# Youngs Moduli (GPa) = 74.67722 71.86510 73.74065
#
# Poissons Ratio (x) = 0.31064 0.34021
# Poissons Ratio (y) = 0.32280 0.11314
# Poissons Ratio (z) = 0.34453 0.11026
#
# Static dielectric constant tensor:
#      x y z
#    x 3.960690 0.000000 0.000000 
#    y 0.000000 3.665030 0.000000 
#    z 0.000000 0.000000 3.766920 
# 
# 
# High freq. dielectric constant tensor:
#      x y z
#    x 1.794970 0.000000 0.000000 
#    y 0.000000 1.803670 0.000000 
#    z 0.000000 0.000000 1.810890 
# 
# From -- ./inp_files/20259.got.cif
#   From: 2010.03.12/outbox.cif.g09.slc.cpg/sg46_11_cif.got.tgz:20259.got - 2010.04.14 02:56:35.
