data_PCOD8193190
_publ_section_title
;
Structure prediction by ZEFSAII (Michael W. Deem and Ramdas Pophale) SiO2 
 PCOD8193190
Probable space group: I M A 2
;
_chemical_formula_sum "Si O2"
_cell_formula_units_Z 48
_cell_length_a 8.842826
_cell_length_b 22.758669
_cell_length_c 11.548312
_cell_angle_alpha 90.000000
_cell_angle_beta 90.000000
_cell_angle_gamma 90.000000
_cell_volume 2324.108760
_symmetry_space_group_name_H-M "I M A 2"
_symmetry_group_IT_number 46
_symmetry_cell_setting 'orthorhombic'
loop_
_space_group_symop_operation_xyz
x,y,z
-x,-y,z
1/2-x,y,z
1/2+x,-y,z
1/2+x,1/2+y,1/2+z
1/2-x,1/2-y,1/2+z
-x,1/2+y,1/2+z
x,1/2-y,1/2+z
loop_
_atom_site_type_symbol
_atom_site_label
_atom_site_fract_x
_atom_site_fract_y
_atom_site_fract_z
Si Si1 0.079724 0.763626 0.116710
Si Si2 0.422354 0.630439 0.765525
Si Si3 0.074248 0.439745 0.575219
Si Si4 0.574881 0.355223 0.413000
Si Si5 0.573765 0.063249 0.498393
Si Si6 0.573266 0.850906 0.669864
O O1 0.250000 0.738410 0.109750
O O2 0.061000 0.799557 0.238965
O O3 0.966053 0.709317 0.103250
O O4 0.045943 0.805655 0.008706
O O5 0.250000 0.611602 0.730344
O O6 0.548066 0.600838 0.686004
O O7 0.456038 0.611063 0.896713
O O8 0.250000 0.445907 0.548374
O O9 0.000000 0.500000 0.611629
O O10 0.990262 0.416273 0.461091
O O11 0.750000 0.362668 0.382807
O O12 0.484741 0.339506 0.298550
O O13 0.750000 0.052229 0.517574
O O14 0.504385 0.091780 0.613804
O O15 0.500000 0.000000 0.470070
O O16 0.750000 0.862313 0.667603
#
# Coordination Sequence:
#
# PCOD8193190 Si02
#       6
#     8   8   8   8   8   8
#     4   9  20  40  65  92 122 161 206 254 310 375
#     4   9  20  39  64  93 124 163 208 255 309 369
#     4  11  21  35  59  90 124 159 200 250 306 362
#     4  10  22  42  64  87 118 158 206 253 306 370
#     4  11  24  43  65  92 127 171 218 262 313 377
#     4  12  26  41  61  92 127 164 206 258 315 373
#
# _framework density 20.653079000000002
#
# number of rings (size 3 to 8) (size 9 to 14) (size 15 to 20)
#    0.000    1.667    0.000    5.500    2.333    6.667 
#    0.000    3.333    0.000    0.000    0.000    0.000 
#    0.000    0.000    0.000    0.000    0.000    0.000 
#
# Total GULP energy -297593.111079 kJ/mol
# GULP energy per Si atom -12399.712962 kJ/mol
# Density = 2.060607 g / cm^3
# Si number density = 20.653079 Si / 1000 Ang^3
#
#
#
# Elastic Constant Matrix: (Units=GPa)
#
#
# Indices 1 2 3 4 5 6 
#
# 1 126.0028 42.9536 38.4456 0.0001 -0.0001 0.0000
# 2 42.9536 75.1648 23.4930 -0.0001 0.0001 0.0000
# 3 38.4456 23.4930 83.4741 0.0000 0.0001 -0.0002
# 4 0.0001 -0.0001 0.0000 27.5130 0.0001 -0.0001
# 5 -0.0001 0.0001 0.0001 0.0001 30.2407 0.0000
# 6 0.0000 0.0000 -0.0002 -0.0001 0.0000 37.5388
#
#
#
# Elastic Compliance Matrix: (Units=1/GPa)
#
#
# Indices 1 2 3 4 5 6 
#
# 1 0.010726 -0.005028 -0.003525 0.000000 0.000000 0.000000
# 2 -0.005028 0.016944 -0.002453 0.000000 0.000000 0.000000
# 3 -0.003525 -0.002453 0.014294 0.000000 0.000000 0.000000
# 4 0.000000 0.000000 0.000000 0.036346 0.000000 0.000000
# 5 0.000000 0.000000 0.000000 0.000000 0.033068 0.000000
# 6 0.000000 0.000000 0.000000 0.000000 0.000000 0.026639
#
#
# Mechanical properties :
#
#
# Convention : Reuss Voigt Hill
#
# Bulk Modulus (GPa) = 50.12057 54.93624 52.52841
# Shear Modulus (GPa) = 29.99780 31.04181 30.51981
#
# Velocity S-wave (km/s) = 3.81525 3.88107 3.84830
# Velocity P-wave (km/s) = 6.61277 6.83673 6.72568
#
# Compressibility (1/GPa) = 0.01995189
#
# Stress axis : x y z
#
# Youngs Moduli (GPa) = 93.23377 59.01834 69.96098
#
# Poissons Ratio (x) = 0.29672 0.24661
# Poissons Ratio (y) = 0.46874 0.17163
# Poissons Ratio (z) = 0.32865 0.14478
#
# Static dielectric constant tensor:
#      x y z
#    x 3.753740 0.000000 0.000000 
#    y 0.000000 3.723500 0.000000 
#    z 0.000000 0.000000 3.697700 
# 
# 
# High freq. dielectric constant tensor:
#      x y z
#    x 1.809180 0.000000 0.000000 
#    y 0.000000 1.809280 0.000000 
#    z 0.000000 0.000000 1.804440 
# 
# From -- ./inp_files/9312.got.cif
#   From: 2010.03.12/outbox.cif.g09.slc.cpg/sg46_5_cif.got.tgz:9312.got - 2010.04.14 02:56:35.
