data_PCOD8193714
_publ_section_title
;
Structure prediction by ZEFSAII (Michael W. Deem and Ramdas Pophale) SiO2 
 PCOD8193714
Probable space group: P M M M
;
_chemical_formula_sum "Si O2"
_cell_formula_units_Z 40
_cell_length_a 23.539035
_cell_length_b 12.781842
_cell_length_c 7.799914
_cell_angle_alpha 90.000000
_cell_angle_beta 90.000000
_cell_angle_gamma 90.000000
_cell_volume 2346.777489
_symmetry_space_group_name_H-M "P M M M"
_symmetry_group_IT_number 47
_symmetry_cell_setting 'orthorhombic'
loop_
_space_group_symop_operation_xyz
x,y,z
-x,-y,z
x,-y,-z
-x,y,-z
-x,-y,-z
x,y,-z
-x,y,z
x,-y,z
loop_
_atom_site_type_symbol
_atom_site_label
_atom_site_fract_x
_atom_site_fract_y
_atom_site_fract_z
Si Si1 0.216655 0.754167 0.690389
Si Si2 0.937280 0.746605 0.000000
Si Si3 0.561063 0.123752 0.695075
Si Si4 0.105673 0.121599 0.304847
Si Si5 0.823691 0.623297 0.000000
Si Si6 0.319101 0.118862 0.194021
O O1 0.208997 0.705312 0.500000
O O2 0.170959 0.845572 0.723257
O O3 0.278582 0.806252 0.697509
O O4 0.208649 0.663826 0.830800
O O5 0.933263 0.816531 0.171257
O O6 0.889685 0.656868 0.000000
O O7 0.000000 0.694756 0.000000
O O8 0.568526 0.160169 0.500000
O O9 0.500000 0.167575 0.766340
O O10 0.616255 0.163725 0.798276
O O11 0.558644 0.000000 0.708881
O O12 0.085807 0.145992 0.500000
O O13 0.100425 0.000000 0.263136
O O14 0.820533 0.500000 0.000000
O O15 0.316792 0.000000 0.267253
O O16 0.297498 0.120987 0.000000
#
# Coordination Sequence:
#
# PCOD8193714 Si02
#       6
#     8   4   8   8   4   8
#     4  10  19  33  52  73  98 127 161 201 245 292
#     4  10  21  35  52  75  99 127 161 195 231 278
#     4   8  14  24  36  53  85 132 178 209 232 265
#     4   9  18  31  48  72 103 137 165 191 227 272
#     4  10  22  40  57  74  95 118 152 202 253 300
#     4  10  18  26  41  68 101 135 168 201 237 281
#
# _framework density 17.044651000000002
#
# number of rings (size 3 to 8) (size 9 to 14) (size 15 to 20)
#    0.000    2.600    1.000    2.100    0.000    4.200 
#    0.000    3.000    0.000    0.000    0.000    5.600 
#    0.000    1.600    0.000    4.200    0.000    0.200 
#
# Total GULP energy -495755.707339 kJ/mol
# GULP energy per Si atom -12393.892683 kJ/mol
# Density = 1.700586 g / cm^3
# Si number density = 17.044651 Si / 1000 Ang^3
#
#
#
# Elastic Constant Matrix: (Units=GPa)
#
#
# Indices 1 2 3 4 5 6 
#
# 1 116.0089 33.4401 33.7564 0.0000 0.0000 0.0000
# 2 33.4401 72.9311 36.9044 0.0000 0.0000 0.0000
# 3 33.7564 36.9044 96.3597 0.0000 0.0000 0.0000
# 4 0.0000 0.0000 0.0000 12.1553 0.0000 0.0000
# 5 0.0000 0.0000 0.0000 0.0000 22.1536 0.0000
# 6 0.0000 0.0000 0.0000 0.0000 0.0000 11.3974
#
#
#
# Elastic Compliance Matrix: (Units=1/GPa)
#
#
# Indices 1 2 3 4 5 6 
#
# 1 0.010306 -0.003595 -0.002233 0.000000 0.000000 0.000000
# 2 -0.003595 0.018262 -0.005735 0.000000 0.000000 0.000000
# 3 -0.002233 -0.005735 0.013356 0.000000 0.000000 0.000000
# 4 0.000000 0.000000 0.000000 0.082269 0.000000 0.000000
# 5 0.000000 0.000000 0.000000 0.000000 0.045139 0.000000
# 6 0.000000 0.000000 0.000000 0.000000 0.000000 0.087739
#
#
# Mechanical properties :
#
#
# Convention : Reuss Voigt Hill
#
# Bulk Modulus (GPa) = 53.19766 54.83352 54.01559
# Shear Modulus (GPa) = 17.45415 21.22118 19.33767
#
# Velocity S-wave (km/s) = 3.20351 3.53233 3.37193
# Velocity P-wave (km/s) = 6.70536 6.99120 6.84977
#
# Compressibility (1/GPa) = 0.01879782
#
# Stress axis : x y z
#
# Youngs Moduli (GPa) = 97.02771 54.75875 74.87019
#
# Poissons Ratio (x) = 0.19688 0.16722
# Poissons Ratio (y) = 0.34886 0.42934
# Poissons Ratio (z) = 0.21671 0.31402
#
# Static dielectric constant tensor:
#      x y z
#    x 2.627000 0.000000 0.000000 
#    y 0.000000 2.598890 0.000000 
#    z 0.000000 0.000000 3.401850 
# 
# 
# High freq. dielectric constant tensor:
#      x y z
#    x 1.668530 0.000000 0.000000 
#    y 0.000000 1.583700 0.000000 
#    z 0.000000 0.000000 1.671180 
# 
# From -- ./inp_files/10693.got.cif
#   From: 2010.03.12/outbox.cif.g09.slc.cpg/sg47_6_cif.got.tgz:10693.got - 2010.04.14 03:12:58.
