data_PCOD8193057
_publ_section_title
;
Structure prediction by ZEFSAII (Michael W. Deem and Ramdas Pophale) SiO2 
 PCOD8193057
Probable space group: I M A 2
;
_chemical_formula_sum "Si O2"
_cell_formula_units_Z 40
_cell_length_a 9.926768
_cell_length_b 7.838865
_cell_length_c 25.619827
_cell_angle_alpha 90.000000
_cell_angle_beta 90.000000
_cell_angle_gamma 90.000000
_cell_volume 1993.596442
_symmetry_space_group_name_H-M "I M A 2"
_symmetry_group_IT_number 46
_symmetry_cell_setting 'orthorhombic'
loop_
_space_group_symop_operation_xyz
x,y,z
-x,-y,z
1/2-x,y,z
1/2+x,-y,z
1/2+x,1/2+y,1/2+z
1/2-x,1/2-y,1/2+z
-x,1/2+y,1/2+z
x,1/2-y,1/2+z
loop_
_atom_site_type_symbol
_atom_site_label
_atom_site_fract_x
_atom_site_fract_y
_atom_site_fract_z
Si Si1 0.481280 0.808812 0.296300
Si Si2 0.500000 0.000000 0.019909
Si Si3 0.750000 0.289159 0.363138
Si Si4 0.596952 0.160866 0.186880
Si Si5 0.750000 0.653362 0.338650
Si Si6 0.407113 0.662785 0.081280
Si Si7 0.250000 0.461015 0.449383
O O1 0.383727 0.811010 0.346798
O O2 0.426024 0.734769 0.241493
O O3 0.619808 0.727506 0.312288
O O4 0.500000 0.000000 0.279181
O O5 0.452091 0.837756 0.052976
O O6 0.380912 0.068312 0.983525
O O7 0.750000 0.454096 0.325386
O O8 0.750000 0.345928 0.423928
O O9 0.750000 0.090652 0.184801
O O10 0.573818 0.303149 0.142541
O O11 0.500000 0.000000 0.176850
O O12 0.750000 0.677208 0.401854
O O13 0.500000 0.500000 0.064897
O O14 0.250000 0.623821 0.067390
#
# Coordination Sequence:
#
# PCOD8193057 Si02
#       7
#     8   4   4   8   4   8   4
#     4  11  21  38  62  96 131 172 216 269 327 390
#     4  12  22  48  74  96 134 186 222 292 344 394
#     4  10  21  41  61  87 128 166 220 269 316 407
#     4  10  22  40  64  96 135 182 219 264 337 406
#     4  10  23  39  63  89 122 174 222 265 324 395
#     4  11  26  45  70 105 138 175 228 283 342 411
#     4  10  24  42  72  90 126 184 228 272 346 398
#
# _framework density 20.064242
#
# number of rings (size 3 to 8) (size 9 to 14) (size 15 to 20)
#    0.600    0.800    3.000    2.400    5.600    2.400 
#    0.000    6.000    0.000    0.000    0.000    0.000 
#    0.000    0.000    0.000    0.000    0.000    0.000 
#
# Total GULP energy -247809.815352 kJ/mol
# GULP energy per Si atom -12390.490768 kJ/mol
# Density = 2.001857 g / cm^3
# Si number density = 20.064242 Si / 1000 Ang^3
#
#
#
# Elastic Constant Matrix: (Units=GPa)
#
#
# Indices 1 2 3 4 5 6 
#
# 1 160.8322 35.3092 40.4325 0.0000 0.0000 0.0000
# 2 35.3092 77.8315 23.6701 0.0000 0.0000 0.0000
# 3 40.4325 23.6701 97.5458 0.0000 0.0000 0.0000
# 4 0.0000 0.0000 0.0000 26.4776 0.0000 0.0000
# 5 0.0000 0.0000 0.0000 0.0000 40.4347 0.0000
# 6 0.0000 0.0000 0.0000 0.0000 0.0000 21.2837
#
#
#
# Elastic Compliance Matrix: (Units=1/GPa)
#
#
# Indices 1 2 3 4 5 6 
#
# 1 0.007404 -0.002619 -0.002434 0.000000 0.000000 0.000000
# 2 -0.002619 0.014798 -0.002505 0.000000 0.000000 0.000000
# 3 -0.002434 -0.002505 0.011868 0.000000 0.000000 0.000000
# 4 0.000000 0.000000 0.000000 0.037768 0.000000 0.000000
# 5 0.000000 0.000000 0.000000 0.000000 0.024731 0.000000
# 6 0.000000 0.000000 0.000000 0.000000 0.000000 0.046984
#
#
# Mechanical properties :
#
#
# Convention : Reuss Voigt Hill
#
# Bulk Modulus (GPa) = 52.75615 59.44812 56.10214
# Shear Modulus (GPa) = 30.30514 33.42572 31.86543
#
# Velocity S-wave (km/s) = 3.89061 4.08601 3.98951
# Velocity P-wave (km/s) = 6.82152 7.20791 7.01737
#
# Compressibility (1/GPa) = 0.01895513
#
# Stress axis : x y z
#
# Youngs Moduli (GPa) = 135.05419 67.57519 84.25841
#
# Poissons Ratio (x) = 0.17698 0.20505
# Poissons Ratio (y) = 0.35371 0.21110
# Poissons Ratio (z) = 0.32867 0.16930
#
# Static dielectric constant tensor:
#      x y z
#    x 3.616060 0.000000 0.000000 
#    y 0.000000 2.892440 0.000000 
#    z 0.000000 0.000000 3.722000 
# 
# 
# High freq. dielectric constant tensor:
#      x y z
#    x 1.800540 0.000000 0.000000 
#    y 0.000000 1.759770 0.000000 
#    z 0.000000 0.000000 1.791450 
# 
# From -- ./inp_files/24106.got.cif
#   From: 2010.03.12/outbox.cif.g09.slc.cpg/sg46_13_cif.got.tgz:24106.got - 2010.04.14 02:56:35.
