data_PCOD8193019
_publ_section_title
;
Structure prediction by ZEFSAII (Michael W. Deem and Ramdas Pophale) SiO2 
 PCOD8193019
Probable space group: I M A 2
;
_chemical_formula_sum "Si O2"
_cell_formula_units_Z 48
_cell_length_a 25.199769
_cell_length_b 6.356177
_cell_length_c 14.579758
_cell_angle_alpha 90.000000
_cell_angle_beta 90.000000
_cell_angle_gamma 90.000000
_cell_volume 2335.300959
_symmetry_space_group_name_H-M "I M A 2"
_symmetry_group_IT_number 46
_symmetry_cell_setting 'orthorhombic'
loop_
_space_group_symop_operation_xyz
x,y,z
-x,-y,z
1/2-x,y,z
1/2+x,-y,z
1/2+x,1/2+y,1/2+z
1/2-x,1/2-y,1/2+z
-x,1/2+y,1/2+z
x,1/2-y,1/2+z
loop_
_atom_site_type_symbol
_atom_site_label
_atom_site_fract_x
_atom_site_fract_y
_atom_site_fract_z
Si Si1 0.366371 0.431672 0.230260
Si Si2 0.904597 0.236009 0.567666
Si Si3 0.250000 0.934308 0.349838
Si Si4 0.335101 0.880090 0.905883
Si Si5 0.750000 0.689415 0.480811
Si Si6 0.500000 0.500000 0.070046
Si Si7 0.450140 0.381934 0.677028
Si Si8 0.250000 0.236145 0.694501
O O1 0.383879 0.594133 0.151671
O O2 0.376593 0.532936 0.330593
O O3 0.400468 0.213314 0.234394
O O4 0.303186 0.393290 0.218450
O O5 0.860470 0.265022 0.492121
O O6 0.925009 0.461502 0.602182
O O7 0.952014 0.108700 0.514432
O O8 0.198531 0.790587 0.351516
O O9 0.250000 0.078104 0.440185
O O10 0.250000 0.053994 0.254174
O O11 0.302035 0.073568 0.945412
O O12 0.750000 0.695949 0.589695
O O13 0.523386 0.681017 0.132918
O O14 0.500000 0.500000 0.729831
#
# Coordination Sequence:
#
# PCOD8193019 Si02
#       8
#     8   8   4   8   4   4   8   4
#     4  11  23  40  62 100 132 166 218 266 312 394
#     4  10  21  39  69  89 124 174 209 263 329 372
#     4  11  24  43  58  90 134 168 205 264 314 379
#     4  11  24  39  61  95 131 163 214 265 311 387
#     4  11  23  41  59  91 127 165 219 257 307 386
#     4   8  18  40  66  92 122 154 222 264 312 388
#     4   9  19  40  71  92 124 172 214 263 322 374
#     4  12  23  42  67  89 131 177 210 259 329 379
#
# _framework density 20.554096000000001
#
# number of rings (size 3 to 8) (size 9 to 14) (size 15 to 20)
#    0.000    1.667    1.667    2.500    4.667    2.000 
#    0.000    0.000   44.000    0.000    0.000    0.000 
#    0.000    0.000    0.000    0.000    0.000    0.000 
#
# Total GULP energy -297339.270781 kJ/mol
# GULP energy per Si atom -12389.136283 kJ/mol
# Density = 2.050731 g / cm^3
# Si number density = 20.554096 Si / 1000 Ang^3
#
#
#
# Elastic Constant Matrix: (Units=GPa)
#
#
# Indices 1 2 3 4 5 6 
#
# 1 112.9444 45.7575 24.0492 0.0000 0.0000 0.0000
# 2 45.7575 118.3343 35.7368 0.0000 0.0000 0.0000
# 3 24.0492 35.7368 114.6014 0.0000 0.0000 0.0000
# 4 0.0000 0.0000 0.0000 32.2105 0.0000 0.0000
# 5 0.0000 0.0000 0.0000 0.0000 14.6387 0.0000
# 6 0.0000 0.0000 0.0000 0.0000 0.0000 147.6528
#
#
#
# Elastic Compliance Matrix: (Units=1/GPa)
#
#
# Indices 1 2 3 4 5 6 
#
# 1 0.010611 -0.003787 -0.001046 0.000000 0.000000 0.000000
# 2 -0.003787 0.010681 -0.002536 0.000000 0.000000 0.000000
# 3 -0.001046 -0.002536 0.009736 0.000000 0.000000 0.000000
# 4 0.000000 0.000000 0.000000 0.031046 0.000000 0.000000
# 5 0.000000 0.000000 0.000000 0.000000 0.068312 0.000000
# 6 0.000000 0.000000 0.000000 0.000000 0.000000 0.006773
#
#
# Mechanical properties :
#
#
# Convention : Reuss Voigt Hill
#
# Bulk Modulus (GPa) = 61.38655 61.88524 61.63590
# Shear Modulus (GPa) = 31.78112 54.92286 43.35199
#
# Velocity S-wave (km/s) = 3.93646 5.17486 4.59755
# Velocity P-wave (km/s) = 7.11278 8.11661 7.63122
#
# Compressibility (1/GPa) = 0.01629021
#
# Stress axis : x y z
#
# Youngs Moduli (GPa) = 94.24273 93.62484 102.71014
#
# Poissons Ratio (x) = 0.35458 0.10741
# Poissons Ratio (y) = 0.35692 0.26047
# Poissons Ratio (z) = 0.09855 0.23743
#
# Static dielectric constant tensor:
#      x y z
#    x 4.395510 0.000000 0.000000 
#    y 0.000000 4.113480 0.000000 
#    z 0.000000 0.000000 3.506090 
# 
# 
# High freq. dielectric constant tensor:
#      x y z
#    x 1.821840 0.000000 0.000000 
#    y 0.000000 1.829030 0.000000 
#    z 0.000000 0.000000 1.771770 
# 
# From -- ./inp_files/17588.got.cif
#   From: 2010.03.12/outbox.cif.g09.slc.cpg/sg46_9_cif.got.tgz:17588.got - 2010.04.14 02:56:35.
