data_PCOD8193865
_publ_section_title
;
Structure prediction by ZEFSAII (Michael W. Deem and Ramdas Pophale) SiO2 
 PCOD8193865
Probable space group: P M M M
;
_chemical_formula_sum "Si O2"
_cell_formula_units_Z 60
_cell_length_a 15.327441
_cell_length_b 12.992583
_cell_length_c 19.043435
_cell_angle_alpha 90.000000
_cell_angle_beta 90.000000
_cell_angle_gamma 90.000000
_cell_volume 3792.367716
_symmetry_space_group_name_H-M "P M M M"
_symmetry_group_IT_number 47
_symmetry_cell_setting 'orthorhombic'
loop_
_space_group_symop_operation_xyz
x,y,z
-x,-y,z
x,-y,-z
-x,y,-z
-x,-y,-z
x,y,-z
-x,y,z
x,-y,z
loop_
_atom_site_type_symbol
_atom_site_label
_atom_site_fract_x
_atom_site_fract_y
_atom_site_fract_z
Si Si1 0.402428 0.622174 0.331543
Si Si2 0.594795 0.788393 0.079490
Si Si3 0.243319 0.377884 0.578210
Si Si4 0.000000 0.380686 0.923841
Si Si5 0.653958 0.381869 0.822348
Si Si6 0.225643 0.882436 0.081404
Si Si7 0.843106 0.301735 0.834150
Si Si8 0.100453 0.619591 0.689814
O O1 0.500000 0.666538 0.345651
O O2 0.405084 0.500000 0.335017
O O3 0.333864 0.665250 0.388920
O O4 0.367207 0.657304 0.255923
O O5 0.500000 0.841885 0.090944
O O6 0.597061 0.685468 0.125309
O O7 0.671402 0.868460 0.098273
O O8 0.605962 0.750776 0.000000
O O9 0.232492 0.331555 0.500000
O O10 0.248017 0.500000 0.574914
O O11 0.160108 0.344935 0.624664
O O12 0.913775 0.353438 0.882643
O O13 0.000000 0.500000 0.935883
O O14 0.000000 0.324993 0.000000
O O15 0.626845 0.500000 0.832221
O O16 0.755519 0.367923 0.839472
O O17 0.171108 0.813856 0.136485
O O18 0.199694 0.000000 0.095510
O O19 0.205596 0.852398 0.000000
O O20 0.877600 0.304441 0.754295
O O21 0.119683 0.500000 0.710772
O O22 0.000000 0.633030 0.667417
#
# Coordination Sequence:
#
# PCOD8193865 Si02
#       8
#     8   8   8   4   8   8   8   8
#     4   9  16  25  38  57  83 120 160 191 222 263
#     4   9  18  30  44  65  89 115 152 194 233 275
#     4   9  17  28  41  61  90 123 160 195 223 262
#     4  11  22  32  45  69  96 120 153 194 229 273
#     4  10  18  28  43  62  90 126 160 190 226 275
#     4   9  19  35  51  66  87 116 151 194 242 285
#     4  11  19  31  49  66  87 119 156 194 232 280
#     4  10  18  29  47  68  92 123 156 189 230 275
#
# _framework density 15.821249999999999
#
# number of rings (size 3 to 8) (size 9 to 14) (size 15 to 20)
#    0.000    2.333    2.000    2.000    0.000    2.400 
#    0.000    5.000    0.000    1.200    0.000    0.000 
#    0.000    0.533    0.000    1.200    0.000    7.733 
#
# Total GULP energy -743717.303828 kJ/mol
# GULP energy per Si atom -12395.288397 kJ/mol
# Density = 1.578524 g / cm^3
# Si number density = 15.821250 Si / 1000 Ang^3
#
#
#
# Elastic Constant Matrix: (Units=GPa)
#
#
# Indices 1 2 3 4 5 6 
#
# 1 115.4249 19.0488 57.1222 0.0000 0.0000 0.0000
# 2 19.0488 45.8105 31.2650 0.0000 0.0000 0.0000
# 3 57.1222 31.2650 120.1445 0.0000 0.0000 0.0000
# 4 0.0000 0.0000 0.0000 9.0329 0.0000 0.0000
# 5 0.0000 0.0000 0.0000 0.0000 22.7502 0.0000
# 6 0.0000 0.0000 0.0000 0.0000 0.0000 9.8145
#
#
#
# Elastic Compliance Matrix: (Units=1/GPa)
#
#
# Indices 1 2 3 4 5 6 
#
# 1 0.011389 -0.001265 -0.005086 0.000000 0.000000 0.000000
# 2 -0.001265 0.026684 -0.006342 0.000000 0.000000 0.000000
# 3 -0.005086 -0.006342 0.012392 0.000000 0.000000 0.000000
# 4 0.000000 0.000000 0.000000 0.110707 0.000000 0.000000
# 5 0.000000 0.000000 0.000000 0.000000 0.043956 0.000000
# 6 0.000000 0.000000 0.000000 0.000000 0.000000 0.101890
#
#
# Mechanical properties :
#
#
# Convention : Reuss Voigt Hill
#
# Bulk Modulus (GPa) = 39.87488 55.13910 47.50699
# Shear Modulus (GPa) = 14.67299 19.91580 17.29439
#
# Velocity S-wave (km/s) = 3.04867 3.55181 3.30981
# Velocity P-wave (km/s) = 6.13601 7.19357 6.68573
#
# Compressibility (1/GPa) = 0.02507845
#
# Stress axis : x y z
#
# Youngs Moduli (GPa) = 87.80174 37.47615 80.69834
#
# Poissons Ratio (x) = 0.04740 0.41042
# Poissons Ratio (y) = 0.11106 0.51183
# Poissons Ratio (z) = 0.44655 0.23769
#
# Static dielectric constant tensor:
#      x y z
#    x 3.215600 0.000000 0.000000 
#    y 0.000000 2.559560 0.000000 
#    z 0.000000 0.000000 3.168080 
# 
# 
# High freq. dielectric constant tensor:
#      x y z
#    x 1.627510 0.000000 0.000000 
#    y 0.000000 1.543580 0.000000 
#    z 0.000000 0.000000 1.605880 
# 
# From -- ./inp_files/31202.got.cif
#   From: 2010.03.12/outbox.cif.g09.slc.cpg/sg47_16_cif.got.tgz:31202.got - 2010.04.14 03:12:58.
