data_PCOD8193211
_publ_section_title
;
Structure prediction by ZEFSAII (Michael W. Deem and Ramdas Pophale) SiO2 
 PCOD8193211
Probable space group: I M A 2
;
_chemical_formula_sum "Si O2"
_cell_formula_units_Z 48
_cell_length_a 13.697504
_cell_length_b 13.161258
_cell_length_c 11.889979
_cell_angle_alpha 90.000000
_cell_angle_beta 90.000000
_cell_angle_gamma 90.000000
_cell_volume 2143.482421
_symmetry_space_group_name_H-M "I M A 2"
_symmetry_group_IT_number 46
_symmetry_cell_setting 'orthorhombic'
loop_
_space_group_symop_operation_xyz
x,y,z
-x,-y,z
1/2-x,y,z
1/2+x,-y,z
1/2+x,1/2+y,1/2+z
1/2-x,1/2-y,1/2+z
-x,1/2+y,1/2+z
x,1/2-y,1/2+z
loop_
_atom_site_type_symbol
_atom_site_label
_atom_site_fract_x
_atom_site_fract_y
_atom_site_fract_z
Si Si1 0.361489 0.944447 0.974250
Si Si2 0.538339 0.633756 0.361907
Si Si3 0.862423 0.680260 0.948215
Si Si4 0.637298 0.446873 0.933340
Si Si5 0.361903 0.652331 0.703357
Si Si6 0.514834 0.156968 0.624887
O O1 0.250000 0.925064 0.935730
O O2 0.430685 0.857774 0.919189
O O3 0.396549 0.054472 0.932310
O O4 0.371322 0.936523 0.109408
O O5 0.591627 0.742540 0.357427
O O6 0.522758 0.595350 0.234201
O O7 0.750000 0.706436 0.968328
O O8 0.877931 0.565489 0.906587
O O9 0.918704 0.700207 0.064512
O O10 0.750000 0.422627 0.959129
O O11 0.598985 0.388074 0.823203
O O12 0.575251 0.416822 0.042565
O O13 0.250000 0.685372 0.715432
O O14 0.420614 0.750432 0.667115
#
# Coordination Sequence:
#
# PCOD8193211 Si02
#       6
#     8   8   8   8   8   8
#     4  10  23  44  70 101 134 176 232 288 347 405
#     4  11  25  44  68 100 141 183 227 287 346 416
#     4  11  25  45  66  97 139 183 230 281 346 419
#     4  10  24  45  71 104 140 182 233 288 348 412
#     4  10  22  44  74 102 135 181 233 292 342 402
#     4  12  24  43  66 104 139 182 230 284 350 412
#
# _framework density 22.393464999999999
#
# number of rings (size 3 to 8) (size 9 to 14) (size 15 to 20)
#    0.000    1.333    1.667    2.500    4.667    4.000 
#    6.000    1.667    0.000    0.000    0.000    0.000 
#    0.000    0.000    0.000    0.000    0.000    0.000 
#
# Total GULP energy -297594.632050 kJ/mol
# GULP energy per Si atom -12399.776335 kJ/mol
# Density = 2.234250 g / cm^3
# Si number density = 22.393465 Si / 1000 Ang^3
#
#
#
# Elastic Constant Matrix: (Units=GPa)
#
#
# Indices 1 2 3 4 5 6 
#
# 1 142.8939 56.1544 46.8638 0.0000 0.0000 0.0000
# 2 56.1544 114.5505 39.4718 0.0000 0.0000 0.0000
# 3 46.8638 39.4718 121.7019 0.0000 0.0000 0.0000
# 4 0.0000 0.0000 0.0000 29.4539 0.0000 0.0000
# 5 0.0000 0.0000 0.0000 0.0000 30.1877 0.0000
# 6 0.0000 0.0000 0.0000 0.0000 0.0000 39.9874
#
#
#
# Elastic Compliance Matrix: (Units=1/GPa)
#
#
# Indices 1 2 3 4 5 6 
#
# 1 0.009228 -0.003714 -0.002349 0.000000 0.000000 0.000000
# 2 -0.003714 0.011323 -0.002242 0.000000 0.000000 0.000000
# 3 -0.002349 -0.002242 0.009848 0.000000 0.000000 0.000000
# 4 0.000000 0.000000 0.000000 0.033951 0.000000 0.000000
# 5 0.000000 0.000000 0.000000 0.000000 0.033126 0.000000
# 6 0.000000 0.000000 0.000000 0.000000 0.000000 0.025008
#
#
# Mechanical properties :
#
#
# Convention : Reuss Voigt Hill
#
# Bulk Modulus (GPa) = 72.52110 73.79182 73.15646
# Shear Modulus (GPa) = 34.79654 35.70289 35.24972
#
# Velocity S-wave (km/s) = 3.94619 3.99726 3.97181
# Velocity P-wave (km/s) = 7.29510 7.37075 7.33302
#
# Compressibility (1/GPa) = 0.01378909
#
# Stress axis : x y z
#
# Youngs Moduli (GPa) = 108.36320 88.31377 101.53870
#
# Poissons Ratio (x) = 0.32804 0.23849
# Poissons Ratio (y) = 0.40251 0.22767
# Poissons Ratio (z) = 0.25452 0.19801
#
# Static dielectric constant tensor:
#      x y z
#    x 4.367720 0.000000 0.000000 
#    y 0.000000 3.868500 0.000000 
#    z 0.000000 0.000000 4.209060 
# 
# 
# High freq. dielectric constant tensor:
#      x y z
#    x 1.898120 0.000000 0.000000 
#    y 0.000000 1.881320 0.000000 
#    z 0.000000 0.000000 1.883440 
# 
# From -- ./inp_files/11093.got.cif
#   From: 2010.03.12/outbox.cif.g09.slc.cpg/sg46_6_cif.got.tgz:11093.got - 2010.04.14 02:56:35.
