data_PCOD8193411
_publ_section_title
;
Structure prediction by ZEFSAII (Michael W. Deem and Ramdas Pophale) SiO2 
 PCOD8193411
Probable space group: I M A 2
;
_chemical_formula_sum "Si O2"
_cell_formula_units_Z 40
_cell_length_a 10.222851
_cell_length_b 11.007282
_cell_length_c 17.031337
_cell_angle_alpha 90.000000
_cell_angle_beta 90.000000
_cell_angle_gamma 90.000000
_cell_volume 1916.464886
_symmetry_space_group_name_H-M "I M A 2"
_symmetry_group_IT_number 46
_symmetry_cell_setting 'orthorhombic'
loop_
_space_group_symop_operation_xyz
x,y,z
-x,-y,z
1/2-x,y,z
1/2+x,-y,z
1/2+x,1/2+y,1/2+z
1/2-x,1/2-y,1/2+z
-x,1/2+y,1/2+z
x,1/2-y,1/2+z
loop_
_atom_site_type_symbol
_atom_site_label
_atom_site_fract_x
_atom_site_fract_y
_atom_site_fract_z
Si Si1 0.250000 0.241224 0.628320
Si Si2 0.496280 0.642072 0.211894
Si Si3 0.250000 0.878170 0.445228
Si Si4 0.500000 0.500000 0.750825
Si Si5 0.750000 0.224779 0.614009
Si Si6 0.250000 0.337364 0.954192
Si Si7 0.250000 0.982409 0.148412
Si Si8 0.504955 0.782672 0.361029
O O1 0.375046 0.207608 0.679519
O O2 0.250000 0.166843 0.547985
O O3 0.250000 0.385640 0.607859
O O4 0.500000 0.500000 0.195618
O O5 0.374805 0.698005 0.166884
O O6 0.484829 0.664377 0.306036
O O7 0.250000 0.859674 0.538171
O O8 0.375237 0.814073 0.408455
O O9 0.250000 0.021696 0.427724
O O10 0.622420 0.459603 0.700024
O O11 0.451985 0.389735 0.803567
O O12 0.750000 0.367971 0.587878
O O13 0.377300 0.266067 0.922754
#
# Coordination Sequence:
#
# PCOD8193411 Si02
#       8
#     4   8   4   4   4   4   4   8
#     4  12  25  43  67  95 129 168 212 262 316 376
#     4  12  25  44  67  94 128 170 214 260 313 378
#     4  12  24  40  63  95 129 165 208 261 317 373
#     4  12  20  40  70  94 124 152 220 272 302 374
#     4  12  25  43  67  95 129 168 212 262 316 376
#     4  12  24  40  63  95 129 165 208 261 317 373
#     4  12  22  42  68  96 124 162 214 266 310 374
#     4  12  23  40  66  93 124 164 213 264 310 371
#
# _framework density 20.871763000000001
#
# number of rings (size 3 to 8) (size 9 to 14) (size 15 to 20)
#    0.000    0.000    6.000    5.400    0.000    0.000 
#    3.600    0.000    0.000    0.000    0.000    0.000 
#    0.000    0.000    0.000    0.000    0.000    0.000 
#
# Total GULP energy -248053.981403 kJ/mol
# GULP energy per Si atom -12402.699070 kJ/mol
# Density = 2.082426 g / cm^3
# Si number density = 20.871763 Si / 1000 Ang^3
#
#
#
# Elastic Constant Matrix: (Units=GPa)
#
#
# Indices 1 2 3 4 5 6 
#
# 1 173.6142 27.7015 58.9589 0.0000 0.0000 0.0000
# 2 27.7015 116.4728 9.6647 0.0000 0.0000 0.0000
# 3 58.9589 9.6647 102.8110 0.0000 0.0000 0.0000
# 4 0.0000 0.0000 0.0000 34.4542 0.0000 0.0000
# 5 0.0000 0.0000 0.0000 0.0000 24.3464 0.0000
# 6 0.0000 0.0000 0.0000 0.0000 0.0000 18.4970
#
#
#
# Elastic Compliance Matrix: (Units=1/GPa)
#
#
# Indices 1 2 3 4 5 6 
#
# 1 0.007377 -0.001415 -0.004098 0.000000 0.000000 0.000000
# 2 -0.001415 0.008924 -0.000028 0.000000 0.000000 0.000000
# 3 -0.004098 -0.000028 0.012079 0.000000 0.000000 0.000000
# 4 0.000000 0.000000 0.000000 0.029024 0.000000 0.000000
# 5 0.000000 0.000000 0.000000 0.000000 0.041074 0.000000
# 6 0.000000 0.000000 0.000000 0.000000 0.000000 0.054063
#
#
# Mechanical properties :
#
#
# Convention : Reuss Voigt Hill
#
# Bulk Modulus (GPa) = 57.80060 65.06092 61.43076
# Shear Modulus (GPa) = 29.51801 35.23102 32.37451
#
# Velocity S-wave (km/s) = 3.76474 4.11295 3.94269
# Velocity P-wave (km/s) = 6.83015 7.33448 7.08680
#
# Compressibility (1/GPa) = 0.01730086
#
# Stress axis : x y z
#
# Youngs Moduli (GPa) = 135.55412 112.05200 82.78808
#
# Poissons Ratio (x) = 0.15850 0.33923
# Poissons Ratio (y) = 0.19175 0.00230
# Poissons Ratio (z) = 0.55544 0.00311
#
# Static dielectric constant tensor:
#      x y z
#    x 3.817100 0.000000 0.000000 
#    y 0.000000 3.949330 0.000000 
#    z 0.000000 0.000000 3.747520 
# 
# 
# High freq. dielectric constant tensor:
#      x y z
#    x 1.840340 0.000000 0.000000 
#    y 0.000000 1.816950 0.000000 
#    z 0.000000 0.000000 1.810920 
# 
# From -- ./inp_files/18019.got.cif
#   From: 2010.03.12/outbox.cif.g09.slc.cpg/sg46_10_cif.got.tgz:18019.got - 2010.04.14 02:56:35.
