data_PCOD8193809
_publ_section_title
;
Structure prediction by ZEFSAII (Michael W. Deem and Ramdas Pophale) SiO2 
 PCOD8193809
Probable space group: P M M M
;
_chemical_formula_sum "Si O2"
_cell_formula_units_Z 44
_cell_length_a 8.912169
_cell_length_b 21.475989
_cell_length_c 13.767167
_cell_angle_alpha 90.000000
_cell_angle_beta 90.000000
_cell_angle_gamma 90.000000
_cell_volume 2635.003320
_symmetry_space_group_name_H-M "P M M M"
_symmetry_group_IT_number 47
_symmetry_cell_setting 'orthorhombic'
loop_
_space_group_symop_operation_xyz
x,y,z
-x,-y,z
x,-y,-z
-x,y,-z
-x,-y,-z
x,y,-z
-x,y,z
x,-y,z
loop_
_atom_site_type_symbol
_atom_site_label
_atom_site_fract_x
_atom_site_fract_y
_atom_site_fract_z
Si Si1 0.321995 0.190081 0.286385
Si Si2 0.823713 0.375238 0.794437
Si Si3 0.824256 0.303817 0.390192
Si Si4 0.321847 0.068356 0.608775
Si Si5 0.177035 0.249062 0.890087
Si Si6 0.179497 0.500000 0.111204
O O1 0.500000 0.193463 0.284042
O O2 0.263868 0.241793 0.361465
O O3 0.261478 0.122771 0.321326
O O4 0.258431 0.199324 0.178366
O O5 0.778997 0.360540 0.682255
O O6 0.767970 0.318395 0.861846
O O7 0.752452 0.439678 0.832965
O O8 0.000000 0.382068 0.804963
O O9 0.782689 0.323517 0.500000
O O10 0.000000 0.289068 0.378849
O O11 0.259554 0.079496 0.500000
O O12 0.500000 0.070786 0.605958
O O13 0.268808 0.000000 0.646501
O O14 0.000000 0.243221 0.874300
O O15 0.224583 0.234845 0.000000
O O16 0.000000 0.500000 0.113762
O O17 0.235935 0.500000 0.000000
#
# Coordination Sequence:
#
# PCOD8193809 Si02
#       6
#     8   8   8   8   8   4
#     4  10  18  27  44  69  90 108 138 180 217 249
#     4   8  14  24  38  59  84 109 139 173 211 255
#     4   9  17  29  43  59  85 119 147 172 208 255
#     4   8  14  25  41  62  88 114 137 165 207 256
#     4   9  17  30  46  62  85 117 146 172 210 259
#     4   9  14  20  35  59  84 107 135 177 222 257
#
# _framework density 16.698271999999999
#
# number of rings (size 3 to 8) (size 9 to 14) (size 15 to 20)
#    0.000    3.182    0.000    3.273    0.000    3.636 
#    0.000    0.455    0.000    5.455    0.000   20.364 
#    0.000   23.273    0.000    0.000    0.000    0.000 
#
# Total GULP energy -545298.072268 kJ/mol
# GULP energy per Si atom -12393.138006 kJ/mol
# Density = 1.666027 g / cm^3
# Si number density = 16.698272 Si / 1000 Ang^3
#
#
#
# Elastic Constant Matrix: (Units=GPa)
#
#
# Indices 1 2 3 4 5 6 
#
# 1 24.5596 22.6020 27.5104 0.0000 0.0000 0.0000
# 2 22.6020 152.3853 90.4112 0.0000 0.0000 0.0000
# 3 27.5104 90.4112 158.3804 0.0000 0.0000 0.0000
# 4 0.0000 0.0000 0.0000 27.2027 0.0000 0.0000
# 5 0.0000 0.0000 0.0000 0.0000 19.2592 0.0000
# 6 0.0000 0.0000 0.0000 0.0000 0.0000 11.4738
#
#
#
# Elastic Compliance Matrix: (Units=1/GPa)
#
#
# Indices 1 2 3 4 5 6 
#
# 1 0.051789 -0.003545 -0.006972 0.000000 0.000000 0.000000
# 2 -0.003545 0.010166 -0.005187 0.000000 0.000000 0.000000
# 3 -0.006972 -0.005187 0.010486 0.000000 0.000000 0.000000
# 4 0.000000 0.000000 0.000000 0.036761 0.000000 0.000000
# 5 0.000000 0.000000 0.000000 0.000000 0.051923 0.000000
# 6 0.000000 0.000000 0.000000 0.000000 0.000000 0.087155
#
#
# Mechanical properties :
#
#
# Convention : Reuss Voigt Hill
#
# Bulk Modulus (GPa) = 24.37085 68.48583 46.42834
# Shear Modulus (GPa) = 17.04347 24.57390 20.80869
#
# Velocity S-wave (km/s) = 3.19826 3.84036 3.53393
# Velocity P-wave (km/s) = 5.31649 7.79534 6.67204
#
# Compressibility (1/GPa) = 0.04103263
#
# Stress axis : x y z
#
# Youngs Moduli (GPa) = 19.30894 98.36892 95.36338
#
# Poissons Ratio (x) = 0.34870 0.66489
# Poissons Ratio (y) = 0.06845 0.49469
# Poissons Ratio (z) = 0.13463 0.51028
#
# Static dielectric constant tensor:
#      x y z
#    x 2.717410 0.000000 0.000000 
#    y 0.000000 3.390700 0.000000 
#    z 0.000000 0.000000 3.314890 
# 
# 
# High freq. dielectric constant tensor:
#      x y z
#    x 1.600000 0.000000 0.000000 
#    y 0.000000 1.636750 0.000000 
#    z 0.000000 0.000000 1.645600 
# 
# From -- ./inp_files/21299.got.cif
#   From: 2010.03.12/outbox.cif.g09.slc.cpg/sg47_11_cif.got.tgz:21299.got - 2010.04.14 03:12:58.
