data_PCOD8193330
_publ_section_title
;
Structure prediction by ZEFSAII (Michael W. Deem and Ramdas Pophale) SiO2 
 PCOD8193330
Probable space group: I M A 2
;
_chemical_formula_sum "Si O2"
_cell_formula_units_Z 64
_cell_length_a 22.659495
_cell_length_b 15.128304
_cell_length_c 8.429572
_cell_angle_alpha 90.000000
_cell_angle_beta 90.000000
_cell_angle_gamma 90.000000
_cell_volume 2889.654996
_symmetry_space_group_name_H-M "I M A 2"
_symmetry_group_IT_number 46
_symmetry_cell_setting 'orthorhombic'
loop_
_space_group_symop_operation_xyz
x,y,z
-x,-y,z
1/2-x,y,z
1/2+x,-y,z
1/2+x,1/2+y,1/2+z
1/2-x,1/2-y,1/2+z
-x,1/2+y,1/2+z
x,1/2-y,1/2+z
loop_
_atom_site_type_symbol
_atom_site_label
_atom_site_fract_x
_atom_site_fract_y
_atom_site_fract_z
Si Si1 0.520998 0.677453 0.197520
Si Si2 0.816936 0.690203 0.647620
Si Si3 0.363912 0.464172 0.845607
Si Si4 0.640254 0.861109 0.820955
Si Si5 0.480309 0.139252 0.332971
Si Si6 0.606318 0.174718 0.832500
Si Si7 0.605754 0.363479 0.699787
Si Si8 0.817609 0.473317 0.177486
O O1 0.573900 0.615408 0.260007
O O2 0.544471 0.776388 0.236504
O O3 0.461568 0.655315 0.291544
O O4 0.506072 0.667877 0.013154
O O5 0.750000 0.688385 0.584467
O O6 0.824054 0.615959 0.782792
O O7 0.829880 0.787340 0.711688
O O8 0.861131 0.670494 0.502605
O O9 0.432776 0.438458 0.832684
O O10 0.352571 0.554236 0.746759
O O11 0.347000 0.481673 0.025437
O O12 0.677098 0.952209 0.813890
O O13 0.539341 0.107764 0.244942
O O14 0.623156 0.276415 0.799108
O O15 0.648547 0.115102 0.725559
O O16 0.615361 0.155104 0.016081
O O17 0.750000 0.447664 0.146598
#
# Coordination Sequence:
#
# PCOD8193330 Si02
#       8
#     8   8   8   8   8   8   8   8
#     4  11  21  40  67  98 140 178 227 277 347 412
#     4  12  25  41  63  95 137 188 234 282 340 415
#     4  12  24  42  66  98 138 178 234 281 347 416
#     4  12  24  42  65  96 137 182 231 285 343 416
#     4  11  21  39  63 101 140 185 223 279 341 423
#     4  11  25  46  72 100 137 176 228 294 357 420
#     4  11  24  44  71 100 136 175 222 291 358 421
#     4  12  26  48  70  99 136 184 239 292 348 419
#
# _framework density 22.147970999999998
#
# number of rings (size 3 to 8) (size 9 to 14) (size 15 to 20)
#    0.000    0.500    2.500    8.625    1.750    0.500 
#    2.250    3.750    0.000    0.000    0.000    0.000 
#    0.000    0.000    0.000    0.000    0.000    0.000 
#
# Total GULP energy -396947.843063 kJ/mol
# GULP energy per Si atom -12404.620096 kJ/mol
# Density = 2.209756 g / cm^3
# Si number density = 22.147971 Si / 1000 Ang^3
#
#
#
# Elastic Constant Matrix: (Units=GPa)
#
#
# Indices 1 2 3 4 5 6 
#
# 1 80.9612 44.1679 2.1861 0.0000 0.0000 0.0000
# 2 44.1679 114.1287 13.8841 0.0000 0.0000 0.0000
# 3 2.1861 13.8841 89.7981 0.0000 0.0000 0.0000
# 4 0.0000 0.0000 0.0000 41.9529 0.0000 0.0000
# 5 0.0000 0.0000 0.0000 0.0000 24.6012 0.0000
# 6 0.0000 0.0000 0.0000 0.0000 0.0000 28.4909
#
#
#
# Elastic Compliance Matrix: (Units=1/GPa)
#
#
# Indices 1 2 3 4 5 6 
#
# 1 0.015686 -0.006139 0.000567 0.000000 0.000000 0.000000
# 2 -0.006139 0.011333 -0.001603 0.000000 0.000000 0.000000
# 3 0.000567 -0.001603 0.011370 0.000000 0.000000 0.000000
# 4 0.000000 0.000000 0.000000 0.023836 0.000000 0.000000
# 5 0.000000 0.000000 0.000000 0.000000 0.040648 0.000000
# 6 0.000000 0.000000 0.000000 0.000000 0.000000 0.035099
#
#
# Mechanical properties :
#
#
# Convention : Reuss Voigt Hill
#
# Bulk Modulus (GPa) = 41.59892 45.04049 43.31970
# Shear Modulus (GPa) = 31.18476 33.98566 32.58521
#
# Velocity S-wave (km/s) = 3.75643 3.92150 3.83985
# Velocity P-wave (km/s) = 6.13493 6.39410 6.26585
#
# Compressibility (1/GPa) = 0.02403909
#
# Stress axis : x y z
#
# Youngs Moduli (GPa) = 63.75291 88.23822 87.95005
#
# Poissons Ratio (x) = 0.54173 -0.04990
# Poissons Ratio (y) = 0.39140 0.14096
# Poissons Ratio (z) = -0.03617 0.14143
#
# Static dielectric constant tensor:
#      x y z
#    x 3.903480 0.000000 0.000000 
#    y 0.000000 4.119610 0.000000 
#    z 0.000000 0.000000 3.970060 
# 
# 
# High freq. dielectric constant tensor:
#      x y z
#    x 1.860160 0.000000 0.000000 
#    y 0.000000 1.876770 0.000000 
#    z 0.000000 0.000000 1.882020 
# 
# From -- ./inp_files/7980.got.cif
#   From: 2010.03.12/outbox.cif.g09.slc.cpg/sg46_4_cif.got.tgz:7980.got - 2010.04.14 02:56:35.
