data_PCOD8193162
_publ_section_title
;
Structure prediction by ZEFSAII (Michael W. Deem and Ramdas Pophale) SiO2 
 PCOD8193162
Probable space group: I M A 2
;
_chemical_formula_sum "Si O2"
_cell_formula_units_Z 48
_cell_length_a 20.020852
_cell_length_b 13.039273
_cell_length_c 8.153818
_cell_angle_alpha 90.000000
_cell_angle_beta 90.000000
_cell_angle_gamma 90.000000
_cell_volume 2128.614160
_symmetry_space_group_name_H-M "I M A 2"
_symmetry_group_IT_number 46
_symmetry_cell_setting 'orthorhombic'
loop_
_space_group_symop_operation_xyz
x,y,z
-x,-y,z
1/2-x,y,z
1/2+x,-y,z
1/2+x,1/2+y,1/2+z
1/2-x,1/2-y,1/2+z
-x,1/2+y,1/2+z
x,1/2-y,1/2+z
loop_
_atom_site_type_symbol
_atom_site_label
_atom_site_fract_x
_atom_site_fract_y
_atom_site_fract_z
Si Si1 0.464156 0.216907 0.531290
Si Si2 0.176764 0.803425 0.221023
Si Si3 0.326508 0.503963 0.531222
Si Si4 0.558162 0.587255 0.707252
Si Si5 0.105531 0.857233 0.538283
Si Si6 0.928808 0.960569 0.747922
O O1 0.447102 0.338394 0.544276
O O2 0.443624 0.162434 0.362423
O O3 0.543109 0.218024 0.552476
O O4 0.431640 0.156294 0.685893
O O5 0.250000 0.800768 0.300712
O O6 0.128641 0.855880 0.351873
O O7 0.158659 0.688143 0.167585
O O8 0.175495 0.873151 0.056179
O O9 0.250000 0.460509 0.525395
O O10 0.367669 0.459764 0.688109
O O11 0.366653 0.476736 0.367670
O O12 0.500000 0.500000 0.713058
O O13 0.085293 0.972676 0.583358
O O14 0.000000 0.000000 0.823931
#
# Coordination Sequence:
#
# PCOD8193162 Si02
#       6
#     8   8   8   8   8   8
#     4  11  23  41  68  97 125 165 219 272 330 386
#     4  11  23  37  57  89 131 175 216 264 334 406
#     4  11  24  41  61  89 126 170 218 272 333 396
#     4  12  24  44  70  98 132 171 218 276 330 391
#     4  11  21  37  60  92 127 165 212 269 327 397
#     4  10  22  40  64  93 126 164 213 269 330 396
#
# _framework density 22.549882
#
# number of rings (size 3 to 8) (size 9 to 14) (size 15 to 20)
#    0.000    1.000    0.000    8.500    0.000    6.667 
#    0.000    5.000    0.000    0.000    0.000    0.000 
#    0.000    0.000    0.000    0.000    0.000    0.000 
#
# Total GULP energy -297492.158348 kJ/mol
# GULP energy per Si atom -12395.506598 kJ/mol
# Density = 2.249856 g / cm^3
# Si number density = 22.549882 Si / 1000 Ang^3
#
#
#
# Elastic Constant Matrix: (Units=GPa)
#
#
# Indices 1 2 3 4 5 6 
#
# 1 144.7385 52.7207 38.1144 0.0000 0.0000 0.0000
# 2 52.7207 84.2255 4.4660 0.0000 0.0000 0.0000
# 3 38.1144 4.4660 75.4258 0.0000 0.0000 0.0000
# 4 0.0000 0.0000 0.0000 37.5617 0.0000 0.0000
# 5 0.0000 0.0000 0.0000 0.0000 23.5281 0.0000
# 6 0.0000 0.0000 0.0000 0.0000 0.0000 25.1943
#
#
#
# Elastic Compliance Matrix: (Units=1/GPa)
#
#
# Indices 1 2 3 4 5 6 
#
# 1 0.010510 -0.006317 -0.004937 0.000000 0.000000 0.000000
# 2 -0.006317 0.015707 0.002262 0.000000 0.000000 0.000000
# 3 -0.004937 0.002262 0.015619 0.000000 0.000000 0.000000
# 4 0.000000 0.000000 0.000000 0.026623 0.000000 0.000000
# 5 0.000000 0.000000 0.000000 0.000000 0.042502 0.000000
# 6 0.000000 0.000000 0.000000 0.000000 0.000000 0.039692
#
#
# Mechanical properties :
#
#
# Convention : Reuss Voigt Hill
#
# Bulk Modulus (GPa) = 41.92462 54.99909 48.46186
# Shear Modulus (GPa) = 28.31465 31.19605 29.75535
#
# Velocity S-wave (km/s) = 3.54735 3.72348 3.63648
# Velocity P-wave (km/s) = 5.95068 6.55199 6.25856
#
# Compressibility (1/GPa) = 0.02385233
#
# Stress axis : x y z
#
# Youngs Moduli (GPa) = 95.14757 63.66585 64.02514
#
# Poissons Ratio (x) = 0.40217 0.31609
# Poissons Ratio (y) = 0.60104 -0.14483
# Poissons Ratio (z) = 0.46974 -0.14402
#
# Static dielectric constant tensor:
#      x y z
#    x 4.050160 0.000000 0.000000 
#    y 0.000000 4.114330 0.000000 
#    z 0.000000 0.000000 3.968190 
# 
# 
# High freq. dielectric constant tensor:
#      x y z
#    x 1.876020 0.000000 0.000000 
#    y 0.000000 1.895100 0.000000 
#    z 0.000000 0.000000 1.899250 
# 
# From -- ./inp_files/6620.got.cif
#   From: 2010.03.12/outbox.cif.g09.slc.cpg/sg46_4_cif.got.tgz:6620.got - 2010.04.14 02:56:35.
