data_PCOD8193174
_publ_section_title
;
Structure prediction by ZEFSAII (Michael W. Deem and Ramdas Pophale) SiO2 
 PCOD8193174
Probable space group: I M A 2
;
_chemical_formula_sum "Si O2"
_cell_formula_units_Z 48
_cell_length_a 7.750587
_cell_length_b 33.192863
_cell_length_c 9.530335
_cell_angle_alpha 90.000000
_cell_angle_beta 90.000000
_cell_angle_gamma 90.000000
_cell_volume 2451.813747
_symmetry_space_group_name_H-M "I M A 2"
_symmetry_group_IT_number 46
_symmetry_cell_setting 'orthorhombic'
loop_
_space_group_symop_operation_xyz
x,y,z
-x,-y,z
1/2-x,y,z
1/2+x,-y,z
1/2+x,1/2+y,1/2+z
1/2-x,1/2-y,1/2+z
-x,1/2+y,1/2+z
x,1/2-y,1/2+z
loop_
_atom_site_type_symbol
_atom_site_label
_atom_site_fract_x
_atom_site_fract_y
_atom_site_fract_z
Si Si1 0.056695 0.905350 0.188320
Si Si2 0.750000 0.698396 0.459447
Si Si3 0.455466 0.864968 0.915630
Si Si4 0.940700 0.954509 0.433100
Si Si5 0.449493 0.827620 0.366249
Si Si6 0.945201 0.116847 0.610190
Si Si7 0.250000 0.272030 0.769551
O O1 0.250000 0.921095 0.212849
O O2 0.036405 0.859783 0.241883
O O3 0.940991 0.936901 0.274231
O O4 0.009916 0.902174 0.023621
O O5 0.573826 0.672676 0.458451
O O6 0.750000 0.725446 0.600829
O O7 0.750000 0.726009 0.320540
O O8 0.250000 0.853407 0.919826
O O9 0.525561 0.881119 0.765511
O O10 0.750000 0.952543 0.493109
O O11 0.049648 0.927399 0.540590
O O12 0.000000 0.000000 0.432345
O O13 0.250000 0.812785 0.382163
O O14 0.524139 0.849472 0.506562
O O15 0.574969 0.791014 0.332097
O O16 0.750000 0.129271 0.629286
#
# Coordination Sequence:
#
# PCOD8193174 Si02
#       7
#     8   4   8   8   8   8   4
#     4   9  18  36  61  84 110 152 202 249 293 349
#     4  12  28  40  60  88 126 154 210 258 308 366
#     4  10  22  41  63  87 118 158 204 253 299 361
#     4  11  22  35  58  90 124 157 193 243 300 356
#     4   9  19  37  61  83 112 153 201 243 298 362
#     4   9  20  37  60  88 115 153 199 246 293 361
#     4  12  26  40  58  88 120 160 196 266 306 360
#
# _framework density 19.577342999999999
#
# number of rings (size 3 to 8) (size 9 to 14) (size 15 to 20)
#    0.000    2.000    1.667    2.500    9.333    0.667 
#    0.000    0.833    0.000    0.000    0.000    0.000 
#    0.000    0.000    0.000    0.000    0.000    0.000 
#
# Total GULP energy -297417.175532 kJ/mol
# GULP energy per Si atom -12392.382314 kJ/mol
# Density = 1.953278 g / cm^3
# Si number density = 19.577343 Si / 1000 Ang^3
#
#
#
# Elastic Constant Matrix: (Units=GPa)
#
#
# Indices 1 2 3 4 5 6 
#
# 1 72.2760 21.8069 20.0932 0.0051 0.0012 0.0004
# 2 21.8069 70.3133 30.3070 -0.0094 -0.0009 -0.0002
# 3 20.0932 30.3070 143.6668 -0.0125 -0.0024 0.0000
# 4 0.0051 -0.0094 -0.0125 47.3031 -0.0037 -0.0004
# 5 0.0012 -0.0009 -0.0024 -0.0037 20.6184 -0.0007
# 6 0.0004 -0.0002 0.0000 -0.0004 -0.0007 24.9258
#
#
#
# Elastic Compliance Matrix: (Units=1/GPa)
#
#
# Indices 1 2 3 4 5 6 
#
# 1 0.015471 -0.004252 -0.001267 -0.000003 -0.000001 0.000000
# 2 -0.004252 0.016813 -0.002952 0.000003 0.000001 0.000000
# 3 -0.001267 -0.002952 0.007760 0.000002 0.000001 0.000000
# 4 -0.000003 0.000003 0.000002 0.021140 0.000004 0.000000
# 5 -0.000001 0.000001 0.000001 0.000004 0.048500 0.000001
# 6 0.000000 0.000000 0.000000 0.000000 0.000001 0.040119
#
#
# Mechanical properties :
#
#
# Convention : Reuss Voigt Hill
#
# Bulk Modulus (GPa) = 43.28501 47.85224 45.56863
# Shear Modulus (GPa) = 28.66194 32.83938 30.75066
#
# Velocity S-wave (km/s) = 3.83042 4.10007 3.96754
# Velocity P-wave (km/s) = 6.45915 6.84908 6.65697
#
# Compressibility (1/GPa) = 0.02310268
#
# Stress axis : x y z
#
# Youngs Moduli (GPa) = 64.63720 59.47694 128.85805
#
# Poissons Ratio (x) = 0.25290 0.16323
# Poissons Ratio (y) = 0.27485 0.38040
# Poissons Ratio (z) = 0.08188 0.17558
#
# Static dielectric constant tensor:
#      x y z
#    x 3.624250 0.000010 0.000000 
#    y 0.000010 3.116410 0.000010 
#    z 0.000000 0.000010 4.067240 
# 
# 
# High freq. dielectric constant tensor:
#      x y z
#    x 1.768350 0.000000 0.000000 
#    y 0.000000 1.726810 0.000000 
#    z 0.000000 0.000000 1.773890 
# 
# From -- ./inp_files/3999.got.cif
#   From: 2010.03.12/outbox.cif.g09.slc.cpg/sg46_2_cif.got.tgz:3999.got - 2010.04.14 02:56:35.
