data_PCOD8193394
_publ_section_title
;
Structure prediction by ZEFSAII (Michael W. Deem and Ramdas Pophale) SiO2 
 PCOD8193394
Probable space group: I M A 2
;
_chemical_formula_sum "Si O2"
_cell_formula_units_Z 52
_cell_length_a 15.176745
_cell_length_b 8.147122
_cell_length_c 19.888680
_cell_angle_alpha 90.000000
_cell_angle_beta 90.000000
_cell_angle_gamma 90.000000
_cell_volume 2459.171501
_symmetry_space_group_name_H-M "I M A 2"
_symmetry_group_IT_number 46
_symmetry_cell_setting 'orthorhombic'
loop_
_space_group_symop_operation_xyz
x,y,z
-x,-y,z
1/2-x,y,z
1/2+x,-y,z
1/2+x,1/2+y,1/2+z
1/2-x,1/2-y,1/2+z
-x,1/2+y,1/2+z
x,1/2-y,1/2+z
loop_
_atom_site_type_symbol
_atom_site_label
_atom_site_fract_x
_atom_site_fract_y
_atom_site_fract_z
Si Si1 0.654132 0.708219 0.518560
Si Si2 0.147582 0.323275 0.166545
Si Si3 0.500000 0.000000 0.738654
Si Si4 0.979500 0.316182 0.963763
Si Si5 0.847739 0.158696 0.065247
Si Si6 0.649171 0.467509 0.701531
Si Si7 0.950158 0.327074 0.812989
O O1 0.750000 0.764438 0.488558
O O2 0.634825 0.810239 0.586370
O O3 0.574702 0.726609 0.465209
O O4 0.660790 0.518420 0.533334
O O5 0.250000 0.359236 0.184810
O O6 0.087369 0.473650 0.193000
O O7 0.112144 0.154377 0.202102
O O8 0.506160 0.162191 0.784635
O O9 0.933007 0.293827 0.891430
O O10 0.000000 0.500000 0.980151
O O11 0.913294 0.264200 0.021306
O O12 0.750000 0.241768 0.066850
O O13 0.890992 0.140006 0.139842
O O14 0.750000 0.489260 0.681898
O O15 0.638441 0.366931 0.770873
O O16 0.000000 0.500000 0.801743
#
# Coordination Sequence:
#
# PCOD8193394 Si02
#       7
#     8   8   4   8   8   8   8
#     4   9  20  40  65  92 124 163 210 267 318 376
#     4   9  20  39  66 101 126 159 218 268 322 386
#     4  12  24  38  70  90 130 174 206 270 328 374
#     4  11  25  39  60  91 130 171 209 261 318 378
#     4   9  20  39  67  95 120 162 216 259 316 389
#     4   9  19  41  67  91 129 171 209 268 324 378
#     4  11  25  42  58  93 130 170 218 259 316 386
#
# _framework density 21.145333999999998
#
# number of rings (size 3 to 8) (size 9 to 14) (size 15 to 20)
#    0.000    2.154    1.538    2.308    5.385    1.846 
#    0.000    6.154    0.000    0.000    0.000    0.000 
#    0.000    0.000    0.000    0.000    0.000    0.000 
#
# Total GULP energy -322142.274448 kJ/mol
# GULP energy per Si atom -12390.087479 kJ/mol
# Density = 2.109721 g / cm^3
# Si number density = 21.145334 Si / 1000 Ang^3
#
#
#
# Elastic Constant Matrix: (Units=GPa)
#
#
# Indices 1 2 3 4 5 6 
#
# 1 97.5790 29.7109 60.2383 0.0000 0.0000 0.0000
# 2 29.7109 70.2795 56.2089 0.0000 0.0000 0.0000
# 3 60.2383 56.2089 117.5068 0.0000 0.0000 0.0000
# 4 0.0000 0.0000 0.0000 32.0227 0.0000 0.0000
# 5 0.0000 0.0000 0.0000 0.0000 29.5024 0.0000
# 6 0.0000 0.0000 0.0000 0.0000 0.0000 23.6937
#
#
#
# Elastic Compliance Matrix: (Units=1/GPa)
#
#
# Indices 1 2 3 4 5 6 
#
# 1 0.014997 -0.000310 -0.007540 0.000000 0.000000 0.000000
# 2 -0.000310 0.023052 -0.010868 0.000000 0.000000 0.000000
# 3 -0.007540 -0.010868 0.017574 0.000000 0.000000 0.000000
# 4 0.000000 0.000000 0.000000 0.031228 0.000000 0.000000
# 5 0.000000 0.000000 0.000000 0.000000 0.033896 0.000000
# 6 0.000000 0.000000 0.000000 0.000000 0.000000 0.042205
#
#
# Mechanical properties :
#
#
# Convention : Reuss Voigt Hill
#
# Bulk Modulus (GPa) = 54.98198 64.18682 59.58440
# Shear Modulus (GPa) = 24.21900 26.32426 25.27163
#
# Velocity S-wave (km/s) = 3.38799 3.53217 3.46083
# Velocity P-wave (km/s) = 6.43141 6.85973 6.64902
#
# Compressibility (1/GPa) = 0.01818778
#
# Stress axis : x y z
#
# Youngs Moduli (GPa) = 66.68015 43.38012 56.90213
#
# Poissons Ratio (x) = 0.01344 0.42903
# Poissons Ratio (y) = 0.02065 0.61842
# Poissons Ratio (z) = 0.50276 0.47146
#
# Static dielectric constant tensor:
#      x y z
#    x 3.473880 0.000000 0.000000 
#    y 0.000000 3.841310 0.000000 
#    z 0.000000 0.000000 3.797720 
# 
# 
# High freq. dielectric constant tensor:
#      x y z
#    x 1.824190 0.000000 0.000000 
#    y 0.000000 1.832570 0.000000 
#    z 0.000000 0.000000 1.813710 
# 
# From -- ./inp_files/21969.got.cif
#   From: 2010.03.12/outbox.cif.g09.slc.cpg/sg46_11_cif.got.tgz:21969.got - 2010.04.14 02:56:35.
