data_PCOD8193636
_publ_section_title
;
Structure prediction by ZEFSAII (Michael W. Deem and Ramdas Pophale) SiO2 
 PCOD8193636
Probable space group: P M M M
;
_chemical_formula_sum "Si O2"
_cell_formula_units_Z 64
_cell_length_a 9.024194
_cell_length_b 19.775281
_cell_length_c 20.900924
_cell_angle_alpha 90.000000
_cell_angle_beta 90.000000
_cell_angle_gamma 90.000000
_cell_volume 3729.894711
_symmetry_space_group_name_H-M "P M M M"
_symmetry_group_IT_number 47
_symmetry_cell_setting 'orthorhombic'
loop_
_space_group_symop_operation_xyz
x,y,z
-x,-y,z
x,-y,-z
-x,y,-z
-x,-y,-z
x,y,-z
-x,y,z
x,-y,z
loop_
_atom_site_type_symbol
_atom_site_label
_atom_site_fract_x
_atom_site_fract_y
_atom_site_fract_z
Si Si1 0.676397 0.285450 0.194120
Si Si2 0.675909 0.073176 0.130982
Si Si3 0.326806 0.076474 0.277228
Si Si4 0.823882 0.792735 0.688994
Si Si5 0.324318 0.573028 0.240722
Si Si6 0.171308 0.703746 0.570663
Si Si7 0.323684 0.791892 0.070360
Si Si8 0.673453 0.575594 0.614941
O O1 0.500000 0.277512 0.202625
O O2 0.752577 0.241505 0.248847
O O3 0.729189 0.363730 0.198068
O O4 0.730230 0.260687 0.124286
O O5 0.500000 0.072536 0.128139
O O6 0.724343 0.085250 0.203916
O O7 0.739383 0.133362 0.087070
O O8 0.736318 0.000000 0.106912
O O9 0.500000 0.092608 0.284933
O O10 0.232782 0.130165 0.318251
O O11 0.292293 0.000000 0.300774
O O12 0.767356 0.753893 0.625358
O O13 0.000000 0.791857 0.695368
O O14 0.500000 0.570664 0.242304
O O15 0.265632 0.500000 0.214051
O O16 0.266179 0.583629 0.312697
O O17 0.199160 0.735468 0.500000
O O18 0.248168 0.630764 0.571358
O O19 0.000000 0.690838 0.583310
O O20 0.500000 0.794052 0.069801
O O21 0.263697 0.770677 0.000000
O O22 0.500000 0.589670 0.612320
O O23 0.709369 0.500000 0.589569
#
# Coordination Sequence:
#
# PCOD8193636 Si02
#       8
#     8   8   8   8   8   8   8   8
#     4  10  17  29  50  69  92 126 161 200 242 285
#     4   8  13  22  38  62  91 121 152 184 219 266
#     4   9  17  31  52  75  97 122 156 196 238 284
#     4  11  21  32  50  74  97 122 158 201 237 280
#     4   8  14  25  44  69  92 118 155 197 240 283
#     4  10  22  37  49  66  97 134 165 195 237 288
#     4   9  16  24  38  65  96 125 159 197 235 276
#     4   9  17  30  49  73  98 124 160 202 239 283
#
# _framework density 17.158662
#
# number of rings (size 3 to 8) (size 9 to 14) (size 15 to 20)
#    0.000    2.750    2.500    1.875    0.000    1.750 
#    0.000    2.500    0.000    1.500    0.000    5.250 
#    0.000    2.000    0.000    1.125    0.000    1.250 
#
# Total GULP energy -793086.198621 kJ/mol
# GULP energy per Si atom -12391.971853 kJ/mol
# Density = 1.711961 g / cm^3
# Si number density = 17.158662 Si / 1000 Ang^3
#
#
#
# Elastic Constant Matrix: (Units=GPa)
#
#
# Indices 1 2 3 4 5 6 
#
# 1 26.7292 26.8915 23.6326 0.0000 0.0000 0.0000
# 2 26.8915 134.1872 66.0059 0.0000 0.0000 0.0000
# 3 23.6326 66.0059 106.6766 0.0000 0.0000 0.0000
# 4 0.0000 0.0000 0.0000 24.2233 0.0000 0.0000
# 5 0.0000 0.0000 0.0000 0.0000 13.1847 0.0000
# 6 0.0000 0.0000 0.0000 0.0000 0.0000 15.8553
#
#
#
# Elastic Compliance Matrix: (Units=1/GPa)
#
#
# Indices 1 2 3 4 5 6 
#
# 1 0.050299 -0.006611 -0.007052 0.000000 0.000000 0.000000
# 2 -0.006611 0.011582 -0.005702 0.000000 0.000000 0.000000
# 3 -0.007052 -0.005702 0.014464 0.000000 0.000000 0.000000
# 4 0.000000 0.000000 0.000000 0.041283 0.000000 0.000000
# 5 0.000000 0.000000 0.000000 0.000000 0.075846 0.000000
# 6 0.000000 0.000000 0.000000 0.000000 0.000000 0.063070
#
#
# Mechanical properties :
#
#
# Convention : Reuss Voigt Hill
#
# Bulk Modulus (GPa) = 26.58523 55.62810 41.10667
# Shear Modulus (GPa) = 16.24370 20.72353 18.48361
#
# Velocity S-wave (km/s) = 3.08015 3.47905 3.28566
# Velocity P-wave (km/s) = 5.30822 6.97342 6.19701
#
# Compressibility (1/GPa) = 0.03761487
#
# Stress axis : x y z
#
# Youngs Moduli (GPa) = 19.88118 86.34307 69.13556
#
# Poissons Ratio (x) = 0.57081 0.48757
# Poissons Ratio (y) = 0.13143 0.39418
# Poissons Ratio (z) = 0.14021 0.49229
#
# Static dielectric constant tensor:
#      x y z
#    x 2.775890 0.000000 0.000000 
#    y 0.000000 3.698180 0.000000 
#    z 0.000000 0.000000 3.220160 
# 
# 
# High freq. dielectric constant tensor:
#      x y z
#    x 1.618040 0.000000 0.000000 
#    y 0.000000 1.673140 0.000000 
#    z 0.000000 0.000000 1.639540 
# 
# From -- ./inp_files/30004.got.cif
#   From: 2010.03.12/outbox.cif.g09.slc.cpg/sg47_16_cif.got.tgz:30004.got - 2010.04.14 03:12:58.
