data_PCOD8193523
_publ_section_title
;
Structure prediction by ZEFSAII (Michael W. Deem and Ramdas Pophale) SiO2 
 PCOD8193523
Probable space group: P M M M
;
_chemical_formula_sum "Si O2"
_cell_formula_units_Z 52
_cell_length_a 11.770601
_cell_length_b 17.970882
_cell_length_c 18.932113
_cell_angle_alpha 90.000000
_cell_angle_beta 90.000000
_cell_angle_gamma 90.000000
_cell_volume 4004.673544
_symmetry_space_group_name_H-M "P M M M"
_symmetry_group_IT_number 47
_symmetry_cell_setting 'orthorhombic'
loop_
_space_group_symop_operation_xyz
x,y,z
-x,-y,z
x,-y,-z
-x,y,-z
-x,-y,-z
x,y,-z
-x,y,z
x,-y,z
loop_
_atom_site_type_symbol
_atom_site_label
_atom_site_fract_x
_atom_site_fract_y
_atom_site_fract_z
Si Si1 0.725059 0.913995 0.220409
Si Si2 0.872793 0.418028 0.583730
Si Si3 0.500000 0.083721 0.310044
Si Si4 0.135093 0.000000 0.579160
Si Si5 0.865696 0.144443 0.662157
Si Si6 0.627260 0.088285 0.922587
Si Si7 0.742681 0.724949 0.417221
Si Si8 0.500000 0.215489 0.581489
O O1 0.608251 0.902288 0.261577
O O2 0.822230 0.864432 0.257462
O O3 0.708651 0.882866 0.140392
O O4 0.763454 0.000000 0.220005
O O5 0.873715 0.420259 0.500000
O O6 0.837345 0.500000 0.612640
O O7 0.781932 0.356629 0.609447
O O8 0.000000 0.397719 0.610680
O O9 0.500000 0.139333 0.375537
O O10 0.500000 0.000000 0.340771
O O11 0.180573 0.072942 0.618947
O O12 0.184684 0.000000 0.500000
O O13 0.000000 0.000000 0.577959
O O14 0.816653 0.216849 0.625867
O O15 0.000000 0.149741 0.662137
O O16 0.500000 0.120991 0.913881
O O17 0.619173 0.000000 0.915913
O O18 0.676186 0.111207 0.000000
O O19 0.768600 0.736439 0.500000
O O20 0.609653 0.734420 0.400193
O O21 0.500000 0.191712 0.500000
#
# Coordination Sequence:
#
# PCOD8193523 Si02
#       8
#     8   8   4   4   8   8   8   4
#     4  10  17  27  41  55  74  98 125 163 199 236
#     4   8  14  26  44  62  76  92 119 157 199 239
#     4  10  18  29  41  53  69 103 141 168 202 234
#     4   9  18  30  38  47  66  93 130 171 203 228
#     4  11  20  28  39  54  72 101 134 164 197 232
#     4   8  13  22  38  59  75  88 114 155 198 234
#     4  10  19  30  42  56  76  99 127 165 205 239
#     4  10  20  31  39  53  77 105 133 166 202 239
#
# _framework density 12.984829
#
# number of rings (size 3 to 8) (size 9 to 14) (size 15 to 20)
#    0.000    2.538    3.077    1.846    0.000    1.692 
#    0.000    0.385    0.000    2.769    0.000    2.154 
#    0.000    0.000    0.000    0.000    0.000    0.769 
#
# Total GULP energy -644522.038727 kJ/mol
# GULP energy per Si atom -12394.654591 kJ/mol
# Density = 1.295527 g / cm^3
# Si number density = 12.984829 Si / 1000 Ang^3
#
#
#
# Elastic Constant Matrix: (Units=GPa)
#
#
# Indices 1 2 3 4 5 6 
#
# 1 72.7461 41.9138 34.8738 0.0000 0.0000 0.0000
# 2 41.9138 82.4046 34.4417 0.0000 0.0000 0.0000
# 3 34.8738 34.4417 77.4288 0.0000 0.0000 0.0000
# 4 0.0000 0.0000 0.0000 3.9793 0.0000 0.0000
# 5 0.0000 0.0000 0.0000 0.0000 14.3366 0.0000
# 6 0.0000 0.0000 0.0000 0.0000 0.0000 14.5253
#
#
#
# Elastic Compliance Matrix: (Units=1/GPa)
#
#
# Indices 1 2 3 4 5 6 
#
# 1 0.021437 -0.008437 -0.005902 0.000000 0.000000 0.000000
# 2 -0.008437 0.018227 -0.004308 0.000000 0.000000 0.000000
# 3 -0.005902 -0.004308 0.017490 0.000000 0.000000 0.000000
# 4 0.000000 0.000000 0.000000 0.251298 0.000000 0.000000
# 5 0.000000 0.000000 0.000000 0.000000 0.069752 0.000000
# 6 0.000000 0.000000 0.000000 0.000000 0.000000 0.068845
#
#
# Mechanical properties :
#
#
# Convention : Reuss Voigt Hill
#
# Bulk Modulus (GPa) = 50.35277 50.55980 50.45628
# Shear Modulus (GPa) = 10.18410 14.65826 12.42118
#
# Velocity S-wave (km/s) = 2.80359 3.36352 3.09624
# Velocity P-wave (km/s) = 7.02442 7.35571 7.19197
#
# Compressibility (1/GPa) = 0.01985988
#
# Stress axis : x y z
#
# Youngs Moduli (GPa) = 46.64869 54.86403 57.17654
#
# Poissons Ratio (x) = 0.46286 0.33748
# Poissons Ratio (y) = 0.39355 0.24631
# Poissons Ratio (z) = 0.27534 0.23634
#
# Static dielectric constant tensor:
#      x y z
#    x 2.649230 0.000000 0.000000 
#    y 0.000000 2.574520 0.000000 
#    z 0.000000 0.000000 2.644730 
# 
# 
# High freq. dielectric constant tensor:
#      x y z
#    x 1.492060 0.000000 0.000000 
#    y 0.000000 1.461720 0.000000 
#    z 0.000000 0.000000 1.469700 
# 
# From -- ./inp_files/30653.got.cif
#   From: 2010.03.12/outbox.cif.g09.slc.cpg/sg47_16_cif.got.tgz:30653.got - 2010.04.14 03:12:58.
