data_PCOD8193042
_publ_section_title
;
Structure prediction by ZEFSAII (Michael W. Deem and Ramdas Pophale) SiO2 
 PCOD8193042
Probable space group: I M A 2
;
_chemical_formula_sum "Si O2"
_cell_formula_units_Z 56
_cell_length_a 20.133511
_cell_length_b 9.979463
_cell_length_c 13.222848
_cell_angle_alpha 90.000000
_cell_angle_beta 90.000000
_cell_angle_gamma 90.000000
_cell_volume 2656.756148
_symmetry_space_group_name_H-M "I M A 2"
_symmetry_group_IT_number 46
_symmetry_cell_setting 'orthorhombic'
loop_
_space_group_symop_operation_xyz
x,y,z
-x,-y,z
1/2-x,y,z
1/2+x,-y,z
1/2+x,1/2+y,1/2+z
1/2-x,1/2-y,1/2+z
-x,1/2+y,1/2+z
x,1/2-y,1/2+z
loop_
_atom_site_type_symbol
_atom_site_label
_atom_site_fract_x
_atom_site_fract_y
_atom_site_fract_z
Si Si1 0.678727 0.535308 0.073400
Si Si2 0.972937 0.258258 0.119694
Si Si3 0.558888 0.911313 0.462164
Si Si4 0.577067 0.043390 0.978307
Si Si5 0.420758 0.280875 0.758003
Si Si6 0.398754 0.525030 0.252694
Si Si7 0.325138 0.345179 0.592042
O O1 0.750000 0.476689 0.037728
O O2 0.671114 0.498648 0.193051
O O3 0.677163 0.694331 0.051037
O O4 0.616151 0.486785 0.005306
O O5 0.920763 0.171709 0.053428
O O6 0.936759 0.374655 0.179551
O O7 0.013297 0.163796 0.199732
O O8 0.032248 0.317850 0.051465
O O9 0.586504 0.820687 0.373297
O O10 0.500000 0.000000 0.416758
O O11 0.500000 0.000000 0.969974
O O12 0.626793 0.931240 0.020206
O O13 0.605251 0.083491 0.866702
O O14 0.354537 0.338701 0.705466
O O15 0.432835 0.120332 0.757106
O O16 0.250000 0.405433 0.594814
#
# Coordination Sequence:
#
# PCOD8193042 Si02
#       7
#     8   8   8   8   8   8   8
#     4  10  21  40  65  91 125 164 208 261 318 376
#     4  12  21  39  61  97 126 163 204 269 323 372
#     4  12  22  37  63  97 128 162 211 269 318 374
#     4  12  23  38  65  94 125 166 215 261 317 374
#     4  11  22  37  63  93 129 163 208 257 322 372
#     4  11  22  40  63  94 129 164 209 259 314 382
#     4  10  22  41  62  91 127 162 207 264 316 375
#
# _framework density 21.078336
#
# number of rings (size 3 to 8) (size 9 to 14) (size 15 to 20)
#    0.000    0.857    5.714    3.857    2.000    1.143 
#    0.000    3.571    0.000    0.000    0.000    0.000 
#    0.000    0.000    0.000    0.000    0.000    0.000 
#
# Total GULP energy -346890.669662 kJ/mol
# GULP energy per Si atom -12388.952488 kJ/mol
# Density = 2.103036 g / cm^3
# Si number density = 21.078336 Si / 1000 Ang^3
#
#
#
# Elastic Constant Matrix: (Units=GPa)
#
#
# Indices 1 2 3 4 5 6 
#
# 1 135.3669 34.5549 52.0376 0.0000 0.0000 0.0000
# 2 34.5549 34.9572 37.8904 0.0000 0.0000 0.0000
# 3 52.0376 37.8904 148.0140 0.0000 0.0000 0.0000
# 4 0.0000 0.0000 0.0000 36.2763 0.0000 0.0000
# 5 0.0000 0.0000 0.0000 0.0000 18.8378 0.0000
# 6 0.0000 0.0000 0.0000 0.0000 0.0000 17.8468
#
#
#
# Elastic Compliance Matrix: (Units=1/GPa)
#
#
# Indices 1 2 3 4 5 6 
#
# 1 0.010079 -0.008473 -0.001374 0.000000 0.000000 0.000000
# 2 -0.008473 0.046715 -0.008980 0.000000 0.000000 0.000000
# 3 -0.001374 -0.008980 0.009538 0.000000 0.000000 0.000000
# 4 0.000000 0.000000 0.000000 0.027566 0.000000 0.000000
# 5 0.000000 0.000000 0.000000 0.000000 0.053085 0.000000
# 6 0.000000 0.000000 0.000000 0.000000 0.000000 0.056032
#
#
# Mechanical properties :
#
#
# Convention : Reuss Voigt Hill
#
# Bulk Modulus (GPa) = 34.87045 63.03376 48.95211
# Shear Modulus (GPa) = 19.98174 27.51586 23.74880
#
# Velocity S-wave (km/s) = 3.08226 3.61696 3.36027
# Velocity P-wave (km/s) = 5.40798 6.88569 6.19108
#
# Compressibility (1/GPa) = 0.02867757
#
# Stress axis : x y z
#
# Youngs Moduli (GPa) = 99.22100 21.40633 104.84300
#
# Poissons Ratio (x) = 0.18137 0.14409
# Poissons Ratio (y) = 0.84069 0.94148
# Poissons Ratio (z) = 0.13636 0.19223
#
# Static dielectric constant tensor:
#      x y z
#    x 4.107460 0.000000 0.000000 
#    y 0.000000 3.597960 0.000000 
#    z 0.000000 0.000000 4.031810 
# 
# 
# High freq. dielectric constant tensor:
#      x y z
#    x 1.813830 0.000000 0.000000 
#    y 0.000000 1.796480 0.000000 
#    z 0.000000 0.000000 1.835960 
# 
# From -- ./inp_files/12416.got.cif
#   From: 2010.03.12/outbox.cif.g09.slc.cpg/sg46_7_cif.got.tgz:12416.got - 2010.04.14 02:56:35.
