data_PCOD8193206
_publ_section_title
;
Structure prediction by ZEFSAII (Michael W. Deem and Ramdas Pophale) SiO2 
 PCOD8193206
Probable space group: I M A 2
;
_chemical_formula_sum "Si O2"
_cell_formula_units_Z 48
_cell_length_a 24.971934
_cell_length_b 10.035419
_cell_length_c 8.882280
_cell_angle_alpha 90.000000
_cell_angle_beta 90.000000
_cell_angle_gamma 90.000000
_cell_volume 2225.933307
_symmetry_space_group_name_H-M "I M A 2"
_symmetry_group_IT_number 46
_symmetry_cell_setting 'orthorhombic'
loop_
_space_group_symop_operation_xyz
x,y,z
-x,-y,z
1/2-x,y,z
1/2+x,-y,z
1/2+x,1/2+y,1/2+z
1/2-x,1/2-y,1/2+z
-x,1/2+y,1/2+z
x,1/2-y,1/2+z
loop_
_atom_site_type_symbol
_atom_site_label
_atom_site_fract_x
_atom_site_fract_y
_atom_site_fract_z
Si Si1 0.637172 0.960438 0.723960
Si Si2 0.750000 0.183520 0.440415
Si Si3 0.250000 0.938172 0.764954
Si Si4 0.489094 0.240968 0.053578
Si Si5 0.936170 0.320618 0.306163
Si Si6 0.585334 0.677879 0.799232
Si Si7 0.362962 0.571649 0.890446
O O1 0.699527 0.963059 0.767773
O O2 0.604983 0.059863 0.831967
O O3 0.628592 0.023810 0.560387
O O4 0.615352 0.813411 0.753136
O O5 0.750000 0.158320 0.618885
O O6 0.750000 0.342185 0.410645
O O7 0.802700 0.121547 0.362912
O O8 0.533967 0.327966 0.143369
O O9 0.460596 0.147876 0.176742
O O10 0.518490 0.151867 0.930087
O O11 0.443109 0.324747 0.964296
O O12 0.905746 0.181550 0.336835
O O13 0.628188 0.559319 0.788468
#
# Coordination Sequence:
#
# PCOD8193206 Si02
#       7
#     8   4   4   8   8   8   8
#     4  11  23  43  66  97 130 165 209 269 320 370
#     4  10  22  43  70  96 124 160 210 265 320 374
#     4  10  22  43  70  96 124 160 210 265 320 374
#     4  10  24  40  62  98 124 178 214 260 306 382
#     4  11  22  39  70  92 128 169 220 259 316 366
#     4  11  24  43  64  90 138 169 212 255 322 374
#     4  11  23  43  66  97 130 165 209 269 320 370
#
# _framework density 21.563987000000001
#
# number of rings (size 3 to 8) (size 9 to 14) (size 15 to 20)
#    0.000    1.333    5.000    0.000    0.000   10.000 
#    3.000    0.000    0.000    0.000    0.000    0.000 
#    0.000    0.000    0.000    0.000    0.000    0.000 
#
# Total GULP energy -297456.553020 kJ/mol
# GULP energy per Si atom -12394.023042 kJ/mol
# Density = 2.151491 g / cm^3
# Si number density = 21.563987 Si / 1000 Ang^3
#
#
#
# Elastic Constant Matrix: (Units=GPa)
#
#
# Indices 1 2 3 4 5 6 
#
# 1 141.7206 51.4984 31.4799 0.0000 0.0000 0.0000
# 2 51.4984 122.7502 17.3505 0.0000 0.0000 0.0000
# 3 31.4799 17.3505 63.4436 0.0000 0.0000 0.0000
# 4 0.0000 0.0000 0.0000 20.3640 0.0000 0.0000
# 5 0.0000 0.0000 0.0000 0.0000 29.2846 0.0000
# 6 0.0000 0.0000 0.0000 0.0000 0.0000 17.6360
#
#
#
# Elastic Compliance Matrix: (Units=1/GPa)
#
#
# Indices 1 2 3 4 5 6 
#
# 1 0.009049 -0.003289 -0.003590 0.000000 0.000000 0.000000
# 2 -0.003289 0.009670 -0.001013 0.000000 0.000000 0.000000
# 3 -0.003590 -0.001013 0.017820 0.000000 0.000000 0.000000
# 4 0.000000 0.000000 0.000000 0.049106 0.000000 0.000000
# 5 0.000000 0.000000 0.000000 0.000000 0.034148 0.000000
# 6 0.000000 0.000000 0.000000 0.000000 0.000000 0.056702
#
#
# Mechanical properties :
#
#
# Convention : Reuss Voigt Hill
#
# Bulk Modulus (GPa) = 48.18083 58.73024 53.45554
# Shear Modulus (GPa) = 25.10079 28.62929 26.86504
#
# Velocity S-wave (km/s) = 3.41547 3.64764 3.53346
# Velocity P-wave (km/s) = 6.16000 6.71080 6.44129
#
# Compressibility (1/GPa) = 0.02075514
#
# Stress axis : x y z
#
# Youngs Moduli (GPa) = 110.51246 103.41774 56.11517
#
# Poissons Ratio (x) = 0.34012 0.20148
# Poissons Ratio (y) = 0.36345 0.05682
# Poissons Ratio (z) = 0.39679 0.10472
#
# Static dielectric constant tensor:
#      x y z
#    x 4.162800 0.000000 0.000000 
#    y 0.000000 3.570260 0.000000 
#    z 0.000000 0.000000 4.003610 
# 
# 
# High freq. dielectric constant tensor:
#      x y z
#    x 1.864140 0.000000 0.000000 
#    y 0.000000 1.823390 0.000000 
#    z 0.000000 0.000000 1.847370 
# 
# From -- ./inp_files/8426.got.cif
#   From: 2010.03.12/outbox.cif.g09.slc.cpg/sg46_5_cif.got.tgz:8426.got - 2010.04.14 02:56:35.
