data_PCOD8193564
_publ_section_title
;
Structure prediction by ZEFSAII (Michael W. Deem and Ramdas Pophale) SiO2 
 PCOD8193564
Probable space group: P M M M
;
_chemical_formula_sum "Si O2"
_cell_formula_units_Z 52
_cell_length_a 23.520781
_cell_length_b 9.082212
_cell_length_c 14.228674
_cell_angle_alpha 90.000000
_cell_angle_beta 90.000000
_cell_angle_gamma 90.000000
_cell_volume 3039.539577
_symmetry_space_group_name_H-M "P M M M"
_symmetry_group_IT_number 47
_symmetry_cell_setting 'orthorhombic'
loop_
_space_group_symop_operation_xyz
x,y,z
-x,-y,z
x,-y,-z
-x,y,-z
-x,-y,-z
x,y,-z
-x,y,z
x,-y,z
loop_
_atom_site_type_symbol
_atom_site_label
_atom_site_fract_x
_atom_site_fract_y
_atom_site_fract_z
Si Si1 0.718002 0.670888 0.607135
Si Si2 0.332383 0.174965 0.774370
Si Si3 0.835762 0.170419 0.395236
Si Si4 0.436931 0.825129 0.105109
Si Si5 0.887611 0.826777 0.205805
Si Si6 0.224914 0.175228 0.894466
Si Si7 0.000000 0.175885 0.107517
O O1 0.699312 0.698527 0.500000
O O2 0.719744 0.500000 0.632315
O O3 0.671825 0.752219 0.671870
O O4 0.780264 0.735339 0.626095
O O5 0.389938 0.235544 0.822744
O O6 0.279360 0.230286 0.836634
O O7 0.332971 0.000000 0.763342
O O8 0.860012 0.203051 0.500000
O O9 0.883560 0.210345 0.317484
O O10 0.817755 0.000000 0.384878
O O11 0.500000 0.774171 0.137623
O O12 0.433509 0.000000 0.102602
O O13 0.424257 0.765247 0.000000
O O14 0.832363 0.761597 0.153157
O O15 0.944812 0.758606 0.161225
O O16 0.889364 0.000000 0.189229
O O17 0.223760 0.000000 0.895343
O O18 0.229041 0.237586 0.000000
O O19 0.000000 0.000000 0.110795
O O20 0.000000 0.231412 0.000000
#
# Coordination Sequence:
#
# PCOD8193564 Si02
#       7
#     8   8   8   8   8   8   4
#     4  10  20  32  46  66  92 120 150 187 232 279
#     4  10  17  27  46  71  94 119 151 185 225 268
#     4   9  16  28  46  66  88 114 146 186 231 277
#     4   8  14  25  43  70 101 127 152 185 223 264
#     4   9  15  24  37  58  87 119 150 181 218 263
#     4   9  15  22  36  61  89 114 144 182 219 258
#     4   9  16  24  35  55  88 125 153 179 216 264
#
# _framework density 17.107855000000001
#
# number of rings (size 3 to 8) (size 9 to 14) (size 15 to 20)
#    0.000    2.846    1.538    1.846    0.000    4.615 
#    0.000    0.385    0.000    5.077    0.000    4.846 
#    0.000    3.077    0.000    0.000    0.000    0.000 
#
# Total GULP energy -644552.544296 kJ/mol
# GULP energy per Si atom -12395.241236 kJ/mol
# Density = 1.706892 g / cm^3
# Si number density = 17.107855 Si / 1000 Ang^3
#
#
#
# Elastic Constant Matrix: (Units=GPa)
#
#
# Indices 1 2 3 4 5 6 
#
# 1 142.7654 22.9363 85.1943 0.0000 0.0000 0.0000
# 2 22.9363 24.5251 28.8375 0.0000 0.0000 0.0000
# 3 85.1943 28.8375 148.4040 0.0000 0.0000 0.0000
# 4 0.0000 0.0000 0.0000 9.5138 0.0000 0.0000
# 5 0.0000 0.0000 0.0000 0.0000 33.0540 0.0000
# 6 0.0000 0.0000 0.0000 0.0000 0.0000 2.9823
#
#
#
# Elastic Compliance Matrix: (Units=1/GPa)
#
#
# Indices 1 2 3 4 5 6 
#
# 1 0.010904 -0.003678 -0.005545 0.000000 0.000000 0.000000
# 2 -0.003678 0.054090 -0.008399 0.000000 0.000000 0.000000
# 3 -0.005545 -0.008399 0.011554 0.000000 0.000000 0.000000
# 4 0.000000 0.000000 0.000000 0.105111 0.000000 0.000000
# 5 0.000000 0.000000 0.000000 0.000000 0.030254 0.000000
# 6 0.000000 0.000000 0.000000 0.000000 0.000000 0.335306
#
#
# Mechanical properties :
#
#
# Convention : Reuss Voigt Hill
#
# Bulk Modulus (GPa) = 24.21080 65.51451 44.86265
# Shear Modulus (GPa) = 8.38600 21.02512 14.70556
#
# Velocity S-wave (km/s) = 2.21641 3.50948 2.93504
# Velocity P-wave (km/s) = 4.55330 7.40270 6.14543
#
# Compressibility (1/GPa) = 0.04130388
#
# Stress axis : x y z
#
# Youngs Moduli (GPa) = 91.70563 18.48759 86.55076
#
# Poissons Ratio (x) = 0.06799 0.47995
# Poissons Ratio (y) = 0.33726 0.72698
# Poissons Ratio (z) = 0.50853 0.15529
#
# Static dielectric constant tensor:
#      x y z
#    x 3.311550 0.000000 0.000000 
#    y 0.000000 2.651560 0.000000 
#    z 0.000000 0.000000 3.473280 
# 
# 
# High freq. dielectric constant tensor:
#      x y z
#    x 1.646700 0.000000 0.000000 
#    y 0.000000 1.598610 0.000000 
#    z 0.000000 0.000000 1.673300 
# 
# From -- ./inp_files/12537.got.cif
#   From: 2010.03.12/outbox.cif.g09.slc.cpg/sg47_7_cif.got.tgz:12537.got - 2010.04.14 03:12:58.
