data_PCOD8193461
_publ_section_title
;
Structure prediction by ZEFSAII (Michael W. Deem and Ramdas Pophale) SiO2 
 PCOD8193461
Probable space group: P M M M
;
_chemical_formula_sum "Si O2"
_cell_formula_units_Z 56
_cell_length_a 21.296869
_cell_length_b 18.512466
_cell_length_c 9.220842
_cell_angle_alpha 90.000000
_cell_angle_beta 90.000000
_cell_angle_gamma 90.000000
_cell_volume 3635.386698
_symmetry_space_group_name_H-M "P M M M"
_symmetry_group_IT_number 47
_symmetry_cell_setting 'orthorhombic'
loop_
_space_group_symop_operation_xyz
x,y,z
-x,-y,z
x,-y,-z
-x,y,-z
-x,-y,-z
x,y,-z
-x,y,z
x,-y,z
loop_
_atom_site_type_symbol
_atom_site_label
_atom_site_fract_x
_atom_site_fract_y
_atom_site_fract_z
Si Si1 0.428181 0.666797 0.666179
Si Si2 0.810856 0.834154 0.327777
Si Si3 0.376687 0.789886 0.840655
Si Si4 0.069354 0.919317 0.672064
Si Si5 0.676683 0.581988 0.170890
Si Si6 0.755849 0.710648 0.160296
Si Si7 0.297674 0.917480 0.169480
O O1 0.406673 0.668038 0.500000
O O2 0.500000 0.642181 0.682659
O O3 0.420916 0.748409 0.727531
O O4 0.386123 0.609096 0.750618
O O5 0.804669 0.832650 0.500000
O O6 0.878624 0.862605 0.273316
O O7 0.802669 0.752231 0.268777
O O8 0.759604 0.888893 0.265218
O O9 0.309318 0.752434 0.846259
O O10 0.361850 0.872807 0.794890
O O11 0.408467 0.786664 0.000000
O O12 0.070311 0.921740 0.500000
O O13 0.000000 0.894963 0.726555
O O14 0.084527 0.000000 0.731229
O O15 0.690496 0.500000 0.217215
O O16 0.738087 0.629601 0.215043
O O17 0.664165 0.589887 0.000000
O O18 0.786707 0.708183 0.000000
O O19 0.311111 0.000000 0.210521
O O20 0.280086 0.907828 0.000000
#
# Coordination Sequence:
#
# PCOD8193461 Si02
#       7
#     8   8   8   8   8   8   8
#     4  10  20  31  43  61  84 108 132 159 195 237
#     4  10  17  24  39  62  83 105 139 174 199 234
#     4   8  15  28  44  59  75 101 136 167 196 236
#     4   8  14  24  36  52  79 114 147 177 205 229
#     4   9  18  32  48  64  82 106 135 162 189 230
#     4   8  15  28  43  59  81 106 129 159 202 242
#     4   9  17  28  41  58  81 105 128 163 212 252
#
# _framework density 15.404139000000001
#
# number of rings (size 3 to 8) (size 9 to 14) (size 15 to 20)
#    0.000    3.143    0.000    3.429    0.000    7.714 
#    0.000    1.429    0.000    2.143    0.000    8.000 
#    0.000    0.571    0.000    7.143    0.000    0.000 
#
# Total GULP energy -693939.209938 kJ/mol
# GULP energy per Si atom -12391.771606 kJ/mol
# Density = 1.536908 g / cm^3
# Si number density = 15.404139 Si / 1000 Ang^3
#
#
#
# Elastic Constant Matrix: (Units=GPa)
#
#
# Indices 1 2 3 4 5 6 
#
# 1 56.5166 49.3344 29.8929 0.0000 0.0000 0.0000
# 2 49.3344 134.5786 42.2387 0.0000 0.0000 0.0000
# 3 29.8929 42.2387 57.4916 0.0000 0.0000 0.0000
# 4 0.0000 0.0000 0.0000 17.9281 0.0000 0.0000
# 5 0.0000 0.0000 0.0000 0.0000 2.2108 0.0000
# 6 0.0000 0.0000 0.0000 0.0000 0.0000 19.8852
#
#
#
# Elastic Compliance Matrix: (Units=1/GPa)
#
#
# Indices 1 2 3 4 5 6 
#
# 1 0.029640 -0.007835 -0.009655 0.000000 0.000000 0.000000
# 2 -0.007835 0.011729 -0.004543 0.000000 0.000000 0.000000
# 3 -0.009655 -0.004543 0.025752 0.000000 0.000000 0.000000
# 4 0.000000 0.000000 0.000000 0.055778 0.000000 0.000000
# 5 0.000000 0.000000 0.000000 0.000000 0.452334 0.000000
# 6 0.000000 0.000000 0.000000 0.000000 0.000000 0.050289
#
#
# Mechanical properties :
#
#
# Convention : Reuss Voigt Hill
#
# Bulk Modulus (GPa) = 43.37630 54.61320 48.99475
# Shear Modulus (GPa) = 7.38255 16.47953 11.93104
#
# Velocity S-wave (km/s) = 2.19157 3.27435 2.78607
# Velocity P-wave (km/s) = 5.88421 7.05873 6.49806
#
# Compressibility (1/GPa) = 0.02305407
#
# Stress axis : x y z
#
# Youngs Moduli (GPa) = 33.73788 85.26015 38.83239
#
# Poissons Ratio (x) = 0.66805 0.37492
# Poissons Ratio (y) = 0.26435 0.17642
# Poissons Ratio (z) = 0.32574 0.38734
#
# Static dielectric constant tensor:
#      x y z
#    x 2.850370 0.000000 0.000000 
#    y 0.000000 3.402650 0.000000 
#    z 0.000000 0.000000 2.892510 
# 
# 
# High freq. dielectric constant tensor:
#      x y z
#    x 1.553950 0.000000 0.000000 
#    y 0.000000 1.587240 0.000000 
#    z 0.000000 0.000000 1.582950 
# 
# From -- ./inp_files/11727.got.cif
#   From: 2010.03.12/outbox.cif.g09.slc.cpg/sg47_6_cif.got.tgz:11727.got - 2010.04.14 03:12:58.
