data_PCOD8193706
_publ_section_title
;
Structure prediction by ZEFSAII (Michael W. Deem and Ramdas Pophale) SiO2 
 PCOD8193706
Probable space group: P M M M
;
_chemical_formula_sum "Si O2"
_cell_formula_units_Z 52
_cell_length_a 9.256783
_cell_length_b 26.274673
_cell_length_c 12.754578
_cell_angle_alpha 90.000000
_cell_angle_beta 90.000000
_cell_angle_gamma 90.000000
_cell_volume 3102.155022
_symmetry_space_group_name_H-M "P M M M"
_symmetry_group_IT_number 47
_symmetry_cell_setting 'orthorhombic'
loop_
_space_group_symop_operation_xyz
x,y,z
-x,-y,z
x,-y,-z
-x,y,-z
-x,-y,-z
x,y,-z
-x,y,z
x,-y,z
loop_
_atom_site_type_symbol
_atom_site_label
_atom_site_fract_x
_atom_site_fract_y
_atom_site_fract_z
Si Si1 0.829976 0.230425 0.381572
Si Si2 0.171102 0.500000 0.121005
Si Si3 0.332724 0.597913 0.191302
Si Si4 0.171647 0.160081 0.801496
Si Si5 0.828452 0.776133 0.000000
Si Si6 0.171835 0.055371 0.118881
Si Si7 0.333120 0.670865 0.000000
Si Si8 0.333312 0.331801 0.381027
O O1 0.785706 0.215937 0.500000
O O2 0.773736 0.184944 0.307005
O O3 0.757711 0.282919 0.346024
O O4 0.000000 0.238330 0.369875
O O5 0.233198 0.549028 0.179066
O O6 0.000000 0.500000 0.131518
O O7 0.220899 0.500000 0.000000
O O8 0.500000 0.581555 0.182645
O O9 0.296085 0.621514 0.304783
O O10 0.293549 0.638571 0.102405
O O11 0.232344 0.102109 0.810758
O O12 0.000000 0.158603 0.804765
O O13 0.228292 0.193771 0.898205
O O14 0.764305 0.720263 0.000000
O O15 0.000000 0.771281 0.000000
O O16 0.000000 0.056230 0.119966
O O17 0.226303 0.000000 0.161192
O O18 0.226049 0.063324 0.000000
O O19 0.500000 0.687141 0.000000
O O20 0.295196 0.348354 0.500000
O O21 0.500000 0.316346 0.370049
#
# Coordination Sequence:
#
# PCOD8193706 Si02
#       8
#     8   4   8   8   4   8   4   8
#     4   9  17  28  43  63  89 123 153 178 221 278
#     4  11  23  37  54  77 100 122 155 194 225 262
#     4  10  20  35  54  72  94 126 155 185 228 274
#     4   9  15  24  37  57  86 114 145 185 226 270
#     4  10  18  26  40  63  88 114 139 177 230 269
#     4   8  12  19  33  53  79 112 148 186 228 270
#     4  10  20  31  45  67  94 121 150 179 218 273
#     4   9  18  33  52  73  95 121 157 195 225 262
#
# _framework density 16.762540000000001
#
# number of rings (size 3 to 8) (size 9 to 14) (size 15 to 20)
#    0.000    2.692    1.538    1.615    0.000    1.538 
#    0.000    0.385    0.000    2.769    0.000    3.231 
#    0.000    3.077    0.000    3.846    0.000    4.000 
#
# Total GULP energy -644634.709746 kJ/mol
# GULP energy per Si atom -12396.821341 kJ/mol
# Density = 1.672439 g / cm^3
# Si number density = 16.762540 Si / 1000 Ang^3
#
#
#
# Elastic Constant Matrix: (Units=GPa)
#
#
# Indices 1 2 3 4 5 6 
#
# 1 28.1446 40.5761 26.9697 0.0000 0.0000 0.0000
# 2 40.5761 155.3914 75.8886 0.0000 0.0000 0.0000
# 3 26.9697 75.8886 105.3637 0.0000 0.0000 0.0000
# 4 0.0000 0.0000 0.0000 61.9249 0.0000 0.0000
# 5 0.0000 0.0000 0.0000 0.0000 13.9742 0.0000
# 6 0.0000 0.0000 0.0000 0.0000 0.0000 -6.9959
#
#
#
# Elastic Compliance Matrix: (Units=1/GPa)
#
#
# Indices 1 2 3 4 5 6 
#
# 1 0.059524 -0.012498 -0.006234 0.000000 0.000000 0.000000
# 2 -0.012498 0.012552 -0.005841 0.000000 0.000000 0.000000
# 3 -0.006234 -0.005841 0.015294 0.000000 0.000000 0.000000
# 4 0.000000 0.000000 0.000000 0.016149 0.000000 0.000000
# 5 0.000000 0.000000 0.000000 0.000000 0.071561 0.000000
# 6 0.000000 0.000000 0.000000 0.000000 0.000000 -0.142940
#
#
# Mechanical properties :
#
#
# Convention : Reuss Voigt Hill
#
# Bulk Modulus (GPa) = 26.16312 63.97428 45.06870
# Shear Modulus (GPa) = 53.17670 23.47832 38.32751
#
# Velocity S-wave (km/s) = 5.63848 3.74658 4.78692
# Velocity P-wave (km/s) = 7.61786 7.54743 7.58273
#
# Compressibility (1/GPa) = 0.03822174
#
# Stress axis : x y z
#
# Youngs Moduli (GPa) = 16.80004 79.67089 65.38599
#
# Poissons Ratio (x) = 0.99576 0.40762
# Poissons Ratio (y) = 0.20997 0.38193
# Poissons Ratio (z) = 0.10473 0.46537
#
# Static dielectric constant tensor:
#      x y z
#    x 2.817550 0.000000 0.000000 
#    y 0.000000 3.351360 0.000000 
#    z 0.000000 0.000000 3.316090 
# 
# 
# High freq. dielectric constant tensor:
#      x y z
#    x 1.610190 0.000000 0.000000 
#    y 0.000000 1.649530 0.000000 
#    z 0.000000 0.000000 1.642230 
# 
# From -- ./inp_files/15569.got.cif
#   From: 2010.03.12/outbox.cif.g09.slc.cpg/sg47_8_cif.got.tgz:15569.got - 2010.04.14 03:12:58.
