data_PCOD8193321
_publ_section_title
;
Structure prediction by ZEFSAII (Michael W. Deem and Ramdas Pophale) SiO2 
 PCOD8193321
Probable space group: I M A 2
;
_chemical_formula_sum "Si O2"
_cell_formula_units_Z 64
_cell_length_a 20.532320
_cell_length_b 18.959906
_cell_length_c 8.688742
_cell_angle_alpha 90.000000
_cell_angle_beta 90.000000
_cell_angle_gamma 90.000000
_cell_volume 3382.447821
_symmetry_space_group_name_H-M "I M A 2"
_symmetry_group_IT_number 46
_symmetry_cell_setting 'orthorhombic'
loop_
_space_group_symop_operation_xyz
x,y,z
-x,-y,z
1/2-x,y,z
1/2+x,-y,z
1/2+x,1/2+y,1/2+z
1/2-x,1/2-y,1/2+z
-x,1/2+y,1/2+z
x,1/2-y,1/2+z
loop_
_atom_site_type_symbol
_atom_site_label
_atom_site_fract_x
_atom_site_fract_y
_atom_site_fract_z
Si Si1 0.323454 0.538146 0.903460
Si Si2 0.626966 0.085150 0.729263
Si Si3 0.008224 0.181614 0.371723
Si Si4 0.565575 0.546038 0.744582
Si Si5 0.510003 0.665327 0.225043
Si Si6 0.821588 0.305559 0.447592
Si Si7 0.432212 0.460830 0.391726
Si Si8 0.133581 0.828323 0.267398
O O1 0.250000 0.506320 0.912944
O O2 0.375936 0.479175 0.855411
O O3 0.323647 0.600833 0.778190
O O4 0.343573 0.576098 0.061462
O O5 0.561334 0.131481 0.731235
O O6 0.676914 0.127501 0.835369
O O7 0.619721 0.007035 0.798921
O O8 0.013238 0.261085 0.313386
O O9 0.029271 0.177756 0.549005
O O10 0.935512 0.154140 0.342970
O O11 0.054606 0.128207 0.280276
O O12 0.500000 0.500000 0.774315
O O13 0.589479 0.543550 0.568789
O O14 0.562340 0.615030 0.309346
O O15 0.750000 0.302001 0.522926
O O16 0.832446 0.235531 0.351933
O O17 0.874274 0.310614 0.585692
O O18 0.500000 0.500000 0.380554
#
# Coordination Sequence:
#
# PCOD8193321 Si02
#       8
#     8   8   8   8   8   8   8   8
#     4  12  24  40  60  88 121 163 209 253 306 367
#     4  11  21  37  56  79 119 158 201 246 298 361
#     4  12  22  36  60  84 119 155 198 248 302 359
#     4  11  21  39  62  87 117 157 200 255 309 359
#     4  11  21  36  55  88 116 154 200 250 303 359
#     4  12  24  36  52  77 115 164 208 247 295 359
#     4   9  21  35  59  85 116 152 198 253 306 357
#     4  12  23  38  53  78 116 161 205 250 293 357
#
# _framework density 18.921208
#
# number of rings (size 3 to 8) (size 9 to 14) (size 15 to 20)
#    0.000    0.750    3.750    5.250    3.500    1.000 
#    0.000    0.625    0.000    0.000    0.000    8.750 
#    0.000    0.000    0.000    0.000    0.000    0.000 
#
# Total GULP energy -396840.390147 kJ/mol
# GULP energy per Si atom -12401.262192 kJ/mol
# Density = 1.887814 g / cm^3
# Si number density = 18.921208 Si / 1000 Ang^3
#
#
#
# Elastic Constant Matrix: (Units=GPa)
#
#
# Indices 1 2 3 4 5 6 
#
# 1 68.0841 44.8118 14.9839 0.0000 0.0000 0.0000
# 2 44.8118 113.3568 40.1949 0.0000 0.0000 0.0000
# 3 14.9839 40.1949 98.5164 0.0000 0.0000 0.0000
# 4 0.0000 0.0000 0.0000 37.6232 0.0000 0.0000
# 5 0.0000 0.0000 0.0000 0.0000 17.8878 0.0000
# 6 0.0000 0.0000 0.0000 0.0000 0.0000 18.6854
#
#
#
# Elastic Compliance Matrix: (Units=1/GPa)
#
#
# Indices 1 2 3 4 5 6 
#
# 1 0.019857 -0.007926 0.000213 0.000000 0.000000 0.000000
# 2 -0.007926 0.013477 -0.004293 0.000000 0.000000 0.000000
# 3 0.000213 -0.004293 0.011870 0.000000 0.000000 0.000000
# 4 0.000000 0.000000 0.000000 0.026579 0.000000 0.000000
# 5 0.000000 0.000000 0.000000 0.000000 0.055904 0.000000
# 6 0.000000 0.000000 0.000000 0.000000 0.000000 0.053518
#
#
# Mechanical properties :
#
#
# Convention : Reuss Voigt Hill
#
# Bulk Modulus (GPa) = 47.18451 53.32649 50.25550
# Shear Modulus (GPa) = 23.55375 26.83707 25.19541
#
# Velocity S-wave (km/s) = 3.53205 3.77020 3.65306
# Velocity P-wave (km/s) = 6.45177 6.87002 6.66417
#
# Compressibility (1/GPa) = 0.02119340
#
# Stress axis : x y z
#
# Youngs Moduli (GPa) = 50.35960 74.19974 84.24753
#
# Poissons Ratio (x) = 0.58807 -0.01798
# Poissons Ratio (y) = 0.39913 0.36170
# Poissons Ratio (z) = -0.01075 0.31856
#
# Static dielectric constant tensor:
#      x y z
#    x 3.245150 0.000000 0.000000 
#    y 0.000000 3.573140 0.000000 
#    z 0.000000 0.000000 3.632200 
# 
# 
# High freq. dielectric constant tensor:
#      x y z
#    x 1.693420 0.000000 0.000000 
#    y 0.000000 1.736030 0.000000 
#    z 0.000000 0.000000 1.756920 
# 
# From -- ./inp_files/7563.got.cif
#   From: 2010.03.12/outbox.cif.g09.slc.cpg/sg46_4_cif.got.tgz:7563.got - 2010.04.14 02:56:35.
