data_PCOD8193814
_publ_section_title
;
Structure prediction by ZEFSAII (Michael W. Deem and Ramdas Pophale) SiO2 
 PCOD8193814
Probable space group: P M M M
;
_chemical_formula_sum "Si O2"
_cell_formula_units_Z 52
_cell_length_a 26.326582
_cell_length_b 9.299980
_cell_length_c 14.171302
_cell_angle_alpha 90.000000
_cell_angle_beta 90.000000
_cell_angle_gamma 90.000000
_cell_volume 3469.654619
_symmetry_space_group_name_H-M "P M M M"
_symmetry_group_IT_number 47
_symmetry_cell_setting 'orthorhombic'
loop_
_space_group_symop_operation_xyz
x,y,z
-x,-y,z
x,-y,-z
-x,y,-z
-x,-y,-z
x,y,-z
-x,y,z
x,-y,z
loop_
_atom_site_type_symbol
_atom_site_label
_atom_site_fract_x
_atom_site_fract_y
_atom_site_fract_z
Si Si1 0.555531 0.660939 0.387894
Si Si2 0.851868 0.171319 0.733427
Si Si3 0.759396 0.171190 0.605091
Si Si4 0.648256 0.159020 0.612191
Si Si5 0.100069 0.331784 0.110206
Si Si6 0.056180 0.169913 0.394712
Si Si7 0.000000 0.837876 0.111411
O O1 0.560299 0.660226 0.500000
O O2 0.500000 0.724956 0.359194
O O3 0.560154 0.500000 0.348467
O O4 0.601949 0.750459 0.343020
O O5 0.801267 0.222992 0.679590
O O6 0.853824 0.256901 0.832602
O O7 0.899973 0.228189 0.673247
O O8 0.852565 0.000000 0.750664
O O9 0.772733 0.230018 0.500000
O O10 0.703525 0.226604 0.637900
O O11 0.757910 0.000000 0.600151
O O12 0.643607 0.152390 0.500000
O O13 0.643427 0.000000 0.655416
O O14 0.094906 0.500000 0.134140
O O15 0.049309 0.249610 0.144179
O O16 0.110863 0.308426 0.000000
O O17 0.063643 0.234070 0.500000
O O18 0.000000 0.212689 0.355694
O O19 0.061260 0.000000 0.401229
O O20 0.000000 0.000000 0.156089
O O21 0.000000 0.851255 0.000000
#
# Coordination Sequence:
#
# PCOD8193814 Si02
#       7
#     8   8   8   8   8   8   4
#     4   8  13  20  29  43  65  92 123 161 202 237
#     4  10  18  27  45  66  81 102 135 169 196 228
#     4   8  14  25  40  59  82 106 134 169 206 238
#     4   8  13  21  33  48  68  96 129 163 196 231
#     4  10  21  35  47  61  85 111 128 150 195 247
#     4   8  14  24  38  59  84 103 123 156 194 230
#     4   9  17  31  51  69  80  93 120 155 185 224
#
# _framework density 14.987081999999999
#
# number of rings (size 3 to 8) (size 9 to 14) (size 15 to 20)
#    0.000    3.308    0.000    3.000    1.077    4.000 
#    0.000    2.308    0.000    2.769    0.000    1.077 
#    0.000    0.000    0.000    0.000    0.000    0.769 
#
# Total GULP energy -644318.302280 kJ/mol
# GULP energy per Si atom -12390.736582 kJ/mol
# Density = 1.495297 g / cm^3
# Si number density = 14.987082 Si / 1000 Ang^3
#
#
#
# Elastic Constant Matrix: (Units=GPa)
#
#
# Indices 1 2 3 4 5 6 
#
# 1 135.3491 46.1422 43.9870 0.0000 0.0000 0.0000
# 2 46.1422 57.9990 26.6675 0.0000 0.0000 0.0000
# 3 43.9870 26.6675 43.1702 0.0000 0.0000 0.0000
# 4 0.0000 0.0000 0.0000 11.6719 0.0000 0.0000
# 5 0.0000 0.0000 0.0000 0.0000 7.3545 0.0000
# 6 0.0000 0.0000 0.0000 0.0000 0.0000 14.3357
#
#
#
# Elastic Compliance Matrix: (Units=1/GPa)
#
#
# Indices 1 2 3 4 5 6 
#
# 1 0.012215 -0.005580 -0.008999 0.000000 0.000000 0.000000
# 2 -0.005580 0.026631 -0.010765 0.000000 0.000000 0.000000
# 3 -0.008999 -0.010765 0.038983 0.000000 0.000000 0.000000
# 4 0.000000 0.000000 0.000000 0.085676 0.000000 0.000000
# 5 0.000000 0.000000 0.000000 0.000000 0.135972 0.000000
# 6 0.000000 0.000000 0.000000 0.000000 0.000000 0.069756
#
#
# Mechanical properties :
#
#
# Convention : Reuss Voigt Hill
#
# Bulk Modulus (GPa) = 36.84491 52.23464 44.53977
# Shear Modulus (GPa) = 11.65584 14.65384 13.15484
#
# Velocity S-wave (km/s) = 2.79180 3.13031 2.96589
# Velocity P-wave (km/s) = 5.91862 6.92777 6.44298
#
# Compressibility (1/GPa) = 0.02714079
#
# Stress axis : x y z
#
# Youngs Moduli (GPa) = 81.86367 37.55064 25.65188
#
# Poissons Ratio (x) = 0.20955 0.23085
# Poissons Ratio (y) = 0.45683 0.27613
# Poissons Ratio (z) = 0.73673 0.40422
#
# Static dielectric constant tensor:
#      x y z
#    x 3.193790 0.000000 0.000000 
#    y 0.000000 2.746730 0.000000 
#    z 0.000000 0.000000 2.637710 
# 
# 
# High freq. dielectric constant tensor:
#      x y z
#    x 1.572750 0.000000 0.000000 
#    y 0.000000 1.547980 0.000000 
#    z 0.000000 0.000000 1.526080 
# 
# From -- ./inp_files/8060.got.cif
#   From: 2010.03.12/outbox.cif.g09.slc.cpg/sg47_5_cif.got.tgz:8060.got - 2010.04.14 03:12:58.
