data_PCOD8193551
_publ_section_title
;
Structure prediction by ZEFSAII (Michael W. Deem and Ramdas Pophale) SiO2 
 PCOD8193551
Probable space group: P M M M
;
_chemical_formula_sum "Si O2"
_cell_formula_units_Z 64
_cell_length_a 31.110193
_cell_length_b 14.227661
_cell_length_c 9.505010
_cell_angle_alpha 90.000000
_cell_angle_beta 90.000000
_cell_angle_gamma 90.000000
_cell_volume 4207.157709
_symmetry_space_group_name_H-M "P M M M"
_symmetry_group_IT_number 47
_symmetry_cell_setting 'orthorhombic'
loop_
_space_group_symop_operation_xyz
x,y,z
-x,-y,z
x,-y,-z
-x,y,-z
-x,-y,-z
x,y,-z
-x,y,z
x,-y,z
loop_
_atom_site_type_symbol
_atom_site_label
_atom_site_fract_x
_atom_site_fract_y
_atom_site_fract_z
Si Si1 0.047262 0.888314 0.658417
Si Si2 0.790686 0.776029 0.834931
Si Si3 0.706229 0.109300 0.837917
Si Si4 0.547140 0.894650 0.666969
Si Si5 0.631866 0.795587 0.332143
Si Si6 0.235444 0.393350 0.663131
Si Si7 0.873723 0.891528 0.163851
Si Si8 0.332921 0.601482 0.666678
O O1 0.056390 0.853990 0.500000
O O2 0.084680 0.848080 0.758089
O O3 0.000000 0.851968 0.707537
O O4 0.047489 0.000000 0.665719
O O5 0.748196 0.833186 0.790897
O O6 0.793409 0.677025 0.754153
O O7 0.831673 0.835989 0.786879
O O8 0.791414 0.755878 0.000000
O O9 0.666749 0.137738 0.739370
O O10 0.716470 0.000000 0.815681
O O11 0.694362 0.130449 0.000000
O O12 0.547569 0.896291 0.500000
O O13 0.500000 0.859656 0.719737
O O14 0.584616 0.826012 0.721619
O O15 0.555816 0.000000 0.723769
O O16 0.637015 0.805634 0.500000
O O17 0.637715 0.687689 0.280758
O O18 0.231950 0.365359 0.500000
O O19 0.219306 0.500000 0.686909
O O20 0.284302 0.382736 0.718261
O O21 0.866193 0.000000 0.204001
O O22 0.882407 0.879237 0.000000
O O23 0.332653 0.597688 0.500000
O O24 0.350079 0.500000 0.724191
#
# Coordination Sequence:
#
# PCOD8193551 Si02
#       8
#     8   8   8   8   8   8   8   8
#     4   8  14  25  40  58  81 109 143 184 224 254
#     4  10  19  30  43  60  85 116 146 174 206 248
#     4  10  20  31  41  57  86 118 140 166 208 248
#     4   8  14  24  38  59  85 107 130 168 214 250
#     4  10  17  27  46  65  79 103 143 178 202 243
#     4   9  17  30  46  62  82 108 138 174 217 257
#     4   9  17  28  41  58  83 117 152 179 207 249
#     4   8  14  25  41  61  83 104 128 166 215 253
#
# _framework density 15.212172000000001
#
# number of rings (size 3 to 8) (size 9 to 14) (size 15 to 20)
#    0.000    3.000    1.250    2.250    0.000    3.250 
#    0.000    1.250    0.000    3.375    0.000    4.375 
#    0.000    0.500    0.000    6.625    0.000    5.625 
#
# Total GULP energy -793222.766127 kJ/mol
# GULP energy per Si atom -12394.105721 kJ/mol
# Density = 1.517755 g / cm^3
# Si number density = 15.212172 Si / 1000 Ang^3
#
#
#
# Elastic Constant Matrix: (Units=GPa)
#
#
# Indices 1 2 3 4 5 6 
#
# 1 121.1005 52.2431 39.7880 0.0000 0.0000 0.0000
# 2 52.2431 88.3900 30.5077 0.0000 0.0000 0.0000
# 3 39.7880 30.5077 33.5162 0.0000 0.0000 0.0000
# 4 0.0000 0.0000 0.0000 19.6268 0.0000 0.0000
# 5 0.0000 0.0000 0.0000 0.0000 18.5313 0.0000
# 6 0.0000 0.0000 0.0000 0.0000 0.0000 8.9912
#
#
#
# Elastic Compliance Matrix: (Units=1/GPa)
#
#
# Indices 1 2 3 4 5 6 
#
# 1 0.014362 -0.003797 -0.013593 0.000000 0.000000 0.000000
# 2 -0.003797 0.017500 -0.011422 0.000000 0.000000 0.000000
# 3 -0.013593 -0.011422 0.056369 0.000000 0.000000 0.000000
# 4 0.000000 0.000000 0.000000 0.050951 0.000000 0.000000
# 5 0.000000 0.000000 0.000000 0.000000 0.053963 0.000000
# 6 0.000000 0.000000 0.000000 0.000000 0.000000 0.111219
#
#
# Mechanical properties :
#
#
# Convention : Reuss Voigt Hill
#
# Bulk Modulus (GPa) = 32.67143 54.23157 43.45150
# Shear Modulus (GPa) = 13.43403 17.46107 15.44755
#
# Velocity S-wave (km/s) = 2.97494 3.39165 3.19011
# Velocity P-wave (km/s) = 5.77271 7.14599 6.49574
#
# Compressibility (1/GPa) = 0.03060779
#
# Stress axis : x y z
#
# Youngs Moduli (GPa) = 69.63020 57.14353 17.74012
#
# Poissons Ratio (x) = 0.21696 0.24114
# Poissons Ratio (y) = 0.26437 0.20262
# Poissons Ratio (z) = 0.94648 0.65267
#
# Static dielectric constant tensor:
#      x y z
#    x 3.108570 0.000000 0.000000 
#    y 0.000000 3.022520 0.000000 
#    z 0.000000 0.000000 2.705210 
# 
# 
# High freq. dielectric constant tensor:
#      x y z
#    x 1.574130 0.000000 0.000000 
#    y 0.000000 1.566520 0.000000 
#    z 0.000000 0.000000 1.559100 
# 
# From -- ./inp_files/14313.got.cif
#   From: 2010.03.12/outbox.cif.g09.slc.cpg/sg47_8_cif.got.tgz:14313.got - 2010.04.14 03:12:58.
