data_PCOD8193505
_publ_section_title
;
Structure prediction by ZEFSAII (Michael W. Deem and Ramdas Pophale) SiO2 
 PCOD8193505
Probable space group: P M M M
;
_chemical_formula_sum "Si O2"
_cell_formula_units_Z 52
_cell_length_a 9.274199
_cell_length_b 28.147016
_cell_length_c 11.962930
_cell_angle_alpha 90.000000
_cell_angle_beta 90.000000
_cell_angle_gamma 90.000000
_cell_volume 3122.815541
_symmetry_space_group_name_H-M "P M M M"
_symmetry_group_IT_number 47
_symmetry_cell_setting 'orthorhombic'
loop_
_space_group_symop_operation_xyz
x,y,z
-x,-y,z
x,-y,-z
-x,y,-z
-x,-y,-z
x,y,-z
-x,y,z
x,-y,z
loop_
_atom_site_type_symbol
_atom_site_label
_atom_site_fract_x
_atom_site_fract_y
_atom_site_fract_z
Si Si1 0.171080 0.633991 0.243031
Si Si2 0.828674 0.726884 0.373941
Si Si3 0.656449 0.000000 0.868415
Si Si4 0.828776 0.344461 0.000000
Si Si5 0.829424 0.187884 0.221025
Si Si6 0.327689 0.897118 0.128717
Si Si7 0.664697 0.554077 0.370086
Si Si8 0.829422 0.760165 0.000000
O O1 0.230271 0.682505 0.300773
O O2 0.223305 0.630140 0.113887
O O3 0.230035 0.587794 0.302952
O O4 0.000000 0.633281 0.251868
O O5 0.767412 0.723078 0.500000
O O6 0.780576 0.777753 0.322624
O O7 0.000000 0.724711 0.373501
O O8 0.733177 0.050077 0.837267
O O9 0.500000 0.000000 0.809674
O O10 0.632685 0.000000 0.000000
O O11 0.761092 0.292015 0.000000
O O12 0.000000 0.341166 0.000000
O O13 0.745699 0.137854 0.219385
O O14 0.775492 0.213323 0.109185
O O15 0.000000 0.178334 0.223442
O O16 0.500000 0.895072 0.140215
O O17 0.282688 0.885146 0.000000
O O18 0.697867 0.560724 0.500000
O O19 0.500000 0.567620 0.343682
O O20 0.695737 0.500000 0.333759
O O21 0.000000 0.756185 0.000000
#
# Coordination Sequence:
#
# PCOD8193505 Si02
#       8
#     8   8   4   4   8   8   8   4
#     4  10  18  30  51  75  96 120 154 192 225 264
#     4   9  17  28  44  68  94 119 149 184 222 264
#     4   7  12  24  39  55  80 115 146 172 215 270
#     4   9  16  28  46  70  98 127 152 181 224 271
#     4  10  17  26  43  64  88 118 149 179 215 262
#     4   9  16  26  41  61  86 115 146 180 218 263
#     4   9  19  36  54  70  92 123 155 189 234 280
#     4   9  14  24  41  61  87 121 151 171 208 265
#
# _framework density 16.65164
#
# number of rings (size 3 to 8) (size 9 to 14) (size 15 to 20)
#    0.000    2.846    2.308    1.846    0.000    1.231 
#    0.000    2.692    0.000    6.000    0.000    0.538 
#    0.000    4.308    0.000    0.000    0.000    0.000 
#
# Total GULP energy -644274.332434 kJ/mol
# GULP energy per Si atom -12389.891008 kJ/mol
# Density = 1.661374 g / cm^3
# Si number density = 16.651640 Si / 1000 Ang^3
#
#
#
# Elastic Constant Matrix: (Units=GPa)
#
#
# Indices 1 2 3 4 5 6 
#
# 1 22.0309 30.0850 22.1515 0.0000 0.0000 0.0000
# 2 30.0850 127.0717 57.2212 0.0000 0.0000 0.0000
# 3 22.1515 57.2212 99.6319 0.0000 0.0000 0.0000
# 4 0.0000 0.0000 0.0000 21.7356 0.0000 0.0000
# 5 0.0000 0.0000 0.0000 0.0000 14.3616 0.0000
# 6 0.0000 0.0000 0.0000 0.0000 0.0000 10.4734
#
#
#
# Elastic Compliance Matrix: (Units=1/GPa)
#
#
# Indices 1 2 3 4 5 6 
#
# 1 0.071912 -0.013254 -0.008377 0.000000 0.000000 0.000000
# 2 -0.013254 0.013058 -0.004553 0.000000 0.000000 0.000000
# 3 -0.008377 -0.004553 0.014514 0.000000 0.000000 0.000000
# 4 0.000000 0.000000 0.000000 0.046007 0.000000 0.000000
# 5 0.000000 0.000000 0.000000 0.000000 0.069630 0.000000
# 6 0.000000 0.000000 0.000000 0.000000 0.000000 0.095480
#
#
# Mechanical properties :
#
#
# Convention : Reuss Voigt Hill
#
# Bulk Modulus (GPa) = 21.22320 51.96110 36.59215
# Shear Modulus (GPa) = 13.20399 18.59923 15.90161
#
# Velocity S-wave (km/s) = 2.81900 3.34572 3.09359
# Velocity P-wave (km/s) = 4.83412 6.79689 5.89773
#
# Compressibility (1/GPa) = 0.04711824
#
# Stress axis : x y z
#
# Youngs Moduli (GPa) = 13.90582 76.58433 68.89908
#
# Poissons Ratio (x) = 1.01502 0.57714
# Poissons Ratio (y) = 0.18430 0.31367
# Poissons Ratio (z) = 0.11648 0.34865
#
# Static dielectric constant tensor:
#      x y z
#    x 2.680870 0.000000 0.000000 
#    y 0.000000 3.334020 0.000000 
#    z 0.000000 0.000000 3.150000 
# 
# 
# High freq. dielectric constant tensor:
#      x y z
#    x 1.596520 0.000000 0.000000 
#    y 0.000000 1.651580 0.000000 
#    z 0.000000 0.000000 1.620260 
# 
# From -- ./inp_files/15714.got.cif
#   From: 2010.03.12/outbox.cif.g09.slc.cpg/sg47_8_cif.got.tgz:15714.got - 2010.04.14 03:12:58.
