data_PCOD8193638
_publ_section_title
;
Structure prediction by ZEFSAII (Michael W. Deem and Ramdas Pophale) SiO2 
 PCOD8193638
Probable space group: P M M M
;
_chemical_formula_sum "Si O2"
_cell_formula_units_Z 64
_cell_length_a 20.360240
_cell_length_b 20.217580
_cell_length_c 9.090080
_cell_angle_alpha 90.000000
_cell_angle_beta 90.000000
_cell_angle_gamma 90.000000
_cell_volume 3741.793090
_symmetry_space_group_name_H-M "P M M M"
_symmetry_group_IT_number 47
_symmetry_cell_setting 'orthorhombic'
loop_
_space_group_symop_operation_xyz
x,y,z
-x,-y,z
x,-y,-z
-x,y,-z
-x,-y,-z
x,y,-z
-x,y,z
x,-y,z
loop_
_atom_site_type_symbol
_atom_site_label
_atom_site_fract_x
_atom_site_fract_y
_atom_site_fract_z
Si Si1 0.887325 0.426523 0.670412
Si Si2 0.759147 0.603127 0.833779
Si Si3 0.928038 0.298746 0.827160
Si Si4 0.335612 0.190434 0.824216
Si Si5 0.573407 0.708709 0.330989
Si Si6 0.205195 0.753051 0.165330
Si Si7 0.368881 0.572454 0.665791
Si Si8 0.573622 0.926176 0.174883
O O1 0.887073 0.406790 0.500000
O O2 0.918208 0.500000 0.692593
O O3 0.813405 0.428469 0.728999
O O4 0.929164 0.371393 0.755947
O O5 0.760595 0.682165 0.825536
O O6 0.689576 0.577448 0.781130
O O7 0.771372 0.578900 0.000000
O O8 0.868410 0.252606 0.761320
O O9 0.000000 0.265986 0.799508
O O10 0.914357 0.309313 0.000000
O O11 0.375986 0.253688 0.772220
O O12 0.259462 0.196266 0.764225
O O13 0.371374 0.124308 0.762617
O O14 0.334869 0.191545 0.000000
O O15 0.588975 0.726468 0.500000
O O16 0.500000 0.730656 0.288546
O O17 0.578485 0.629944 0.303123
O O18 0.193613 0.777244 0.000000
O O19 0.340835 0.580588 0.500000
O O20 0.402383 0.500000 0.684531
O O21 0.500000 0.906538 0.229464
O O22 0.591108 0.000000 0.231143
O O23 0.574507 0.924558 0.000000
#
# Coordination Sequence:
#
# PCOD8193638 Si02
#       8
#     8   8   8   8   8   8   8   8
#     4  10  20  31  43  61  85 111 141 178 222 277
#     4  10  18  30  46  64  85 108 139 184 232 276
#     4   9  18  32  47  62  84 113 143 180 227 276
#     4  10  17  29  50  71  91 117 151 190 227 265
#     4  10  21  34  46  63  88 116 149 190 232 276
#     4   8  15  27  44  66  86 105 138 182 221 260
#     4  10  20  32  45  60  80 109 146 188 236 284
#     4   8  14  24  40  67 100 128 153 182 220 267
#
# _framework density 17.104098
#
# number of rings (size 3 to 8) (size 9 to 14) (size 15 to 20)
#    0.000    2.625    1.250    2.625    0.000    4.250 
#    0.000    2.500    0.000    0.375    0.000    3.500 
#    0.000    0.500    0.000    7.000    0.000    0.000 
#
# Total GULP energy -792837.373567 kJ/mol
# GULP energy per Si atom -12388.083962 kJ/mol
# Density = 1.706517 g / cm^3
# Si number density = 17.104098 Si / 1000 Ang^3
#
#
#
# Elastic Constant Matrix: (Units=GPa)
#
#
# Indices 1 2 3 4 5 6 
#
# 1 130.4448 55.7971 19.7967 0.0000 0.0000 0.0000
# 2 55.7971 78.9424 14.1523 0.0000 0.0000 0.0000
# 3 19.7967 14.1523 31.5378 0.0000 0.0000 0.0000
# 4 0.0000 0.0000 0.0000 9.1795 0.0000 0.0000
# 5 0.0000 0.0000 0.0000 0.0000 15.4646 0.0000
# 6 0.0000 0.0000 0.0000 0.0000 0.0000 17.0491
#
#
#
# Elastic Compliance Matrix: (Units=1/GPa)
#
#
# Indices 1 2 3 4 5 6 
#
# 1 0.011403 -0.007369 -0.003851 0.000000 0.000000 0.000000
# 2 -0.007369 0.018538 -0.003693 0.000000 0.000000 0.000000
# 3 -0.003851 -0.003693 0.035782 0.000000 0.000000 0.000000
# 4 0.000000 0.000000 0.000000 0.108939 0.000000 0.000000
# 5 0.000000 0.000000 0.000000 0.000000 0.064664 0.000000
# 6 0.000000 0.000000 0.000000 0.000000 0.000000 0.058654
#
#
# Mechanical properties :
#
#
# Convention : Reuss Voigt Hill
#
# Bulk Modulus (GPa) = 27.85737 46.71300 37.28519
# Shear Modulus (GPa) = 14.71579 18.41723 16.56651
#
# Velocity S-wave (km/s) = 2.93638 3.28498 3.11556
# Velocity P-wave (km/s) = 5.27435 6.46208 5.89819
#
# Compressibility (1/GPa) = 0.03589715
#
# Stress axis : x y z
#
# Youngs Moduli (GPa) = 87.69956 53.94309 27.94673
#
# Poissons Ratio (x) = 0.39751 0.10762
# Poissons Ratio (y) = 0.64627 0.10321
# Poissons Ratio (z) = 0.33771 0.19922
#
# Static dielectric constant tensor:
#      x y z
#    x 3.398870 0.000000 0.000000 
#    y 0.000000 3.164710 0.000000 
#    z 0.000000 0.000000 2.979650 
# 
# 
# High freq. dielectric constant tensor:
#      x y z
#    x 1.659690 0.000000 0.000000 
#    y 0.000000 1.623870 0.000000 
#    z 0.000000 0.000000 1.635090 
# 
# From -- ./inp_files/11821.got.cif
#   From: 2010.03.12/outbox.cif.g09.slc.cpg/sg47_6_cif.got.tgz:11821.got - 2010.04.14 03:12:58.
