data_PCOD8193651
_publ_section_title
;
Structure prediction by ZEFSAII (Michael W. Deem and Ramdas Pophale) SiO2 
 PCOD8193651
Probable space group: P M M M
;
_chemical_formula_sum "Si O2"
_cell_formula_units_Z 48
_cell_length_a 14.685422
_cell_length_b 8.598119
_cell_length_c 20.790022
_cell_angle_alpha 90.000000
_cell_angle_beta 90.000000
_cell_angle_gamma 90.000000
_cell_volume 2625.093831
_symmetry_space_group_name_H-M "P M M M"
_symmetry_group_IT_number 47
_symmetry_cell_setting 'orthorhombic'
loop_
_space_group_symop_operation_xyz
x,y,z
-x,-y,z
x,-y,-z
-x,y,-z
-x,-y,-z
x,y,-z
-x,y,z
x,-y,z
loop_
_atom_site_type_symbol
_atom_site_label
_atom_site_fract_x
_atom_site_fract_y
_atom_site_fract_z
Si Si1 0.901409 0.815133 0.764928
Si Si2 0.395233 0.682038 0.310441
Si Si3 0.098524 0.815484 0.619699
Si Si4 0.710510 0.182177 0.572560
Si Si5 0.288022 0.815423 0.809202
Si Si6 0.602354 0.185039 0.070883
O O1 0.889188 0.753906 0.692357
O O2 0.816132 0.751610 0.806394
O O3 0.000000 0.757759 0.792446
O O4 0.899333 0.000000 0.764657
O O5 0.500000 0.734960 0.308658
O O6 0.384882 0.500000 0.299301
O O7 0.355039 0.725874 0.379775
O O8 0.342545 0.769403 0.254164
O O9 0.184859 0.756677 0.578698
O O10 0.000000 0.755219 0.592560
O O11 0.096812 0.000000 0.619062
O O12 0.677547 0.214959 0.500000
O O13 0.705325 0.000000 0.589528
O O14 0.333302 0.743640 0.873587
O O15 0.288850 0.000000 0.812899
O O16 0.500000 0.245852 0.083186
O O17 0.603263 0.000000 0.073870
O O18 0.635925 0.240117 0.000000
#
# Coordination Sequence:
#
# PCOD8193651 Si02
#       6
#     8   8   8   8   8   8
#     4   8  13  22  41  70  98 121 149 190 237 279
#     4  11  24  38  50  67  94 126 158 196 244 292
#     4   8  13  24  44  71 100 122 144 184 237 284
#     4  10  20  34  53  75  95 119 158 202 236 275
#     4  10  17  29  53  76  94 123 163 201 232 271
#     4   8  14  24  40  68 102 128 154 194 242 283
#
# _framework density 18.285060000000001
#
# number of rings (size 3 to 8) (size 9 to 14) (size 15 to 20)
#    0.000    2.833    1.667    2.500    0.000    3.000 
#    0.000    3.333    0.000    3.000    0.000    7.000 
#    0.000    0.000    0.000    1.500    0.000    1.833 
#
# Total GULP energy -594744.162345 kJ/mol
# GULP energy per Si atom -12390.503382 kJ/mol
# Density = 1.824344 g / cm^3
# Si number density = 18.285060 Si / 1000 Ang^3
#
#
#
# Elastic Constant Matrix: (Units=GPa)
#
#
# Indices 1 2 3 4 5 6 
#
# 1 142.4883 8.5316 63.1078 0.0000 0.0000 0.0000
# 2 8.5316 7.5520 3.0433 0.0000 0.0000 0.0000
# 3 63.1078 3.0433 109.2284 0.0000 0.0000 0.0000
# 4 0.0000 0.0000 0.0000 4.3375 0.0000 0.0000
# 5 0.0000 0.0000 0.0000 0.0000 33.0830 0.0000
# 6 0.0000 0.0000 0.0000 0.0000 0.0000 7.2638
#
#
#
# Elastic Compliance Matrix: (Units=1/GPa)
#
#
# Indices 1 2 3 4 5 6 
#
# 1 0.010012 -0.009081 -0.005531 0.000000 0.000000 0.000000
# 2 -0.009081 0.142156 0.001286 0.000000 0.000000 0.000000
# 3 -0.005531 0.001286 0.012315 0.000000 0.000000 0.000000
# 4 0.000000 0.000000 0.000000 0.230546 0.000000 0.000000
# 5 0.000000 0.000000 0.000000 0.000000 0.030227 0.000000
# 6 0.000000 0.000000 0.000000 0.000000 0.000000 0.137669
#
#
# Mechanical properties :
#
#
# Convention : Reuss Voigt Hill
#
# Bulk Modulus (GPa) = 7.25531 45.40379 26.32955
# Shear Modulus (GPa) = 7.86756 21.24260 14.55508
#
# Velocity S-wave (km/s) = 2.07655 3.41214 2.82442
# Velocity P-wave (km/s) = 3.11864 6.35677 5.00672
#
# Compressibility (1/GPa) = 0.13783003
#
# Stress axis : x y z
#
# Youngs Moduli (GPa) = 99.88308 7.03451 81.20119
#
# Poissons Ratio (x) = 0.06388 0.44915
# Poissons Ratio (y) = 0.90708 -0.10444
# Poissons Ratio (z) = 0.55249 -0.00905
#
# Static dielectric constant tensor:
#      x y z
#    x 3.974760 0.000000 0.000000 
#    y 0.000000 2.803890 0.000000 
#    z 0.000000 0.000000 3.461100 
# 
# 
# High freq. dielectric constant tensor:
#      x y z
#    x 1.723290 0.000000 0.000000 
#    y 0.000000 1.650460 0.000000 
#    z 0.000000 0.000000 1.693980 
# 
# From -- ./inp_files/6788.got.cif
#   From: 2010.03.12/outbox.cif.g09.slc.cpg/sg47_4_cif.got.tgz:6788.got - 2010.04.14 03:12:58.
