data_PCOD8193871
_publ_section_title
;
Structure prediction by ZEFSAII (Michael W. Deem and Ramdas Pophale) SiO2 
 PCOD8193871
Probable space group: P M M M
;
_chemical_formula_sum "Si O2"
_cell_formula_units_Z 52
_cell_length_a 9.367758
_cell_length_b 24.428594
_cell_length_c 13.445234
_cell_angle_alpha 90.000000
_cell_angle_beta 90.000000
_cell_angle_gamma 90.000000
_cell_volume 3076.822903
_symmetry_space_group_name_H-M "P M M M"
_symmetry_group_IT_number 47
_symmetry_cell_setting 'orthorhombic'
loop_
_space_group_symop_operation_xyz
x,y,z
-x,-y,z
x,-y,-z
-x,y,-z
-x,-y,-z
x,y,-z
-x,y,z
x,-y,z
loop_
_atom_site_type_symbol
_atom_site_label
_atom_site_fract_x
_atom_site_fract_y
_atom_site_fract_z
Si Si1 0.162402 0.272346 0.610945
Si Si2 0.341436 0.248684 0.885633
Si Si3 0.329267 0.061782 0.000000
Si Si4 0.664742 0.563032 0.885689
Si Si5 0.332168 0.837472 0.609813
Si Si6 0.668193 0.132857 0.182258
Si Si7 0.833218 0.342371 0.796236
O O1 0.187020 0.295024 0.500000
O O2 0.261745 0.220752 0.632492
O O3 0.199428 0.322260 0.684317
O O4 0.000000 0.252566 0.626850
O O5 0.500000 0.262787 0.843295
O O6 0.275720 0.194437 0.835136
O O7 0.235259 0.299054 0.871687
O O8 0.354234 0.234357 0.000000
O O9 0.267308 0.090672 0.100869
O O10 0.500000 0.062451 0.000000
O O11 0.270976 0.000000 0.000000
O O12 0.500000 0.578522 0.868886
O O13 0.692367 0.500000 0.858935
O O14 0.761987 0.598675 0.812368
O O15 0.706955 0.574665 0.000000
O O16 0.284262 0.860042 0.500000
O O17 0.500000 0.826987 0.610607
O O18 0.292716 0.879765 0.700680
O O19 0.500000 0.131848 0.165508
O O20 0.000000 0.347133 0.818879
#
# Coordination Sequence:
#
# PCOD8193871 Si02
#       7
#     8   8   4   8   8   8   8
#     4   9  18  31  44  62  93 126 153 184 225 277
#     4  10  18  28  43  63  91 124 151 181 227 280
#     4   9  16  26  42  64  91 127 166 197 228 271
#     4   9  19  36  54  69  88 120 159 191 223 270
#     4   9  16  26  43  65  88 117 152 191 235 280
#     4   9  15  25  40  61  89 118 152 192 228 269
#     4  11  21  30  45  70  96 120 150 188 233 279
#
# _framework density 16.900549999999999
#
# number of rings (size 3 to 8) (size 9 to 14) (size 15 to 20)
#    0.000    2.538    2.308    1.385    0.000    3.385 
#    0.000    0.769    0.000    0.923    0.000    6.462 
#    0.000    4.923    0.000    3.846    0.000    4.000 
#
# Total GULP energy -644355.523395 kJ/mol
# GULP energy per Si atom -12391.452373 kJ/mol
# Density = 1.686208 g / cm^3
# Si number density = 16.900550 Si / 1000 Ang^3
#
#
#
# Elastic Constant Matrix: (Units=GPa)
#
#
# Indices 1 2 3 4 5 6 
#
# 1 43.6495 26.9754 33.4394 0.0000 0.0000 0.0000
# 2 26.9754 79.7394 57.3687 0.0000 0.0000 0.0000
# 3 33.4394 57.3687 136.0847 0.0000 0.0000 0.0000
# 4 0.0000 0.0000 0.0000 18.6448 0.0000 0.0000
# 5 0.0000 0.0000 0.0000 0.0000 19.1452 0.0000
# 6 0.0000 0.0000 0.0000 0.0000 0.0000 5.0896
#
#
#
# Elastic Compliance Matrix: (Units=1/GPa)
#
#
# Indices 1 2 3 4 5 6 
#
# 1 0.030819 -0.007144 -0.004561 0.000000 0.000000 0.000000
# 2 -0.007144 0.019656 -0.006531 0.000000 0.000000 0.000000
# 3 -0.004561 -0.006531 0.011222 0.000000 0.000000 0.000000
# 4 0.000000 0.000000 0.000000 0.053634 0.000000 0.000000
# 5 0.000000 0.000000 0.000000 0.000000 0.052232 0.000000
# 6 0.000000 0.000000 0.000000 0.000000 0.000000 0.196478
#
#
# Mechanical properties :
#
#
# Convention : Reuss Voigt Hill
#
# Bulk Modulus (GPa) = 39.64321 55.00452 47.32386
# Shear Modulus (GPa) = 12.22719 18.02193 15.12456
#
# Velocity S-wave (km/s) = 2.69267 3.26905 2.99476
# Velocity P-wave (km/s) = 5.75977 6.84584 6.32616
#
# Compressibility (1/GPa) = 0.02522500
#
# Stress axis : x y z
#
# Youngs Moduli (GPa) = 32.44721 50.87382 89.10747
#
# Poissons Ratio (x) = 0.36346 0.40644
# Poissons Ratio (y) = 0.23182 0.58196
# Poissons Ratio (z) = 0.14800 0.33225
#
# Static dielectric constant tensor:
#      x y z
#    x 2.974480 0.000000 0.000000 
#    y 0.000000 2.967510 0.000000 
#    z 0.000000 0.000000 3.526310 
# 
# 
# High freq. dielectric constant tensor:
#      x y z
#    x 1.626220 0.000000 0.000000 
#    y 0.000000 1.618970 0.000000 
#    z 0.000000 0.000000 1.664300 
# 
# From -- ./inp_files/21788.got.cif
#   From: 2010.03.12/outbox.cif.g09.slc.cpg/sg47_11_cif.got.tgz:21788.got - 2010.04.14 03:12:58.
