data_PCOD8193852
_publ_section_title
;
Structure prediction by ZEFSAII (Michael W. Deem and Ramdas Pophale) SiO2 
 PCOD8193852
Probable space group: P M M M
;
_chemical_formula_sum "Si O2"
_cell_formula_units_Z 40
_cell_length_a 15.437905
_cell_length_b 9.261409
_cell_length_c 19.440517
_cell_angle_alpha 90.000000
_cell_angle_beta 90.000000
_cell_angle_gamma 90.000000
_cell_volume 2779.541984
_symmetry_space_group_name_H-M "P M M M"
_symmetry_group_IT_number 47
_symmetry_cell_setting 'orthorhombic'
loop_
_space_group_symop_operation_xyz
x,y,z
-x,-y,z
x,-y,-z
-x,y,-z
-x,-y,-z
x,y,-z
-x,y,z
x,-y,z
loop_
_atom_site_type_symbol
_atom_site_label
_atom_site_fract_x
_atom_site_fract_y
_atom_site_fract_z
Si Si1 0.837203 0.829907 0.336579
Si Si2 0.500000 0.662714 0.418263
Si Si3 0.897251 0.838170 0.075685
Si Si4 0.332807 0.832189 0.420768
Si Si5 0.000000 0.828596 0.423554
Si Si6 0.898766 0.669136 0.207188
O O1 0.748836 0.789011 0.374700
O O2 0.915162 0.773433 0.384249
O O3 0.841340 0.746677 0.264769
O O4 0.844992 0.000000 0.322489
O O5 0.500000 0.500000 0.389636
O O6 0.500000 0.666552 0.500000
O O7 0.414315 0.743470 0.391514
O O8 0.864457 0.727471 0.133711
O O9 0.000000 0.836776 0.073993
O O10 0.864517 0.000000 0.093180
O O11 0.862301 0.790942 0.000000
O O12 0.311696 0.793132 0.500000
O O13 0.355516 0.000000 0.413910
O O14 0.000000 0.761603 0.500000
O O15 0.000000 0.000000 0.428232
O O16 0.881708 0.500000 0.210041
O O17 0.000000 0.706929 0.218296
#
# Coordination Sequence:
#
# PCOD8193852 Si02
#       6
#     8   4   8   8   4   8
#     4  10  18  28  43  60  79 107 140 175 211 245
#     4   9  17  29  45  63  81 103 128 159 208 265
#     4   8  14  25  41  58  74  96 131 172 208 242
#     4   9  17  29  45  64  82 101 132 175 217 253
#     4   9  16  26  41  59  76  99 138 181 211 238
#     4  10  19  28  38  54  80 111 140 170 204 244
#
# _framework density 14.39086
#
# number of rings (size 3 to 8) (size 9 to 14) (size 15 to 20)
#    0.000    2.800    1.000    2.100    0.000    5.600 
#    0.000    2.000    0.000    2.400    0.000    0.000 
#    0.000    0.000    0.000    0.900    0.000   17.400 
#
# Total GULP energy -495908.522792 kJ/mol
# GULP energy per Si atom -12397.713070 kJ/mol
# Density = 1.435811 g / cm^3
# Si number density = 14.390860 Si / 1000 Ang^3
#
#
#
# Elastic Constant Matrix: (Units=GPa)
#
#
# Indices 1 2 3 4 5 6 
#
# 1 89.0481 45.2553 46.2580 0.0000 0.0000 0.0000
# 2 45.2553 67.1259 50.3689 0.0000 0.0000 0.0000
# 3 46.2580 50.3689 109.3507 0.0000 0.0000 0.0000
# 4 0.0000 0.0000 0.0000 14.5612 0.0000 0.0000
# 5 0.0000 0.0000 0.0000 0.0000 6.7790 0.0000
# 6 0.0000 0.0000 0.0000 0.0000 0.0000 13.9352
#
#
#
# Elastic Compliance Matrix: (Units=1/GPa)
#
#
# Indices 1 2 3 4 5 6 
#
# 1 0.017723 -0.009663 -0.003047 0.000000 0.000000 0.000000
# 2 -0.009663 0.028034 -0.008825 0.000000 0.000000 0.000000
# 3 -0.003047 -0.008825 0.014499 0.000000 0.000000 0.000000
# 4 0.000000 0.000000 0.000000 0.068676 0.000000 0.000000
# 5 0.000000 0.000000 0.000000 0.000000 0.147515 0.000000
# 6 0.000000 0.000000 0.000000 0.000000 0.000000 0.071761
#
#
# Mechanical properties :
#
#
# Convention : Reuss Voigt Hill
#
# Bulk Modulus (GPa) = 58.18437 61.03211 59.60824
# Shear Modulus (GPa) = 12.59426 15.29790 13.94608
#
# Velocity S-wave (km/s) = 2.96151 3.26395 3.11640
# Velocity P-wave (km/s) = 7.22588 7.53040 7.37971
#
# Compressibility (1/GPa) = 0.01718675
#
# Stress axis : x y z
#
# Youngs Moduli (GPa) = 56.42329 35.67072 68.97120
#
# Poissons Ratio (x) = 0.34468 0.21012
# Poissons Ratio (y) = 0.54520 0.60870
# Poissons Ratio (z) = 0.17189 0.31481
#
# Static dielectric constant tensor:
#      x y z
#    x 2.571080 0.000000 0.000000 
#    y 0.000000 2.760710 0.000000 
#    z 0.000000 0.000000 2.921810 
# 
# 
# High freq. dielectric constant tensor:
#      x y z
#    x 1.510130 0.000000 0.000000 
#    y 0.000000 1.545250 0.000000 
#    z 0.000000 0.000000 1.541380 
# 
# From -- ./inp_files/6636.got.cif
#   From: 2010.03.12/outbox.cif.g09.slc.cpg/sg47_4_cif.got.tgz:6636.got - 2010.04.14 03:12:58.
