data_PCOD8193278
_publ_section_title
;
Structure prediction by ZEFSAII (Michael W. Deem and Ramdas Pophale) SiO2 
 PCOD8193278
Probable space group: I M A 2
;
_chemical_formula_sum "Si O2"
_cell_formula_units_Z 40
_cell_length_a 10.265925
_cell_length_b 10.815190
_cell_length_c 17.601533
_cell_angle_alpha 90.000000
_cell_angle_beta 90.000000
_cell_angle_gamma 90.000000
_cell_volume 1954.261763
_symmetry_space_group_name_H-M "I M A 2"
_symmetry_group_IT_number 46
_symmetry_cell_setting 'orthorhombic'
loop_
_space_group_symop_operation_xyz
x,y,z
-x,-y,z
1/2-x,y,z
1/2+x,-y,z
1/2+x,1/2+y,1/2+z
1/2-x,1/2-y,1/2+z
-x,1/2+y,1/2+z
x,1/2-y,1/2+z
loop_
_atom_site_type_symbol
_atom_site_label
_atom_site_fract_x
_atom_site_fract_y
_atom_site_fract_z
Si Si1 0.250000 0.888081 0.701200
Si Si2 0.500000 0.500000 0.814400
Si Si3 0.750000 0.796452 0.957499
Si Si4 0.498669 0.733793 0.722052
Si Si5 0.750000 0.645976 0.285821
Si Si6 0.494139 0.355147 0.557284
Si Si7 0.750000 0.523098 0.915527
Si Si8 0.250000 0.703356 0.031808
O O1 0.380147 0.827454 0.733672
O O2 0.250000 0.875707 0.609777
O O3 0.250000 0.025379 0.733445
O O4 0.450918 0.607950 0.759668
O O5 0.621583 0.534354 0.865757
O O6 0.750000 0.867433 0.876662
O O7 0.750000 0.648163 0.963922
O O8 0.879989 0.840319 0.997858
O O9 0.622741 0.777704 0.767374
O O10 0.538338 0.716511 0.634705
O O11 0.500000 0.500000 0.575420
O O12 0.626705 0.295062 0.524161
O O13 0.750000 0.398237 0.965227
#
# Coordination Sequence:
#
# PCOD8193278 Si02
#       8
#     4   4   4   8   4   8   4   4
#     4  10  25  44  68  99 128 175 220 268 330 385
#     4  12  22  44  70  96 126 168 220 276 322 386
#     4  12  26  43  65  97 132 178 214 266 338 388
#     4  11  23  44  71  96 126 170 224 271 327 384
#     4  12  25  45  63  99 136 170 219 268 328 399
#     4  11  24  45  68  96 130 173 222 271 325 390
#     4  12  25  43  65  97 138 165 220 270 326 390
#     4  10  25  43  69  98 132 174 221 270 328 386
#
# _framework density 20.468088000000002
#
# number of rings (size 3 to 8) (size 9 to 14) (size 15 to 20)
#    0.000    0.800    3.000    3.600    2.800    1.600 
#    3.600    0.000    0.000    0.000    0.000    0.000 
#    0.000    0.000    0.000    0.000    0.000    0.000 
#
# Total GULP energy -247996.754755 kJ/mol
# GULP energy per Si atom -12399.837738 kJ/mol
# Density = 2.042150 g / cm^3
# Si number density = 20.468088 Si / 1000 Ang^3
#
#
#
# Elastic Constant Matrix: (Units=GPa)
#
#
# Indices 1 2 3 4 5 6 
#
# 1 133.8176 9.5695 43.4349 0.0000 0.0000 0.0000
# 2 9.5695 91.8067 15.1251 0.0000 0.0000 0.0000
# 3 43.4349 15.1251 87.9775 0.0000 0.0000 0.0000
# 4 0.0000 0.0000 0.0000 40.8690 0.0000 0.0000
# 5 0.0000 0.0000 0.0000 0.0000 78.4808 0.0000
# 6 0.0000 0.0000 0.0000 0.0000 0.0000 34.8123
#
#
#
# Elastic Compliance Matrix: (Units=1/GPa)
#
#
# Indices 1 2 3 4 5 6 
#
# 1 0.008903 -0.000210 -0.004359 0.000000 0.000000 0.000000
# 2 -0.000210 0.011215 -0.001824 0.000000 0.000000 0.000000
# 3 -0.004359 -0.001824 0.013832 0.000000 0.000000 0.000000
# 4 0.000000 0.000000 0.000000 0.024468 0.000000 0.000000
# 5 0.000000 0.000000 0.000000 0.000000 0.012742 0.000000
# 6 0.000000 0.000000 0.000000 0.000000 0.000000 0.028725
#
#
# Mechanical properties :
#
#
# Convention : Reuss Voigt Hill
#
# Bulk Modulus (GPa) = 47.25236 49.98454 48.61845
# Shear Modulus (GPa) = 41.76152 47.19725 44.47938
#
# Velocity S-wave (km/s) = 4.52189 4.80718 4.66672
# Velocity P-wave (km/s) = 7.09925 7.43544 7.26929
#
# Compressibility (1/GPa) = 0.02116296
#
# Stress axis : x y z
#
# Youngs Moduli (GPa) = 112.32411 89.16710 72.29401
#
# Poissons Ratio (x) = 0.01871 0.31515
# Poissons Ratio (y) = 0.02357 0.13190
# Poissons Ratio (z) = 0.48965 0.16268
#
# Static dielectric constant tensor:
#      x y z
#    x 3.754730 0.000000 0.000000 
#    y 0.000000 3.872410 0.000000 
#    z 0.000000 0.000000 3.740620 
# 
# 
# High freq. dielectric constant tensor:
#      x y z
#    x 1.819690 0.000000 0.000000 
#    y 0.000000 1.812060 0.000000 
#    z 0.000000 0.000000 1.807490 
# 
# From -- ./inp_files/18017.got.cif
#   From: 2010.03.12/outbox.cif.g09.slc.cpg/sg46_10_cif.got.tgz:18017.got - 2010.04.14 02:56:35.
