data_PCOD8193355
_publ_section_title
;
Structure prediction by ZEFSAII (Michael W. Deem and Ramdas Pophale) SiO2 
 PCOD8193355
Probable space group: I M A 2
;
_chemical_formula_sum "Si O2"
_cell_formula_units_Z 48
_cell_length_a 20.836464
_cell_length_b 10.756798
_cell_length_c 8.880822
_cell_angle_alpha 90.000000
_cell_angle_beta 90.000000
_cell_angle_gamma 90.000000
_cell_volume 1990.490910
_symmetry_space_group_name_H-M "I M A 2"
_symmetry_group_IT_number 46
_symmetry_cell_setting 'orthorhombic'
loop_
_space_group_symop_operation_xyz
x,y,z
-x,-y,z
1/2-x,y,z
1/2+x,-y,z
1/2+x,1/2+y,1/2+z
1/2-x,1/2-y,1/2+z
-x,1/2+y,1/2+z
x,1/2-y,1/2+z
loop_
_atom_site_type_symbol
_atom_site_label
_atom_site_fract_x
_atom_site_fract_y
_atom_site_fract_z
Si Si1 0.128596 0.097907 0.000000
Si Si2 0.571498 0.194155 0.625050
Si Si3 0.516600 0.767544 0.889280
Si Si4 0.388746 0.041312 0.467687
Si Si5 0.672869 0.111506 0.195371
Si Si6 0.320862 0.202378 0.693251
O O1 0.054978 0.109503 0.945656
O O2 0.169561 0.152363 0.861289
O O3 0.134915 0.178726 0.154783
O O4 0.152819 0.960168 0.040861
O O5 0.505460 0.213289 0.718518
O O6 0.552120 0.261958 0.470545
O O7 0.637461 0.254642 0.688517
O O8 0.579145 0.048806 0.591248
O O9 0.559170 0.641362 0.907652
O O10 0.331569 0.103194 0.561449
O O11 0.355701 0.962516 0.336173
O O12 0.750000 0.129416 0.206468
O O13 0.250000 0.254870 0.681021
#
# Coordination Sequence:
#
# PCOD8193355 Si02
#       6
#     8   8   8   8   8   8
#     4  11  24  42  70 107 143 192 245 313 368 434
#     4  12  26  46  71 105 140 192 235 303 365 451
#     4  11  24  46  73 104 143 180 252 308 376 427
#     4  11  25  47  72 103 140 196 248 312 373 436
#     4  12  27  47  71 105 150 199 244 295 374 455
#     4  11  22  40  68 102 143 190 246 305 368 434
#
# _framework density 24.114654000000002
#
# number of rings (size 3 to 8) (size 9 to 14) (size 15 to 20)
#    0.000    0.667    1.667    7.500    2.333    3.333 
#    0.000    0.000    0.000    0.000    0.000    0.000 
#    0.000    0.000    0.000    0.000    0.000    0.000 
#
# Total GULP energy -297385.905234 kJ/mol
# GULP energy per Si atom -12391.079385 kJ/mol
# Density = 2.405977 g / cm^3
# Si number density = 24.114654 Si / 1000 Ang^3
#
#
#
# Elastic Constant Matrix: (Units=GPa)
#
#
# Indices 1 2 3 4 5 6 
#
# 1 144.1762 49.9303 23.1177 0.0000 0.0000 0.0000
# 2 49.9303 58.5524 43.8466 0.0000 0.0000 0.0000
# 3 23.1177 43.8466 73.0454 0.0000 0.0000 0.0000
# 4 0.0000 0.0000 0.0000 40.9434 0.0000 0.0000
# 5 0.0000 0.0000 0.0000 0.0000 32.7900 0.0000
# 6 0.0000 0.0000 0.0000 0.0000 0.0000 27.4603
#
#
#
# Elastic Compliance Matrix: (Units=1/GPa)
#
#
# Indices 1 2 3 4 5 6 
#
# 1 0.010359 -0.011587 0.003677 0.000000 0.000000 0.000000
# 2 -0.011587 0.043985 -0.022735 0.000000 0.000000 0.000000
# 3 0.003677 -0.022735 0.026174 0.000000 0.000000 0.000000
# 4 0.000000 0.000000 0.000000 0.024424 0.000000 0.000000
# 5 0.000000 0.000000 0.000000 0.000000 0.030497 0.000000
# 6 0.000000 0.000000 0.000000 0.000000 0.000000 0.036416
#
#
# Mechanical properties :
#
#
# Convention : Reuss Voigt Hill
#
# Bulk Modulus (GPa) = 52.01199 56.61814 54.31506
# Shear Modulus (GPa) = 20.87201 30.83069 25.85135
#
# Velocity S-wave (km/s) = 2.94518 3.57950 3.27772
# Velocity P-wave (km/s) = 5.76029 6.37287 6.07431
#
# Compressibility (1/GPa) = 0.01922634
#
# Stress axis : x y z
#
# Youngs Moduli (GPa) = 96.53262 22.73510 38.20627
#
# Poissons Ratio (x) = 0.26343 -0.14048
# Poissons Ratio (y) = 1.11854 0.86864
# Poissons Ratio (z) = -0.35493 0.51689
#
# Static dielectric constant tensor:
#      x y z
#    x 4.287970 0.000000 0.000000 
#    y 0.000000 4.470870 0.000000 
#    z 0.000000 0.000000 4.547660 
# 
# 
# High freq. dielectric constant tensor:
#      x y z
#    x 1.957230 0.000000 0.000000 
#    y 0.000000 1.942080 0.000000 
#    z 0.000000 0.000000 1.979660 
# 
# From -- ./inp_files/7813.got.cif
#   From: 2010.03.12/outbox.cif.g09.slc.cpg/sg46_4_cif.got.tgz:7813.got - 2010.04.14 02:56:35.
