data_PCOD8193486
_publ_section_title
;
Structure prediction by ZEFSAII (Michael W. Deem and Ramdas Pophale) SiO2 
 PCOD8193486
Probable space group: P M M M
;
_chemical_formula_sum "Si O2"
_cell_formula_units_Z 56
_cell_length_a 18.980993
_cell_length_b 14.448537
_cell_length_c 13.640410
_cell_angle_alpha 90.000000
_cell_angle_beta 90.000000
_cell_angle_gamma 90.000000
_cell_volume 3740.849428
_symmetry_space_group_name_H-M "P M M M"
_symmetry_group_IT_number 47
_symmetry_cell_setting 'orthorhombic'
loop_
_space_group_symop_operation_xyz
x,y,z
-x,-y,z
x,-y,-z
-x,y,-z
-x,-y,-z
x,y,-z
-x,y,z
x,-y,z
loop_
_atom_site_type_symbol
_atom_site_label
_atom_site_fract_x
_atom_site_fract_y
_atom_site_fract_z
Si Si1 0.131719 0.899921 0.616252
Si Si2 0.712235 0.390830 0.107321
Si Si3 0.421029 0.608472 0.224702
Si Si4 0.658150 0.706918 0.386501
Si Si5 0.710270 0.899344 0.616236
Si Si6 0.079313 0.706055 0.614861
Si Si7 0.789337 0.390501 0.700633
O O1 0.133261 0.901781 0.500000
O O2 0.210711 0.886712 0.657800
O O3 0.085125 0.812905 0.651056
O O4 0.101566 0.000000 0.653512
O O5 0.711814 0.500000 0.097032
O O6 0.634588 0.357861 0.142708
O O7 0.770868 0.361211 0.187129
O O8 0.728249 0.346487 0.000000
O O9 0.500000 0.633568 0.190060
O O10 0.412543 0.500000 0.244366
O O11 0.404247 0.658434 0.327117
O O12 0.637680 0.701932 0.500000
O O13 0.662780 0.813555 0.348000
O O14 0.733497 0.657128 0.371855
O O15 0.714488 0.895825 0.500000
O O16 0.679767 0.000000 0.650399
O O17 0.097918 0.697398 0.500000
O O18 0.131893 0.641827 0.676299
O O19 0.000000 0.671835 0.635723
O O20 0.783502 0.500000 0.686251
#
# Coordination Sequence:
#
# PCOD8193486 Si02
#       7
#     8   8   8   8   8   8   8
#     4   8  13  23  38  55  77 105 138 176 213 242
#     4   8  15  29  48  65  78  98 130 170 217 255
#     4   9  18  29  40  61  90 113 136 164 194 238
#     4  10  17  26  41  58  81 115 147 171 199 233
#     4   8  13  22  38  57  75 100 138 180 213 237
#     4  10  19  28  38  56  85 119 148 171 199 237
#     4  10  19  29  41  58  81 108 142 179 205 235
#
# _framework density 14.969863
#
# number of rings (size 3 to 8) (size 9 to 14) (size 15 to 20)
#    0.000    3.000    1.429    2.571    0.000    3.143 
#    0.000    4.286    0.000    0.857    0.000    4.000 
#    0.000   14.286    0.000    6.429    0.000    0.714 
#
# Total GULP energy -693836.292539 kJ/mol
# GULP energy per Si atom -12389.933795 kJ/mol
# Density = 1.493579 g / cm^3
# Si number density = 14.969863 Si / 1000 Ang^3
#
#
#
# Elastic Constant Matrix: (Units=GPa)
#
#
# Indices 1 2 3 4 5 6 
#
# 1 74.9497 26.7206 30.5079 0.0000 0.0000 0.0000
# 2 26.7206 69.2977 21.4313 0.0000 0.0000 0.0000
# 3 30.5079 21.4313 66.2883 0.0000 0.0000 0.0000
# 4 0.0000 0.0000 0.0000 1.2882 0.0000 0.0000
# 5 0.0000 0.0000 0.0000 0.0000 12.1429 0.0000
# 6 0.0000 0.0000 0.0000 0.0000 0.0000 20.1793
#
#
#
# Elastic Compliance Matrix: (Units=1/GPa)
#
#
# Indices 1 2 3 4 5 6 
#
# 1 0.017745 -0.004796 -0.006616 0.000000 0.000000 0.000000
# 2 -0.004796 0.017330 -0.003395 0.000000 0.000000 0.000000
# 3 -0.006616 -0.003395 0.019228 0.000000 0.000000 0.000000
# 4 0.000000 0.000000 0.000000 0.776292 0.000000 0.000000
# 5 0.000000 0.000000 0.000000 0.000000 0.082353 0.000000
# 6 0.000000 0.000000 0.000000 0.000000 0.000000 0.049556
#
#
# Mechanical properties :
#
#
# Convention : Reuss Voigt Hill
#
# Bulk Modulus (GPa) = 40.50605 40.87281 40.68943
# Shear Modulus (GPa) = 4.99825 15.51380 10.25603
#
# Velocity S-wave (km/s) = 1.82924 3.22271 2.62030
# Velocity P-wave (km/s) = 5.61949 6.41954 6.03279
#
# Compressibility (1/GPa) = 0.02468767
#
# Stress axis : x y z
#
# Youngs Moduli (GPa) = 56.35285 57.70347 52.00641
#
# Poissons Ratio (x) = 0.27676 0.34409
# Poissons Ratio (y) = 0.27028 0.17659
# Poissons Ratio (z) = 0.37285 0.19593
#
# Static dielectric constant tensor:
#      x y z
#    x 2.797600 0.000000 0.000000 
#    y 0.000000 3.146810 0.000000 
#    z 0.000000 0.000000 2.735180 
# 
# 
# High freq. dielectric constant tensor:
#      x y z
#    x 1.559180 0.000000 0.000000 
#    y 0.000000 1.570360 0.000000 
#    z 0.000000 0.000000 1.525250 
# 
# From -- ./inp_files/24703.got.cif
#   From: 2010.03.12/outbox.cif.g09.slc.cpg/sg47_13_cif.got.tgz:24703.got - 2010.04.14 03:12:58.
