data_PCOD8193554
_publ_section_title
;
Structure prediction by ZEFSAII (Michael W. Deem and Ramdas Pophale) SiO2 
 PCOD8193554
Probable space group: P M M M
;
_chemical_formula_sum "Si O2"
_cell_formula_units_Z 64
_cell_length_a 9.514879
_cell_length_b 20.900364
_cell_length_c 19.718446
_cell_angle_alpha 90.000000
_cell_angle_beta 90.000000
_cell_angle_gamma 90.000000
_cell_volume 3921.297613
_symmetry_space_group_name_H-M "P M M M"
_symmetry_group_IT_number 47
_symmetry_cell_setting 'orthorhombic'
loop_
_space_group_symop_operation_xyz
x,y,z
-x,-y,z
x,-y,-z
-x,y,-z
-x,-y,-z
x,y,-z
-x,y,z
x,-y,z
loop_
_atom_site_type_symbol
_atom_site_label
_atom_site_fract_x
_atom_site_fract_y
_atom_site_fract_z
Si Si1 0.838600 0.620550 0.077023
Si Si2 0.333127 0.312550 0.284596
Si Si3 0.667101 0.929453 0.711673
Si Si4 0.333159 0.189134 0.800400
Si Si5 0.837536 0.231403 0.922893
Si Si6 0.667057 0.874380 0.573638
Si Si7 0.662793 0.428445 0.195521
Si Si8 0.332801 0.270433 0.426421
O O1 0.797598 0.694491 0.086103
O O2 0.742546 0.577260 0.124531
O O3 0.000000 0.609475 0.097049
O O4 0.811777 0.598742 0.000000
O O5 0.500000 0.312917 0.286282
O O6 0.281997 0.250156 0.243384
O O7 0.275860 0.377266 0.249499
O O8 0.274276 0.310715 0.362114
O O9 0.500000 0.926854 0.709162
O O10 0.720312 0.875453 0.763618
O O11 0.727342 0.916069 0.635871
O O12 0.719276 0.000000 0.734717
O O13 0.500000 0.189639 0.810556
O O14 0.260033 0.189790 0.873670
O O15 0.000000 0.220067 0.904469
O O16 0.807716 0.209649 0.000000
O O17 0.717043 0.901581 0.500000
O O18 0.500000 0.874587 0.576412
O O19 0.721359 0.801940 0.582119
O O20 0.500000 0.414198 0.181119
O O21 0.684710 0.500000 0.224687
O O22 0.281083 0.297888 0.500000
O O23 0.500000 0.270980 0.424893
#
# Coordination Sequence:
#
# PCOD8193554 Si02
#       8
#     8   8   8   8   8   8   8   8
#     4   9  18  32  48  66  89 116 144 175 215 263
#     4   9  15  25  40  59  84 114 148 183 216 254
#     4   9  16  24  35  57  90 121 147 180 220 258
#     4  10  17  27  46  68  88 116 150 180 215 261
#     4   9  18  32  49  69  91 112 139 181 226 261
#     4   8  12  18  29  49  81 119 151 174 206 257
#     4  10  20  31  43  62  89 120 150 182 219 255
#     4   8  12  19  34  55  80 112 148 182 215 254
#
# _framework density 16.321128000000002
#
# number of rings (size 3 to 8) (size 9 to 14) (size 15 to 20)
#    0.000    3.000    2.500    1.500    0.000    1.250 
#    0.000    3.750    0.000    1.125    0.000    5.250 
#    0.000    3.500    0.000    2.250    0.000    2.500 
#
# Total GULP energy -793076.730163 kJ/mol
# GULP energy per Si atom -12391.823909 kJ/mol
# Density = 1.628398 g / cm^3
# Si number density = 16.321128 Si / 1000 Ang^3
#
#
#
# Elastic Constant Matrix: (Units=GPa)
#
#
# Indices 1 2 3 4 5 6 
#
# 1 20.6897 21.3020 28.5416 0.0000 0.0000 0.0000
# 2 21.3020 106.2589 64.9680 0.0000 0.0000 0.0000
# 3 28.5416 64.9680 126.3258 0.0000 0.0000 0.0000
# 4 0.0000 0.0000 0.0000 24.0884 0.0000 0.0000
# 5 0.0000 0.0000 0.0000 0.0000 1.2544 0.0000
# 6 0.0000 0.0000 0.0000 0.0000 0.0000 9.8174
#
#
#
# Elastic Compliance Matrix: (Units=1/GPa)
#
#
# Indices 1 2 3 4 5 6 
#
# 1 0.073320 -0.006666 -0.013137 0.000000 0.000000 0.000000
# 2 -0.006666 0.014334 -0.005865 0.000000 0.000000 0.000000
# 3 -0.013137 -0.005865 0.013901 0.000000 0.000000 0.000000
# 4 0.000000 0.000000 0.000000 0.041514 0.000000 0.000000
# 5 0.000000 0.000000 0.000000 0.000000 0.797220 0.000000
# 6 0.000000 0.000000 0.000000 0.000000 0.000000 0.101860
#
#
# Mechanical properties :
#
#
# Convention : Reuss Voigt Hill
#
# Bulk Modulus (GPa) = 19.91393 53.65528 36.78461
# Shear Modulus (GPa) = 4.50360 16.26289 10.38324
#
# Velocity S-wave (km/s) = 1.66294 3.16005 2.52501
# Velocity P-wave (km/s) = 3.98935 6.80152 5.57565
#
# Compressibility (1/GPa) = 0.05021610
#
# Stress axis : x y z
#
# Youngs Moduli (GPa) = 13.63891 69.76617 71.93865
#
# Poissons Ratio (x) = 0.46508 0.94507
# Poissons Ratio (y) = 0.09092 0.42195
# Poissons Ratio (z) = 0.17918 0.40921
#
# Static dielectric constant tensor:
#      x y z
#    x 2.543280 0.000000 0.000000 
#    y 0.000000 3.082160 0.000000 
#    z 0.000000 0.000000 3.379360 
# 
# 
# High freq. dielectric constant tensor:
#      x y z
#    x 1.568940 0.000000 0.000000 
#    y 0.000000 1.609280 0.000000 
#    z 0.000000 0.000000 1.636860 
# 
# From -- ./inp_files/18786.got.cif
#   From: 2010.03.12/outbox.cif.g09.slc.cpg/sg47_10_cif.got.tgz:18786.got - 2010.04.14 03:12:58.
