data_PCOD8193998
_publ_section_title
;
Structure prediction by ZEFSAII (Michael W. Deem and Ramdas Pophale) SiO2 
 PCOD8193998
Probable space group: P M M M
;
_chemical_formula_sum "Si O2"
_cell_formula_units_Z 52
_cell_length_a 17.947541
_cell_length_b 26.406005
_cell_length_c 8.479023
_cell_angle_alpha 90.000000
_cell_angle_beta 90.000000
_cell_angle_gamma 90.000000
_cell_volume 4018.402808
_symmetry_space_group_name_H-M "P M M M"
_symmetry_group_IT_number 47
_symmetry_cell_setting 'orthorhombic'
loop_
_space_group_symop_operation_xyz
x,y,z
-x,-y,z
x,-y,-z
-x,y,-z
-x,-y,-z
x,y,-z
-x,y,z
x,-y,z
loop_
_atom_site_type_symbol
_atom_site_label
_atom_site_fract_x
_atom_site_fract_y
_atom_site_fract_z
Si Si1 0.088289 0.000000 0.320915
Si Si2 0.166773 0.597827 0.319599
Si Si3 0.911613 0.896839 0.178579
Si Si4 0.917078 0.309386 0.183568
Si Si5 0.670083 0.440537 0.319686
Si Si6 0.416627 0.440136 0.000000
Si Si7 0.911683 0.205581 0.323795
Si Si8 0.084627 0.500000 0.687977
O O1 0.122609 0.050931 0.245410
O O2 0.112497 0.000000 0.500000
O O3 0.000000 0.000000 0.296997
O O4 0.142733 0.602159 0.500000
O O5 0.141800 0.649112 0.237308
O O6 0.254773 0.591248 0.300364
O O7 0.124594 0.549817 0.242054
O O8 0.877075 0.847348 0.262892
O O9 0.000000 0.897919 0.201084
O O10 0.887096 0.892691 0.000000
O O11 0.884185 0.254051 0.225266
O O12 0.000000 0.317326 0.260559
O O13 0.925878 0.313299 0.000000
O O14 0.636888 0.430332 0.500000
O O15 0.688164 0.500000 0.306256
O O16 0.620193 0.422851 0.168495
O O17 0.418419 0.500000 0.000000
O O18 0.500000 0.417588 0.000000
O O19 0.883616 0.214036 0.500000
O O20 0.000000 0.201329 0.310879
O O21 0.092049 0.500000 0.500000
O O22 0.000000 0.500000 0.746259
#
# Coordination Sequence:
#
# PCOD8193998 Si02
#       8
#     4   8   8   8   8   4   8   4
#     4   9  15  21  29  43  61  79 101 127 157 205
#     4  10  18  29  43  57  72  95 123 150 185 225
#     4   9  15  22  32  45  61  79  99 128 169 214
#     4  10  20  30  38  51  70  91 119 156 192 224
#     4   9  17  30  46  63  83 105 125 146 177 219
#     4   9  18  30  46  68  86 102 122 142 170 211
#     4   9  16  26  38  48  59  80 109 141 178 218
#     4   9  16  26  41  57  71  90 120 155 188 224
#
# _framework density 12.940465
#
# number of rings (size 3 to 8) (size 9 to 14) (size 15 to 20)
#    0.000    2.692    0.769    2.077    1.077    6.462 
#    0.000    1.923    0.000    1.385    0.000    0.000 
#    0.000    0.000    0.000    0.000    0.000    0.000 
#
# Total GULP energy -644300.201495 kJ/mol
# GULP energy per Si atom -12390.388490 kJ/mol
# Density = 1.291101 g / cm^3
# Si number density = 12.940465 Si / 1000 Ang^3
#
#
#
# Elastic Constant Matrix: (Units=GPa)
#
#
# Indices 1 2 3 4 5 6 
#
# 1 37.5801 24.5859 27.8768 0.0000 0.0000 0.0000
# 2 24.5859 87.6253 39.7488 0.0000 0.0000 0.0000
# 3 27.8768 39.7488 64.7301 0.0000 0.0000 0.0000
# 4 0.0000 0.0000 0.0000 16.9056 0.0000 0.0000
# 5 0.0000 0.0000 0.0000 0.0000 12.4706 0.0000
# 6 0.0000 0.0000 0.0000 0.0000 0.0000 2.4782
#
#
#
# Elastic Compliance Matrix: (Units=1/GPa)
#
#
# Indices 1 2 3 4 5 6 
#
# 1 0.040498 -0.004784 -0.014503 0.000000 0.000000 0.000000
# 2 -0.004784 0.016384 -0.008000 0.000000 0.000000 0.000000
# 3 -0.014503 -0.008000 0.026608 0.000000 0.000000 0.000000
# 4 0.000000 0.000000 0.000000 0.059152 0.000000 0.000000
# 5 0.000000 0.000000 0.000000 0.000000 0.080189 0.000000
# 6 0.000000 0.000000 0.000000 0.000000 0.000000 0.403513
#
#
# Mechanical properties :
#
#
# Convention : Reuss Voigt Hill
#
# Bulk Modulus (GPa) = 34.58533 41.59537 38.09035
# Shear Modulus (GPa) = 7.24053 12.88582 10.06318
#
# Velocity S-wave (km/s) = 2.36800 3.15902 2.79167
# Velocity P-wave (km/s) = 5.85330 6.74680 6.31587
#
# Compressibility (1/GPa) = 0.02891400
#
# Stress axis : x y z
#
# Youngs Moduli (GPa) = 24.69250 61.03635 37.58318
#
# Poissons Ratio (x) = 0.29199 0.54508
# Poissons Ratio (y) = 0.11813 0.30068
# Poissons Ratio (z) = 0.35812 0.48832
#
# Static dielectric constant tensor:
#      x y z
#    x 2.208620 0.000000 0.000000 
#    y 0.000000 2.782230 0.000000 
#    z 0.000000 0.000000 2.753650 
# 
# 
# High freq. dielectric constant tensor:
#      x y z
#    x 1.420290 0.000000 0.000000 
#    y 0.000000 1.487250 0.000000 
#    z 0.000000 0.000000 1.505550 
# 
# From -- ./inp_files/7702.got.cif
#   From: 2010.03.12/outbox.cif.g09.slc.cpg/sg47_4_cif.got.tgz:7702.got - 2010.04.14 03:12:58.
