data_PCOD8193222
_publ_section_title
;
Structure prediction by ZEFSAII (Michael W. Deem and Ramdas Pophale) SiO2 
 PCOD8193222
Probable space group: I M A 2
;
_chemical_formula_sum "Si O2"
_cell_formula_units_Z 64
_cell_length_a 8.545132
_cell_length_b 15.378274
_cell_length_c 23.535731
_cell_angle_alpha 90.000000
_cell_angle_beta 90.000000
_cell_angle_gamma 90.000000
_cell_volume 3092.815848
_symmetry_space_group_name_H-M "I M A 2"
_symmetry_group_IT_number 46
_symmetry_cell_setting 'orthorhombic'
loop_
_space_group_symop_operation_xyz
x,y,z
-x,-y,z
1/2-x,y,z
1/2+x,-y,z
1/2+x,1/2+y,1/2+z
1/2-x,1/2-y,1/2+z
-x,1/2+y,1/2+z
x,1/2-y,1/2+z
loop_
_atom_site_type_symbol
_atom_site_label
_atom_site_fract_x
_atom_site_fract_y
_atom_site_fract_z
Si Si1 0.433533 0.090719 0.819660
Si Si2 0.066968 0.250670 0.516940
Si Si3 0.066809 0.650743 0.206661
Si Si4 0.565976 0.406796 0.082928
Si Si5 0.567240 0.591502 0.591995
Si Si6 0.932475 0.662058 0.713105
Si Si7 0.066692 0.910946 0.324874
Si Si8 0.931751 0.258453 0.395478
O O1 0.250000 0.097195 0.831460
O O2 0.469196 0.096146 0.752599
O O3 0.522603 0.168675 0.850325
O O4 0.500000 0.000000 0.843763
O O5 0.250000 0.240164 0.527791
O O6 0.997392 0.330437 0.553876
O O7 0.984918 0.161773 0.535458
O O8 0.034076 0.270590 0.451491
O O9 0.250000 0.631238 0.214824
O O10 0.003574 0.621808 0.144962
O O11 0.037789 0.752420 0.215414
O O12 0.500000 0.500000 0.065384
O O13 0.750000 0.412071 0.083787
O O14 0.500000 0.500000 0.571009
O O15 0.750000 0.587513 0.582358
O O16 0.522123 0.607783 0.657309
O O17 0.750000 0.688376 0.713129
O O18 0.972770 0.602933 0.766634
O O19 0.250000 0.917178 0.311758
O O20 0.028996 0.835075 0.369158
O O21 0.000000 0.000000 0.351882
O O22 0.750000 0.266922 0.410835
#
# Coordination Sequence:
#
# PCOD8193222 Si02
#       8
#     8   8   8   8   8   8   8   8
#     4  12  25  42  67  96 129 169 211 260 318 379
#     4  11  24  44  66  91 125 166 215 265 316 373
#     4  11  22  38  63  96 131 168 208 256 317 382
#     4  11  24  41  65  95 128 168 210 259 318 378
#     4  10  23  40  62  93 126 164 206 254 309 370
#     4  11  21  37  63  94 129 167 205 252 315 378
#     4  11  24  41  64  93 128 164 208 258 313 377
#     4  11  25  45  66  92 126 166 215 266 316 375
#
# _framework density 20.693117000000001
#
# number of rings (size 3 to 8) (size 9 to 14) (size 15 to 20)
#    0.000    1.000    2.500    4.125    0.000    8.000 
#    0.000    2.500    0.000    0.000    0.000    0.000 
#    0.000    0.000    0.000    0.000    0.000    0.000 
#
# Total GULP energy -397043.974478 kJ/mol
# GULP energy per Si atom -12407.624202 kJ/mol
# Density = 2.064602 g / cm^3
# Si number density = 20.693117 Si / 1000 Ang^3
#
#
#
# Elastic Constant Matrix: (Units=GPa)
#
#
# Indices 1 2 3 4 5 6 
#
# 1 56.8240 37.2293 27.8002 0.0000 0.0000 0.0000
# 2 37.2293 137.0268 19.6823 0.0000 0.0000 0.0000
# 3 27.8002 19.6823 82.9258 0.0000 0.0000 0.0000
# 4 0.0000 0.0000 0.0000 11.8340 0.0000 0.0000
# 5 0.0000 0.0000 0.0000 0.0000 31.8095 0.0000
# 6 0.0000 0.0000 0.0000 0.0000 0.0000 37.4711
#
#
#
# Elastic Compliance Matrix: (Units=1/GPa)
#
#
# Indices 1 2 3 4 5 6 
#
# 1 0.024743 -0.005726 -0.006936 0.000000 0.000000 0.000000
# 2 -0.005726 0.008881 -0.000188 0.000000 0.000000 0.000000
# 3 -0.006936 -0.000188 0.014429 0.000000 0.000000 0.000000
# 4 0.000000 0.000000 0.000000 0.084502 0.000000 0.000000
# 5 0.000000 0.000000 0.000000 0.000000 0.031437 0.000000
# 6 0.000000 0.000000 0.000000 0.000000 0.000000 0.026687
#
#
# Mechanical properties :
#
#
# Convention : Reuss Voigt Hill
#
# Bulk Modulus (GPa) = 44.73845 49.57779 47.15812
# Shear Modulus (GPa) = 22.33835 29.02724 25.68279
#
# Velocity S-wave (km/s) = 3.28915 3.74939 3.52679
# Velocity P-wave (km/s) = 6.00763 6.53869 6.27878
#
# Compressibility (1/GPa) = 0.02235214
#
# Stress axis : x y z
#
# Youngs Moduli (GPa) = 40.41532 112.60426 69.30585
#
# Poissons Ratio (x) = 0.64480 0.48069
# Poissons Ratio (y) = 0.23143 0.01304
# Poissons Ratio (z) = 0.28031 0.02118
#
# Static dielectric constant tensor:
#      x y z
#    x 3.688250 0.000000 0.000000 
#    y 0.000000 3.859190 0.000000 
#    z 0.000000 0.000000 3.709550 
# 
# 
# High freq. dielectric constant tensor:
#      x y z
#    x 1.814510 0.000000 0.000000 
#    y 0.000000 1.824660 0.000000 
#    z 0.000000 0.000000 1.805140 
# 
# From -- ./inp_files/23183.got.cif
#   From: 2010.03.12/outbox.cif.g09.slc.cpg/sg46_12_cif.got.tgz:23183.got - 2010.04.14 02:56:35.
