data_PCOD8193813
_publ_section_title
;
Structure prediction by ZEFSAII (Michael W. Deem and Ramdas Pophale) SiO2 
 PCOD8193813
Probable space group: P M M M
;
_chemical_formula_sum "Si O2"
_cell_formula_units_Z 64
_cell_length_a 8.973124
_cell_length_b 23.591403
_cell_length_c 18.924236
_cell_angle_alpha 90.000000
_cell_angle_beta 90.000000
_cell_angle_gamma 90.000000
_cell_volume 4006.044731
_symmetry_space_group_name_H-M "P M M M"
_symmetry_group_IT_number 47
_symmetry_cell_setting 'orthorhombic'
loop_
_space_group_symop_operation_xyz
x,y,z
-x,-y,z
x,-y,-z
-x,y,-z
-x,-y,-z
x,y,-z
-x,y,z
x,-y,z
loop_
_atom_site_type_symbol
_atom_site_label
_atom_site_fract_x
_atom_site_fract_y
_atom_site_fract_z
Si Si1 0.673358 0.762129 0.579511
Si Si2 0.676875 0.437450 0.921028
Si Si3 0.828253 0.881934 0.579319
Si Si4 0.676644 0.328527 0.840026
Si Si5 0.830095 0.843055 0.209489
Si Si6 0.671403 0.935755 0.294466
Si Si7 0.827616 0.726205 0.288264
Si Si8 0.172311 0.770440 0.080612
O O1 0.701850 0.739541 0.500000
O O2 0.500000 0.764302 0.597798
O O3 0.737477 0.824627 0.588447
O O4 0.754620 0.720133 0.634274
O O5 0.500000 0.435221 0.923832
O O6 0.729942 0.500000 0.895463
O O7 0.734855 0.389622 0.867169
O O8 0.739130 0.425495 0.000000
O O9 0.810760 0.906350 0.500000
O O10 0.765478 0.927702 0.633895
O O11 0.000000 0.868762 0.597125
O O12 0.500000 0.325908 0.832052
O O13 0.750099 0.318239 0.764043
O O14 0.726104 0.282242 0.897597
O O15 0.725111 0.894656 0.231844
O O16 0.801287 0.789830 0.260624
O O17 0.790301 0.824901 0.129283
O O18 0.000000 0.863662 0.215564
O O19 0.500000 0.922674 0.311358
O O20 0.694203 0.000000 0.268370
O O21 0.000000 0.710528 0.293015
O O22 0.000000 0.752963 0.092973
O O23 0.205112 0.787370 0.000000
#
# Coordination Sequence:
#
# PCOD8193813 Si02
#       8
#     8   8   8   8   8   8   8   8
#     4  10  19  30  47  70  94 120 150 186 227 271
#     4   8  14  25  41  63  94 131 168 203 235 268
#     4  10  20  33  49  68  90 118 150 182 219 269
#     4  10  18  27  44  70  97 125 160 199 233 268
#     4   9  18  32  49  67  86 113 147 181 222 277
#     4  11  23  35  48  66  88 115 148 189 232 272
#     4  10  19  31  47  67  93 124 155 188 229 275
#     4   9  18  32  49  69  94 120 145 182 233 283
#
# _framework density 15.975857
#
# number of rings (size 3 to 8) (size 9 to 14) (size 15 to 20)
#    0.000    2.375    1.250    3.375    0.000    5.500 
#    0.000    1.250    0.000    1.875    0.000    7.000 
#    0.000    0.500    0.000    5.750    0.000    1.625 
#
# Total GULP energy -793539.398182 kJ/mol
# GULP energy per Si atom -12399.053097 kJ/mol
# Density = 1.593950 g / cm^3
# Si number density = 15.975857 Si / 1000 Ang^3
#
#
#
# Elastic Constant Matrix: (Units=GPa)
#
#
# Indices 1 2 3 4 5 6 
#
# 1 83.6946 42.3465 53.9797 0.0000 0.0000 0.0000
# 2 42.3465 89.4929 57.4472 0.0000 0.0000 0.0000
# 3 53.9797 57.4472 121.4020 0.0000 0.0000 0.0000
# 4 0.0000 0.0000 0.0000 25.1455 0.0000 0.0000
# 5 0.0000 0.0000 0.0000 0.0000 24.9357 0.0000
# 6 0.0000 0.0000 0.0000 0.0000 0.0000 6.6826
#
#
#
# Elastic Compliance Matrix: (Units=1/GPa)
#
#
# Indices 1 2 3 4 5 6 
#
# 1 0.018128 -0.004889 -0.005747 0.000000 0.000000 0.000000
# 2 -0.004889 0.017367 -0.006044 0.000000 0.000000 0.000000
# 3 -0.005747 -0.006044 0.013653 0.000000 0.000000 0.000000
# 4 0.000000 0.000000 0.000000 0.039769 0.000000 0.000000
# 5 0.000000 0.000000 0.000000 0.000000 0.040103 0.000000
# 6 0.000000 0.000000 0.000000 0.000000 0.000000 0.149643
#
#
# Mechanical properties :
#
#
# Convention : Reuss Voigt Hill
#
# Bulk Modulus (GPa) = 63.34072 66.90404 65.12238
# Shear Modulus (GPa) = 15.75859 20.74049 18.24954
#
# Velocity S-wave (km/s) = 3.14411 3.60702 3.38349
# Velocity P-wave (km/s) = 7.27423 7.70173 7.49103
#
# Compressibility (1/GPa) = 0.01578763
#
# Stress axis : x y z
#
# Youngs Moduli (GPa) = 55.16178 57.57891 73.24546
#
# Poissons Ratio (x) = 0.28150 0.42095
# Poissons Ratio (y) = 0.26968 0.44273
# Poissons Ratio (z) = 0.31702 0.34803
#
# Static dielectric constant tensor:
#      x y z
#    x 3.051550 0.000000 0.000000 
#    y 0.000000 2.859670 0.000000 
#    z 0.000000 0.000000 3.204640 
# 
# 
# High freq. dielectric constant tensor:
#      x y z
#    x 1.618000 0.000000 0.000000 
#    y 0.000000 1.576820 0.000000 
#    z 0.000000 0.000000 1.614880 
# 
# From -- ./inp_files/10198.got.cif
#   From: 2010.03.12/outbox.cif.g09.slc.cpg/sg47_6_cif.got.tgz:10198.got - 2010.04.14 03:12:58.
