data_PCOD8193373
_publ_section_title
;
Structure prediction by ZEFSAII (Michael W. Deem and Ramdas Pophale) SiO2 
 PCOD8193373
Probable space group: I M A 2
;
_chemical_formula_sum "Si O2"
_cell_formula_units_Z 48
_cell_length_a 16.447560
_cell_length_b 9.555037
_cell_length_c 13.830987
_cell_angle_alpha 90.000000
_cell_angle_beta 90.000000
_cell_angle_gamma 90.000000
_cell_volume 2173.637037
_symmetry_space_group_name_H-M "I M A 2"
_symmetry_group_IT_number 46
_symmetry_cell_setting 'orthorhombic'
loop_
_space_group_symop_operation_xyz
x,y,z
-x,-y,z
1/2-x,y,z
1/2+x,-y,z
1/2+x,1/2+y,1/2+z
1/2-x,1/2-y,1/2+z
-x,1/2+y,1/2+z
x,1/2-y,1/2+z
loop_
_atom_site_type_symbol
_atom_site_label
_atom_site_fract_x
_atom_site_fract_y
_atom_site_fract_z
Si Si1 0.906793 0.182752 0.168820
Si Si2 0.157417 0.936221 0.769687
Si Si3 0.343041 0.070632 0.275308
Si Si4 0.914427 0.691704 0.166070
Si Si5 0.844160 0.716954 0.970850
Si Si6 0.404903 0.971120 0.970219
O O1 0.844762 0.306441 0.195873
O O2 0.996294 0.245569 0.175371
O O3 0.899330 0.060976 0.248784
O O4 0.883261 0.122576 0.063584
O O5 0.250000 0.991676 0.775306
O O6 0.097215 0.059089 0.735107
O O7 0.124714 0.887405 0.875039
O O8 0.250000 0.020791 0.282724
O O9 0.350203 0.186909 0.191672
O O10 0.375305 0.142264 0.373497
O O11 0.896194 0.646053 0.056298
O O12 0.750000 0.683902 0.986536
O O13 0.857199 0.882981 0.968769
O O14 0.500000 0.000000 0.969749
#
# Coordination Sequence:
#
# PCOD8193373 Si02
#       6
#     8   8   8   8   8   8
#     4  12  26  45  70 105 143 182 233 297 355 410
#     4  12  28  46  71 103 142 188 234 293 356 419
#     4  11  23  41  69 102 137 181 234 286 343 416
#     4  12  23  45  69 101 137 184 239 283 349 423
#     4  11  23  40  71 104 138 185 237 288 344 419
#     4  12  23  45  70 104 138 183 238 284 357 420
#
# _framework density 22.082805
#
# number of rings (size 3 to 8) (size 9 to 14) (size 15 to 20)
#    0.000    0.333    5.000    4.500    0.000    3.333 
#    0.000    1.667    0.000    0.000    0.000    0.000 
#    0.000    0.000    0.000    0.000    0.000    0.000 
#
# Total GULP energy -297692.615271 kJ/mol
# GULP energy per Si atom -12403.858970 kJ/mol
# Density = 2.203254 g / cm^3
# Si number density = 22.082805 Si / 1000 Ang^3
#
#
#
# Elastic Constant Matrix: (Units=GPa)
#
#
# Indices 1 2 3 4 5 6 
#
# 1 77.7785 36.5885 58.8264 0.0000 0.0000 0.0000
# 2 36.5885 127.8648 65.2619 0.0000 0.0000 0.0000
# 3 58.8264 65.2619 152.5387 0.0000 0.0000 0.0000
# 4 0.0000 0.0000 0.0000 45.7705 0.0000 0.0000
# 5 0.0000 0.0000 0.0000 0.0000 32.2323 0.0000
# 6 0.0000 0.0000 0.0000 0.0000 0.0000 17.5641
#
#
#
# Elastic Compliance Matrix: (Units=1/GPa)
#
#
# Indices 1 2 3 4 5 6 
#
# 1 0.018592 -0.002124 -0.006261 0.000000 0.000000 0.000000
# 2 -0.002124 0.010248 -0.003565 0.000000 0.000000 0.000000
# 3 -0.006261 -0.003565 0.010496 0.000000 0.000000 0.000000
# 4 0.000000 0.000000 0.000000 0.021848 0.000000 0.000000
# 5 0.000000 0.000000 0.000000 0.000000 0.031025 0.000000
# 6 0.000000 0.000000 0.000000 0.000000 0.000000 0.056934
#
#
# Mechanical properties :
#
#
# Convention : Reuss Voigt Hill
#
# Bulk Modulus (GPa) = 64.79094 75.50397 70.14746
# Shear Modulus (GPa) = 28.06003 32.28039 30.17021
#
# Velocity S-wave (km/s) = 3.56852 3.82748 3.70027
# Velocity P-wave (km/s) = 6.81049 7.33474 7.07747
#
# Compressibility (1/GPa) = 0.01543426
#
# Stress axis : x y z
#
# Youngs Moduli (GPa) = 53.78721 97.57592 95.27738
#
# Poissons Ratio (x) = 0.20729 0.59653
# Poissons Ratio (y) = 0.11427 0.33970
# Poissons Ratio (z) = 0.33676 0.34790
#
# Static dielectric constant tensor:
#      x y z
#    x 3.858640 0.000000 0.000000 
#    y 0.000000 3.975600 0.000000 
#    z 0.000000 0.000000 4.358370 
# 
# 
# High freq. dielectric constant tensor:
#      x y z
#    x 1.870490 0.000000 0.000000 
#    y 0.000000 1.861920 0.000000 
#    z 0.000000 0.000000 1.883550 
# 
# From -- ./inp_files/16539.got.cif
#   From: 2010.03.12/outbox.cif.g09.slc.cpg/sg46_9_cif.got.tgz:16539.got - 2010.04.14 02:56:35.
