data_PCOD8193931
_publ_section_title
;
Structure prediction by ZEFSAII (Michael W. Deem and Ramdas Pophale) SiO2 
 PCOD8193931
Probable space group: P M M M
;
_chemical_formula_sum "Si O2"
_cell_formula_units_Z 64
_cell_length_a 14.002079
_cell_length_b 28.769404
_cell_length_c 9.206065
_cell_angle_alpha 90.000000
_cell_angle_beta 90.000000
_cell_angle_gamma 90.000000
_cell_volume 3708.492675
_symmetry_space_group_name_H-M "P M M M"
_symmetry_group_IT_number 47
_symmetry_cell_setting 'orthorhombic'
loop_
_space_group_symop_operation_xyz
x,y,z
-x,-y,z
x,-y,-z
-x,y,-z
-x,-y,-z
x,y,-z
-x,y,z
x,-y,z
loop_
_atom_site_type_symbol
_atom_site_label
_atom_site_fract_x
_atom_site_fract_y
_atom_site_fract_z
Si Si1 0.609118 0.053757 0.332101
Si Si2 0.613166 0.215904 0.335802
Si Si3 0.209854 0.358621 0.168748
Si Si4 0.107501 0.448946 0.172385
Si Si5 0.392532 0.306454 0.167170
Si Si6 0.113061 0.275810 0.664244
Si Si7 0.291228 0.867391 0.168449
Si Si8 0.892383 0.185422 0.833159
O O1 0.624607 0.066574 0.500000
O O2 0.500000 0.065134 0.287561
O O3 0.682714 0.082952 0.235903
O O4 0.631807 0.000000 0.303680
O O5 0.652611 0.213857 0.500000
O O6 0.500000 0.214498 0.333219
O O7 0.647964 0.263907 0.262580
O O8 0.648689 0.172262 0.246149
O O9 0.180510 0.409481 0.229946
O O10 0.323293 0.350637 0.192881
O O11 0.150696 0.320246 0.252534
O O12 0.182295 0.354407 0.000000
O O13 0.138228 0.500000 0.232357
O O14 0.000000 0.437129 0.225545
O O15 0.109684 0.450388 0.000000
O O16 0.500000 0.320996 0.212953
O O17 0.389778 0.290234 0.000000
O O18 0.151409 0.276273 0.500000
O O19 0.148430 0.228181 0.739005
O O20 0.000000 0.277448 0.671053
O O21 0.177901 0.858329 0.191209
O O22 0.318962 0.867453 0.000000
O O23 0.000000 0.170866 0.786485
O O24 0.890570 0.201773 0.000000
#
# Coordination Sequence:
#
# PCOD8193931 Si02
#       8
#     8   8   8   8   8   8   8   8
#     4   9  19  36  55  74  98 127 155 184 225 278
#     4  10  20  32  46  66  94 127 158 186 222 272
#     4  10  18  28  46  67  86 116 155 188 223 271
#     4   8  14  25  42  65  89 110 139 183 228 270
#     4   9  18  31  44  61  89 121 152 189 229 265
#     4  10  20  31  44  67  97 123 149 186 230 272
#     4  11  21  31  49  75  97 121 156 195 233 270
#     4   9  19  35  50  65  92 129 163 192 224 267
#
# _framework density 17.257686
#
# number of rings (size 3 to 8) (size 9 to 14) (size 15 to 20)
#    0.000    2.500    0.000    3.375    0.000    8.500 
#    0.000    0.625    0.000    1.125    0.000    7.000 
#    0.000    0.000    0.000    4.250    0.000    4.625 
#
# Total GULP energy -793490.103473 kJ/mol
# GULP energy per Si atom -12398.282867 kJ/mol
# Density = 1.721841 g / cm^3
# Si number density = 17.257686 Si / 1000 Ang^3
#
#
#
# Elastic Constant Matrix: (Units=GPa)
#
#
# Indices 1 2 3 4 5 6 
#
# 1 54.7559 64.4760 36.9761 0.0000 0.0000 0.0000
# 2 64.4760 123.0442 53.6375 0.0000 0.0000 0.0000
# 3 36.9761 53.6375 78.1139 0.0000 0.0000 0.0000
# 4 0.0000 0.0000 0.0000 0.1540 0.0000 0.0000
# 5 0.0000 0.0000 0.0000 0.0000 18.2884 0.0000
# 6 0.0000 0.0000 0.0000 0.0000 0.0000 30.5975
#
#
#
# Elastic Compliance Matrix: (Units=1/GPa)
#
#
# Indices 1 2 3 4 5 6 
#
# 1 0.051196 -0.023211 -0.008297 0.000000 0.000000 0.000000
# 2 -0.023211 0.022122 -0.004203 0.000000 0.000000 0.000000
# 3 -0.008297 -0.004203 0.019615 0.000000 0.000000 0.000000
# 4 0.000000 0.000000 0.000000 6.492465 0.000000 0.000000
# 5 0.000000 0.000000 0.000000 0.000000 0.054679 0.000000
# 6 0.000000 0.000000 0.000000 0.000000 0.000000 0.032682
#
#
# Mechanical properties :
#
#
# Convention : Reuss Voigt Hill
#
# Bulk Modulus (GPa) = 46.48411 62.89924 54.69167
# Shear Modulus (GPa) = 0.74059 16.52962 8.63511
#
# Velocity S-wave (km/s) = 0.65580 3.09821 2.23931
# Velocity P-wave (km/s) = 5.25045 7.02316 6.20048
#
# Compressibility (1/GPa) = 0.02151273
#
# Stress axis : x y z
#
# Youngs Moduli (GPa) = 19.53264 45.20400 50.98061
#
# Poissons Ratio (x) = 1.04921 0.42297
# Poissons Ratio (y) = 0.45336 0.21428
# Poissons Ratio (z) = 0.16206 0.19000
#
# Static dielectric constant tensor:
#      x y z
#    x 3.354780 0.000000 0.000000 
#    y 0.000000 3.254120 0.000000 
#    z 0.000000 0.000000 3.244940 
# 
# 
# High freq. dielectric constant tensor:
#      x y z
#    x 1.666320 0.000000 0.000000 
#    y 0.000000 1.649420 0.000000 
#    z 0.000000 0.000000 1.658040 
# 
# From -- ./inp_files/7887.got.cif
#   From: 2010.03.12/outbox.cif.g09.slc.cpg/sg47_4_cif.got.tgz:7887.got - 2010.04.14 03:12:58.
