data_PCOD8193195
_publ_section_title
;
Structure prediction by ZEFSAII (Michael W. Deem and Ramdas Pophale) SiO2 
 PCOD8193195
Probable space group: I M A 2
;
_chemical_formula_sum "Si O2"
_cell_formula_units_Z 48
_cell_length_a 16.298522
_cell_length_b 12.339454
_cell_length_c 11.380052
_cell_angle_alpha 90.000000
_cell_angle_beta 90.000000
_cell_angle_gamma 90.000000
_cell_volume 2288.697593
_symmetry_space_group_name_H-M "I M A 2"
_symmetry_group_IT_number 46
_symmetry_cell_setting 'orthorhombic'
loop_
_space_group_symop_operation_xyz
x,y,z
-x,-y,z
1/2-x,y,z
1/2+x,-y,z
1/2+x,1/2+y,1/2+z
1/2-x,1/2-y,1/2+z
-x,1/2+y,1/2+z
x,1/2-y,1/2+z
loop_
_atom_site_type_symbol
_atom_site_label
_atom_site_fract_x
_atom_site_fract_y
_atom_site_fract_z
Si Si1 0.842247 0.859192 0.442090
Si Si2 0.843522 0.456749 0.367069
Si Si3 0.422747 0.345869 0.501938
Si Si4 0.416008 0.758303 0.426881
Si Si5 0.517128 0.877037 0.257880
Si Si6 0.346683 0.563929 0.098257
O O1 0.750000 0.879894 0.398025
O O2 0.847781 0.740068 0.501323
O O3 0.901612 0.857714 0.332556
O O4 0.868876 0.952181 0.533474
O O5 0.750000 0.497043 0.369529
O O6 0.895567 0.537139 0.450978
O O7 0.846581 0.333788 0.416679
O O8 0.876248 0.453221 0.232630
O O9 0.497165 0.302804 0.424862
O O10 0.462003 0.339399 0.629149
O O11 0.430964 0.827558 0.307838
O O12 0.395759 0.837063 0.536697
O O13 0.500000 0.000000 0.250428
O O14 0.250000 0.590381 0.092175
#
# Coordination Sequence:
#
# PCOD8193195 Si02
#       6
#     8   8   8   8   8   8
#     4  10  23  41  63  91 125 171 216 264 319 378
#     4  11  24  42  66  96 132 172 213 265 324 385
#     4  11  25  40  62  95 133 167 212 265 317 387
#     4  11  22  42  65  96 126 167 218 264 326 377
#     4  11  22  41  63  94 128 166 215 267 322 385
#     4  10  22  42  66  94 128 167 218 267 320 386
#
# _framework density 20.972626000000002
#
# number of rings (size 3 to 8) (size 9 to 14) (size 15 to 20)
#    0.000    1.333    1.667    3.500    4.667    1.333 
#    6.000    0.000    0.000    0.000    0.000    0.000 
#    0.000    0.000    0.000    0.000    0.000    0.000 
#
# Total GULP energy -297399.529332 kJ/mol
# GULP energy per Si atom -12391.647055 kJ/mol
# Density = 2.092489 g / cm^3
# Si number density = 20.972626 Si / 1000 Ang^3
#
#
#
# Elastic Constant Matrix: (Units=GPa)
#
#
# Indices 1 2 3 4 5 6 
#
# 1 56.1879 19.6948 10.3330 0.0000 0.0000 0.0000
# 2 19.6948 139.4449 36.3398 0.0000 0.0000 0.0000
# 3 10.3330 36.3398 96.0084 0.0000 0.0000 0.0000
# 4 0.0000 0.0000 0.0000 27.1603 0.0000 0.0000
# 5 0.0000 0.0000 0.0000 0.0000 33.2719 0.0000
# 6 0.0000 0.0000 0.0000 0.0000 0.0000 34.4105
#
#
#
# Elastic Compliance Matrix: (Units=1/GPa)
#
#
# Indices 1 2 3 4 5 6 
#
# 1 0.018835 -0.002365 -0.001132 0.000000 0.000000 0.000000
# 2 -0.002365 0.008253 -0.002869 0.000000 0.000000 0.000000
# 3 -0.001132 -0.002869 0.011624 0.000000 0.000000 0.000000
# 4 0.000000 0.000000 0.000000 0.036818 0.000000 0.000000
# 5 0.000000 0.000000 0.000000 0.000000 0.030055 0.000000
# 6 0.000000 0.000000 0.000000 0.000000 0.000000 0.029061
#
#
# Mechanical properties :
#
#
# Convention : Reuss Voigt Hill
#
# Bulk Modulus (GPa) = 38.49316 47.15295 42.82305
# Shear Modulus (GPa) = 32.04342 33.98678 33.01510
#
# Velocity S-wave (km/s) = 3.91304 4.02995 3.97192
# Velocity P-wave (km/s) = 6.22974 6.64725 6.44188
#
# Compressibility (1/GPa) = 0.02597864
#
# Stress axis : x y z
#
# Youngs Moduli (GPa) = 53.09375 121.16674 86.03172
#
# Poissons Ratio (x) = 0.28658 0.09738
# Poissons Ratio (y) = 0.12558 0.24685
# Poissons Ratio (z) = 0.06009 0.34766
#
# Static dielectric constant tensor:
#      x y z
#    x 3.698500 0.000000 0.000000 
#    y 0.000000 4.205480 0.000000 
#    z 0.000000 0.000000 3.757430 
# 
# 
# High freq. dielectric constant tensor:
#      x y z
#    x 1.817130 0.000000 0.000000 
#    y 0.000000 1.841230 0.000000 
#    z 0.000000 0.000000 1.818560 
# 
# From -- ./inp_files/11786.got.cif
#   From: 2010.03.12/outbox.cif.g09.slc.cpg/sg46_6_cif.got.tgz:11786.got - 2010.04.14 02:56:35.
