data_PCOD8193125
_publ_section_title
;
Structure prediction by ZEFSAII (Michael W. Deem and Ramdas Pophale) SiO2 
 PCOD8193125
Probable space group: I M A 2
;
_chemical_formula_sum "Si O2"
_cell_formula_units_Z 32
_cell_length_a 14.214232
_cell_length_b 11.830547
_cell_length_c 9.174947
_cell_angle_alpha 90.000000
_cell_angle_beta 90.000000
_cell_angle_gamma 90.000000
_cell_volume 1542.878720
_symmetry_space_group_name_H-M "I M A 2"
_symmetry_group_IT_number 46
_symmetry_cell_setting 'orthorhombic'
loop_
_space_group_symop_operation_xyz
x,y,z
-x,-y,z
1/2-x,y,z
1/2+x,-y,z
1/2+x,1/2+y,1/2+z
1/2-x,1/2-y,1/2+z
-x,1/2+y,1/2+z
x,1/2-y,1/2+z
loop_
_atom_site_type_symbol
_atom_site_label
_atom_site_fract_x
_atom_site_fract_y
_atom_site_fract_z
Si Si1 0.005278 0.328816 0.500000
Si Si2 0.750000 0.607000 0.180539
Si Si3 0.543885 0.881118 0.312927
Si Si4 0.750000 0.839579 0.343039
Si Si5 0.645468 0.488784 0.396885
O O1 0.030976 0.203839 0.448087
O O2 0.989509 0.327617 0.674158
O O3 0.092564 0.413118 0.483316
O O4 0.913748 0.373269 0.411997
O O5 0.750000 0.709706 0.296100
O O6 0.658176 0.530388 0.226631
O O7 0.750000 0.650410 0.018514
O O8 0.655560 0.898838 0.282971
O O9 0.500000 0.000000 0.357735
O O10 0.750000 0.470195 0.464905
#
# Coordination Sequence:
#
# PCOD8193125 Si02
#       5
#     8   4   8   4   8
#     4  11  23  42  67  96 128 172 219 267 331 389
#     4  10  22  38  69  94 127 178 213 275 327 387
#     4  12  26  42  66  97 131 173 216 275 325 393
#     4  12  24  40  61 100 131 168 231 271 325 389
#     4   9  20  41  69  90 128 172 214 265 329 387
#
# _framework density 20.740449999999999
#
# number of rings (size 3 to 8) (size 9 to 14) (size 15 to 20)
#    0.750    0.500    5.000    1.500    1.750    2.000 
#    2.250    0.000    0.000    0.000    0.000    0.000 
#    0.000    0.000    0.000    0.000    0.000    0.000 
#
# Total GULP energy -198237.372109 kJ/mol
# GULP energy per Si atom -12389.835757 kJ/mol
# Density = 2.069324 g / cm^3
# Si number density = 20.740450 Si / 1000 Ang^3
#
#
#
# Elastic Constant Matrix: (Units=GPa)
#
#
# Indices 1 2 3 4 5 6 
#
# 1 149.8897 58.3441 14.9434 0.0000 0.0000 0.0000
# 2 58.3441 109.0959 22.5946 0.0000 0.0000 0.0000
# 3 14.9434 22.5946 92.2981 0.0000 0.0000 0.0000
# 4 0.0000 0.0000 0.0000 11.8856 0.0000 0.0000
# 5 0.0000 0.0000 0.0000 0.0000 28.3209 0.0000
# 6 0.0000 0.0000 0.0000 0.0000 0.0000 34.3975
#
#
#
# Elastic Compliance Matrix: (Units=1/GPa)
#
#
# Indices 1 2 3 4 5 6 
#
# 1 0.008432 -0.004452 -0.000275 0.000000 0.000000 0.000000
# 2 -0.004452 0.012007 -0.002218 0.000000 0.000000 0.000000
# 3 -0.000275 -0.002218 0.011422 0.000000 0.000000 0.000000
# 4 0.000000 0.000000 0.000000 0.084135 0.000000 0.000000
# 5 0.000000 0.000000 0.000000 0.000000 0.035310 0.000000
# 6 0.000000 0.000000 0.000000 0.000000 0.000000 0.029072
#
#
# Mechanical properties :
#
#
# Convention : Reuss Voigt Hill
#
# Bulk Modulus (GPa) = 55.65182 60.33864 57.99523
# Shear Modulus (GPa) = 24.96761 31.94760 28.45760
#
# Velocity S-wave (km/s) = 3.47336 3.92899 3.70818
# Velocity P-wave (km/s) = 6.55564 7.05252 6.80861
#
# Compressibility (1/GPa) = 0.01796886
#
# Stress axis : x y z
#
# Youngs Moduli (GPa) = 118.59423 83.28576 87.54963
#
# Poissons Ratio (x) = 0.37083 0.02410
# Poissons Ratio (y) = 0.52804 0.19422
# Poissons Ratio (z) = 0.03264 0.18476
#
# Static dielectric constant tensor:
#      x y z
#    x 3.986700 0.000000 0.000000 
#    y 0.000000 3.542640 0.000000 
#    z 0.000000 0.000000 3.573460 
# 
# 
# High freq. dielectric constant tensor:
#      x y z
#    x 1.813130 0.000000 0.000000 
#    y 0.000000 1.792690 0.000000 
#    z 0.000000 0.000000 1.801620 
# 
# From -- ./inp_files/5226.got.cif
#   From: 2010.03.12/outbox.cif.g09.slc.cpg/sg46_3_cif.got.tgz:5226.got - 2010.04.14 02:56:35.
