data_PCOD8193484
_publ_section_title
;
Structure prediction by ZEFSAII (Michael W. Deem and Ramdas Pophale) SiO2 
 PCOD8193484
Probable space group: P M M M
;
_chemical_formula_sum "Si O2"
_cell_formula_units_Z 64
_cell_length_a 9.164974
_cell_length_b 14.549971
_cell_length_c 31.241581
_cell_angle_alpha 90.000000
_cell_angle_beta 90.000000
_cell_angle_gamma 90.000000
_cell_volume 4166.068135
_symmetry_space_group_name_H-M "P M M M"
_symmetry_group_IT_number 47
_symmetry_cell_setting 'orthorhombic'
loop_
_space_group_symop_operation_xyz
x,y,z
-x,-y,z
x,-y,-z
-x,y,-z
-x,-y,-z
x,y,-z
-x,y,z
x,-y,z
loop_
_atom_site_type_symbol
_atom_site_label
_atom_site_fract_x
_atom_site_fract_y
_atom_site_fract_z
Si Si1 0.826993 0.399521 0.259563
Si Si2 0.826527 0.600235 0.163347
Si Si3 0.836453 0.109002 0.452991
Si Si4 0.173064 0.790490 0.294189
Si Si5 0.826412 0.896564 0.047290
Si Si6 0.329264 0.892959 0.370322
Si Si7 0.173374 0.896793 0.209788
Si Si8 0.825806 0.212847 0.127614
O O1 0.774724 0.500000 0.277065
O O2 0.766326 0.384566 0.211464
O O3 0.775365 0.316131 0.289979
O O4 0.000000 0.397144 0.256996
O O5 0.774619 0.500000 0.145995
O O6 0.768836 0.682095 0.132782
O O7 0.000000 0.603892 0.164795
O O8 0.787027 0.145944 0.500000
O O9 0.726466 0.143647 0.416385
O O10 0.000000 0.144241 0.442611
O O11 0.835543 0.000000 0.454091
O O12 0.250852 0.833405 0.334672
O O13 0.226885 0.843598 0.251893
O O14 0.000000 0.799510 0.300246
O O15 0.761847 0.828309 0.083356
O O16 0.000000 0.895205 0.048803
O O17 0.771493 0.000000 0.056841
O O18 0.772803 0.865070 0.000000
O O19 0.500000 0.875737 0.367798
O O20 0.289504 0.000000 0.363542
O O21 0.233882 0.846592 0.167465
O O22 0.000000 0.897938 0.208509
O O23 0.236454 0.000000 0.211011
O O24 0.000000 0.209331 0.127059
#
# Coordination Sequence:
#
# PCOD8193484 Si02
#       8
#     8   8   8   8   8   8   8   8
#     4   8  13  22  36  54  74  93 118 157 203 244
#     4   8  12  18  28  42  60  80 104 139 187 237
#     4   8  14  26  44  63  81 104 139 181 215 237
#     4  10  17  26  40  57  77 102 132 167 203 238
#     4   8  13  19  25  33  47  72 107 144 182 227
#     4  10  20  30  39  55  83 118 147 167 195 239
#     4   9  15  20  28  46  68  88 113 149 190 226
#     4   9  13  18  27  39  56  78 106 143 187 230
#
# _framework density 15.362206
#
# number of rings (size 3 to 8) (size 9 to 14) (size 15 to 20)
#    0.000    3.250    1.250    2.625    0.000    3.000 
#    0.000    1.250    0.000    0.750    0.000    2.625 
#    0.000    0.500    0.000    5.750    0.000    2.500 
#
# Total GULP energy -792939.209664 kJ/mol
# GULP energy per Si atom -12389.675151 kJ/mol
# Density = 1.532724 g / cm^3
# Si number density = 15.362206 Si / 1000 Ang^3
#
#
#
# Elastic Constant Matrix: (Units=GPa)
#
#
# Indices 1 2 3 4 5 6 
#
# 1 19.8802 23.2602 27.3401 0.0000 0.0000 0.0000
# 2 23.2602 126.6024 75.5501 0.0000 0.0000 0.0000
# 3 27.3401 75.5501 133.7705 0.0000 0.0000 0.0000
# 4 0.0000 0.0000 0.0000 12.1319 0.0000 0.0000
# 5 0.0000 0.0000 0.0000 0.0000 -0.8882 0.0000
# 6 0.0000 0.0000 0.0000 0.0000 0.0000 5.5408
#
#
#
# Elastic Compliance Matrix: (Units=1/GPa)
#
#
# Indices 1 2 3 4 5 6 
#
# 1 0.073724 -0.006868 -0.011189 0.000000 0.000000 0.000000
# 2 -0.006868 0.012554 -0.005686 0.000000 0.000000 0.000000
# 3 -0.011189 -0.005686 0.012974 0.000000 0.000000 0.000000
# 4 0.000000 0.000000 0.000000 0.082427 0.000000 0.000000
# 5 0.000000 0.000000 0.000000 0.000000 -1.125907 0.000000
# 6 0.000000 0.000000 0.000000 0.000000 0.000000 0.180479
#
#
# Mechanical properties :
#
#
# Convention : Reuss Voigt Hill
#
# Bulk Modulus (GPa) = 19.31794 59.17265 39.24530
# Shear Modulus (GPa) = -7.15301 13.63042 3.23870
#
# Velocity S-wave (km/s) = -2.16017 2.98194 1.45355
# Velocity P-wave (km/s) = 2.52596 7.10337 5.33097
#
# Compressibility (1/GPa) = 0.05176534
#
# Stress axis : x y z
#
# Youngs Moduli (GPa) = 13.56402 79.65579 77.07813
#
# Poissons Ratio (x) = 0.54709 0.86242
# Poissons Ratio (y) = 0.09316 0.43830
# Poissons Ratio (z) = 0.15177 0.45296
#
# Static dielectric constant tensor:
#      x y z
#    x 2.395830 0.000000 0.000000 
#    y 0.000000 3.192670 0.000000 
#    z 0.000000 0.000000 3.150120 
# 
# 
# High freq. dielectric constant tensor:
#      x y z
#    x 1.525940 0.000000 0.000000 
#    y 0.000000 1.578270 0.000000 
#    z 0.000000 0.000000 1.582990 
# 
# From -- ./inp_files/34448.got.cif
#   From: 2010.03.12/outbox.cif.g09.slc.cpg/sg47_18_cif.got.tgz:34448.got - 2010.04.14 03:12:58.
