data_PCOD8193296
_publ_section_title
;
Structure prediction by ZEFSAII (Michael W. Deem and Ramdas Pophale) SiO2 
 PCOD8193296
Probable space group: I M A 2
;
_chemical_formula_sum "Si O2"
_cell_formula_units_Z 32
_cell_length_a 17.911706
_cell_length_b 8.687539
_cell_length_c 8.006610
_cell_angle_alpha 90.000000
_cell_angle_beta 90.000000
_cell_angle_gamma 90.000000
_cell_volume 1245.897729
_symmetry_space_group_name_H-M "I M A 2"
_symmetry_group_IT_number 46
_symmetry_cell_setting 'orthorhombic'
loop_
_space_group_symop_operation_xyz
x,y,z
-x,-y,z
1/2-x,y,z
1/2+x,-y,z
1/2+x,1/2+y,1/2+z
1/2-x,1/2-y,1/2+z
-x,1/2+y,1/2+z
x,1/2-y,1/2+z
loop_
_atom_site_type_symbol
_atom_site_label
_atom_site_fract_x
_atom_site_fract_y
_atom_site_fract_z
Si Si1 0.584500 0.033673 0.410520
Si Si2 0.584944 0.039812 0.773624
Si Si3 0.165106 0.915773 0.088346
Si Si4 0.333669 0.279649 0.417869
O O1 0.591357 0.122964 0.591010
O O2 0.624943 0.128484 0.262766
O O3 0.619369 0.870102 0.451878
O O4 0.500000 0.000000 0.357232
O O5 0.631460 0.879744 0.765579
O O6 0.500000 0.000000 0.818148
O O7 0.619280 0.146162 0.923930
O O8 0.250000 0.849827 0.085371
O O9 0.165200 0.104061 0.079714
O O10 0.250000 0.232137 0.369571
#
# Coordination Sequence:
#
# PCOD8193296 Si02
#       4
#     8   8   8   8
#     4  11  20  30  47  73 109 135 163 205 255 302
#     4   9  19  33  48  72 106 132 166 205 255 304
#     4   9  19  31  49  73  98 130 165 206 251 293
#     4   9  19  34  52  76 104 131 165 210 253 294
#
# _framework density 25.684291999999999
#
# number of rings (size 3 to 8) (size 9 to 14) (size 15 to 20)
#    1.500    1.000    0.000    3.000    0.000    6.000 
#    0.000    0.000    0.000    0.000    0.000    7.000 
#    0.000    0.000    0.000    0.000    0.000    0.000 
#
# Total GULP energy -198226.573180 kJ/mol
# GULP energy per Si atom -12389.160824 kJ/mol
# Density = 2.562583 g / cm^3
# Si number density = 25.684292 Si / 1000 Ang^3
#
#
#
# Elastic Constant Matrix: (Units=GPa)
#
#
# Indices 1 2 3 4 5 6 
#
# 1 211.5795 -6.8328 99.4305 0.0000 0.0000 0.0000
# 2 -6.8328 32.0076 25.1996 0.0000 0.0000 0.0000
# 3 99.4305 25.1996 221.0785 0.0000 0.0000 0.0000
# 4 0.0000 0.0000 0.0000 -14.8755 0.0000 0.0000
# 5 0.0000 0.0000 0.0000 0.0000 34.1411 0.0000
# 6 0.0000 0.0000 0.0000 0.0000 0.0000 3.2749
#
#
#
# Elastic Compliance Matrix: (Units=1/GPa)
#
#
# Indices 1 2 3 4 5 6 
#
# 1 0.006429 0.004009 -0.003349 0.000000 0.000000 0.000000
# 2 0.004009 0.036822 -0.006000 0.000000 0.000000 0.000000
# 3 -0.003349 -0.006000 0.006713 0.000000 0.000000 0.000000
# 4 0.000000 0.000000 0.000000 -0.067225 0.000000 0.000000
# 5 0.000000 0.000000 0.000000 0.000000 0.029290 0.000000
# 6 0.000000 0.000000 0.000000 0.000000 0.000000 0.305357
#
#
# Mechanical properties :
#
#
# Convention : Reuss Voigt Hill
#
# Bulk Modulus (GPa) = 25.45485 77.80668 51.63077
# Shear Modulus (GPa) = 14.65578 27.63265 21.14421
#
# Velocity S-wave (km/s) = 2.39134 3.28359 2.87232
# Velocity P-wave (km/s) = 4.19009 6.68844 5.58086
#
# Compressibility (1/GPa) = 0.03928525
#
# Stress axis : x y z
#
# Youngs Moduli (GPa) = 155.53332 27.15742 148.95872
#
# Poissons Ratio (x) = -0.10887 0.49881
# Poissons Ratio (y) = -0.62352 0.89378
# Poissons Ratio (z) = 0.52082 0.16295
#
# Static dielectric constant tensor:
#      x y z
#    x 4.562570 0.000000 0.000000 
#    y 0.000000 4.327720 0.000000 
#    z 0.000000 0.000000 4.633470 
# 
# 
# High freq. dielectric constant tensor:
#      x y z
#    x 2.021400 0.000000 0.000000 
#    y 0.000000 2.014720 0.000000 
#    z 0.000000 0.000000 2.044700 
# 
# From -- ./inp_files/5221.got.cif
#   From: 2010.03.12/outbox.cif.g09.slc.cpg/sg46_3_cif.got.tgz:5221.got - 2010.04.14 02:56:35.
