data_PCOD8193065
_publ_section_title
;
Structure prediction by ZEFSAII (Michael W. Deem and Ramdas Pophale) SiO2 
 PCOD8193065
Probable space group: I M A 2
;
_chemical_formula_sum "Si O2"
_cell_formula_units_Z 56
_cell_length_a 13.678332
_cell_length_b 6.426172
_cell_length_c 27.232492
_cell_angle_alpha 90.000000
_cell_angle_beta 90.000000
_cell_angle_gamma 90.000000
_cell_volume 2393.717368
_symmetry_space_group_name_H-M "I M A 2"
_symmetry_group_IT_number 46
_symmetry_cell_setting 'orthorhombic'
loop_
_space_group_symop_operation_xyz
x,y,z
-x,-y,z
1/2-x,y,z
1/2+x,-y,z
1/2+x,1/2+y,1/2+z
1/2-x,1/2-y,1/2+z
-x,1/2+y,1/2+z
x,1/2-y,1/2+z
loop_
_atom_site_type_symbol
_atom_site_label
_atom_site_fract_x
_atom_site_fract_y
_atom_site_fract_z
Si Si1 0.000000 0.000000 0.989640
Si Si2 0.644567 0.432979 0.147582
Si Si3 0.593376 0.371349 0.042529
Si Si4 0.636816 0.356711 0.865363
Si Si5 0.141627 0.155438 0.453527
Si Si6 0.536185 0.707126 0.679133
Si Si7 0.500000 0.000000 0.837203
Si Si8 0.365112 0.183750 0.282155
O O1 0.932427 0.848706 0.956886
O O2 0.070572 0.858591 0.022788
O O3 0.750000 0.404179 0.172885
O O4 0.653860 0.341942 0.092555
O O5 0.564612 0.338135 0.184678
O O6 0.615783 0.678038 0.144937
O O7 0.500000 0.500000 0.059944
O O8 0.646826 0.509304 0.001489
O O9 0.750000 0.286217 0.871174
O O10 0.606597 0.515789 0.908223
O O11 0.564087 0.160018 0.870030
O O12 0.619405 0.474646 0.813905
O O13 0.250000 0.245496 0.443888
O O14 0.500000 0.500000 0.651092
O O15 0.585774 0.640631 0.729967
O O16 0.419580 0.118175 0.804872
O O17 0.250000 0.236822 0.277501
#
# Coordination Sequence:
#
# PCOD8193065 Si02
#       8
#     4   8   8   8   8   8   4   8
#     4  10  24  41  72 100 132 184 232 276 341 412
#     4  11  24  42  66  97 135 175 226 288 349 418
#     4  10  21  41  65  97 136 175 224 285 346 414
#     4  10  24  44  67 102 143 182 232 288 347 417
#     4  10  23  43  67 101 144 183 230 289 345 414
#     4  11  24  43  66  93 134 177 226 278 344 413
#     4  12  22  41  74 100 132 184 228 280 345 406
#     4  11  25  44  67  99 137 179 230 288 345 413
#
# _framework density 23.394573999999999
#
# number of rings (size 3 to 8) (size 9 to 14) (size 15 to 20)
#    0.000    1.429    1.429    3.429    1.000    8.000 
#    0.000    5.000    0.000    1.714    0.000    0.000 
#    0.000    0.000    0.000    0.000    0.000    0.000 
#
# Total GULP energy -347080.107487 kJ/mol
# GULP energy per Si atom -12395.718125 kJ/mol
# Density = 2.334133 g / cm^3
# Si number density = 23.394574 Si / 1000 Ang^3
#
#
#
# Elastic Constant Matrix: (Units=GPa)
#
#
# Indices 1 2 3 4 5 6 
#
# 1 171.4625 76.4142 41.5734 0.0000 0.0000 0.0000
# 2 76.4142 144.5464 42.8583 0.0000 0.0000 0.0000
# 3 41.5734 42.8583 103.0634 0.0000 0.0000 0.0000
# 4 0.0000 0.0000 0.0000 14.7568 0.0000 0.0000
# 5 0.0000 0.0000 0.0000 0.0000 31.4519 0.0000
# 6 0.0000 0.0000 0.0000 0.0000 0.0000 37.1104
#
#
#
# Elastic Compliance Matrix: (Units=1/GPa)
#
#
# Indices 1 2 3 4 5 6 
#
# 1 0.007867 -0.003671 -0.001647 0.000000 0.000000 0.000000
# 2 -0.003671 0.009604 -0.002513 0.000000 0.000000 0.000000
# 3 -0.001647 -0.002513 0.011412 0.000000 0.000000 0.000000
# 4 0.000000 0.000000 0.000000 0.067765 0.000000 0.000000
# 5 0.000000 0.000000 0.000000 0.000000 0.031795 0.000000
# 6 0.000000 0.000000 0.000000 0.000000 0.000000 0.026947
#
#
# Mechanical properties :
#
#
# Convention : Reuss Voigt Hill
#
# Bulk Modulus (GPa) = 75.63275 82.30713 78.96994
# Shear Modulus (GPa) = 28.49673 33.87892 31.18782
#
# Velocity S-wave (km/s) = 3.49390 3.80959 3.65516
# Velocity P-wave (km/s) = 6.97681 7.38980 7.18627
#
# Compressibility (1/GPa) = 0.01322179
#
# Stress axis : x y z
#
# Youngs Moduli (GPa) = 127.10597 104.12505 87.62569
#
# Poissons Ratio (x) = 0.38222 0.14433
# Poissons Ratio (y) = 0.46657 0.22020
# Poissons Ratio (z) = 0.20936 0.26167
#
# Static dielectric constant tensor:
#      x y z
#    x 4.420160 0.000000 0.000000 
#    y 0.000000 4.467250 0.000000 
#    z 0.000000 0.000000 3.987900 
# 
# 
# High freq. dielectric constant tensor:
#      x y z
#    x 1.941570 0.000000 0.000000 
#    y 0.000000 1.925420 0.000000 
#    z 0.000000 0.000000 1.917140 
# 
# From -- ./inp_files/25436.got.cif
#   From: 2010.03.12/outbox.cif.g09.slc.cpg/sg46_13_cif.got.tgz:25436.got - 2010.04.14 02:56:35.
