data_PCOD8193785
_publ_section_title
;
Structure prediction by ZEFSAII (Michael W. Deem and Ramdas Pophale) SiO2 
 PCOD8193785
Probable space group: P M M M
;
_chemical_formula_sum "Si O2"
_cell_formula_units_Z 64
_cell_length_a 18.953212
_cell_length_b 9.123446
_cell_length_c 23.679448
_cell_angle_alpha 90.000000
_cell_angle_beta 90.000000
_cell_angle_gamma 90.000000
_cell_volume 4094.617144
_symmetry_space_group_name_H-M "P M M M"
_symmetry_group_IT_number 47
_symmetry_cell_setting 'orthorhombic'
loop_
_space_group_symop_operation_xyz
x,y,z
-x,-y,z
x,-y,-z
-x,y,-z
-x,-y,-z
x,y,-z
-x,y,z
x,-y,z
loop_
_atom_site_type_symbol
_atom_site_label
_atom_site_fract_x
_atom_site_fract_y
_atom_site_fract_z
Si Si1 0.709619 0.330657 0.934684
Si Si2 0.151014 0.671644 0.326995
Si Si3 0.712757 0.671883 0.261771
Si Si4 0.213337 0.827925 0.840355
Si Si5 0.920940 0.169151 0.226681
Si Si6 0.578845 0.169302 0.245102
Si Si7 0.579471 0.831646 0.887070
Si Si8 0.920447 0.674135 0.561952
O O1 0.712538 0.500000 0.917248
O O2 0.769714 0.242742 0.900688
O O3 0.631576 0.271549 0.921704
O O4 0.727035 0.307527 0.000000
O O5 0.136855 0.500000 0.324168
O O6 0.232374 0.708349 0.312234
O O7 0.097976 0.740893 0.282159
O O8 0.132320 0.733633 0.389404
O O9 0.710149 0.500000 0.248928
O O10 0.735286 0.756733 0.205567
O O11 0.635370 0.731211 0.279020
O O12 0.131998 0.793498 0.824782
O O13 0.229418 0.000000 0.842353
O O14 0.000000 0.209038 0.206766
O O15 0.913861 0.000000 0.243417
O O16 0.500000 0.210062 0.266017
O O17 0.585355 0.203283 0.178963
O O18 0.594734 0.000000 0.257750
O O19 0.500000 0.800267 0.908133
O O20 0.599994 0.000000 0.898606
O O21 0.896287 0.732789 0.500000
O O22 0.919083 0.500000 0.561178
O O23 0.000000 0.728525 0.574906
#
# Coordination Sequence:
#
# PCOD8193785 Si02
#       8
#     8   8   8   8   8   8   8   8
#     4  11  23  35  47  65  88 111 138 175 214 254
#     4   9  17  27  41  65  94 120 149 184 217 253
#     4  10  18  27  42  65  91 115 140 175 220 261
#     4  10  19  32  49  65  84 111 142 173 209 258
#     4   9  18  31  47  68  91 113 139 176 220 261
#     4   9  17  29  45  64  86 113 144 175 209 255
#     4   9  18  32  49  67  86 111 143 175 206 247
#     4   8  13  22  38  60  87 122 161 192 213 239
#
# _framework density 15.630277
#
# number of rings (size 3 to 8) (size 9 to 14) (size 15 to 20)
#    0.000    2.625    1.250    2.625    0.000    3.500 
#    0.000    2.500    0.000    0.750    0.000    4.375 
#    0.000    0.500    0.000    6.250    0.000    1.000 
#
# Total GULP energy -793378.577127 kJ/mol
# GULP energy per Si atom -12396.540268 kJ/mol
# Density = 1.559470 g / cm^3
# Si number density = 15.630277 Si / 1000 Ang^3
#
#
#
# Elastic Constant Matrix: (Units=GPa)
#
#
# Indices 1 2 3 4 5 6 
#
# 1 123.9854 47.9750 58.1296 0.0000 0.0000 0.0000
# 2 47.9750 60.8734 39.1708 0.0000 0.0000 0.0000
# 3 58.1296 39.1708 88.9706 0.0000 0.0000 0.0000
# 4 0.0000 0.0000 0.0000 6.9304 0.0000 0.0000
# 5 0.0000 0.0000 0.0000 0.0000 23.2688 0.0000
# 6 0.0000 0.0000 0.0000 0.0000 0.0000 20.9360
#
#
#
# Elastic Compliance Matrix: (Units=1/GPa)
#
#
# Indices 1 2 3 4 5 6 
#
# 1 0.013419 -0.006884 -0.005736 0.000000 0.000000 0.000000
# 2 -0.006884 0.026453 -0.007149 0.000000 0.000000 0.000000
# 3 -0.005736 -0.007149 0.018135 0.000000 0.000000 0.000000
# 4 0.000000 0.000000 0.000000 0.144292 0.000000 0.000000
# 5 0.000000 0.000000 0.000000 0.000000 0.042976 0.000000
# 6 0.000000 0.000000 0.000000 0.000000 0.000000 0.047765
#
#
# Mechanical properties :
#
#
# Convention : Reuss Voigt Hill
#
# Bulk Modulus (GPa) = 54.14663 62.70891 58.42777
# Shear Modulus (GPa) = 14.76088 18.79729 16.77909
#
# Velocity S-wave (km/s) = 3.07641 3.47164 3.27998
# Velocity P-wave (km/s) = 6.88014 7.50180 7.19769
#
# Compressibility (1/GPa) = 0.01846837
#
# Stress axis : x y z
#
# Youngs Moduli (GPa) = 74.52301 37.80296 55.14261
#
# Poissons Ratio (x) = 0.26024 0.31632
# Poissons Ratio (y) = 0.51303 0.39419
# Poissons Ratio (z) = 0.42749 0.27024
#
# Static dielectric constant tensor:
#      x y z
#    x 3.203840 0.000000 0.000000 
#    y 0.000000 2.925370 0.000000 
#    z 0.000000 0.000000 2.936100 
# 
# 
# High freq. dielectric constant tensor:
#      x y z
#    x 1.601460 0.000000 0.000000 
#    y 0.000000 1.595670 0.000000 
#    z 0.000000 0.000000 1.565910 
# 
# From -- ./inp_files/32961.got.cif
#   From: 2010.03.12/outbox.cif.g09.slc.cpg/sg47_17_cif.got.tgz:32961.got - 2010.04.14 03:12:58.
