data_PCOD8193781
_publ_section_title
;
Structure prediction by ZEFSAII (Michael W. Deem and Ramdas Pophale) SiO2 
 PCOD8193781
Probable space group: P M M M
;
_chemical_formula_sum "Si O2"
_cell_formula_units_Z 56
_cell_length_a 18.314376
_cell_length_b 9.236586
_cell_length_c 21.014417
_cell_angle_alpha 90.000000
_cell_angle_beta 90.000000
_cell_angle_gamma 90.000000
_cell_volume 3554.847301
_symmetry_space_group_name_H-M "P M M M"
_symmetry_group_IT_number 47
_symmetry_cell_setting 'orthorhombic'
loop_
_space_group_symop_operation_xyz
x,y,z
-x,-y,z
x,-y,-z
-x,y,-z
-x,-y,-z
x,y,-z
-x,y,z
x,-y,z
loop_
_atom_site_type_symbol
_atom_site_label
_atom_site_fract_x
_atom_site_fract_y
_atom_site_fract_z
Si Si1 0.583598 0.669461 0.675401
Si Si2 0.170786 0.831465 0.176755
Si Si3 0.711069 0.339923 0.240226
Si Si4 0.083036 0.333483 0.926325
Si Si5 0.200910 0.337572 0.629465
Si Si6 0.673192 0.833549 0.427228
Si Si7 0.083921 0.831632 0.696342
O O1 0.500000 0.707848 0.689541
O O2 0.595152 0.500000 0.659466
O O3 0.629500 0.710404 0.739231
O O4 0.610327 0.760180 0.614836
O O5 0.251846 0.768636 0.190149
O O6 0.138721 0.762950 0.113177
O O7 0.116742 0.794426 0.234659
O O8 0.179640 0.000000 0.165306
O O9 0.709580 0.500000 0.209409
O O10 0.756823 0.341976 0.304594
O O11 0.092555 0.500000 0.906210
O O12 0.000000 0.283304 0.913067
O O13 0.102357 0.312060 0.000000
O O14 0.187531 0.500000 0.603348
O O15 0.249020 0.246818 0.579651
O O16 0.123459 0.258952 0.640786
O O17 0.647578 0.822619 0.500000
O O18 0.682872 0.000000 0.405748
O O19 0.000000 0.784733 0.697178
O O20 0.094276 0.000000 0.680754
#
# Coordination Sequence:
#
# PCOD8193781 Si02
#       7
#     8   8   8   8   8   8   8
#     4   9  18  32  49  69  92 116 142 174 212 252
#     4  10  18  27  42  64  88 114 147 183 214 249
#     4   8  15  28  44  62  85 113 142 172 210 254
#     4   9  18  31  44  59  84 120 157 189 222 258
#     4   9  17  29  45  63  82 107 141 180 219 256
#     4  10  20  32  46  64  86 114 146 175 207 254
#     4   9  17  28  42  62  88 114 139 173 220 268
#
# _framework density 15.753138
#
# number of rings (size 3 to 8) (size 9 to 14) (size 15 to 20)
#    0.000    2.857    0.000    3.000    0.000    7.143 
#    0.000    2.143    0.000    0.429    0.000    3.000 
#    0.000    0.571    0.000    6.571    0.000    1.857 
#
# Total GULP energy -694290.080413 kJ/mol
# GULP energy per Si atom -12398.037150 kJ/mol
# Density = 1.571728 g / cm^3
# Si number density = 15.753138 Si / 1000 Ang^3
#
#
#
# Elastic Constant Matrix: (Units=GPa)
#
#
# Indices 1 2 3 4 5 6 
#
# 1 120.4667 58.2531 45.0628 0.0000 0.0000 0.0000
# 2 58.2531 94.2651 43.0998 0.0000 0.0000 0.0000
# 3 45.0628 43.0998 54.2808 0.0000 0.0000 0.0000
# 4 0.0000 0.0000 0.0000 24.1899 0.0000 0.0000
# 5 0.0000 0.0000 0.0000 0.0000 20.4315 0.0000
# 6 0.0000 0.0000 0.0000 0.0000 0.0000 22.5415
#
#
#
# Elastic Compliance Matrix: (Units=1/GPa)
#
#
# Indices 1 2 3 4 5 6 
#
# 1 0.013397 -0.005014 -0.007140 0.000000 0.000000 0.000000
# 2 -0.005014 0.018531 -0.010552 0.000000 0.000000 0.000000
# 3 -0.007140 -0.010552 0.032729 0.000000 0.000000 0.000000
# 4 0.000000 0.000000 0.000000 0.041340 0.000000 0.000000
# 5 0.000000 0.000000 0.000000 0.000000 0.048944 0.000000
# 6 0.000000 0.000000 0.000000 0.000000 0.000000 0.044363
#
#
# Mechanical properties :
#
#
# Convention : Reuss Voigt Hill
#
# Bulk Modulus (GPa) = 51.96275 62.42709 57.19492
# Shear Modulus (GPa) = 19.91005 21.60572 20.75788
#
# Velocity S-wave (km/s) = 3.55896 3.70742 3.63395
# Velocity P-wave (km/s) = 7.06722 7.61846 7.34801
#
# Compressibility (1/GPa) = 0.01924455
#
# Stress axis : x y z
#
# Youngs Moduli (GPa) = 74.64565 53.96285 30.55432
#
# Poissons Ratio (x) = 0.27057 0.21817
# Poissons Ratio (y) = 0.37427 0.32240
# Poissons Ratio (z) = 0.53300 0.56939
#
# Static dielectric constant tensor:
#      x y z
#    x 3.114430 0.000000 0.000000 
#    y 0.000000 3.128090 0.000000 
#    z 0.000000 0.000000 2.710120 
# 
# 
# High freq. dielectric constant tensor:
#      x y z
#    x 1.594680 0.000000 0.000000 
#    y 0.000000 1.614640 0.000000 
#    z 0.000000 0.000000 1.567640 
# 
# From -- ./inp_files/9793.got.cif
#   From: 2010.03.12/outbox.cif.g09.slc.cpg/sg47_5_cif.got.tgz:9793.got - 2010.04.14 03:12:58.
