data_PCOD8193249
_publ_section_title
;
Structure prediction by ZEFSAII (Michael W. Deem and Ramdas Pophale) SiO2 
 PCOD8193249
Probable space group: I M A 2
;
_chemical_formula_sum "Si O2"
_cell_formula_units_Z 32
_cell_length_a 24.258050
_cell_length_b 4.816084
_cell_length_c 9.664645
_cell_angle_alpha 90.000000
_cell_angle_beta 90.000000
_cell_angle_gamma 90.000000
_cell_volume 1129.108940
_symmetry_space_group_name_H-M "I M A 2"
_symmetry_group_IT_number 46
_symmetry_cell_setting 'orthorhombic'
loop_
_space_group_symop_operation_xyz
x,y,z
-x,-y,z
1/2-x,y,z
1/2+x,-y,z
1/2+x,1/2+y,1/2+z
1/2-x,1/2-y,1/2+z
-x,1/2+y,1/2+z
x,1/2-y,1/2+z
loop_
_atom_site_type_symbol
_atom_site_label
_atom_site_fract_x
_atom_site_fract_y
_atom_site_fract_z
Si Si1 0.463109 0.761131 0.043430
Si Si2 0.189596 0.671123 0.089670
Si Si3 0.110516 0.904789 0.292398
Si Si4 0.187708 0.338052 0.403107
O O1 0.500000 0.500000 0.088205
O O2 0.438056 0.910156 0.179672
O O3 0.500000 0.000000 0.970276
O O4 0.414981 0.662377 0.941789
O O5 0.250000 0.788347 0.124318
O O6 0.155324 0.675754 0.234141
O O7 0.191189 0.359945 0.036670
O O8 0.165260 0.870193 0.967427
O O9 0.142476 0.200721 0.299156
O O10 0.250000 0.365417 0.336268
#
# Coordination Sequence:
#
# PCOD8193249 Si02
#       4
#     8   8   8   8
#     4  12  30  50  73 110 145 192 256 324 368 432
#     4  10  23  43  71 111 149 185 234 290 361 448
#     4  12  25  50  80 104 148 194 247 299 384 436
#     4  10  23  43  71 111 149 185 234 290 361 448
#
# _framework density 28.34093
#
# number of rings (size 3 to 8) (size 9 to 14) (size 15 to 20)
#    0.000    1.000    2.500    2.250    3.500    6.000 
#    0.000    7.500    0.000    0.000    0.000    0.000 
#    0.000    0.000    0.000    0.000    0.000    0.000 
#
# Total GULP energy -198389.593980 kJ/mol
# GULP energy per Si atom -12399.349624 kJ/mol
# Density = 2.827643 g / cm^3
# Si number density = 28.340930 Si / 1000 Ang^3
#
#
#
# Elastic Constant Matrix: (Units=GPa)
#
#
# Indices 1 2 3 4 5 6 
#
# 1 169.4340 32.5690 46.4443 0.0000 0.0000 0.0000
# 2 32.5690 101.5890 37.1616 0.0000 0.0000 0.0000
# 3 46.4443 37.1616 170.4534 0.0000 0.0000 0.0000
# 4 0.0000 0.0000 0.0000 36.5983 0.0000 0.0000
# 5 0.0000 0.0000 0.0000 0.0000 27.3682 0.0000
# 6 0.0000 0.0000 0.0000 0.0000 0.0000 39.4348
#
#
#
# Elastic Compliance Matrix: (Units=1/GPa)
#
#
# Indices 1 2 3 4 5 6 
#
# 1 0.006605 -0.001586 -0.001454 0.000000 0.000000 0.000000
# 2 -0.001586 0.011077 -0.001983 0.000000 0.000000 0.000000
# 3 -0.001454 -0.001983 0.006695 0.000000 0.000000 0.000000
# 4 0.000000 0.000000 0.000000 0.027324 0.000000 0.000000
# 5 0.000000 0.000000 0.000000 0.000000 0.036539 0.000000
# 6 0.000000 0.000000 0.000000 0.000000 0.000000 0.025358
#
#
# Mechanical properties :
#
#
# Convention : Reuss Voigt Hill
#
# Bulk Modulus (GPa) = 69.77215 74.86960 72.32087
# Shear Modulus (GPa) = 38.93420 42.36702 40.65061
#
# Velocity S-wave (km/s) = 3.71047 3.87060 3.79138
# Velocity P-wave (km/s) = 6.55966 6.81544 6.68877
#
# Compressibility (1/GPa) = 0.01433237
#
# Stress axis : x y z
#
# Youngs Moduli (GPa) = 151.39110 90.27433 149.36019
#
# Poissons Ratio (x) = 0.14315 0.21718
# Poissons Ratio (y) = 0.24007 0.29618
# Poissons Ratio (z) = 0.22014 0.17901
#
# Static dielectric constant tensor:
#      x y z
#    x 5.748450 0.000000 0.000000 
#    y 0.000000 5.072200 0.000000 
#    z 0.000000 0.000000 5.000160 
# 
# 
# High freq. dielectric constant tensor:
#      x y z
#    x 2.172640 0.000000 0.000000 
#    y 0.000000 2.156310 0.000000 
#    z 0.000000 0.000000 2.161110 
# 
# From -- ./inp_files/12168.got.cif
#   From: 2010.03.12/outbox.cif.g09.slc.cpg/sg46_7_cif.got.tgz:12168.got - 2010.04.14 02:56:35.
