data_PCOD8193105
_publ_section_title
;
Structure prediction by ZEFSAII (Michael W. Deem and Ramdas Pophale) SiO2 
 PCOD8193105
Probable space group: I M A 2
;
_chemical_formula_sum "Si O2"
_cell_formula_units_Z 40
_cell_length_a 18.078316
_cell_length_b 18.879200
_cell_length_c 4.953376
_cell_angle_alpha 90.000000
_cell_angle_beta 90.000000
_cell_angle_gamma 90.000000
_cell_volume 1690.607753
_symmetry_space_group_name_H-M "I M A 2"
_symmetry_group_IT_number 46
_symmetry_cell_setting 'orthorhombic'
loop_
_space_group_symop_operation_xyz
x,y,z
-x,-y,z
1/2-x,y,z
1/2+x,-y,z
1/2+x,1/2+y,1/2+z
1/2-x,1/2-y,1/2+z
-x,1/2+y,1/2+z
x,1/2-y,1/2+z
loop_
_atom_site_type_symbol
_atom_site_label
_atom_site_fract_x
_atom_site_fract_y
_atom_site_fract_z
Si Si1 0.333310 0.616316 0.537400
Si Si2 0.105365 0.949508 0.539205
Si Si3 0.976451 0.201875 0.023695
Si Si4 0.831772 0.796979 0.536970
Si Si5 0.046751 0.100944 0.415522
O O1 0.250000 0.642727 0.478285
O O2 0.356273 0.552298 0.331730
O O3 0.389389 0.682451 0.518072
O O4 0.336289 0.585524 0.837328
O O5 0.031153 0.901443 0.576094
O O6 0.082280 0.023281 0.402463
O O7 0.996222 0.265926 0.232348
O O8 0.027042 0.133946 0.117664
O O9 0.750000 0.831002 0.574850
O O10 0.841876 0.730775 0.733538
O O11 0.893940 0.855225 0.588932
#
# Coordination Sequence:
#
# PCOD8193105 Si02
#       5
#     8   8   8   8   8
#     4  11  24  43  63  92 131 166 213 269 318 386
#     4  10  24  40  64  93 121 168 214 259 326 381
#     4  11  23  39  64  95 124 167 215 261 328 389
#     4  10  22  38  58  87 121 158 199 249 311 374
#     4  10  22  41  64  91 127 161 211 268 316 387
#
# _framework density 23.660131
#
# number of rings (size 3 to 8) (size 9 to 14) (size 15 to 20)
#    0.000    1.600    0.000    4.200    0.000   15.200 
#    0.000    2.000    0.000    0.000    0.000    0.000 
#    0.000    0.000    0.000    0.000    0.000    0.000 
#
# Total GULP energy -247884.074310 kJ/mol
# GULP energy per Si atom -12394.203715 kJ/mol
# Density = 2.360628 g / cm^3
# Si number density = 23.660131 Si / 1000 Ang^3
#
#
#
# Elastic Constant Matrix: (Units=GPa)
#
#
# Indices 1 2 3 4 5 6 
#
# 1 131.8268 51.2945 21.2695 0.0000 0.0000 0.0000
# 2 51.2945 85.2208 10.3015 0.0000 0.0000 0.0000
# 3 21.2695 10.3015 76.1557 0.0000 0.0000 0.0000
# 4 0.0000 0.0000 0.0000 28.6811 0.0000 0.0000
# 5 0.0000 0.0000 0.0000 0.0000 26.4757 0.0000
# 6 0.0000 0.0000 0.0000 0.0000 0.0000 31.9103
#
#
#
# Elastic Compliance Matrix: (Units=1/GPa)
#
#
# Indices 1 2 3 4 5 6 
#
# 1 0.010212 -0.005898 -0.002054 0.000000 0.000000 0.000000
# 2 -0.005898 0.015336 -0.000427 0.000000 0.000000 0.000000
# 3 -0.002054 -0.000427 0.013763 0.000000 0.000000 0.000000
# 4 0.000000 0.000000 0.000000 0.034866 0.000000 0.000000
# 5 0.000000 0.000000 0.000000 0.000000 0.037770 0.000000
# 6 0.000000 0.000000 0.000000 0.000000 0.000000 0.031338
#
#
# Mechanical properties :
#
#
# Convention : Reuss Voigt Hill
#
# Bulk Modulus (GPa) = 44.34364 50.99271 47.66817
# Shear Modulus (GPa) = 29.83966 31.43595 30.63781
#
# Velocity S-wave (km/s) = 3.55516 3.64901 3.60239
# Velocity P-wave (km/s) = 5.96949 6.27317 6.12322
#
# Compressibility (1/GPa) = 0.02255115
#
# Stress axis : x y z
#
# Youngs Moduli (GPa) = 97.92125 65.20543 72.66117
#
# Poissons Ratio (x) = 0.38461 0.14927
# Poissons Ratio (y) = 0.57759 0.03104
# Poissons Ratio (z) = 0.20116 0.02785
#
# Static dielectric constant tensor:
#      x y z
#    x 4.510210 0.000000 0.000000 
#    y 0.000000 4.138520 0.000000 
#    z 0.000000 0.000000 4.106580 
# 
# 
# High freq. dielectric constant tensor:
#      x y z
#    x 1.948600 0.000000 0.000000 
#    y 0.000000 1.916860 0.000000 
#    z 0.000000 0.000000 1.938910 
# 
# From -- ./inp_files/1590.got.cif
#   From: 2010.03.12/outbox.cif.g09.slc.cpg/sg46_1_cif.got.tgz:1590.got - 2010.04.14 02:56:35.
