data_PCOD8193797
_publ_section_title
;
Structure prediction by ZEFSAII (Michael W. Deem and Ramdas Pophale) SiO2 
 PCOD8193797
Probable space group: P M M M
;
_chemical_formula_sum "Si O2"
_cell_formula_units_Z 64
_cell_length_a 9.206659
_cell_length_b 14.284367
_cell_length_c 29.334477
_cell_angle_alpha 90.000000
_cell_angle_beta 90.000000
_cell_angle_gamma 90.000000
_cell_volume 3857.815088
_symmetry_space_group_name_H-M "P M M M"
_symmetry_group_IT_number 47
_symmetry_cell_setting 'orthorhombic'
loop_
_space_group_symop_operation_xyz
x,y,z
-x,-y,z
x,-y,-z
-x,y,-z
-x,-y,-z
x,y,-z
-x,y,z
x,-y,z
loop_
_atom_site_type_symbol
_atom_site_label
_atom_site_fract_x
_atom_site_fract_y
_atom_site_fract_z
Si Si1 0.166512 0.892588 0.313909
Si Si2 0.330115 0.107595 0.596189
Si Si3 0.167698 0.608006 0.366636
Si Si4 0.826037 0.894187 0.146204
Si Si5 0.832112 0.737106 0.449185
Si Si6 0.670439 0.391336 0.275170
Si Si7 0.162277 0.111034 0.951778
Si Si8 0.170715 0.766273 0.228388
O O1 0.263706 0.858407 0.355890
O O2 0.209533 0.832748 0.270396
O O3 0.000000 0.876905 0.328078
O O4 0.197640 0.000000 0.301328
O O5 0.500000 0.125057 0.597739
O O6 0.260053 0.168085 0.555953
O O7 0.290725 0.000000 0.586661
O O8 0.194625 0.500000 0.377391
O O9 0.219910 0.661639 0.411928
O O10 0.261046 0.640835 0.323312
O O11 0.000000 0.628920 0.354956
O O12 0.764398 0.858772 0.096465
O O13 0.770903 0.820006 0.183554
O O14 0.000000 0.896010 0.145142
O O15 0.770788 0.000000 0.157535
O O16 0.804742 0.696677 0.500000
O O17 0.000000 0.762167 0.442034
O O18 0.500000 0.371870 0.276824
O O19 0.705261 0.500000 0.265466
O O20 0.743156 0.331137 0.234569
O O21 0.000000 0.152583 0.953278
O O22 0.153865 0.000000 0.950254
O O23 0.240990 0.142341 0.000000
O O24 0.000000 0.744916 0.224997
#
# Coordination Sequence:
#
# PCOD8193797 Si02
#       8
#     8   8   8   8   8   8   8   8
#     4   9  17  29  45  65  89 116 144 172 205 249
#     4  10  21  35  49  65  86 114 148 182 212 242
#     4   9  18  34  55  75  93 112 135 166 205 251
#     4   8  13  21  34  56  88 122 153 183 215 254
#     4  10  21  35  51  72  94 114 137 166 204 250
#     4  10  21  35  49  65  86 113 144 177 214 256
#     4   7   9  14  26  46  76 116 155 184 211 247
#     4  10  18  27  43  66  90 116 145 178 216 255
#
# _framework density 16.589701000000002
#
# number of rings (size 3 to 8) (size 9 to 14) (size 15 to 20)
#    0.000    2.875    0.000    3.000    0.000    7.750 
#    0.000    2.500    0.000    1.125    0.000    2.625 
#    0.000    1.000    0.000    9.375    0.000    3.750 
#
# Total GULP energy -793167.292230 kJ/mol
# GULP energy per Si atom -12393.238941 kJ/mol
# Density = 1.655194 g / cm^3
# Si number density = 16.589701 Si / 1000 Ang^3
#
#
#
# Elastic Constant Matrix: (Units=GPa)
#
#
# Indices 1 2 3 4 5 6 
#
# 1 40.2625 30.4486 36.0554 0.0000 0.0000 0.0000
# 2 30.4486 70.4282 64.0957 0.0000 0.0000 0.0000
# 3 36.0554 64.0957 132.5946 0.0000 0.0000 0.0000
# 4 0.0000 0.0000 0.0000 18.8385 0.0000 0.0000
# 5 0.0000 0.0000 0.0000 0.0000 0.8593 0.0000
# 6 0.0000 0.0000 0.0000 0.0000 0.0000 19.2604
#
#
#
# Elastic Compliance Matrix: (Units=1/GPa)
#
#
# Indices 1 2 3 4 5 6 
#
# 1 0.038225 -0.012617 -0.004295 0.000000 0.000000 0.000000
# 2 -0.012617 0.029517 -0.010837 0.000000 0.000000 0.000000
# 3 -0.004295 -0.010837 0.013948 0.000000 0.000000 0.000000
# 4 0.000000 0.000000 0.000000 0.053083 0.000000 0.000000
# 5 0.000000 0.000000 0.000000 0.000000 1.163746 0.000000
# 6 0.000000 0.000000 0.000000 0.000000 0.000000 0.051920
#
#
# Mechanical properties :
#
#
# Convention : Reuss Voigt Hill
#
# Bulk Modulus (GPa) = 38.18116 56.05387 47.11751
# Shear Modulus (GPa) = 3.53440 15.30401 9.41920
#
# Velocity S-wave (km/s) = 1.46120 3.04056 2.38539
# Velocity P-wave (km/s) = 5.09036 6.79621 6.00417
#
# Compressibility (1/GPa) = 0.02619093
#
# Stress axis : x y z
#
# Youngs Moduli (GPa) = 26.16086 33.87934 71.69236
#
# Poissons Ratio (x) = 0.42745 0.30794
# Poissons Ratio (y) = 0.33007 0.77695
# Poissons Ratio (z) = 0.11237 0.36716
#
# Static dielectric constant tensor:
#      x y z
#    x 2.853760 0.000000 0.000000 
#    y 0.000000 3.074040 0.000000 
#    z 0.000000 0.000000 3.498390 
# 
# 
# High freq. dielectric constant tensor:
#      x y z
#    x 1.607370 0.000000 0.000000 
#    y 0.000000 1.620260 0.000000 
#    z 0.000000 0.000000 1.637520 
# 
# From -- ./inp_files/22197.got.cif
#   From: 2010.03.12/outbox.cif.g09.slc.cpg/sg47_12_cif.got.tgz:22197.got - 2010.04.14 03:12:58.
