data_PCOD8193306
_publ_section_title
;
Structure prediction by ZEFSAII (Michael W. Deem and Ramdas Pophale) SiO2 
 PCOD8193306
Probable space group: I M A 2
;
_chemical_formula_sum "Si O2"
_cell_formula_units_Z 48
_cell_length_a 9.115171
_cell_length_b 24.043409
_cell_length_c 13.373692
_cell_angle_alpha 90.000000
_cell_angle_beta 90.000000
_cell_angle_gamma 90.000000
_cell_volume 2930.975456
_symmetry_space_group_name_H-M "I M A 2"
_symmetry_group_IT_number 46
_symmetry_cell_setting 'orthorhombic'
loop_
_space_group_symop_operation_xyz
x,y,z
-x,-y,z
1/2-x,y,z
1/2+x,-y,z
1/2+x,1/2+y,1/2+z
1/2-x,1/2-y,1/2+z
-x,1/2+y,1/2+z
x,1/2-y,1/2+z
loop_
_atom_site_type_symbol
_atom_site_label
_atom_site_fract_x
_atom_site_fract_y
_atom_site_fract_z
Si Si1 0.082877 0.726557 0.109710
Si Si2 0.579844 0.170196 0.405802
Si Si3 0.423661 0.272225 0.310509
Si Si4 0.422154 0.554988 0.588132
Si Si5 0.420914 0.666881 0.481875
Si Si6 0.421582 0.554778 0.816763
O O1 0.250000 0.723028 0.148492
O O2 0.972545 0.712351 0.198701
O O3 0.054239 0.681415 0.022815
O O4 0.049212 0.787954 0.067956
O O5 0.750000 0.179464 0.376595
O O6 0.486151 0.211901 0.338408
O O7 0.528912 0.107597 0.382336
O O8 0.250000 0.271143 0.317504
O O9 0.485014 0.319588 0.384011
O O10 0.500000 0.500000 0.545186
O O11 0.250000 0.546039 0.579882
O O12 0.473131 0.607358 0.522545
O O13 0.469956 0.565719 0.702485
O O14 0.250000 0.667557 0.452164
O O15 0.500000 0.500000 0.860086
O O16 0.250000 0.544444 0.825224
#
# Coordination Sequence:
#
# PCOD8193306 Si02
#       6
#     8   8   8   8   8   8
#     4   9  17  31  50  68  89 122 161 193 224 272
#     4   9  18  33  51  68  91 126 162 190 221 273
#     4  11  21  30  45  71  99 122 149 193 241 277
#     4   9  17  29  47  70  95 122 151 186 227 272
#     4   9  18  33  51  68  90 125 162 190 222 273
#     4   9  17  30  48  71  96 121 151 186 227 273
#
# _framework density 16.376799999999999
#
# number of rings (size 3 to 8) (size 9 to 14) (size 15 to 20)
#    0.000    2.667    0.000    3.500    0.000    6.667 
#    0.000    3.333    0.000    1.000    0.000    2.333 
#    0.000    0.000    0.000    0.000    0.000    0.000 
#
# Total GULP energy -297635.664758 kJ/mol
# GULP energy per Si atom -12401.486032 kJ/mol
# Density = 1.633953 g / cm^3
# Si number density = 16.376800 Si / 1000 Ang^3
#
#
#
# Elastic Constant Matrix: (Units=GPa)
#
#
# Indices 1 2 3 4 5 6 
#
# 1 71.5633 50.9471 50.9323 0.0000 0.0000 0.0000
# 2 50.9471 155.0554 66.2458 0.0001 0.0000 0.0000
# 3 50.9323 66.2458 94.8956 -0.0003 0.0002 0.0001
# 4 0.0000 0.0001 -0.0003 23.3489 0.0001 0.0000
# 5 0.0000 0.0000 0.0002 0.0001 18.5107 0.0000
# 6 0.0000 0.0000 0.0001 0.0000 0.0000 27.9193
#
#
#
# Elastic Compliance Matrix: (Units=1/GPa)
#
#
# Indices 1 2 3 4 5 6 
#
# 1 0.023781 -0.003364 -0.010416 0.000000 0.000000 0.000000
# 2 -0.003364 0.009666 -0.004942 0.000000 0.000000 0.000000
# 3 -0.010416 -0.004942 0.019578 0.000000 0.000000 0.000000
# 4 0.000000 0.000000 0.000000 0.042829 0.000000 0.000000
# 5 0.000000 0.000000 0.000000 0.000000 0.054023 0.000000
# 6 0.000000 0.000000 0.000000 0.000000 0.000000 0.035818
#
#
# Mechanical properties :
#
#
# Convention : Reuss Voigt Hill
#
# Bulk Modulus (GPa) = 64.17621 73.08499 68.63060
# Shear Modulus (GPa) = 21.89789 24.18173 23.03981
#
# Velocity S-wave (km/s) = 3.66064 3.84680 3.75488
# Velocity P-wave (km/s) = 7.55906 8.02836 7.79724
#
# Compressibility (1/GPa) = 0.01558210
#
# Stress axis : x y z
#
# Youngs Moduli (GPa) = 42.04970 103.45314 51.07686
#
# Poissons Ratio (x) = 0.34802 0.53199
# Poissons Ratio (y) = 0.14146 0.25244
# Poissons Ratio (z) = 0.43797 0.51130
#
# Static dielectric constant tensor:
#      x y z
#    x 2.985930 0.000000 0.000000 
#    y 0.000000 3.158110 0.000000 
#    z 0.000000 0.000000 2.993200 
# 
# 
# High freq. dielectric constant tensor:
#      x y z
#    x 1.623170 0.000000 0.000000 
#    y 0.000000 1.624730 0.000000 
#    z 0.000000 0.000000 1.617330 
# 
# From -- ./inp_files/9288.got.cif
#   From: 2010.03.12/outbox.cif.g09.slc.cpg/sg46_5_cif.got.tgz:9288.got - 2010.04.14 02:56:35.
