data_PCOD8193091
_publ_section_title
;
Structure prediction by ZEFSAII (Michael W. Deem and Ramdas Pophale) SiO2 
 PCOD8193091
Probable space group: I M A 2
;
_chemical_formula_sum "Si O2"
_cell_formula_units_Z 40
_cell_length_a 17.804545
_cell_length_b 9.999500
_cell_length_c 10.032930
_cell_angle_alpha 90.000000
_cell_angle_beta 90.000000
_cell_angle_gamma 90.000000
_cell_volume 1786.228221
_symmetry_space_group_name_H-M "I M A 2"
_symmetry_group_IT_number 46
_symmetry_cell_setting 'orthorhombic'
loop_
_space_group_symop_operation_xyz
x,y,z
-x,-y,z
1/2-x,y,z
1/2+x,-y,z
1/2+x,1/2+y,1/2+z
1/2-x,1/2-y,1/2+z
-x,1/2+y,1/2+z
x,1/2-y,1/2+z
loop_
_atom_site_type_symbol
_atom_site_label
_atom_site_fract_x
_atom_site_fract_y
_atom_site_fract_z
Si Si1 0.664199 0.493845 0.773250
Si Si2 0.836220 0.032811 0.581141
Si Si3 0.976684 0.847431 0.928988
Si Si4 0.939657 0.232861 0.182266
Si Si5 0.835255 0.795882 0.775936
O O1 0.750000 0.448748 0.750392
O O2 0.610597 0.400687 0.685657
O O3 0.650732 0.645109 0.725564
O O4 0.641996 0.482348 0.927772
O O5 0.750000 0.076572 0.599153
O O6 0.887238 0.142978 0.649210
O O7 0.851960 0.891086 0.650814
O O8 0.888006 0.834113 0.900628
O O9 0.021455 0.757754 0.822669
O O10 0.000000 0.000000 0.914763
O O11 0.995508 0.787798 0.073363
O O12 0.750000 0.811552 0.829196
#
# Coordination Sequence:
#
# PCOD8193091 Si02
#       5
#     8   8   8   8   8
#     4  10  23  44  72 108 142 188 243 296 362 430
#     4  10  21  44  73 104 142 187 236 295 363 426
#     4  12  28  45  71 109 143 188 245 294 370 424
#     4  12  25  47  71 103 145 188 239 304 351 430
#     4  10  24  46  71 103 145 188 236 294 363 439
#
# _framework density 22.393556
#
# number of rings (size 3 to 8) (size 9 to 14) (size 15 to 20)
#    0.000    1.200    4.000    0.600    5.600    0.000 
#    0.000    2.000    0.000    0.000    0.000    0.000 
#    0.000    0.000    0.000    0.000    0.000    0.000 
#
# Total GULP energy -248125.031723 kJ/mol
# GULP energy per Si atom -12406.251586 kJ/mol
# Density = 2.234259 g / cm^3
# Si number density = 22.393556 Si / 1000 Ang^3
#
#
#
# Elastic Constant Matrix: (Units=GPa)
#
#
# Indices 1 2 3 4 5 6 
#
# 1 95.4275 53.4213 30.4788 0.0000 0.0000 0.0000
# 2 53.4213 133.2965 26.6242 0.0000 0.0000 0.0000
# 3 30.4788 26.6242 80.9301 0.0000 0.0000 0.0000
# 4 0.0000 0.0000 0.0000 34.1590 0.0000 0.0000
# 5 0.0000 0.0000 0.0000 0.0000 35.5715 0.0000
# 6 0.0000 0.0000 0.0000 0.0000 0.0000 23.4543
#
#
#
# Elastic Compliance Matrix: (Units=1/GPa)
#
#
# Indices 1 2 3 4 5 6 
#
# 1 0.014529 -0.005062 -0.003806 0.000000 0.000000 0.000000
# 2 -0.005062 0.009794 -0.001315 0.000000 0.000000 0.000000
# 3 -0.003806 -0.001315 0.014222 0.000000 0.000000 0.000000
# 4 0.000000 0.000000 0.000000 0.029275 0.000000 0.000000
# 5 0.000000 0.000000 0.000000 0.000000 0.028112 0.000000
# 6 0.000000 0.000000 0.000000 0.000000 0.000000 0.042636
#
#
# Mechanical properties :
#
#
# Convention : Reuss Voigt Hill
#
# Bulk Modulus (GPa) = 55.01468 58.96695 56.99082
# Shear Modulus (GPa) = 30.30387 31.91230 31.10808
#
# Velocity S-wave (km/s) = 3.68263 3.77910 3.73118
# Velocity P-wave (km/s) = 6.53475 6.74028 6.63831
#
# Compressibility (1/GPa) = 0.01817697
#
# Stress axis : x y z
#
# Youngs Moduli (GPa) = 68.82846 102.10659 70.31117
#
# Poissons Ratio (x) = 0.51691 0.26762
# Poissons Ratio (y) = 0.34844 0.09248
# Poissons Ratio (z) = 0.26198 0.13430
#
# Static dielectric constant tensor:
#      x y z
#    x 4.237890 0.000000 0.000000 
#    y 0.000000 4.143160 0.000000 
#    z 0.000000 0.000000 3.878710 
# 
# 
# High freq. dielectric constant tensor:
#      x y z
#    x 1.896890 0.000000 0.000000 
#    y 0.000000 1.893900 0.000000 
#    z 0.000000 0.000000 1.876650 
# 
# From -- ./inp_files/11610.got.cif
#   From: 2010.03.12/outbox.cif.g09.slc.cpg/sg46_6_cif.got.tgz:11610.got - 2010.04.14 02:56:35.
