data_PCOD8193403
_publ_section_title
;
Structure prediction by ZEFSAII (Michael W. Deem and Ramdas Pophale) SiO2 
 PCOD8193403
Probable space group: I M A 2
;
_chemical_formula_sum "Si O2"
_cell_formula_units_Z 40
_cell_length_a 14.090661
_cell_length_b 4.973629
_cell_length_c 23.352214
_cell_angle_alpha 90.000000
_cell_angle_beta 90.000000
_cell_angle_gamma 90.000000
_cell_volume 1636.563327
_symmetry_space_group_name_H-M "I M A 2"
_symmetry_group_IT_number 46
_symmetry_cell_setting 'orthorhombic'
loop_
_space_group_symop_operation_xyz
x,y,z
-x,-y,z
1/2-x,y,z
1/2+x,-y,z
1/2+x,1/2+y,1/2+z
1/2-x,1/2-y,1/2+z
-x,1/2+y,1/2+z
x,1/2-y,1/2+z
loop_
_atom_site_type_symbol
_atom_site_label
_atom_site_fract_x
_atom_site_fract_y
_atom_site_fract_z
Si Si1 0.500000 0.000000 0.449690
Si Si2 0.400135 0.855558 0.026497
Si Si3 0.900347 0.854793 0.289570
Si Si4 0.000000 0.000000 0.866492
Si Si5 0.250000 0.101897 0.947414
Si Si6 0.750000 0.698807 0.695487
Si Si7 0.750000 0.208612 0.619121
Si Si8 0.750000 0.398239 0.868540
O O1 0.586982 0.073042 0.492268
O O2 0.499930 0.250126 0.408149
O O3 0.344554 0.772958 0.083413
O O4 0.500000 0.000000 0.041749
O O5 0.342988 0.063038 0.986377
O O6 0.844944 0.765907 0.232770
O O7 0.842806 0.062063 0.329574
O O8 0.913100 0.572617 0.323900
O O9 0.000000 0.000000 0.274633
O O10 0.250000 0.900587 0.893451
O O11 0.250000 0.401108 0.922737
O O12 0.750000 0.393997 0.674483
O O13 0.750000 0.901932 0.641576
#
# Coordination Sequence:
#
# PCOD8193403 Si02
#       8
#     4   8   8   4   4   4   4   4
#     4  12  24  40  71 110 153 194 238 294 372 462
#     4  11  27  47  76 110 153 196 261 311 377 462
#     4  11  27  47  76 110 153 196 261 311 377 462
#     4  12  24  40  71 110 153 194 238 294 372 462
#     4  11  26  41  66 106 156 199 236 295 370 448
#     4  11  30  55  78 108 152 199 264 335 393 437
#     4  11  30  55  78 108 152 199 264 335 393 437
#     4  11  26  41  66 106 156 199 236 295 370 448
#
# _framework density 24.441459999999999
#
# number of rings (size 3 to 8) (size 9 to 14) (size 15 to 20)
#    0.000    0.800    2.000    2.400   11.200    4.000 
#    0.000    0.000    0.000    0.000    0.000    0.000 
#    0.000    0.000    0.000    0.000    0.000    0.000 
#
# Total GULP energy -247823.272619 kJ/mol
# GULP energy per Si atom -12391.163631 kJ/mol
# Density = 2.438583 g / cm^3
# Si number density = 24.441460 Si / 1000 Ang^3
#
#
#
# Elastic Constant Matrix: (Units=GPa)
#
#
# Indices 1 2 3 4 5 6 
#
# 1 172.9643 31.5449 63.2173 0.0000 0.0000 0.0000
# 2 31.5449 116.1697 38.2416 0.0000 0.0000 0.0000
# 3 63.2173 38.2416 132.3499 0.0000 0.0000 0.0000
# 4 0.0000 0.0000 0.0000 36.6355 0.0000 0.0000
# 5 0.0000 0.0000 0.0000 0.0000 47.6585 0.0000
# 6 0.0000 0.0000 0.0000 0.0000 0.0000 31.0172
#
#
#
# Elastic Compliance Matrix: (Units=1/GPa)
#
#
# Indices 1 2 3 4 5 6 
#
# 1 0.007088 -0.000895 -0.003127 0.000000 0.000000 0.000000
# 2 -0.000895 0.009626 -0.002354 0.000000 0.000000 0.000000
# 3 -0.003127 -0.002354 0.009729 0.000000 0.000000 0.000000
# 4 0.000000 0.000000 0.000000 0.027296 0.000000 0.000000
# 5 0.000000 0.000000 0.000000 0.000000 0.020983 0.000000
# 6 0.000000 0.000000 0.000000 0.000000 0.000000 0.032240
#
#
# Mechanical properties :
#
#
# Convention : Reuss Voigt Hill
#
# Bulk Modulus (GPa) = 73.03836 76.38794 74.71315
# Shear Modulus (GPa) = 40.23270 42.29424 41.26347
#
# Velocity S-wave (km/s) = 4.06160 4.16436 4.11330
# Velocity P-wave (km/s) = 7.20717 7.37860 7.29339
#
# Compressibility (1/GPa) = 0.01369144
#
# Stress axis : x y z
#
# Youngs Moduli (GPa) = 141.09099 103.88497 102.78211
#
# Poissons Ratio (x) = 0.09301 0.32137
# Poissons Ratio (y) = 0.12632 0.24192
# Poissons Ratio (z) = 0.44115 0.24452
#
# Static dielectric constant tensor:
#      x y z
#    x 4.986860 0.000000 0.000000 
#    y 0.000000 51.853360 0.000000 
#    z 0.000000 0.000000 4.501350 
# 
# 
# High freq. dielectric constant tensor:
#      x y z
#    x 1.984970 0.000000 0.000000 
#    y 0.000000 1.986110 0.000000 
#    z 0.000000 0.000000 1.966890 
# 
# From -- ./inp_files/23578.got.cif
#   From: 2010.03.12/outbox.cif.g09.slc.cpg/sg46_12_cif.got.tgz:23578.got - 2010.04.14 02:56:35.
