data_PCOD8193491
_publ_section_title
;
Structure prediction by ZEFSAII (Michael W. Deem and Ramdas Pophale) SiO2 
 PCOD8193491
Probable space group: P M M M
;
_chemical_formula_sum "Si O2"
_cell_formula_units_Z 52
_cell_length_a 9.793981
_cell_length_b 24.885903
_cell_length_c 13.452769
_cell_angle_alpha 90.000000
_cell_angle_beta 90.000000
_cell_angle_gamma 90.000000
_cell_volume 3278.871117
_symmetry_space_group_name_H-M "P M M M"
_symmetry_group_IT_number 47
_symmetry_cell_setting 'orthorhombic'
loop_
_space_group_symop_operation_xyz
x,y,z
-x,-y,z
x,-y,-z
-x,y,-z
-x,-y,-z
x,y,-z
-x,y,z
x,-y,z
loop_
_atom_site_type_symbol
_atom_site_label
_atom_site_fract_x
_atom_site_fract_y
_atom_site_fract_z
Si Si1 0.500000 0.059899 0.382003
Si Si2 0.835702 0.610156 0.786317
Si Si3 0.000000 0.939923 0.617976
Si Si4 0.344028 0.302075 0.112683
Si Si5 0.250176 0.129576 0.617817
Si Si6 0.654714 0.236114 0.700509
Si Si7 0.342102 0.649633 0.614172
Si Si8 0.160151 0.500000 0.110390
O O1 0.500000 0.054908 0.500000
O O2 0.626794 0.093558 0.343582
O O3 0.500000 0.000000 0.335565
O O4 0.767375 0.652933 0.860696
O O5 0.763805 0.614477 0.678592
O O6 0.795313 0.552146 0.828334
O O7 0.000000 0.618982 0.779080
O O8 0.125495 0.905409 0.656048
O O9 0.000000 0.945235 0.500000
O O10 0.000000 0.000000 0.664233
O O11 0.500000 0.323923 0.127906
O O12 0.322182 0.250653 0.183729
O O13 0.319940 0.283262 0.000000
O O14 0.251909 0.139144 0.500000
O O15 0.246375 0.187573 0.670418
O O16 0.500000 0.217482 0.679444
O O17 0.689391 0.287764 0.633146
O O18 0.314777 0.635394 0.500000
O O19 0.500000 0.637261 0.643722
O O20 0.000000 0.500000 0.096108
O O21 0.227970 0.500000 0.000000
#
# Coordination Sequence:
#
# PCOD8193491 Si02
#       8
#     4   8   4   8   8   8   8   4
#     4   9  16  24  38  60  83 111 149 188 220 257
#     4  10  19  32  51  74  97 123 156 196 235 278
#     4   9  18  30  40  54  85 125 153 178 220 267
#     4   9  18  33  51  69  94 125 153 185 234 288
#     4  10  17  26  41  60  86 118 151 184 219 262
#     4   9  16  28  46  68  90 115 151 190 226 270
#     4   9  18  33  51  68  95 132 163 190 229 278
#     4   9  18  32  50  71  96 124 155 193 242 289
#
# _framework density 15.859116999999999
#
# number of rings (size 3 to 8) (size 9 to 14) (size 15 to 20)
#    0.000    2.692    0.769    2.769    0.000    3.692 
#    5.538    1.923    0.000    5.077    0.000    0.000 
#    0.000    3.692    0.000    0.000    0.000    0.000 
#
# Total GULP energy -644491.212978 kJ/mol
# GULP energy per Si atom -12394.061788 kJ/mol
# Density = 1.582302 g / cm^3
# Si number density = 15.859117 Si / 1000 Ang^3
#
#
#
# Elastic Constant Matrix: (Units=GPa)
#
#
# Indices 1 2 3 4 5 6 
#
# 1 103.8376 59.4602 39.5262 0.0000 0.0000 0.0000
# 2 59.4602 122.4350 47.3053 0.0000 0.0000 0.0000
# 3 39.5262 47.3053 96.6727 0.0000 0.0000 0.0000
# 4 0.0000 0.0000 0.0000 15.0167 0.0000 0.0000
# 5 0.0000 0.0000 0.0000 0.0000 22.1027 0.0000
# 6 0.0000 0.0000 0.0000 0.0000 0.0000 9.9968
#
#
#
# Elastic Compliance Matrix: (Units=1/GPa)
#
#
# Indices 1 2 3 4 5 6 
#
# 1 0.013993 -0.005654 -0.002954 0.000000 0.000000 0.000000
# 2 -0.005654 0.012356 -0.003735 0.000000 0.000000 0.000000
# 3 -0.002954 -0.003735 0.013380 0.000000 0.000000 0.000000
# 4 0.000000 0.000000 0.000000 0.066592 0.000000 0.000000
# 5 0.000000 0.000000 0.000000 0.000000 0.045243 0.000000
# 6 0.000000 0.000000 0.000000 0.000000 0.000000 0.100032
#
#
# Mechanical properties :
#
#
# Convention : Reuss Voigt Hill
#
# Bulk Modulus (GPa) = 66.47827 68.39208 67.43517
# Shear Modulus (GPa) = 17.77480 21.20016 19.48748
#
# Velocity S-wave (km/s) = 3.35146 3.66017 3.50921
# Velocity P-wave (km/s) = 7.54887 7.81542 7.68330
#
# Compressibility (1/GPa) = 0.01504251
#
# Stress axis : x y z
#
# Youngs Moduli (GPa) = 71.46598 80.92957 74.74029
#
# Poissons Ratio (x) = 0.45758 0.22081
# Poissons Ratio (y) = 0.40407 0.27913
# Poissons Ratio (z) = 0.21114 0.30225
#
# Static dielectric constant tensor:
#      x y z
#    x 3.032390 0.000000 0.000000 
#    y 0.000000 2.999870 0.000000 
#    z 0.000000 0.000000 2.916690 
# 
# 
# High freq. dielectric constant tensor:
#      x y z
#    x 1.607340 0.000000 0.000000 
#    y 0.000000 1.603650 0.000000 
#    z 0.000000 0.000000 1.583820 
# 
# From -- ./inp_files/21845.got.cif
#   From: 2010.03.12/outbox.cif.g09.slc.cpg/sg47_11_cif.got.tgz:21845.got - 2010.04.14 03:12:58.
