data_PCOD8193483
_publ_section_title
;
Structure prediction by ZEFSAII (Michael W. Deem and Ramdas Pophale) SiO2 
 PCOD8193483
Probable space group: P M M M
;
_chemical_formula_sum "Si O2"
_cell_formula_units_Z 48
_cell_length_a 19.501787
_cell_length_b 20.831321
_cell_length_c 9.326699
_cell_angle_alpha 90.000000
_cell_angle_beta 90.000000
_cell_angle_gamma 90.000000
_cell_volume 3788.952676
_symmetry_space_group_name_H-M "P M M M"
_symmetry_group_IT_number 47
_symmetry_cell_setting 'orthorhombic'
loop_
_space_group_symop_operation_xyz
x,y,z
-x,-y,z
x,-y,-z
-x,y,-z
-x,-y,-z
x,y,-z
-x,y,z
x,-y,z
loop_
_atom_site_type_symbol
_atom_site_label
_atom_site_fract_x
_atom_site_fract_y
_atom_site_fract_z
Si Si1 0.581547 0.880840 0.659575
Si Si2 0.576300 0.739795 0.329548
Si Si3 0.664849 0.379462 0.670530
Si Si4 0.418091 0.000000 0.160727
Si Si5 0.205542 0.424565 0.832714
Si Si6 0.576420 0.500000 0.669816
Si Si7 0.075606 0.576160 0.660604
O O1 0.611604 0.891712 0.500000
O O2 0.500000 0.884523 0.652710
O O3 0.602439 0.810391 0.720045
O O4 0.611094 0.936407 0.761719
O O5 0.571522 0.738897 0.500000
O O6 0.500000 0.725354 0.267522
O O7 0.629493 0.686257 0.276392
O O8 0.676726 0.381450 0.500000
O O9 0.736970 0.384646 0.749776
O O10 0.616237 0.437164 0.722909
O O11 0.500000 0.000000 0.163207
O O12 0.389504 0.000000 0.000000
O O13 0.215856 0.500000 0.801744
O O14 0.132530 0.399511 0.772711
O O15 0.209008 0.408918 0.000000
O O16 0.500000 0.500000 0.736492
O O17 0.571227 0.500000 0.500000
O O18 0.093790 0.600342 0.500000
O O19 0.074159 0.500000 0.661602
O O20 0.000000 0.601995 0.706012
#
# Coordination Sequence:
#
# PCOD8193483 Si02
#       7
#     8   8   8   4   8   4   8
#     4   8  13  22  35  49  65  85 106 131 168 211
#     4   8  14  24  38  54  68  83 111 151 187 217
#     4  10  17  26  40  54  67  86 114 150 186 218
#     4   9  15  21  31  49  69  85 103 129 160 199
#     4  10  19  28  37  50  71  94 114 138 170 212
#     4   9  16  24  37  55  66  77 108 153 193 222
#     4   8  14  25  41  58  72  85 104 132 166 205
#
# _framework density 12.668407999999999
#
# number of rings (size 3 to 8) (size 9 to 14) (size 15 to 20)
#    0.000    3.167    0.833    2.750    0.000    4.000 
#    0.000    2.500    0.000    3.500    0.000    0.000 
#    0.000    0.000    0.000    0.000    0.000    0.000 
#
# Total GULP energy -594883.407308 kJ/mol
# GULP energy per Si atom -12393.404319 kJ/mol
# Density = 1.263957 g / cm^3
# Si number density = 12.668408 Si / 1000 Ang^3
#
#
#
# Elastic Constant Matrix: (Units=GPa)
#
#
# Indices 1 2 3 4 5 6 
#
# 1 79.4968 37.0079 35.6373 0.0000 0.0000 0.0000
# 2 37.0079 89.8783 35.6588 0.0000 0.0000 0.0000
# 3 35.6373 35.6588 56.3889 0.0000 0.0000 0.0000
# 4 0.0000 0.0000 0.0000 7.5766 0.0000 0.0000
# 5 0.0000 0.0000 0.0000 0.0000 8.2829 0.0000
# 6 0.0000 0.0000 0.0000 0.0000 0.0000 3.6080
#
#
#
# Elastic Compliance Matrix: (Units=1/GPa)
#
#
# Indices 1 2 3 4 5 6 
#
# 1 0.018565 -0.003991 -0.009210 0.000000 0.000000 0.000000
# 2 -0.003991 0.015710 -0.007413 0.000000 0.000000 0.000000
# 3 -0.009210 -0.007413 0.028242 0.000000 0.000000 0.000000
# 4 0.000000 0.000000 0.000000 0.131986 0.000000 0.000000
# 5 0.000000 0.000000 0.000000 0.000000 0.120730 0.000000
# 6 0.000000 0.000000 0.000000 0.000000 0.000000 0.277166
#
#
# Mechanical properties :
#
#
# Convention : Reuss Voigt Hill
#
# Bulk Modulus (GPa) = 46.96646 49.15245 48.05945
# Shear Modulus (GPa) = 7.80369 11.72416 9.76392
#
# Velocity S-wave (km/s) = 2.48462 3.04544 2.77921
# Velocity P-wave (km/s) = 6.73686 7.15889 6.95108
#
# Compressibility (1/GPa) = 0.02129179
#
# Stress axis : x y z
#
# Youngs Moduli (GPa) = 53.86374 63.65269 35.40818
#
# Poissons Ratio (x) = 0.25401 0.32610
# Poissons Ratio (y) = 0.21494 0.26247
# Poissons Ratio (z) = 0.49607 0.47184
#
# Static dielectric constant tensor:
#      x y z
#    x 2.522220 0.000000 0.000000 
#    y 0.000000 2.608530 0.000000 
#    z 0.000000 0.000000 2.478290 
# 
# 
# High freq. dielectric constant tensor:
#      x y z
#    x 1.449870 0.000000 0.000000 
#    y 0.000000 1.455840 0.000000 
#    z 0.000000 0.000000 1.467550 
# 
# From -- ./inp_files/11695.got.cif
#   From: 2010.03.12/outbox.cif.g09.slc.cpg/sg47_6_cif.got.tgz:11695.got - 2010.04.14 03:12:58.
