data_PCOD8193331
_publ_section_title
;
Structure prediction by ZEFSAII (Michael W. Deem and Ramdas Pophale) SiO2 
 PCOD8193331
Probable space group: I M A 2
;
_chemical_formula_sum "Si O2"
_cell_formula_units_Z 48
_cell_length_a 26.069437
_cell_length_b 17.418858
_cell_length_c 5.254886
_cell_angle_alpha 90.000000
_cell_angle_beta 90.000000
_cell_angle_gamma 90.000000
_cell_volume 2386.242793
_symmetry_space_group_name_H-M "I M A 2"
_symmetry_group_IT_number 46
_symmetry_cell_setting 'orthorhombic'
loop_
_space_group_symop_operation_xyz
x,y,z
-x,-y,z
1/2-x,y,z
1/2+x,-y,z
1/2+x,1/2+y,1/2+z
1/2-x,1/2-y,1/2+z
-x,1/2+y,1/2+z
x,1/2-y,1/2+z
loop_
_atom_site_type_symbol
_atom_site_label
_atom_site_fract_x
_atom_site_fract_y
_atom_site_fract_z
Si Si1 0.329837 0.583870 0.933850
Si Si2 0.510182 0.698291 0.279269
Si Si3 0.415097 0.067251 0.832648
Si Si4 0.308321 0.011493 0.933360
Si Si5 0.061066 0.917116 0.553224
Si Si6 0.500000 0.500000 0.689323
Si Si7 0.750000 0.207215 0.448731
O O1 0.318986 0.524514 0.708345
O O2 0.299511 0.659849 0.872923
O O3 0.312899 0.549961 0.206722
O O4 0.387438 0.618052 0.938055
O O5 0.505784 0.746415 0.536794
O O6 0.564283 0.652275 0.266787
O O7 0.463145 0.635727 0.277646
O O8 0.354151 0.074517 0.899546
O O9 0.422150 0.005331 0.609629
O O10 0.449718 0.028351 0.047276
O O11 0.250000 0.046536 0.929381
O O12 0.015530 0.924443 0.349790
O O13 0.750000 0.222585 0.751053
#
# Coordination Sequence:
#
# PCOD8193331 Si02
#       7
#     8   8   8   8   8   4   4
#     4  11  23  38  60  90 118 154 219 266 311 358
#     4  12  26  40  60  92 137 168 204 256 328 406
#     4  11  23  38  66  94 124 167 217 268 324 378
#     4  11  21  39  65  92 116 151 208 288 314 361
#     4  11  23  38  65  91 124 170 215 269 307 389
#     4  12  16  38  66  94 122 158 216 266 326 362
#     4  12  24  40  58  78 126 176 202 246 312 382
#
# _framework density 20.115304999999999
#
# number of rings (size 3 to 8) (size 9 to 14) (size 15 to 20)
#    0.000    0.667    6.667    2.000    0.000    1.333 
#    0.000    0.000    0.000    1.000    0.000    0.000 
#    0.000    0.000    0.000    0.000    0.000    0.000 
#
# Total GULP energy -297331.973940 kJ/mol
# GULP energy per Si atom -12388.832248 kJ/mol
# Density = 2.006952 g / cm^3
# Si number density = 20.115305 Si / 1000 Ang^3
#
#
#
# Elastic Constant Matrix: (Units=GPa)
#
#
# Indices 1 2 3 4 5 6 
#
# 1 181.3951 30.5275 21.2761 0.0000 0.0000 0.0000
# 2 30.5275 58.3854 14.7596 0.0000 0.0000 0.0000
# 3 21.2761 14.7596 89.8148 0.0000 0.0000 0.0000
# 4 0.0000 0.0000 0.0000 29.8164 0.0000 0.0000
# 5 0.0000 0.0000 0.0000 0.0000 -9.3325 0.0000
# 6 0.0000 0.0000 0.0000 0.0000 0.0000 7.4227
#
#
#
# Elastic Compliance Matrix: (Units=1/GPa)
#
#
# Indices 1 2 3 4 5 6 
#
# 1 0.006124 -0.002958 -0.000965 0.000000 0.000000 0.000000
# 2 -0.002958 0.019299 -0.002471 0.000000 0.000000 0.000000
# 3 -0.000965 -0.002471 0.011769 0.000000 0.000000 0.000000
# 4 0.000000 0.000000 0.000000 0.033539 0.000000 0.000000
# 5 0.000000 0.000000 0.000000 0.000000 -0.107153 0.000000
# 6 0.000000 0.000000 0.000000 0.000000 0.000000 0.134721
#
#
# Mechanical properties :
#
#
# Convention : Reuss Voigt Hill
#
# Bulk Modulus (GPa) = 40.97608 51.41352 46.19480
# Shear Modulus (GPa) = 41.93950 23.11682 32.52816
#
# Velocity S-wave (km/s) = 4.57108 3.39369 4.02566
# Velocity P-wave (km/s) = 6.94799 6.40086 6.68003
#
# Compressibility (1/GPa) = 0.02440448
#
# Stress axis : x y z
#
# Youngs Moduli (GPa) = 163.29782 51.81665 84.97236
#
# Poissons Ratio (x) = 0.15328 0.08196
# Poissons Ratio (y) = 0.48304 0.20994
# Poissons Ratio (z) = 0.15751 0.12802
#
# Static dielectric constant tensor:
#      x y z
#    x 4.343560 0.000000 0.000000 
#    y 0.000000 3.733670 0.000000 
#    z 0.000000 0.000000 3.767050 
# 
# 
# High freq. dielectric constant tensor:
#      x y z
#    x 1.800090 0.000000 0.000000 
#    y 0.000000 1.743330 0.000000 
#    z 0.000000 0.000000 1.800910 
# 
# From -- ./inp_files/2541.got.cif
#   From: 2010.03.12/outbox.cif.g09.slc.cpg/sg46_2_cif.got.tgz:2541.got - 2010.04.14 02:56:35.
