data_PCOD8193525
_publ_section_title
;
Structure prediction by ZEFSAII (Michael W. Deem and Ramdas Pophale) SiO2 
 PCOD8193525
Probable space group: P M M M
;
_chemical_formula_sum "Si O2"
_cell_formula_units_Z 60
_cell_length_a 15.697249
_cell_length_b 12.524080
_cell_length_c 18.966724
_cell_angle_alpha 90.000000
_cell_angle_beta 90.000000
_cell_angle_gamma 90.000000
_cell_volume 3728.736594
_symmetry_space_group_name_H-M "P M M M"
_symmetry_group_IT_number 47
_symmetry_cell_setting 'orthorhombic'
loop_
_space_group_symop_operation_xyz
x,y,z
-x,-y,z
x,-y,-z
-x,y,-z
-x,-y,-z
x,y,-z
-x,y,z
x,-y,z
loop_
_atom_site_type_symbol
_atom_site_label
_atom_site_fract_x
_atom_site_fract_y
_atom_site_fract_z
Si Si1 0.406580 0.626749 0.346426
Si Si2 0.592872 0.787953 0.079620
Si Si3 0.238541 0.372939 0.578798
Si Si4 0.100317 0.500000 0.921298
Si Si5 0.639402 0.376933 0.807091
Si Si6 0.229452 0.879260 0.081532
Si Si7 0.829104 0.313688 0.829267
Si Si8 0.096745 0.624772 0.688742
O O1 0.500000 0.662551 0.375695
O O2 0.398961 0.500000 0.346845
O O3 0.329310 0.673487 0.393510
O O4 0.398087 0.667435 0.266284
O O5 0.500000 0.843844 0.089837
O O6 0.596994 0.684887 0.128795
O O7 0.669036 0.869980 0.096653
O O8 0.602877 0.745497 0.000000
O O9 0.223468 0.328418 0.500000
O O10 0.241175 0.500000 0.578123
O O11 0.160558 0.334142 0.627836
O O12 0.131694 0.607250 0.885604
O O13 0.000000 0.500000 0.919966
O O14 0.137316 0.500000 0.000000
O O15 0.616470 0.500000 0.817876
O O16 0.739903 0.360333 0.803905
O O17 0.177656 0.801899 0.133688
O O18 0.201595 0.000000 0.098514
O O19 0.209235 0.850695 0.000000
O O20 0.888095 0.307087 0.759869
O O21 0.112812 0.500000 0.706232
O O22 0.000000 0.643439 0.662758
#
# Coordination Sequence:
#
# PCOD8193525 Si02
#       8
#     8   8   8   4   8   8   8   8
#     4   9  16  25  38  56  82 121 163 194 226 269
#     4   9  18  29  41  62  89 119 159 203 244 283
#     4   9  17  28  41  60  90 125 161 195 226 268
#     4  11  22  32  46  72  98 120 153 198 244 292
#     4  10  17  27  41  60  90 127 161 195 233 285
#     4   9  19  34  50  67  89 123 164 203 244 286
#     4  11  18  31  49  69  92 123 159 196 239 289
#     4  10  18  29  47  69  94 123 156 191 235 286
#
# _framework density 16.091242000000001
#
# number of rings (size 3 to 8) (size 9 to 14) (size 15 to 20)
#    0.000    2.333    2.667    1.200    0.000    2.400 
#    0.000    4.667    0.000    1.600    0.000    4.667 
#    0.000    0.533    0.000    1.200    0.000    7.733 
#
# Total GULP energy -743747.384768 kJ/mol
# GULP energy per Si atom -12395.789746 kJ/mol
# Density = 1.605462 g / cm^3
# Si number density = 16.091242 Si / 1000 Ang^3
#
#
#
# Elastic Constant Matrix: (Units=GPa)
#
#
# Indices 1 2 3 4 5 6 
#
# 1 102.5289 16.3817 58.7456 0.0000 0.0000 0.0000
# 2 16.3817 51.6437 39.3333 0.0000 0.0000 0.0000
# 3 58.7456 39.3333 105.6032 0.0000 0.0000 0.0000
# 4 0.0000 0.0000 0.0000 9.6585 0.0000 0.0000
# 5 0.0000 0.0000 0.0000 0.0000 20.0434 0.0000
# 6 0.0000 0.0000 0.0000 0.0000 0.0000 6.1075
#
#
#
# Elastic Compliance Matrix: (Units=1/GPa)
#
#
# Indices 1 2 3 4 5 6 
#
# 1 0.014486 0.002153 -0.008860 0.000000 0.000000 0.000000
# 2 0.002153 0.027352 -0.011385 0.000000 0.000000 0.000000
# 3 -0.008860 -0.011385 0.018639 0.000000 0.000000 0.000000
# 4 0.000000 0.000000 0.000000 0.103535 0.000000 0.000000
# 5 0.000000 0.000000 0.000000 0.000000 0.049892 0.000000
# 6 0.000000 0.000000 0.000000 0.000000 0.000000 0.163733
#
#
# Mechanical properties :
#
#
# Convention : Reuss Voigt Hill
#
# Bulk Modulus (GPa) = 41.16611 54.29966 47.73288
# Shear Modulus (GPa) = 11.85062 16.84957 14.35010
#
# Velocity S-wave (km/s) = 2.71673 3.23944 2.98953
# Velocity P-wave (km/s) = 5.95645 6.91449 6.45327
#
# Compressibility (1/GPa) = 0.02429183
#
# Stress axis : x y z
#
# Youngs Moduli (GPa) = 69.03217 36.56058 53.65112
#
# Poissons Ratio (x) = -0.07872 0.47537
# Poissons Ratio (y) = -0.14865 0.61084
# Poissons Ratio (z) = 0.61165 0.41626
#
# Static dielectric constant tensor:
#      x y z
#    x 3.264050 0.000000 0.000000 
#    y 0.000000 2.533920 0.000000 
#    z 0.000000 0.000000 3.172210 
# 
# 
# High freq. dielectric constant tensor:
#      x y z
#    x 1.632890 0.000000 0.000000 
#    y 0.000000 1.550450 0.000000 
#    z 0.000000 0.000000 1.619730 
# 
# From -- ./inp_files/31201.got.cif
#   From: 2010.03.12/outbox.cif.g09.slc.cpg/sg47_16_cif.got.tgz:31201.got - 2010.04.14 03:12:58.
