data_PCOD8193393
_publ_section_title
;
Structure prediction by ZEFSAII (Michael W. Deem and Ramdas Pophale) SiO2 
 PCOD8193393
Probable space group: I M A 2
;
_chemical_formula_sum "Si O2"
_cell_formula_units_Z 32
_cell_length_a 9.966961
_cell_length_b 10.127253
_cell_length_c 14.275873
_cell_angle_alpha 90.000000
_cell_angle_beta 90.000000
_cell_angle_gamma 90.000000
_cell_volume 1440.977151
_symmetry_space_group_name_H-M "I M A 2"
_symmetry_group_IT_number 46
_symmetry_cell_setting 'orthorhombic'
loop_
_space_group_symop_operation_xyz
x,y,z
-x,-y,z
1/2-x,y,z
1/2+x,-y,z
1/2+x,1/2+y,1/2+z
1/2-x,1/2-y,1/2+z
-x,1/2+y,1/2+z
x,1/2-y,1/2+z
loop_
_atom_site_type_symbol
_atom_site_label
_atom_site_fract_x
_atom_site_fract_y
_atom_site_fract_z
Si Si1 0.969887 0.199570 0.458510
Si Si2 0.250000 0.146426 0.695048
Si Si3 0.750000 0.088082 0.989373
Si Si4 0.000000 0.500000 0.115673
Si Si5 0.000000 0.000000 0.301433
Si Si6 0.250000 0.191309 0.908851
Si Si7 0.750000 0.569608 0.676989
O O1 0.881888 0.330122 0.464170
O O2 0.124819 0.238505 0.457439
O O3 0.937367 0.113737 0.550461
O O4 0.935845 0.115174 0.365855
O O5 0.250000 0.211058 0.797863
O O6 0.250000 0.281430 0.632002
O O7 0.382006 0.057887 0.680225
O O8 0.750000 0.964643 0.921321
O O9 0.750000 0.041070 0.096689
O O10 0.883057 0.944327 0.237640
#
# Coordination Sequence:
#
# PCOD8193393 Si02
#       7
#     8   4   4   4   4   4   4
#     4  11  24  49  71 102 140 191 237 280 362 433
#     4  12  27  46  71 108 144 183 242 299 351 419
#     4  12  28  40  71 105 142 181 238 297 355 415
#     4  11  26  46  75 102 142 188 233 296 358 423
#     4  11  24  48  77  98 142 194 237 290 354 429
#     4  12  26  44  69  99 148 188 229 297 356 417
#     4  12  27  46  73 110 142 184 241 301 350 417
#
# _framework density 22.207151
#
# number of rings (size 3 to 8) (size 9 to 14) (size 15 to 20)
#    0.000    0.500    2.500    4.500   10.500    4.000 
#    4.500    0.000    0.000    0.000    0.000    0.000 
#    0.000    0.000    0.000    0.000    0.000    0.000 
#
# Total GULP energy -198486.197746 kJ/mol
# GULP energy per Si atom -12405.387359 kJ/mol
# Density = 2.215661 g / cm^3
# Si number density = 22.207151 Si / 1000 Ang^3
#
#
#
# Elastic Constant Matrix: (Units=GPa)
#
#
# Indices 1 2 3 4 5 6 
#
# 1 142.1193 52.9509 33.9689 0.0000 0.0000 0.0000
# 2 52.9509 145.4907 31.2246 0.0000 0.0000 0.0000
# 3 33.9689 31.2246 89.0078 0.0000 0.0000 0.0000
# 4 0.0000 0.0000 0.0000 25.1828 0.0000 0.0000
# 5 0.0000 0.0000 0.0000 0.0000 30.1872 0.0000
# 6 0.0000 0.0000 0.0000 0.0000 0.0000 42.2120
#
#
#
# Elastic Compliance Matrix: (Units=1/GPa)
#
#
# Indices 1 2 3 4 5 6 
#
# 1 0.008573 -0.002615 -0.002355 0.000000 0.000000 0.000000
# 2 -0.002615 0.008230 -0.001889 0.000000 0.000000 0.000000
# 3 -0.002355 -0.001889 0.012796 0.000000 0.000000 0.000000
# 4 0.000000 0.000000 0.000000 0.039710 0.000000 0.000000
# 5 0.000000 0.000000 0.000000 0.000000 0.033127 0.000000
# 6 0.000000 0.000000 0.000000 0.000000 0.000000 0.023690
#
#
# Mechanical properties :
#
#
# Convention : Reuss Voigt Hill
#
# Bulk Modulus (GPa) = 62.96247 68.10072 65.53160
# Shear Modulus (GPa) = 34.44988 36.74797 35.59892
#
# Velocity S-wave (km/s) = 3.94292 4.07231 4.00814
# Velocity P-wave (km/s) = 7.01019 7.26941 7.14098
#
# Compressibility (1/GPa) = 0.01588248
#
# Stress axis : x y z
#
# Youngs Moduli (GPa) = 116.63984 121.49973 78.14706
#
# Poissons Ratio (x) = 0.31771 0.18401
# Poissons Ratio (y) = 0.30500 0.14765
# Poissons Ratio (z) = 0.27464 0.22956
#
# Static dielectric constant tensor:
#      x y z
#    x 4.198260 0.000000 0.000000 
#    y 0.000000 4.262440 0.000000 
#    z 0.000000 0.000000 4.019810 
# 
# 
# High freq. dielectric constant tensor:
#      x y z
#    x 1.879290 0.000000 0.000000 
#    y 0.000000 1.895480 0.000000 
#    z 0.000000 0.000000 1.879960 
# 
# From -- ./inp_files/13521.got.cif
#   From: 2010.03.12/outbox.cif.g09.slc.cpg/sg46_7_cif.got.tgz:13521.got - 2010.04.14 02:56:35.
