data_PCOD8193546
_publ_section_title
;
Structure prediction by ZEFSAII (Michael W. Deem and Ramdas Pophale) SiO2 
 PCOD8193546
Probable space group: P M M M
;
_chemical_formula_sum "Si O2"
_cell_formula_units_Z 52
_cell_length_a 8.924925
_cell_length_b 14.644006
_cell_length_c 23.462452
_cell_angle_alpha 90.000000
_cell_angle_beta 90.000000
_cell_angle_gamma 90.000000
_cell_volume 3066.464000
_symmetry_space_group_name_H-M "P M M M"
_symmetry_group_IT_number 47
_symmetry_cell_setting 'orthorhombic'
loop_
_space_group_symop_operation_xyz
x,y,z
-x,-y,z
x,-y,-z
-x,y,-z
-x,-y,-z
x,y,-z
-x,y,z
x,-y,z
loop_
_atom_site_type_symbol
_atom_site_label
_atom_site_fract_x
_atom_site_fract_y
_atom_site_fract_z
Si Si1 0.323661 0.394843 0.614374
Si Si2 0.821895 0.900612 0.886657
Si Si3 0.831175 0.608478 0.500000
Si Si4 0.178682 0.284429 0.937186
Si Si5 0.177595 0.900650 0.758680
Si Si6 0.178018 0.602419 0.169367
Si Si7 0.822508 0.291015 0.717884
O O1 0.500000 0.383902 0.609579
O O2 0.276966 0.500000 0.624341
O O3 0.252483 0.355524 0.556274
O O4 0.262738 0.336018 0.666008
O O5 0.760370 0.818311 0.925545
O O6 0.759290 0.887979 0.822561
O O7 0.000000 0.896189 0.885000
O O8 0.770336 0.000000 0.910746
O O9 0.827700 0.500000 0.500000
O O10 0.000000 0.646527 0.500000
O O11 0.241983 0.352437 0.888756
O O12 0.000000 0.284904 0.935130
O O13 0.235012 0.315170 0.000000
O O14 0.229569 0.815308 0.720030
O O15 0.000000 0.898619 0.762113
O O16 0.230953 0.000000 0.734043
O O17 0.242825 0.500000 0.174286
O O18 0.230398 0.660290 0.223902
O O19 0.000000 0.600781 0.166847
O O20 0.000000 0.301831 0.708972
#
# Coordination Sequence:
#
# PCOD8193546 Si02
#       7
#     8   8   4   8   8   8   8
#     4  10  20  32  46  68 100 132 157 185 224 264
#     4   8  12  19  30  44  66  97 133 174 223 278
#     4   9  17  31  51  73  98 129 164 193 215 250
#     4   9  15  21  28  41  66 102 141 178 223 280
#     4   8  13  22  38  59  82 108 141 185 234 278
#     4   9  16  24  33  48  72 103 142 187 228 265
#     4  10  17  27  45  66  87 115 154 194 228 269
#
# _framework density 16.957642
#
# number of rings (size 3 to 8) (size 9 to 14) (size 15 to 20)
#    0.000    3.000    1.538    2.077    0.000    3.077 
#    0.000    3.077    0.000    0.462    0.000    0.538 
#    0.000    4.923    0.000    3.231    0.000    8.000 
#
# Total GULP energy -644345.717354 kJ/mol
# GULP energy per Si atom -12391.263795 kJ/mol
# Density = 1.691905 g / cm^3
# Si number density = 16.957642 Si / 1000 Ang^3
#
#
#
# Elastic Constant Matrix: (Units=GPa)
#
#
# Indices 1 2 3 4 5 6 
#
# 1 25.9192 21.2281 28.3919 0.0000 0.0000 0.0000
# 2 21.2281 127.7884 67.8272 0.0000 0.0000 0.0000
# 3 28.3919 67.8272 135.9106 0.0000 0.0000 0.0000
# 4 0.0000 0.0000 0.0000 19.4190 0.0000 0.0000
# 5 0.0000 0.0000 0.0000 0.0000 -2.4094 0.0000
# 6 0.0000 0.0000 0.0000 0.0000 0.0000 7.7386
#
#
#
# Elastic Compliance Matrix: (Units=1/GPa)
#
#
# Indices 1 2 3 4 5 6 
#
# 1 0.051394 -0.003862 -0.008809 0.000000 0.000000 0.000000
# 2 -0.003862 0.010935 -0.004651 0.000000 0.000000 0.000000
# 3 -0.008809 -0.004651 0.011519 0.000000 0.000000 0.000000
# 4 0.000000 0.000000 0.000000 0.051496 0.000000 0.000000
# 5 0.000000 0.000000 0.000000 0.000000 -0.415034 0.000000
# 6 0.000000 0.000000 0.000000 0.000000 0.000000 0.129223
#
#
# Mechanical properties :
#
#
# Convention : Reuss Voigt Hill
#
# Bulk Modulus (GPa) = 25.50689 58.27916 41.89303
# Shear Modulus (GPa) = -44.34366 16.42769 -13.95798
#
# Velocity S-wave (km/s) = -5.11922 3.11585 -2.87210
# Velocity P-wave (km/s) = 4.45732 6.88381 3.70938
#
# Compressibility (1/GPa) = 0.03920509
#
# Stress axis : x y z
#
# Youngs Moduli (GPa) = 19.45767 91.44579 86.81384
#
# Poissons Ratio (x) = 0.35316 0.76473
# Poissons Ratio (y) = 0.07514 0.40374
# Poissons Ratio (z) = 0.17140 0.42528
#
# Static dielectric constant tensor:
#      x y z
#    x 2.587950 0.000000 0.000000 
#    y 0.000000 3.533130 0.000000 
#    z 0.000000 0.000000 3.205670 
# 
# 
# High freq. dielectric constant tensor:
#      x y z
#    x 1.589550 0.000000 0.000000 
#    y 0.000000 1.653630 0.000000 
#    z 0.000000 0.000000 1.644980 
# 
# From -- ./inp_files/12566.got.cif
#   From: 2010.03.12/outbox.cif.g09.slc.cpg/sg47_7_cif.got.tgz:12566.got - 2010.04.14 03:12:58.
