data_PCOD8193156
_publ_section_title
;
Structure prediction by ZEFSAII (Michael W. Deem and Ramdas Pophale) SiO2 
 PCOD8193156
Probable space group: I M A 2
;
_chemical_formula_sum "Si O2"
_cell_formula_units_Z 64
_cell_length_a 8.605312
_cell_length_b 15.401296
_cell_length_c 23.659978
_cell_angle_alpha 90.000000
_cell_angle_beta 90.000000
_cell_angle_gamma 90.000000
_cell_volume 3135.726854
_symmetry_space_group_name_H-M "I M A 2"
_symmetry_group_IT_number 46
_symmetry_cell_setting 'orthorhombic'
loop_
_space_group_symop_operation_xyz
x,y,z
-x,-y,z
1/2-x,y,z
1/2+x,-y,z
1/2+x,1/2+y,1/2+z
1/2-x,1/2-y,1/2+z
-x,1/2+y,1/2+z
x,1/2-y,1/2+z
loop_
_atom_site_type_symbol
_atom_site_label
_atom_site_fract_x
_atom_site_fract_y
_atom_site_fract_z
Si Si1 0.067490 0.908379 0.088140
Si Si2 0.932465 0.650876 0.963635
Si Si3 0.567273 0.090194 0.580018
Si Si4 0.933534 0.339827 0.468042
Si Si5 0.933349 0.588147 0.357923
Si Si6 0.932947 0.410892 0.847741
Si Si7 0.933652 0.254868 0.161340
Si Si8 0.431122 0.252621 0.782873
O O1 0.250000 0.916747 0.085833
O O2 0.016416 0.835825 0.133023
O O3 0.005770 0.882182 0.026167
O O4 0.000000 0.000000 0.108066
O O5 0.750000 0.641653 0.970605
O O6 0.977513 0.750697 0.957865
O O7 0.985315 0.601783 0.907715
O O8 0.012429 0.605994 0.016598
O O9 0.750000 0.084364 0.579820
O O10 0.511341 0.168189 0.620044
O O11 0.500000 0.000000 0.603727
O O12 0.750000 0.321455 0.469911
O O13 0.978903 0.403762 0.417664
O O14 0.750000 0.582309 0.367411
O O15 0.979381 0.667699 0.317872
O O16 0.000000 0.500000 0.329727
O O17 0.750000 0.416852 0.856243
O O18 0.000000 0.500000 0.821316
O O19 0.970246 0.333705 0.804617
O O20 0.750000 0.258603 0.173151
O O21 0.029101 0.266048 0.218313
O O22 0.250000 0.273496 0.790415
#
# Coordination Sequence:
#
# PCOD8193156 Si02
#       8
#     8   8   8   8   8   8   8   8
#     4  10  22  40  62  92 125 161 205 251 305 368
#     4  12  23  38  63  96 131 166 207 255 314 381
#     4  11  23  42  65  93 128 166 211 261 315 377
#     4  11  21  38  64  93 128 167 204 252 315 377
#     4  11  24  41  63  93 129 165 209 259 312 377
#     4  12  25  43  68  95 128 168 209 258 317 377
#     4  10  23  44  65  87 123 168 212 260 315 371
#     4  11  25  44  65  93 126 163 214 267 314 373
#
# _framework density 20.409939999999999
#
# number of rings (size 3 to 8) (size 9 to 14) (size 15 to 20)
#    0.000    1.000    2.500    4.500    0.000    6.000 
#    0.000    3.750    0.000    0.000    0.000    0.000 
#    0.000    0.000    0.000    0.000    0.000    0.000 
#
# Total GULP energy -397016.151077 kJ/mol
# GULP energy per Si atom -12406.754721 kJ/mol
# Density = 2.036349 g / cm^3
# Si number density = 20.409940 Si / 1000 Ang^3
#
#
#
# Elastic Constant Matrix: (Units=GPa)
#
#
# Indices 1 2 3 4 5 6 
#
# 1 34.2796 22.2573 15.4383 0.0000 0.0000 0.0000
# 2 22.2573 140.6407 26.3854 0.0000 0.0000 0.0000
# 3 15.4383 26.3854 92.6650 0.0000 0.0000 0.0000
# 4 0.0000 0.0000 0.0000 7.2858 0.0000 0.0000
# 5 0.0000 0.0000 0.0000 0.0000 27.1281 0.0000
# 6 0.0000 0.0000 0.0000 0.0000 0.0000 38.4383
#
#
#
# Elastic Compliance Matrix: (Units=1/GPa)
#
#
# Indices 1 2 3 4 5 6 
#
# 1 0.034117 -0.004577 -0.004381 0.000000 0.000000 0.000000
# 2 -0.004577 0.008126 -0.001551 0.000000 0.000000 0.000000
# 3 -0.004381 -0.001551 0.011963 0.000000 0.000000 0.000000
# 4 0.000000 0.000000 0.000000 0.137253 0.000000 0.000000
# 5 0.000000 0.000000 0.000000 0.000000 0.036862 0.000000
# 6 0.000000 0.000000 0.000000 0.000000 0.000000 0.026016
#
#
# Mechanical properties :
#
#
# Convention : Reuss Voigt Hill
#
# Bulk Modulus (GPa) = 30.13194 43.97192 37.05193
# Shear Modulus (GPa) = 17.45707 28.13740 22.79723
#
# Velocity S-wave (km/s) = 2.92776 3.71700 3.34573
# Velocity P-wave (km/s) = 5.12098 6.32555 5.75487
#
# Compressibility (1/GPa) = 0.03318738
#
# Stress axis : x y z
#
# Youngs Moduli (GPa) = 29.31109 123.06610 83.59073
#
# Poissons Ratio (x) = 0.56332 0.36618
# Poissons Ratio (y) = 0.13417 0.12966
# Poissons Ratio (z) = 0.12840 0.19089
#
# Static dielectric constant tensor:
#      x y z
#    x 3.663140 0.000000 0.000000 
#    y 0.000000 4.499120 0.000000 
#    z 0.000000 0.000000 3.690600 
# 
# 
# High freq. dielectric constant tensor:
#      x y z
#    x 1.803000 0.000000 0.000000 
#    y 0.000000 1.817070 0.000000 
#    z 0.000000 0.000000 1.793830 
# 
# From -- ./inp_files/23148.got.cif
#   From: 2010.03.12/outbox.cif.g09.slc.cpg/sg46_12_cif.got.tgz:23148.got - 2010.04.14 02:56:35.
