data_PCOD8193208
_publ_section_title
;
Structure prediction by ZEFSAII (Michael W. Deem and Ramdas Pophale) SiO2 
 PCOD8193208
Probable space group: I M A 2
;
_chemical_formula_sum "Si O2"
_cell_formula_units_Z 48
_cell_length_a 9.465653
_cell_length_b 27.117926
_cell_length_c 8.798745
_cell_angle_alpha 90.000000
_cell_angle_beta 90.000000
_cell_angle_gamma 90.000000
_cell_volume 2258.539978
_symmetry_space_group_name_H-M "I M A 2"
_symmetry_group_IT_number 46
_symmetry_cell_setting 'orthorhombic'
loop_
_space_group_symop_operation_xyz
x,y,z
-x,-y,z
1/2-x,y,z
1/2+x,-y,z
1/2+x,1/2+y,1/2+z
1/2-x,1/2-y,1/2+z
-x,1/2+y,1/2+z
x,1/2-y,1/2+z
loop_
_atom_site_type_symbol
_atom_site_label
_atom_site_fract_x
_atom_site_fract_y
_atom_site_fract_z
Si Si1 0.250000 0.211103 0.771050
Si Si2 0.750000 0.215786 0.212815
Si Si3 0.750000 0.813764 0.419840
Si Si4 0.750000 0.315088 0.376390
Si Si5 0.462999 0.359926 0.416264
Si Si6 0.913195 0.953920 0.727095
Si Si7 0.915319 0.047229 0.423957
Si Si8 0.994798 0.143129 0.264924
O O1 0.250000 0.204446 0.591181
O O2 0.250000 0.269018 0.801099
O O3 0.113541 0.187312 0.846576
O O4 0.750000 0.273856 0.246701
O O5 0.612861 0.188626 0.278577
O O6 0.750000 0.214899 0.032117
O O7 0.885338 0.847601 0.389575
O O8 0.623146 0.353396 0.365752
O O9 0.404623 0.410440 0.348869
O O10 0.440355 0.360746 0.596778
O O11 0.750000 0.967925 0.686387
O O12 0.001751 0.937770 0.578108
O O13 0.000000 0.000000 0.798994
O O14 0.750000 0.034690 0.454964
O O15 0.919596 0.091673 0.303924
O O16 0.000000 0.000000 0.355697
#
# Coordination Sequence:
#
# PCOD8193208 Si02
#       8
#     4   4   4   4   8   8   8   8
#     4  12  24  46  61 102 127 178 219 270 324 390
#     4  10  22  44  59  96 127 166 217 258 320 376
#     4  12  26  40  71  92 137 172 221 266 328 390
#     4  10  24  38  67  88 131 168 211 264 314 382
#     4  11  24  43  65  96 133 169 222 269 327 386
#     4  11  24  43  67  98 132 170 219 270 324 394
#     4  11  24  43  68  98 133 171 219 267 326 394
#     4  11  24  43  65  97 131 174 214 275 324 387
#
# _framework density 21.252668
#
# number of rings (size 3 to 8) (size 9 to 14) (size 15 to 20)
#    0.000    1.000    1.667    5.500    4.667    6.000 
#    0.000    1.667    0.000    0.000    0.000    0.000 
#    0.000    0.000    0.000    0.000    0.000    0.000 
#
# Total GULP energy -297613.820421 kJ/mol
# GULP energy per Si atom -12400.575851 kJ/mol
# Density = 2.120430 g / cm^3
# Si number density = 21.252668 Si / 1000 Ang^3
#
#
#
# Elastic Constant Matrix: (Units=GPa)
#
#
# Indices 1 2 3 4 5 6 
#
# 1 152.6468 20.3245 33.4060 0.0027 0.0049 -0.0016
# 2 20.3245 93.7805 26.1464 0.0028 0.0028 0.0003
# 3 33.4060 26.1464 82.0288 0.0115 0.0176 -0.0062
# 4 0.0027 0.0028 0.0115 40.8386 0.0075 -0.0011
# 5 0.0049 0.0028 0.0176 0.0075 21.1784 0.0014
# 6 -0.0016 0.0003 -0.0062 -0.0011 0.0014 38.1480
#
#
#
# Elastic Compliance Matrix: (Units=1/GPa)
#
#
# Indices 1 2 3 4 5 6 
#
# 1 0.007249 -0.000821 -0.002691 0.000000 0.000001 0.000000
# 2 -0.000821 0.011796 -0.003426 0.000000 0.000001 -0.000001
# 3 -0.002691 -0.003426 0.014378 -0.000004 -0.000011 0.000002
# 4 0.000000 0.000000 -0.000004 0.024487 -0.000009 0.000001
# 5 0.000001 0.000001 -0.000011 -0.000009 0.047218 -0.000002
# 6 0.000000 -0.000001 0.000002 0.000001 -0.000002 0.026214
#
#
# Mechanical properties :
#
#
# Convention : Reuss Voigt Hill
#
# Bulk Modulus (GPa) = 51.15205 54.24555 52.69880
# Shear Modulus (GPa) = 32.95264 36.60496 34.77880
#
# Velocity S-wave (km/s) = 3.94193 4.15465 4.04969
# Velocity P-wave (km/s) = 6.69621 6.97096 6.83497
#
# Compressibility (1/GPa) = 0.01954956
#
# Stress axis : x y z
#
# Youngs Moduli (GPa) = 137.94650 84.77303 69.54836
#
# Poissons Ratio (x) = 0.06959 0.18712
# Poissons Ratio (y) = 0.11325 0.23825
# Poissons Ratio (z) = 0.37115 0.29041
#
# Static dielectric constant tensor:
#      x y z
#    x 4.237130 0.000060 0.000080 
#    y 0.000060 3.782070 -0.000020 
#    z 0.000080 -0.000020 3.646250 
# 
# 
# High freq. dielectric constant tensor:
#      x y z
#    x 1.855130 0.000000 0.000000 
#    y 0.000000 1.839390 0.000000 
#    z 0.000000 0.000000 1.824350 
# 
# From -- ./inp_files/4027.got.cif
#   From: 2010.03.12/outbox.cif.g09.slc.cpg/sg46_3_cif.got.tgz:4027.got - 2010.04.14 02:56:35.
