data_PCOD8193896
_publ_section_title
;
Structure prediction by ZEFSAII (Michael W. Deem and Ramdas Pophale) SiO2 
 PCOD8193896
Probable space group: P M M M
;
_chemical_formula_sum "Si O2"
_cell_formula_units_Z 56
_cell_length_a 18.080985
_cell_length_b 21.160774
_cell_length_c 9.167187
_cell_angle_alpha 90.000000
_cell_angle_beta 90.000000
_cell_angle_gamma 90.000000
_cell_volume 3507.435759
_symmetry_space_group_name_H-M "P M M M"
_symmetry_group_IT_number 47
_symmetry_cell_setting 'orthorhombic'
loop_
_space_group_symop_operation_xyz
x,y,z
-x,-y,z
x,-y,-z
-x,y,-z
-x,-y,-z
x,y,-z
-x,y,z
x,-y,z
loop_
_atom_site_type_symbol
_atom_site_label
_atom_site_fract_x
_atom_site_fract_y
_atom_site_fract_z
Si Si1 0.584894 0.426744 0.333144
Si Si2 0.582908 0.800048 0.170904
Si Si3 0.326402 0.323711 0.828304
Si Si4 0.086007 0.813993 0.167828
Si Si5 0.845323 0.928371 0.328769
Si Si6 0.701047 0.134419 0.660799
Si Si7 0.797054 0.260062 0.336048
O O1 0.598767 0.405787 0.500000
O O2 0.500000 0.413889 0.289850
O O3 0.604179 0.500000 0.313007
O O4 0.637745 0.388484 0.225778
O O5 0.500000 0.802186 0.235158
O O6 0.618163 0.733002 0.214231
O O7 0.630144 0.858419 0.235386
O O8 0.582153 0.809632 0.000000
O O9 0.247289 0.314759 0.749497
O O10 0.312578 0.327063 0.000000
O O11 0.101852 0.882392 0.238110
O O12 0.128057 0.757317 0.250374
O O13 0.000000 0.798975 0.181641
O O14 0.112115 0.815757 0.000000
O O15 0.854481 0.912245 0.500000
O O16 0.758785 0.918964 0.284189
O O17 0.868768 0.000000 0.293787
O O18 0.671195 0.117779 0.500000
O O19 0.746420 0.198859 0.658820
O O20 0.816226 0.283131 0.500000
#
# Coordination Sequence:
#
# PCOD8193896 Si02
#       7
#     8   8   8   8   8   8   8
#     4   9  18  31  44  60  88 127 166 200 232 265
#     4   9  17  27  39  58  83 108 135 172 219 266
#     4  10  18  28  44  65  89 116 149 189 229 268
#     4  10  20  32  46  67  95 120 141 172 215 260
#     4   9  18  32  48  64  83 111 147 181 212 255
#     4   8  15  27  42  60  79 101 134 176 217 254
#     4   9  17  30  47  65  86 114 147 180 216 261
#
# _framework density 15.96608
#
# number of rings (size 3 to 8) (size 9 to 14) (size 15 to 20)
#    0.000    2.857    0.000    3.000    0.000    7.143 
#    0.000    2.143    0.000    0.429    0.000    3.000 
#    0.000    0.571    0.000    6.000    0.000    2.571 
#
# Total GULP energy -694257.144101 kJ/mol
# GULP energy per Si atom -12397.449002 kJ/mol
# Density = 1.592974 g / cm^3
# Si number density = 15.966080 Si / 1000 Ang^3
#
#
#
# Elastic Constant Matrix: (Units=GPa)
#
#
# Indices 1 2 3 4 5 6 
#
# 1 88.7171 31.7044 50.5127 0.0000 0.0000 0.0000
# 2 31.7044 46.9985 33.2516 0.0000 0.0000 0.0000
# 3 50.5127 33.2516 86.3019 0.0000 0.0000 0.0000
# 4 0.0000 0.0000 0.0000 21.9416 0.0000 0.0000
# 5 0.0000 0.0000 0.0000 0.0000 27.8759 0.0000
# 6 0.0000 0.0000 0.0000 0.0000 0.0000 20.7706
#
#
#
# Elastic Compliance Matrix: (Units=1/GPa)
#
#
# Indices 1 2 3 4 5 6 
#
# 1 0.018259 -0.006538 -0.008168 0.000000 0.000000 0.000000
# 2 -0.006538 0.031592 -0.008345 0.000000 0.000000 0.000000
# 3 -0.008168 -0.008345 0.019583 0.000000 0.000000 0.000000
# 4 0.000000 0.000000 0.000000 0.045575 0.000000 0.000000
# 5 0.000000 0.000000 0.000000 0.000000 0.035873 0.000000
# 6 0.000000 0.000000 0.000000 0.000000 0.000000 0.048145
#
#
# Mechanical properties :
#
#
# Convention : Reuss Voigt Hill
#
# Bulk Modulus (GPa) = 42.86071 50.32831 46.59451
# Shear Modulus (GPa) = 19.77000 21.22087 20.49544
#
# Velocity S-wave (km/s) = 3.52270 3.64967 3.58674
# Velocity P-wave (km/s) = 6.59158 7.02500 6.81174
#
# Compressibility (1/GPa) = 0.02333139
#
# Stress axis : x y z
#
# Youngs Moduli (GPa) = 54.76803 31.65321 51.06401
#
# Poissons Ratio (x) = 0.20696 0.41708
# Poissons Ratio (y) = 0.35809 0.42615
# Poissons Ratio (z) = 0.44733 0.26416
#
# Static dielectric constant tensor:
#      x y z
#    x 3.037510 0.000000 0.000000 
#    y 0.000000 2.820360 0.000000 
#    z 0.000000 0.000000 3.132740 
# 
# 
# High freq. dielectric constant tensor:
#      x y z
#    x 1.602060 0.000000 0.000000 
#    y 0.000000 1.577200 0.000000 
#    z 0.000000 0.000000 1.621250 
# 
# From -- ./inp_files/9794.got.cif
#   From: 2010.03.12/outbox.cif.g09.slc.cpg/sg47_5_cif.got.tgz:9794.got - 2010.04.14 03:12:58.
