data_PCOD8193995
_publ_section_title
;
Structure prediction by ZEFSAII (Michael W. Deem and Ramdas Pophale) SiO2 
 PCOD8193995
Probable space group: P M M M
;
_chemical_formula_sum "Si O2"
_cell_formula_units_Z 56
_cell_length_a 17.990887
_cell_length_b 9.381564
_cell_length_c 27.365769
_cell_angle_alpha 90.000000
_cell_angle_beta 90.000000
_cell_angle_gamma 90.000000
_cell_volume 4618.867225
_symmetry_space_group_name_H-M "P M M M"
_symmetry_group_IT_number 47
_symmetry_cell_setting 'orthorhombic'
loop_
_space_group_symop_operation_xyz
x,y,z
-x,-y,z
x,-y,-z
-x,y,-z
-x,-y,-z
x,y,-z
-x,y,z
x,-y,z
loop_
_atom_site_type_symbol
_atom_site_label
_atom_site_fract_x
_atom_site_fract_y
_atom_site_fract_z
Si Si1 0.414655 0.663127 0.787692
Si Si2 0.918073 0.340615 0.057928
Si Si3 0.589071 0.339548 0.395190
Si Si4 0.500000 0.669358 0.945140
Si Si5 0.646945 0.333764 0.892043
Si Si6 0.777579 0.832940 0.057172
Si Si7 0.588519 0.839528 0.304665
Si Si8 0.418587 0.669238 0.500000
O O1 0.500000 0.700903 0.801249
O O2 0.409841 0.500000 0.770348
O O3 0.362681 0.690346 0.834311
O O4 0.383420 0.759869 0.743899
O O5 0.897934 0.500000 0.076590
O O6 0.856445 0.228623 0.075964
O O7 0.000000 0.295862 0.077798
O O8 0.920268 0.340656 0.000000
O O9 0.500000 0.335334 0.397270
O O10 0.615855 0.500000 0.383527
O O11 0.620775 0.237196 0.352968
O O12 0.621147 0.287405 0.448551
O O13 0.500000 0.500000 0.943201
O O14 0.426596 0.726135 0.918477
O O15 0.500000 0.728769 0.000000
O O16 0.660254 0.500000 0.904386
O O17 0.715095 0.242070 0.910890
O O18 0.776659 0.000000 0.067588
O O19 0.764304 0.798995 0.000000
O O20 0.500000 0.834731 0.306068
O O21 0.619041 0.000000 0.303688
O O22 0.427382 0.500000 0.500000
O O23 0.500000 0.740827 0.500000
#
# Coordination Sequence:
#
# PCOD8193995 Si02
#       8
#     8   8   8   4   8   8   8   4
#     4   9  16  27  40  51  61  75 103 140 173 202
#     4   8  14  26  44  62  76  91 112 134 154 180
#     4   8  12  19  30  42  55  73  95 119 147 181
#     4   9  16  26  41  57  67  79 105 140 173 202
#     4  10  18  29  43  56  67  84 112 144 173 202
#     4  10  20  30  39  55  78  98 112 128 157 199
#     4   9  16  23  31  44  60  76  96 122 157 197
#     4   7  10  16  27  41  55  71  93 117 143 179
#
# _framework density 12.124185000000001
#
# number of rings (size 3 to 8) (size 9 to 14) (size 15 to 20)
#    0.000    3.143    0.714    2.571    0.000    4.000 
#    0.000    2.143    0.000    3.429    0.000    0.000 
#    0.000    0.000    0.000    0.000    0.000    0.000 
#
# Total GULP energy -693943.353388 kJ/mol
# GULP energy per Si atom -12391.845596 kJ/mol
# Density = 1.209659 g / cm^3
# Si number density = 12.124185 Si / 1000 Ang^3
#
#
#
# Elastic Constant Matrix: (Units=GPa)
#
#
# Indices 1 2 3 4 5 6 
#
# 1 57.7912 34.2865 28.1316 0.0000 0.0000 0.0000
# 2 34.2865 73.9753 47.8917 0.0000 0.0000 0.0000
# 3 28.1316 47.8917 83.4495 0.0000 0.0000 0.0000
# 4 0.0000 0.0000 0.0000 12.1646 0.0000 0.0000
# 5 0.0000 0.0000 0.0000 0.0000 1.9452 0.0000
# 6 0.0000 0.0000 0.0000 0.0000 0.0000 8.8771
#
#
#
# Elastic Compliance Matrix: (Units=1/GPa)
#
#
# Indices 1 2 3 4 5 6 
#
# 1 0.024255 -0.009465 -0.002745 0.000000 0.000000 0.000000
# 2 -0.009465 0.025203 -0.011274 0.000000 0.000000 0.000000
# 3 -0.002745 -0.011274 0.019378 0.000000 0.000000 0.000000
# 4 0.000000 0.000000 0.000000 0.082206 0.000000 0.000000
# 5 0.000000 0.000000 0.000000 0.000000 0.514096 0.000000
# 6 0.000000 0.000000 0.000000 0.000000 0.000000 0.112649
#
#
# Mechanical properties :
#
#
# Convention : Reuss Voigt Hill
#
# Bulk Modulus (GPa) = 45.72347 48.42618 47.07482
# Shear Modulus (GPa) = 6.00930 11.59114 8.80022
#
# Velocity S-wave (km/s) = 2.22873 3.09533 2.69706
# Velocity P-wave (km/s) = 6.66464 7.26659 6.97211
#
# Compressibility (1/GPa) = 0.02187061
#
# Stress axis : x y z
#
# Youngs Moduli (GPa) = 41.22840 39.67718 51.60382
#
# Poissons Ratio (x) = 0.37555 0.14163
# Poissons Ratio (y) = 0.39023 0.58176
# Poissons Ratio (z) = 0.11316 0.44730
#
# Static dielectric constant tensor:
#      x y z
#    x 2.254590 0.000000 0.000000 
#    y 0.000000 2.500410 0.000000 
#    z 0.000000 0.000000 2.584200 
# 
# 
# High freq. dielectric constant tensor:
#      x y z
#    x 1.403990 0.000000 0.000000 
#    y 0.000000 1.456880 0.000000 
#    z 0.000000 0.000000 1.450680 
# 
# From -- ./inp_files/34639.got.cif
#   From: 2010.03.12/outbox.cif.g09.slc.cpg/sg47_18_cif.got.tgz:34639.got - 2010.04.14 03:12:58.
