data_PCOD8193924
_publ_section_title
;
Structure prediction by ZEFSAII (Michael W. Deem and Ramdas Pophale) SiO2 
 PCOD8193924
Probable space group: P M M M
;
_chemical_formula_sum "Si O2"
_cell_formula_units_Z 64
_cell_length_a 23.684379
_cell_length_b 14.529125
_cell_length_c 9.453456
_cell_angle_alpha 90.000000
_cell_angle_beta 90.000000
_cell_angle_gamma 90.000000
_cell_volume 3253.059969
_symmetry_space_group_name_H-M "P M M M"
_symmetry_group_IT_number 47
_symmetry_cell_setting 'orthorhombic'
loop_
_space_group_symop_operation_xyz
x,y,z
-x,-y,z
x,-y,-z
-x,y,-z
-x,-y,-z
x,y,-z
-x,y,z
x,-y,z
loop_
_atom_site_type_symbol
_atom_site_label
_atom_site_fract_x
_atom_site_fract_y
_atom_site_fract_z
Si Si1 0.566698 0.895344 0.661794
Si Si2 0.738324 0.900597 0.155473
Si Si3 0.356745 0.239920 0.831457
Si Si4 0.160482 0.137449 0.342602
Si Si5 0.061956 0.142813 0.843595
Si Si6 0.062689 0.638825 0.840288
Si Si7 0.831750 0.644736 0.659702
Si Si8 0.295086 0.394144 0.335787
O O1 0.586549 0.878253 0.500000
O O2 0.500000 0.886601 0.673021
O O3 0.590669 0.814109 0.762248
O O4 0.584716 0.000000 0.707797
O O5 0.695780 0.823784 0.205421
O O6 0.787767 0.908815 0.266044
O O7 0.707475 0.000000 0.151723
O O8 0.762406 0.875458 0.000000
O O9 0.340738 0.336681 0.756894
O O10 0.367026 0.253558 0.000000
O O11 0.160029 0.099857 0.500000
O O12 0.104051 0.099764 0.269504
O O13 0.164708 0.246381 0.333978
O O14 0.062809 0.252167 0.835890
O O15 0.000000 0.105110 0.807523
O O16 0.080219 0.110736 0.000000
O O17 0.115571 0.600945 0.747365
O O18 0.000000 0.604909 0.786686
O O19 0.072006 0.603325 0.000000
O O20 0.837700 0.607516 0.500000
O O21 0.769848 0.616476 0.719787
O O22 0.298264 0.362123 0.500000
O O23 0.313410 0.500000 0.319614
#
# Coordination Sequence:
#
# PCOD8193924 Si02
#       8
#     8   8   8   8   8   8   8   8
#     4   9  19  37  62  93 129 168 205 236 270 321
#     4  10  21  35  50  72 105 144 180 213 260 325
#     4  11  22  36  58  87 120 154 191 238 284 330
#     4  10  18  28  45  69  97 127 165 217 270 319
#     4   8  14  25  41  61  87 122 163 205 256 323
#     4   8  14  24  40  64  92 124 164 210 266 336
#     4   9  17  29  46  70  98 129 172 224 278 334
#     4  10  21  38  58  79 109 150 195 242 291 345
#
# _framework density 19.673784000000001
#
# number of rings (size 3 to 8) (size 9 to 14) (size 15 to 20)
#    0.000    2.625    1.250    2.250    0.000    3.500 
#    0.000    3.125    0.000    1.125    0.000    7.875 
#    0.000    0.000    0.000    0.000    0.000    0.000 
#
# Total GULP energy -792997.200840 kJ/mol
# GULP energy per Si atom -12390.581263 kJ/mol
# Density = 1.962901 g / cm^3
# Si number density = 19.673784 Si / 1000 Ang^3
#
#
#
# Elastic Constant Matrix: (Units=GPa)
#
#
# Indices 1 2 3 4 5 6 
#
# 1 82.1714 30.2112 53.5355 0.0000 0.0000 0.0000
# 2 30.2112 76.4909 33.2171 0.0000 0.0000 0.0000
# 3 53.5355 33.2171 101.2318 0.0000 0.0000 0.0000
# 4 0.0000 0.0000 0.0000 12.1760 0.0000 0.0000
# 5 0.0000 0.0000 0.0000 0.0000 35.1438 0.0000
# 6 0.0000 0.0000 0.0000 0.0000 0.0000 -7.9837
#
#
#
# Elastic Compliance Matrix: (Units=1/GPa)
#
#
# Indices 1 2 3 4 5 6 
#
# 1 0.019447 -0.003749 -0.009054 0.000000 0.000000 0.000000
# 2 -0.003749 0.015969 -0.003257 0.000000 0.000000 0.000000
# 3 -0.009054 -0.003257 0.015735 0.000000 0.000000 0.000000
# 4 0.000000 0.000000 0.000000 0.082129 0.000000 0.000000
# 5 0.000000 0.000000 0.000000 0.000000 0.028455 0.000000
# 6 0.000000 0.000000 0.000000 0.000000 0.000000 -0.125255
#
#
# Mechanical properties :
#
#
# Convention : Reuss Voigt Hill
#
# Bulk Modulus (GPa) = 52.54797 54.86910 53.70853
# Shear Modulus (GPa) = 66.71696 17.39590 42.05643
#
# Velocity S-wave (km/s) = 5.82968 2.97680 4.62853
# Velocity P-wave (km/s) = 8.49007 6.30596 7.47818
#
# Compressibility (1/GPa) = 0.01903023
#
# Stress axis : x y z
#
# Youngs Moduli (GPa) = 51.42195 62.62284 63.55132
#
# Poissons Ratio (x) = 0.23477 0.57541
# Poissons Ratio (y) = 0.19278 0.20700
# Poissons Ratio (z) = 0.46558 0.20397
#
# Static dielectric constant tensor:
#      x y z
#    x 3.553600 0.000000 0.000000 
#    y 0.000000 3.376300 0.000000 
#    z 0.000000 0.000000 3.753420 
# 
# 
# High freq. dielectric constant tensor:
#      x y z
#    x 1.749240 0.000000 0.000000 
#    y 0.000000 1.758910 0.000000 
#    z 0.000000 0.000000 1.761870 
# 
# From -- ./inp_files/12690.got.cif
#   From: 2010.03.12/outbox.cif.g09.slc.cpg/sg47_7_cif.got.tgz:12690.got - 2010.04.14 03:12:58.
