data_PCOD8193940
_publ_section_title
;
Structure prediction by ZEFSAII (Michael W. Deem and Ramdas Pophale) SiO2 
 PCOD8193940
Probable space group: P M M M
;
_chemical_formula_sum "Si O2"
_cell_formula_units_Z 56
_cell_length_a 18.980854
_cell_length_b 19.179753
_cell_length_c 8.926218
_cell_angle_alpha 90.000000
_cell_angle_beta 90.000000
_cell_angle_gamma 90.000000
_cell_volume 3249.572627
_symmetry_space_group_name_H-M "P M M M"
_symmetry_group_IT_number 47
_symmetry_cell_setting 'orthorhombic'
loop_
_space_group_symop_operation_xyz
x,y,z
-x,-y,z
x,-y,-z
-x,y,-z
-x,-y,-z
x,y,-z
-x,y,z
x,-y,z
loop_
_atom_site_type_symbol
_atom_site_label
_atom_site_fract_x
_atom_site_fract_y
_atom_site_fract_z
Si Si1 0.332621 0.212469 0.674558
Si Si2 0.692173 0.922241 0.174888
Si Si3 0.922091 0.214811 0.177901
Si Si4 0.211497 0.701411 0.177306
Si Si5 0.287559 0.579379 0.322204
Si Si6 0.853177 0.924257 0.177953
Si Si7 0.422942 0.658644 0.324887
O O1 0.313797 0.212319 0.500000
O O2 0.352133 0.135036 0.732134
O O3 0.265252 0.240498 0.764302
O O4 0.399351 0.262035 0.707408
O O5 0.772638 0.915919 0.229621
O O6 0.663329 0.000000 0.210201
O O7 0.684891 0.905742 0.000000
O O8 0.867077 0.274815 0.226066
O O9 0.899167 0.139243 0.244607
O O10 0.000000 0.233611 0.239674
O O11 0.923155 0.209063 0.000000
O O12 0.226147 0.625916 0.249525
O O13 0.219101 0.695928 0.000000
O O14 0.283479 0.588716 0.500000
O O15 0.276121 0.500000 0.272078
O O16 0.363916 0.605408 0.261445
O O17 0.882112 0.000000 0.233756
O O18 0.855158 0.922451 0.000000
O O19 0.429729 0.645183 0.500000
O O20 0.500000 0.645755 0.249921
#
# Coordination Sequence:
#
# PCOD8193940 Si02
#       7
#     8   8   8   8   8   8   8
#     4  10  18  28  46  69  92 120 156 194 230 271
#     4   9  16  27  44  65  89 119 157 199 240 278
#     4   9  16  25  40  64  91 119 154 196 235 268
#     4  10  18  30  48  68  93 123 155 189 226 271
#     4   9  18  32  51  75  98 119 146 183 224 267
#     4   8  13  22  37  59  87 116 147 185 229 271
#     4   8  15  28  46  70  97 122 148 180 220 266
#
# _framework density 17.233036999999999
#
# number of rings (size 3 to 8) (size 9 to 14) (size 15 to 20)
#    0.000    3.000    1.429    2.571    0.000    1.143 
#    0.000    2.857    0.000   13.286    0.000   10.000 
#    0.000    2.286    0.000    0.000    0.000    0.000 
#
# Total GULP energy -693964.623749 kJ/mol
# GULP energy per Si atom -12392.225424 kJ/mol
# Density = 1.719381 g / cm^3
# Si number density = 17.233037 Si / 1000 Ang^3
#
#
#
# Elastic Constant Matrix: (Units=GPa)
#
#
# Indices 1 2 3 4 5 6 
#
# 1 86.1877 58.7684 18.5525 0.0000 0.0000 0.0000
# 2 58.7684 154.4016 34.5742 0.0000 0.0000 0.0000
# 3 18.5525 34.5742 31.5900 0.0000 0.0000 0.0000
# 4 0.0000 0.0000 0.0000 27.2032 0.0000 0.0000
# 5 0.0000 0.0000 0.0000 0.0000 13.9737 0.0000
# 6 0.0000 0.0000 0.0000 0.0000 0.0000 18.6787
#
#
#
# Elastic Compliance Matrix: (Units=1/GPa)
#
#
# Indices 1 2 3 4 5 6 
#
# 1 0.015975 -0.005271 -0.003612 0.000000 0.000000 0.000000
# 2 -0.005271 0.010319 -0.008198 0.000000 0.000000 0.000000
# 3 -0.003612 -0.008198 0.042749 0.000000 0.000000 0.000000
# 4 0.000000 0.000000 0.000000 0.036760 0.000000 0.000000
# 5 0.000000 0.000000 0.000000 0.000000 0.071563 0.000000
# 6 0.000000 0.000000 0.000000 0.000000 0.000000 0.053537
#
#
# Mechanical properties :
#
#
# Convention : Reuss Voigt Hill
#
# Bulk Modulus (GPa) = 28.67002 55.10770 41.88886
# Shear Modulus (GPa) = 18.07067 22.65675 20.36371
#
# Velocity S-wave (km/s) = 3.24173 3.62985 3.44127
# Velocity P-wave (km/s) = 5.53936 7.04380 6.33639
#
# Compressibility (1/GPa) = 0.03487964
#
# Stress axis : x y z
#
# Youngs Moduli (GPa) = 62.59973 96.91207 23.39233
#
# Poissons Ratio (x) = 0.51086 0.08450
# Poissons Ratio (y) = 0.32998 0.19176
# Poissons Ratio (z) = 0.22613 0.79445
#
# Static dielectric constant tensor:
#      x y z
#    x 3.286610 0.000000 0.000000 
#    y 0.000000 3.400140 0.000000 
#    z 0.000000 0.000000 2.829310 
# 
# 
# High freq. dielectric constant tensor:
#      x y z
#    x 1.639810 0.000000 0.000000 
#    y 0.000000 1.670210 0.000000 
#    z 0.000000 0.000000 1.625400 
# 
# From -- ./inp_files/9806.got.cif
#   From: 2010.03.12/outbox.cif.g09.slc.cpg/sg47_5_cif.got.tgz:9806.got - 2010.04.14 03:12:58.
