data_PCOD8193807
_publ_section_title
;
Structure prediction by ZEFSAII (Michael W. Deem and Ramdas Pophale) SiO2 
 PCOD8193807
Probable space group: P M M M
;
_chemical_formula_sum "Si O2"
_cell_formula_units_Z 64
_cell_length_a 13.728925
_cell_length_b 9.203906
_cell_length_c 34.123779
_cell_angle_alpha 90.000000
_cell_angle_beta 90.000000
_cell_angle_gamma 90.000000
_cell_volume 4311.871678
_symmetry_space_group_name_H-M "P M M M"
_symmetry_group_IT_number 47
_symmetry_cell_setting 'orthorhombic'
loop_
_space_group_symop_operation_xyz
x,y,z
-x,-y,z
x,-y,-z
-x,y,-z
-x,-y,-z
x,y,-z
-x,y,z
x,-y,z
loop_
_atom_site_type_symbol
_atom_site_label
_atom_site_fract_x
_atom_site_fract_y
_atom_site_fract_z
Si Si1 0.284346 0.172695 0.119571
Si Si2 0.389473 0.332977 0.187505
Si Si3 0.110822 0.668279 0.845174
Si Si4 0.112387 0.829302 0.306327
Si Si5 0.792721 0.665758 0.236602
Si Si6 0.391094 0.827608 0.043084
Si Si7 0.884122 0.337254 0.616704
Si Si8 0.884168 0.163224 0.456785
O O1 0.360683 0.231296 0.151406
O O2 0.176772 0.235795 0.126141
O O3 0.318751 0.228351 0.076842
O O4 0.281158 0.000000 0.122771
O O5 0.500000 0.299307 0.200351
O O6 0.376130 0.500000 0.173972
O O7 0.319351 0.303060 0.224602
O O8 0.128467 0.500000 0.855113
O O9 0.138036 0.699059 0.800227
O O10 0.000000 0.715235 0.852203
O O11 0.178767 0.774021 0.271014
O O12 0.150718 0.755195 0.346041
O O13 0.000000 0.787748 0.298066
O O14 0.125821 0.000000 0.311081
O O15 0.806899 0.500000 0.250851
O O16 0.500000 0.766971 0.050877
O O17 0.394772 0.000000 0.044204
O O18 0.354553 0.775176 0.000000
O O19 0.842734 0.500000 0.620447
O O20 0.840593 0.266836 0.576942
O O21 0.000000 0.337943 0.614655
O O22 0.851108 0.218586 0.500000
O O23 0.000000 0.162942 0.454410
O O24 0.845441 0.000000 0.449730
#
# Coordination Sequence:
#
# PCOD8193807 Si02
#       8
#     8   8   8   8   8   8   8   8
#     4  10  18  27  44  69  90 107 133 170 206 237
#     4   9  18  32  47  62  84 113 138 160 193 240
#     4   9  18  32  47  61  81 111 141 167 200 243
#     4  10  19  28  38  53  75 102 130 163 203 242
#     4   9  17  29  44  60  76  98 131 165 195 230
#     4   8  14  25  41  62  88 114 136 160 196 242
#     4   9  16  24  34  48  66  91 125 163 199 235
#     4   8  13  21  32  45  63  88 118 155 199 242
#
# _framework density 14.842743
#
# number of rings (size 3 to 8) (size 9 to 14) (size 15 to 20)
#    0.000    3.000    0.000    3.375    0.000    6.000 
#    0.000    1.250    0.000    1.875    0.000    7.000 
#    0.000    0.000    0.000    0.000    0.000    0.625 
#
# Total GULP energy -793354.534494 kJ/mol
# GULP energy per Si atom -12396.164601 kJ/mol
# Density = 1.480896 g / cm^3
# Si number density = 14.842743 Si / 1000 Ang^3
#
#
#
# Elastic Constant Matrix: (Units=GPa)
#
#
# Indices 1 2 3 4 5 6 
#
# 1 79.9301 34.5424 49.4562 0.0000 0.0000 0.0000
# 2 34.5424 74.5765 59.1933 0.0000 0.0000 0.0000
# 3 49.4562 59.1933 124.0229 0.0000 0.0000 0.0000
# 4 0.0000 0.0000 0.0000 14.1907 0.0000 0.0000
# 5 0.0000 0.0000 0.0000 0.0000 11.0136 0.0000
# 6 0.0000 0.0000 0.0000 0.0000 0.0000 17.2174
#
#
#
# Elastic Compliance Matrix: (Units=1/GPa)
#
#
# Indices 1 2 3 4 5 6 
#
# 1 0.017353 -0.004097 -0.004964 0.000000 0.000000 0.000000
# 2 -0.004097 0.022554 -0.009131 0.000000 0.000000 0.000000
# 3 -0.004964 -0.009131 0.014401 0.000000 0.000000 0.000000
# 4 0.000000 0.000000 0.000000 0.070469 0.000000 0.000000
# 5 0.000000 0.000000 0.000000 0.000000 0.090797 0.000000
# 6 0.000000 0.000000 0.000000 0.000000 0.000000 0.058081
#
#
# Mechanical properties :
#
#
# Convention : Reuss Voigt Hill
#
# Bulk Modulus (GPa) = 55.79378 62.76815 59.28097
# Shear Modulus (GPa) = 15.82210 17.50684 16.66447
#
# Velocity S-wave (km/s) = 3.26848 3.43809 3.35436
# Velocity P-wave (km/s) = 7.20524 7.62504 7.41811
#
# Compressibility (1/GPa) = 0.01792315
#
# Stress axis : x y z
#
# Youngs Moduli (GPa) = 57.62589 44.33768 69.44196
#
# Poissons Ratio (x) = 0.18167 0.34473
# Poissons Ratio (y) = 0.23612 0.63405
# Poissons Ratio (z) = 0.28607 0.40483
#
# Static dielectric constant tensor:
#      x y z
#    x 2.672940 0.000000 0.000000 
#    y 0.000000 2.860290 0.000000 
#    z 0.000000 0.000000 2.994930 
# 
# 
# High freq. dielectric constant tensor:
#      x y z
#    x 1.524070 0.000000 0.000000 
#    y 0.000000 1.566740 0.000000 
#    z 0.000000 0.000000 1.566730 
# 
# From -- ./inp_files/22188.got.cif
#   From: 2010.03.12/outbox.cif.g09.slc.cpg/sg47_12_cif.got.tgz:22188.got - 2010.04.14 03:12:58.
