data_PCOD8193613
_publ_section_title
;
Structure prediction by ZEFSAII (Michael W. Deem and Ramdas Pophale) SiO2 
 PCOD8193613
Probable space group: P M M M
;
_chemical_formula_sum "Si O2"
_cell_formula_units_Z 52
_cell_length_a 23.299723
_cell_length_b 14.414811
_cell_length_c 8.563309
_cell_angle_alpha 90.000000
_cell_angle_beta 90.000000
_cell_angle_gamma 90.000000
_cell_volume 2876.082409
_symmetry_space_group_name_H-M "P M M M"
_symmetry_group_IT_number 47
_symmetry_cell_setting 'orthorhombic'
loop_
_space_group_symop_operation_xyz
x,y,z
-x,-y,z
x,-y,-z
-x,y,-z
-x,-y,-z
x,y,-z
-x,y,z
x,-y,z
loop_
_atom_site_type_symbol
_atom_site_label
_atom_site_fract_x
_atom_site_fract_y
_atom_site_fract_z
Si Si1 0.720356 0.600751 0.314758
Si Si2 0.325788 0.207547 0.686102
Si Si3 0.107778 0.206676 0.682626
Si Si4 0.150817 0.601169 0.685400
Si Si5 0.563132 0.104024 0.314548
Si Si6 0.783583 0.891308 0.818971
Si Si7 0.000000 0.896927 0.817283
O O1 0.722648 0.601024 0.500000
O O2 0.696604 0.500000 0.256639
O O3 0.680670 0.685555 0.257040
O O4 0.784739 0.615428 0.248886
O O5 0.319625 0.198200 0.500000
O O6 0.387816 0.173354 0.747551
O O7 0.278170 0.144124 0.765642
O O8 0.094842 0.202131 0.500000
O O9 0.111079 0.313866 0.742990
O O10 0.167756 0.157095 0.716223
O O11 0.056534 0.157697 0.770831
O O12 0.153712 0.603971 0.500000
O O13 0.126862 0.500000 0.740966
O O14 0.563801 0.103335 0.500000
O O15 0.500000 0.136862 0.255478
O O16 0.575705 0.000000 0.252835
O O17 0.786768 0.000000 0.786653
O O18 0.793852 0.868053 0.000000
O O19 0.000000 0.000000 0.740641
O O20 0.000000 0.908129 0.000000
#
# Coordination Sequence:
#
# PCOD8193613 Si02
#       7
#     8   8   8   8   8   8   4
#     4   8  13  23  42  70 100 125 153 195 248 297
#     4  10  17  28  49  73  93 123 170 211 241 287
#     4  11  21  36  59  82  99 126 172 213 237 278
#     4   8  14  27  49  77 105 127 152 195 249 296
#     4   8  14  24  39  63  95 127 161 207 257 294
#     4  11  23  35  47  69 104 136 157 194 258 309
#     4  11  25  43  58  73 102 142 171 197 248 303
#
# _framework density 18.080148999999999
#
# number of rings (size 3 to 8) (size 9 to 14) (size 15 to 20)
#    0.000    2.538    1.538    3.462    0.000    4.308 
#    0.000    0.385    0.000    6.462    0.000    5.385 
#    0.000    0.000    0.000    1.385    0.000    1.692 
#
# Total GULP energy -644431.192334 kJ/mol
# GULP energy per Si atom -12392.907545 kJ/mol
# Density = 1.803900 g / cm^3
# Si number density = 18.080149 Si / 1000 Ang^3
#
#
#
# Elastic Constant Matrix: (Units=GPa)
#
#
# Indices 1 2 3 4 5 6 
#
# 1 115.2632 75.8341 9.1183 0.0000 0.0000 0.0000
# 2 75.8341 164.6780 22.6412 0.0000 0.0000 0.0000
# 3 9.1183 22.6412 22.7072 0.0000 0.0000 0.0000
# 4 0.0000 0.0000 0.0000 6.9844 0.0000 0.0000
# 5 0.0000 0.0000 0.0000 0.0000 284.8509 0.0000
# 6 0.0000 0.0000 0.0000 0.0000 0.0000 56.8783
#
#
#
# Elastic Compliance Matrix: (Units=1/GPa)
#
#
# Indices 1 2 3 4 5 6 
#
# 1 0.012460 -0.005852 0.000832 0.000000 0.000000 0.000000
# 2 -0.005852 0.009786 -0.007407 0.000000 0.000000 0.000000
# 3 0.000832 -0.007407 0.051091 0.000000 0.000000 0.000000
# 4 0.000000 0.000000 0.000000 0.143176 0.000000 0.000000
# 5 0.000000 0.000000 0.000000 0.000000 0.003511 0.000000
# 6 0.000000 0.000000 0.000000 0.000000 0.000000 0.017581
#
#
# Mechanical properties :
#
#
# Convention : Reuss Voigt Hill
#
# Bulk Modulus (GPa) = 20.62658 57.53728 39.08193
# Shear Modulus (GPa) = 17.94550 82.74638 50.34594
#
# Velocity S-wave (km/s) = 3.15390 6.77243 5.28265
# Velocity P-wave (km/s) = 4.96950 9.64608 7.67277
#
# Compressibility (1/GPa) = 0.04848114
#
# Stress axis : x y z
#
# Youngs Moduli (GPa) = 80.25441 102.18796 19.57298
#
# Poissons Ratio (x) = 0.59804 -0.01628
# Poissons Ratio (y) = 0.46968 0.14499
# Poissons Ratio (z) = -0.06675 0.75695
#
# Static dielectric constant tensor:
#      x y z
#    x 3.553110 0.000000 0.000000 
#    y 0.000000 3.909000 0.000000 
#    z 0.000000 0.000000 2.934910 
# 
# 
# High freq. dielectric constant tensor:
#      x y z
#    x 1.683600 0.000000 0.000000 
#    y 0.000000 1.716710 0.000000 
#    z 0.000000 0.000000 1.659110 
# 
# From -- ./inp_files/11074.got.cif
#   From: 2010.03.12/outbox.cif.g09.slc.cpg/sg47_6_cif.got.tgz:11074.got - 2010.04.14 03:12:58.
