data_PCOD8193145
_publ_section_title
;
Structure prediction by ZEFSAII (Michael W. Deem and Ramdas Pophale) SiO2 
 PCOD8193145
Probable space group: I M A 2
;
_chemical_formula_sum "Si O2"
_cell_formula_units_Z 40
_cell_length_a 24.779810
_cell_length_b 15.327105
_cell_length_c 5.011515
_cell_angle_alpha 90.000000
_cell_angle_beta 90.000000
_cell_angle_gamma 90.000000
_cell_volume 1903.387177
_symmetry_space_group_name_H-M "I M A 2"
_symmetry_group_IT_number 46
_symmetry_cell_setting 'orthorhombic'
loop_
_space_group_symop_operation_xyz
x,y,z
-x,-y,z
1/2-x,y,z
1/2+x,-y,z
1/2+x,1/2+y,1/2+z
1/2-x,1/2-y,1/2+z
-x,1/2+y,1/2+z
x,1/2-y,1/2+z
loop_
_atom_site_type_symbol
_atom_site_label
_atom_site_fract_x
_atom_site_fract_y
_atom_site_fract_z
Si Si1 0.312558 0.462336 0.187510
Si Si2 0.387230 0.191755 0.643539
Si Si3 0.129644 0.526958 0.681929
Si Si4 0.464873 0.420248 0.454290
Si Si5 0.939356 0.191851 0.094575
O O1 0.250000 0.464887 0.116405
O O2 0.331897 0.361729 0.185529
O O3 0.322828 0.506238 0.473296
O O4 0.346716 0.518309 0.976421
O O5 0.389282 0.225187 0.340651
O O6 0.438448 0.370444 0.203298
O O7 0.081403 0.457020 0.649034
O O8 0.109403 0.625228 0.643370
O O9 0.500000 0.500000 0.332876
O O10 0.502860 0.355951 0.625895
O O11 0.934816 0.227916 0.795506
#
# Coordination Sequence:
#
# PCOD8193145 Si02
#       5
#     8   8   8   8   8
#     4  11  23  41  64  85 112 157 202 242 294 353
#     4  11  22  37  57  85 120 150 188 242 290 334
#     4  10  22  40  61  87 119 154 197 244 287 348
#     4   9  20  37  58  87 123 164 199 229 280 351
#     4  11  22  37  61  90 122 155 192 239 293 350
#
# _framework density 21.015166000000001
#
# number of rings (size 3 to 8) (size 9 to 14) (size 15 to 20)
#    0.000    1.600    0.000    5.400    0.000    4.000 
#    0.000   16.000    0.000   12.000    0.000    0.000 
#    0.000    0.000    0.000    0.000    0.000    0.000 
#
# Total GULP energy -248102.700885 kJ/mol
# GULP energy per Si atom -12405.135044 kJ/mol
# Density = 2.096733 g / cm^3
# Si number density = 21.015166 Si / 1000 Ang^3
#
#
#
# Elastic Constant Matrix: (Units=GPa)
#
#
# Indices 1 2 3 4 5 6 
#
# 1 115.6358 44.7510 6.4372 0.0000 0.0000 0.0000
# 2 44.7510 104.9729 13.3548 0.0000 0.0000 0.0000
# 3 6.4372 13.3548 61.3816 0.0000 0.0000 0.0000
# 4 0.0000 0.0000 0.0000 36.6877 0.0000 0.0000
# 5 0.0000 0.0000 0.0000 0.0000 26.3297 0.0000
# 6 0.0000 0.0000 0.0000 0.0000 0.0000 19.8806
#
#
#
# Elastic Compliance Matrix: (Units=1/GPa)
#
#
# Indices 1 2 3 4 5 6 
#
# 1 0.010357 -0.004399 -0.000129 0.000000 0.000000 0.000000
# 2 -0.004399 0.011666 -0.002077 0.000000 0.000000 0.000000
# 3 -0.000129 -0.002077 0.016757 0.000000 0.000000 0.000000
# 4 0.000000 0.000000 0.000000 0.027257 0.000000 0.000000
# 5 0.000000 0.000000 0.000000 0.000000 0.037980 0.000000
# 6 0.000000 0.000000 0.000000 0.000000 0.000000 0.050300
#
#
# Mechanical properties :
#
#
# Convention : Reuss Voigt Hill
#
# Bulk Modulus (GPa) = 39.10787 45.67514 42.39151
# Shear Modulus (GPa) = 28.40087 31.07608 29.73848
#
# Velocity S-wave (km/s) = 3.68019 3.84962 3.76586
# Velocity P-wave (km/s) = 6.05873 6.44523 6.25496
#
# Compressibility (1/GPa) = 0.02557030
#
# Stress axis : x y z
#
# Youngs Moduli (GPa) = 96.54869 85.72022 59.67684
#
# Poissons Ratio (x) = 0.37709 0.00770
# Poissons Ratio (y) = 0.42472 0.12394
# Poissons Ratio (z) = 0.01246 0.17802
#
# Static dielectric constant tensor:
#      x y z
#    x 3.684940 0.000000 0.000000 
#    y 0.000000 3.917950 0.000000 
#    z 0.000000 0.000000 3.584380 
# 
# 
# High freq. dielectric constant tensor:
#      x y z
#    x 1.808100 0.000000 0.000000 
#    y 0.000000 1.830280 0.000000 
#    z 0.000000 0.000000 1.824740 
# 
# From -- ./inp_files/2308.got.cif
#   From: 2010.03.12/outbox.cif.g09.slc.cpg/sg46_2_cif.got.tgz:2308.got - 2010.04.14 02:56:35.
