data_PCOD8193056
_publ_section_title
;
Structure prediction by ZEFSAII (Michael W. Deem and Ramdas Pophale) SiO2 
 PCOD8193056
Probable space group: I M A 2
;
_chemical_formula_sum "Si O2"
_cell_formula_units_Z 56
_cell_length_a 14.457404
_cell_length_b 5.656317
_cell_length_c 28.768227
_cell_angle_alpha 90.000000
_cell_angle_beta 90.000000
_cell_angle_gamma 90.000000
_cell_volume 2352.540751
_symmetry_space_group_name_H-M "I M A 2"
_symmetry_group_IT_number 46
_symmetry_cell_setting 'orthorhombic'
loop_
_space_group_symop_operation_xyz
x,y,z
-x,-y,z
1/2-x,y,z
1/2+x,-y,z
1/2+x,1/2+y,1/2+z
1/2-x,1/2-y,1/2+z
-x,1/2+y,1/2+z
x,1/2-y,1/2+z
loop_
_atom_site_type_symbol
_atom_site_label
_atom_site_fract_x
_atom_site_fract_y
_atom_site_fract_z
Si Si1 0.000000 0.000000 0.991020
Si Si2 0.646470 0.371444 0.148154
Si Si3 0.595803 0.380282 0.045768
Si Si4 0.648229 0.328394 0.873294
Si Si5 0.149300 0.168392 0.459312
Si Si6 0.642270 0.626045 0.684858
Si Si7 0.500000 0.000000 0.841694
Si Si8 0.353644 0.183743 0.291935
O O1 0.938441 0.838650 0.957573
O O2 0.074559 0.873952 0.023951
O O3 0.750000 0.372195 0.169234
O O4 0.654363 0.360031 0.092457
O O5 0.599170 0.623435 0.164642
O O6 0.597688 0.122720 0.165061
O O7 0.500000 0.500000 0.059488
O O8 0.651837 0.526974 0.007568
O O9 0.750000 0.208627 0.877841
O O10 0.632577 0.506025 0.915163
O O11 0.639980 0.451532 0.823335
O O12 0.565227 0.144113 0.876758
O O13 0.250000 0.295275 0.454680
O O14 0.750000 0.626566 0.670951
O O15 0.625069 0.610952 0.739533
O O16 0.568246 0.862775 0.807687
O O17 0.250000 0.295636 0.296174
#
# Coordination Sequence:
#
# PCOD8193056 Si02
#       8
#     4   8   8   8   8   8   4   8
#     4  10  24  43  68  98 134 178 226 286 347 408
#     4  10  21  40  67  96 130 181 237 291 354 422
#     4  10  23  40  60  96 136 176 222 291 347 413
#     4  10  24  45  69 100 137 177 228 284 344 417
#     4  10  23  44  70 100 135 180 229 279 348 418
#     4   9  21  40  66  96 132 181 237 292 351 420
#     4  12  24  41  70 102 130 180 226 282 349 418
#     4  10  23  43  66  98 138 179 228 287 348 418
#
# _framework density 23.80405
#
# number of rings (size 3 to 8) (size 9 to 14) (size 15 to 20)
#    0.000    2.000    0.000    1.286    6.000    6.857 
#    1.286    2.857    0.000    1.714    0.000    0.000 
#    0.000    0.000    0.000    0.000    0.000    0.000 
#
# Total GULP energy -347026.891487 kJ/mol
# GULP energy per Si atom -12393.817553 kJ/mol
# Density = 2.374987 g / cm^3
# Si number density = 23.804050 Si / 1000 Ang^3
#
#
#
# Elastic Constant Matrix: (Units=GPa)
#
#
# Indices 1 2 3 4 5 6 
#
# 1 99.1919 62.1041 49.7672 0.0000 0.0000 0.0000
# 2 62.1041 154.8134 59.5591 0.0000 0.0000 0.0000
# 3 49.7672 59.5591 147.7432 0.0000 0.0000 0.0000
# 4 0.0000 0.0000 0.0000 30.3057 0.0000 0.0000
# 5 0.0000 0.0000 0.0000 0.0000 15.7440 0.0000
# 6 0.0000 0.0000 0.0000 0.0000 0.0000 -2.7590
#
#
#
# Elastic Compliance Matrix: (Units=1/GPa)
#
#
# Indices 1 2 3 4 5 6 
#
# 1 0.014511 -0.004664 -0.003008 0.000000 0.000000 0.000000
# 2 -0.004664 0.009144 -0.002115 0.000000 0.000000 0.000000
# 3 -0.003008 -0.002115 0.008634 0.000000 0.000000 0.000000
# 4 0.000000 0.000000 0.000000 0.032997 0.000000 0.000000
# 5 0.000000 0.000000 0.000000 0.000000 0.063516 0.000000
# 6 0.000000 0.000000 0.000000 0.000000 0.000000 -0.362451
#
#
# Mechanical properties :
#
#
# Convention : Reuss Voigt Hill
#
# Bulk Modulus (GPa) = 78.64487 82.73436 80.68962
# Shear Modulus (GPa) = -23.82807 24.01270 0.09232
#
# Velocity S-wave (km/s) = -3.16730 3.17955 0.19714
# Velocity P-wave (km/s) = 4.44234 6.95063 5.83291
#
# Compressibility (1/GPa) = 0.01271539
#
# Stress axis : x y z
#
# Youngs Moduli (GPa) = 68.91517 109.36056 115.81654
#
# Poissons Ratio (x) = 0.51004 0.34835
# Poissons Ratio (y) = 0.32141 0.24497
# Poissons Ratio (z) = 0.20728 0.23132
#
# Static dielectric constant tensor:
#      x y z
#    x 4.360970 0.000000 0.000000 
#    y 0.000000 4.407390 0.000000 
#    z 0.000000 0.000000 4.144570 
# 
# 
# High freq. dielectric constant tensor:
#      x y z
#    x 1.944870 0.000000 0.000000 
#    y 0.000000 1.937820 0.000000 
#    z 0.000000 0.000000 1.951450 
# 
# From -- ./inp_files/25437.got.cif
#   From: 2010.03.12/outbox.cif.g09.slc.cpg/sg46_13_cif.got.tgz:25437.got - 2010.04.14 02:56:35.
