data_PCOD8193634
_publ_section_title
;
Structure prediction by ZEFSAII (Michael W. Deem and Ramdas Pophale) SiO2 
 PCOD8193634
Probable space group: P M M M
;
_chemical_formula_sum "Si O2"
_cell_formula_units_Z 46
_cell_length_a 12.978872
_cell_length_b 16.601415
_cell_length_c 11.574977
_cell_angle_alpha 90.000000
_cell_angle_beta 90.000000
_cell_angle_gamma 90.000000
_cell_volume 2494.032981
_symmetry_space_group_name_H-M "P M M M"
_symmetry_group_IT_number 47
_symmetry_cell_setting 'orthorhombic'
loop_
_space_group_symop_operation_xyz
x,y,z
-x,-y,z
x,-y,-z
-x,y,-z
-x,-y,-z
x,y,-z
-x,y,z
x,-y,z
loop_
_atom_site_type_symbol
_atom_site_label
_atom_site_fract_x
_atom_site_fract_y
_atom_site_fract_z
Si Si1 0.113007 0.595209 0.500000
Si Si2 0.779503 0.594427 0.734568
Si Si3 0.500000 0.142482 0.865407
Si Si4 0.290531 0.168995 0.250240
Si Si5 0.383171 0.691269 0.368903
Si Si6 0.882808 0.730251 0.864525
Si Si7 0.283208 0.000000 0.371252
Si Si8 0.500000 0.000000 0.687961
O O1 0.105459 0.500000 0.500000
O O2 0.170481 0.623704 0.385629
O O3 0.000000 0.634484 0.500000
O O4 0.786826 0.500000 0.760545
O O5 0.661201 0.623391 0.719460
O O6 0.837914 0.641428 0.836009
O O7 0.611598 0.183009 0.837618
O O8 0.500000 0.072259 0.774982
O O9 0.500000 0.117742 0.000000
O O10 0.318355 0.225656 0.359318
O O11 0.186505 0.199744 0.190306
O O12 0.260588 0.079357 0.294082
O O13 0.377443 0.659505 0.500000
O O14 0.500000 0.708082 0.331062
O O15 0.000000 0.737631 0.818105
O O16 0.880350 0.741444 0.000000
O O17 0.404278 0.000000 0.397556
O O18 0.229598 0.000000 0.500000
#
# Coordination Sequence:
#
# PCOD8193634 Si02
#       8
#     4   8   4   8   8   8   4   2
#     4   9  16  28  47  73 103 134 170 219 276 325
#     4  10  20  34  54  81 110 142 183 229 277 330
#     4  10  17  29  49  74 106 140 176 223 272 320
#     4  10  20  35  54  83 111 144 186 228 279 328
#     4  10  19  32  51  77 112 150 184 219 268 333
#     4  10  22  40  60  81 109 146 187 231 278 331
#     4  10  19  33  56  83 115 147 182 227 276 330
#     4   8  18  28  44  80 110 140 174 216 270 324
#
# _framework density 18.444023000000001
#
# number of rings (size 3 to 8) (size 9 to 14) (size 15 to 20)
#    0.000    2.174    1.739    1.826    0.000    1.739 
#    0.000    3.478    0.000    1.565    0.000    2.435 
#    0.000    0.000    0.000    0.000    0.000    0.000 
#
# Total GULP energy -569883.153209 kJ/mol
# GULP energy per Si atom -12388.764200 kJ/mol
# Density = 1.840204 g / cm^3
# Si number density = 18.444023 Si / 1000 Ang^3
#
#
#
# Elastic Constant Matrix: (Units=GPa)
#
#
# Indices 1 2 3 4 5 6 
#
# 1 121.4434 53.0863 36.3930 0.0000 0.0000 0.0000
# 2 53.0863 116.5088 27.6910 0.0000 0.0000 0.0000
# 3 36.3930 27.6910 68.1871 0.0000 0.0000 0.0000
# 4 0.0000 0.0000 0.0000 24.0256 0.0000 0.0000
# 5 0.0000 0.0000 0.0000 0.0000 26.6396 0.0000
# 6 0.0000 0.0000 0.0000 0.0000 0.0000 21.3802
#
#
#
# Elastic Compliance Matrix: (Units=1/GPa)
#
#
# Indices 1 2 3 4 5 6 
#
# 1 0.011353 -0.004132 -0.004382 0.000000 0.000000 0.000000
# 2 -0.004132 0.011004 -0.002263 0.000000 0.000000 0.000000
# 3 -0.004382 -0.002263 0.017923 0.000000 0.000000 0.000000
# 4 0.000000 0.000000 0.000000 0.041622 0.000000 0.000000
# 5 0.000000 0.000000 0.000000 0.000000 0.037538 0.000000
# 6 0.000000 0.000000 0.000000 0.000000 0.000000 0.046772
#
#
# Mechanical properties :
#
#
# Convention : Reuss Voigt Hill
#
# Bulk Modulus (GPa) = 53.39959 60.05332 56.72646
# Shear Modulus (GPa) = 25.77205 27.00703 26.38954
#
# Velocity S-wave (km/s) = 3.74212 3.83073 3.78668
# Velocity P-wave (km/s) = 6.90553 7.22471 7.06692
#
# Compressibility (1/GPa) = 0.01872673
#
# Stress axis : x y z
#
# Youngs Moduli (GPa) = 88.07914 90.87966 55.79328
#
# Poissons Ratio (x) = 0.37549 0.24447
# Poissons Ratio (y) = 0.36392 0.12628
# Poissons Ratio (z) = 0.38594 0.20570
#
# Static dielectric constant tensor:
#      x y z
#    x 3.708270 0.000000 0.000000 
#    y 0.000000 3.243020 0.000000 
#    z 0.000000 0.000000 3.207420 
# 
# 
# High freq. dielectric constant tensor:
#      x y z
#    x 1.716160 0.000000 0.000000 
#    y 0.000000 1.704390 0.000000 
#    z 0.000000 0.000000 1.706480 
# 
# From -- ./inp_files/16366.got.cif
#   From: 2010.03.12/outbox.cif.g09.slc.cpg/sg47_9_cif.got.tgz:16366.got - 2010.04.14 03:12:58.
