data_PCOD8193776
_publ_section_title
;
Structure prediction by ZEFSAII (Michael W. Deem and Ramdas Pophale) SiO2 
 PCOD8193776
Probable space group: P M M M
;
_chemical_formula_sum "Si O2"
_cell_formula_units_Z 64
_cell_length_a 29.201436
_cell_length_b 9.299371
_cell_length_c 14.583125
_cell_angle_alpha 90.000000
_cell_angle_beta 90.000000
_cell_angle_gamma 90.000000
_cell_volume 3960.120321
_symmetry_space_group_name_H-M "P M M M"
_symmetry_group_IT_number 47
_symmetry_cell_setting 'orthorhombic'
loop_
_space_group_symop_operation_xyz
x,y,z
-x,-y,z
x,-y,-z
-x,y,-z
-x,-y,-z
x,y,-z
-x,y,z
x,-y,z
loop_
_atom_site_type_symbol
_atom_site_label
_atom_site_fract_x
_atom_site_fract_y
_atom_site_fract_z
Si Si1 0.873631 0.670730 0.601938
Si Si2 0.051402 0.666749 0.742912
Si Si3 0.548284 0.829554 0.103337
Si Si4 0.274824 0.330649 0.216531
Si Si5 0.185580 0.663375 0.893526
Si Si6 0.095904 0.832533 0.106117
Si Si7 0.228802 0.670744 0.601762
Si Si8 0.647881 0.830186 0.892726
O O1 0.884973 0.727693 0.500000
O O2 0.875965 0.500000 0.603241
O O3 0.912161 0.731919 0.670462
O O4 0.822444 0.723297 0.629742
O O5 0.061228 0.500000 0.763843
O O6 0.055940 0.755586 0.837001
O O7 0.000000 0.687895 0.704481
O O8 0.500000 0.777292 0.152342
O O9 0.597241 0.779118 0.144096
O O10 0.549142 0.000000 0.102985
O O11 0.546574 0.772117 0.000000
O O12 0.284345 0.500000 0.210145
O O13 0.230385 0.285889 0.159396
O O14 0.265718 0.279687 0.321837
O O15 0.317630 0.248933 0.174540
O O16 0.172267 0.500000 0.867097
O O17 0.144272 0.765234 0.863461
O O18 0.196911 0.678525 0.000000
O O19 0.097004 0.000000 0.128499
O O20 0.085832 0.801840 0.000000
O O21 0.242291 0.729584 0.500000
O O22 0.227630 0.500000 0.598955
O O23 0.654599 0.000000 0.881708
O O24 0.654920 0.787373 0.000000
#
# Coordination Sequence:
#
# PCOD8193776 Si02
#       8
#     8   8   8   8   8   8   8   8
#     4   8  14  27  48  71  91 108 130 166 208 247
#     4  10  20  32  48  71  94 113 134 163 203 251
#     4   7  10  19  36  55  75 105 147 187 216 245
#     4  10  18  27  42  63  88 117 144 172 210 254
#     4   9  17  29  45  64  85 110 141 174 207 248
#     4  10  21  35  49  64  83 111 147 182 211 239
#     4   8  14  25  42  63  84 108 140 174 206 244
#     4   9  17  27  39  59  88 119 149 181 215 251
#
# _framework density 16.161125999999999
#
# number of rings (size 3 to 8) (size 9 to 14) (size 15 to 20)
#    0.000    3.125    0.000    3.375    0.000    4.750 
#    0.000    3.750    0.000    1.125    0.000    4.375 
#    0.000    0.500    0.000    6.250    0.000    0.250 
#
# Total GULP energy -792882.632626 kJ/mol
# GULP energy per Si atom -12388.791135 kJ/mol
# Density = 1.612434 g / cm^3
# Si number density = 16.161126 Si / 1000 Ang^3
#
#
#
# Elastic Constant Matrix: (Units=GPa)
#
#
# Indices 1 2 3 4 5 6 
#
# 1 124.5452 33.3996 70.0295 0.0000 0.0000 0.0000
# 2 33.3996 32.2569 27.1379 0.0000 0.0000 0.0000
# 3 70.0295 27.1379 80.9150 0.0000 0.0000 0.0000
# 4 0.0000 0.0000 0.0000 10.7206 0.0000 0.0000
# 5 0.0000 0.0000 0.0000 0.0000 18.3844 0.0000
# 6 0.0000 0.0000 0.0000 0.0000 0.0000 19.8170
#
#
#
# Elastic Compliance Matrix: (Units=1/GPa)
#
#
# Indices 1 2 3 4 5 6 
#
# 1 0.016752 -0.007172 -0.012093 0.000000 0.000000 0.000000
# 2 -0.007172 0.046257 -0.009307 0.000000 0.000000 0.000000
# 3 -0.012093 -0.009307 0.025947 0.000000 0.000000 0.000000
# 4 0.000000 0.000000 0.000000 0.093279 0.000000 0.000000
# 5 0.000000 0.000000 0.000000 0.000000 0.054394 0.000000
# 6 0.000000 0.000000 0.000000 0.000000 0.000000 0.050462
#
#
# Mechanical properties :
#
#
# Convention : Reuss Voigt Hill
#
# Bulk Modulus (GPa) = 31.43514 55.42791 43.43153
# Shear Modulus (GPa) = 14.09093 16.92775 15.50934
#
# Velocity S-wave (km/s) = 2.95600 3.23992 3.10121
# Velocity P-wave (km/s) = 5.58067 6.95469 6.30522
#
# Compressibility (1/GPa) = 0.03181153
#
# Stress axis : x y z
#
# Youngs Moduli (GPa) = 59.69332 21.61835 38.54070
#
# Poissons Ratio (x) = 0.15504 0.46609
# Poissons Ratio (y) = 0.42809 0.35871
# Poissons Ratio (z) = 0.72189 0.20121
#
# Static dielectric constant tensor:
#      x y z
#    x -4.248940 0.000000 0.000000 
#    y 0.000000 2.692980 0.000000 
#    z 0.000000 0.000000 3.180890 
# 
# 
# High freq. dielectric constant tensor:
#      x y z
#    x 1.620410 0.000000 0.000000 
#    y 0.000000 1.581000 0.000000 
#    z 0.000000 0.000000 1.604290 
# 
# From -- ./inp_files/22142.got.cif
#   From: 2010.03.12/outbox.cif.g09.slc.cpg/sg47_12_cif.got.tgz:22142.got - 2010.04.14 03:12:58.
