data_PCOD8193842
_publ_section_title
;
Structure prediction by ZEFSAII (Michael W. Deem and Ramdas Pophale) SiO2 
 PCOD8193842
Probable space group: P M M M
;
_chemical_formula_sum "Si O2"
_cell_formula_units_Z 52
_cell_length_a 8.113370
_cell_length_b 13.842362
_cell_length_c 28.154882
_cell_angle_alpha 90.000000
_cell_angle_beta 90.000000
_cell_angle_gamma 90.000000
_cell_volume 3162.024248
_symmetry_space_group_name_H-M "P M M M"
_symmetry_group_IT_number 47
_symmetry_cell_setting 'orthorhombic'
loop_
_space_group_symop_operation_xyz
x,y,z
-x,-y,z
x,-y,-z
-x,y,-z
-x,-y,-z
x,y,-z
-x,y,z
x,-y,z
loop_
_atom_site_type_symbol
_atom_site_label
_atom_site_fract_x
_atom_site_fract_y
_atom_site_fract_z
Si Si1 0.000000 0.384803 0.054076
Si Si2 0.811070 0.391097 0.210206
Si Si3 0.808016 0.392081 0.611864
Si Si4 0.306271 0.106321 0.357391
Si Si5 0.682579 0.385442 0.110230
Si Si6 0.689792 0.287640 0.699722
Si Si7 0.194365 0.211433 0.447202
O O1 0.167552 0.342787 0.078410
O O2 0.000000 0.500000 0.057576
O O3 0.000000 0.348934 0.000000
O O4 0.757769 0.500000 0.225432
O O5 0.706245 0.355087 0.165132
O O6 0.787567 0.317318 0.253369
O O7 0.000000 0.390840 0.194095
O O8 0.764983 0.500000 0.594587
O O9 0.708018 0.369644 0.659731
O O10 0.755319 0.318810 0.570207
O O11 0.000000 0.381028 0.624289
O O12 0.500000 0.105295 0.351111
O O13 0.234079 0.187041 0.321225
O O14 0.266710 0.131548 0.411913
O O15 0.232662 0.000000 0.345663
O O16 0.500000 0.348372 0.093640
O O17 0.689234 0.500000 0.106123
O O18 0.500000 0.276052 0.713543
O O19 0.267796 0.195902 0.500000
O O20 0.000000 0.199718 0.448094
#
# Coordination Sequence:
#
# PCOD8193842 Si02
#       7
#     4   8   8   8   8   8   8
#     4   9  16  26  38  54  80 114 155 201 240 269
#     4  10  18  28  42  60  86 116 143 176 218 261
#     4   9  17  29  43  59  82 110 135 160 196 245
#     4   9  19  35  50  62  80 106 134 167 207 253
#     4   9  16  26  39  56  80 112 152 194 233 270
#     4  10  19  29  43  63  82 103 136 172 208 254
#     4   9  18  31  46  65  85 103 129 166 204 244
#
# _framework density 16.445160999999999
#
# number of rings (size 3 to 8) (size 9 to 14) (size 15 to 20)
#    0.000    2.692    0.769    1.385    0.000    5.231 
#    0.000    4.615    0.000    0.000    0.000    4.308 
#    0.000    0.000    0.000    0.000    0.000    1.538 
#
# Total GULP energy -644539.122401 kJ/mol
# GULP energy per Si atom -12394.983123 kJ/mol
# Density = 1.640773 g / cm^3
# Si number density = 16.445161 Si / 1000 Ang^3
#
#
#
# Elastic Constant Matrix: (Units=GPa)
#
#
# Indices 1 2 3 4 5 6 
#
# 1 63.4362 15.3261 37.1100 0.0000 0.0000 0.0000
# 2 15.3261 76.3669 34.7135 0.0000 0.0000 0.0000
# 3 37.1100 34.7135 102.0103 0.0000 0.0000 0.0000
# 4 0.0000 0.0000 0.0000 10.9044 0.0000 0.0000
# 5 0.0000 0.0000 0.0000 0.0000 19.7246 0.0000
# 6 0.0000 0.0000 0.0000 0.0000 0.0000 13.8849
#
#
#
# Elastic Compliance Matrix: (Units=1/GPa)
#
#
# Indices 1 2 3 4 5 6 
#
# 1 0.020071 -0.000839 -0.007016 0.000000 0.000000 0.000000
# 2 -0.000839 0.015526 -0.004978 0.000000 0.000000 0.000000
# 3 -0.007016 -0.004978 0.014049 0.000000 0.000000 0.000000
# 4 0.000000 0.000000 0.000000 0.091706 0.000000 0.000000
# 5 0.000000 0.000000 0.000000 0.000000 0.050698 0.000000
# 6 0.000000 0.000000 0.000000 0.000000 0.000000 0.072020
#
#
# Mechanical properties :
#
#
# Convention : Reuss Voigt Hill
#
# Bulk Modulus (GPa) = 41.70151 46.23475 43.96813
# Shear Modulus (GPa) = 16.79373 19.21371 18.00372
#
# Velocity S-wave (km/s) = 3.19908 3.42182 3.31233
# Velocity P-wave (km/s) = 6.24968 6.61720 6.43606
#
# Compressibility (1/GPa) = 0.02397995
#
# Stress axis : x y z
#
# Youngs Moduli (GPa) = 49.82329 64.40833 71.17760
#
# Poissons Ratio (x) = 0.05403 0.49939
# Poissons Ratio (y) = 0.04179 0.35434
# Poissons Ratio (z) = 0.34957 0.32064
#
# Static dielectric constant tensor:
#      x y z
#    x 3.182360 0.000000 0.000000 
#    y 0.000000 3.025620 0.000000 
#    z 0.000000 0.000000 3.049880 
# 
# 
# High freq. dielectric constant tensor:
#      x y z
#    x 1.638970 0.000000 0.000000 
#    y 0.000000 1.585770 0.000000 
#    z 0.000000 0.000000 1.618840 
# 
# From -- ./inp_files/31989.got.cif
#   From: 2010.03.12/outbox.cif.g09.slc.cpg/sg47_16_cif.got.tgz:31989.got - 2010.04.14 03:12:58.
