data_PCOD8193005
_publ_section_title
;
Structure prediction by ZEFSAII (Michael W. Deem and Ramdas Pophale) SiO2 
 PCOD8193005
Probable space group: I M A 2
;
_chemical_formula_sum "Si O2"
_cell_formula_units_Z 48
_cell_length_a 17.973252
_cell_length_b 14.525720
_cell_length_c 9.000138
_cell_angle_alpha 90.000000
_cell_angle_beta 90.000000
_cell_angle_gamma 90.000000
_cell_volume 2349.705863
_symmetry_space_group_name_H-M "I M A 2"
_symmetry_group_IT_number 46
_symmetry_cell_setting 'orthorhombic'
loop_
_space_group_symop_operation_xyz
x,y,z
-x,-y,z
1/2-x,y,z
1/2+x,-y,z
1/2+x,1/2+y,1/2+z
1/2-x,1/2-y,1/2+z
-x,1/2+y,1/2+z
x,1/2-y,1/2+z
loop_
_atom_site_type_symbol
_atom_site_label
_atom_site_fract_x
_atom_site_fract_y
_atom_site_fract_z
Si Si1 0.166971 0.179419 0.074780
Si Si2 0.612908 0.540337 0.782346
Si Si3 0.891973 0.849667 0.760855
Si Si4 0.834811 0.012310 0.599467
Si Si5 0.952857 0.167967 0.622610
Si Si6 0.039138 0.644166 0.779805
O O1 0.250000 0.202512 0.017012
O O2 0.173429 0.085633 0.173389
O O3 0.136888 0.260371 0.177038
O O4 0.111050 0.169279 0.936495
O O5 0.540754 0.601610 0.744119
O O6 0.601271 0.432838 0.746439
O O7 0.635363 0.543270 0.955206
O O8 0.976106 0.873225 0.709988
O O9 0.839997 0.937746 0.730613
O O10 0.750000 0.044680 0.576145
O O11 0.882673 0.100955 0.646772
O O12 0.936601 0.270298 0.679923
O O13 0.966352 0.176359 0.448686
#
# Coordination Sequence:
#
# PCOD8193005 Si02
#       6
#     8   8   8   8   8   8
#     4  12  24  38  60  94 131 166 209 268 336 390
#     4  10  21  40  63  92 125 163 211 262 322 383
#     4  12  23  40  60  90 129 168 212 266 324 393
#     4  11  23  42  65  91 128 170 213 267 327 386
#     4  11  22  41  64  93 122 168 214 264 314 384
#     4  10  21  39  64  91 124 163 215 259 307 381
#
# _framework density 20.428089
#
# number of rings (size 3 to 8) (size 9 to 14) (size 15 to 20)
#    0.000    1.000    3.333    4.500    0.000    1.333 
#    3.000    4.167    0.000    0.000    0.000    0.000 
#    0.000    0.000    0.000    0.000    0.000    0.000 
#
# Total GULP energy -297590.241266 kJ/mol
# GULP energy per Si atom -12399.593386 kJ/mol
# Density = 2.038159 g / cm^3
# Si number density = 20.428089 Si / 1000 Ang^3
#
#
#
# Elastic Constant Matrix: (Units=GPa)
#
#
# Indices 1 2 3 4 5 6 
#
# 1 94.9768 38.4941 22.7905 0.0000 0.0000 0.0000
# 2 38.4941 130.0852 66.6736 0.0000 0.0000 0.0000
# 3 22.7905 66.6736 97.4231 0.0000 0.0000 0.0000
# 4 0.0000 0.0000 0.0000 39.9280 0.0000 0.0000
# 5 0.0000 0.0000 0.0000 0.0000 22.7377 0.0000
# 6 0.0000 0.0000 0.0000 0.0000 0.0000 25.1266
#
#
#
# Elastic Compliance Matrix: (Units=1/GPa)
#
#
# Indices 1 2 3 4 5 6 
#
# 1 0.011985 -0.003249 -0.000580 0.000000 0.000000 0.000000
# 2 -0.003249 0.012721 -0.007946 0.000000 0.000000 0.000000
# 3 -0.000580 -0.007946 0.015838 0.000000 0.000000 0.000000
# 4 0.000000 0.000000 0.000000 0.025045 0.000000 0.000000
# 5 0.000000 0.000000 0.000000 0.000000 0.043980 0.000000
# 6 0.000000 0.000000 0.000000 0.000000 0.000000 0.039798
#
#
# Mechanical properties :
#
#
# Convention : Reuss Voigt Hill
#
# Bulk Modulus (GPa) = 58.84423 64.26683 61.55553
# Shear Modulus (GPa) = 27.99815 30.52695 29.26255
#
# Velocity S-wave (km/s) = 3.70614 3.86989 3.78890
# Velocity P-wave (km/s) = 6.86892 7.17610 7.02419
#
# Compressibility (1/GPa) = 0.01699402
#
# Stress axis : x y z
#
# Youngs Moduli (GPa) = 83.43773 78.60749 63.13833
#
# Poissons Ratio (x) = 0.25542 0.03662
# Poissons Ratio (y) = 0.27111 0.50170
# Poissons Ratio (z) = 0.04839 0.62462
#
# Static dielectric constant tensor:
#      x y z
#    x 3.670300 0.000000 0.000000 
#    y 0.000000 3.821450 0.000000 
#    z 0.000000 0.000000 3.684290 
# 
# 
# High freq. dielectric constant tensor:
#      x y z
#    x 1.787950 0.000000 0.000000 
#    y 0.000000 1.805640 0.000000 
#    z 0.000000 0.000000 1.797850 
# 
# From -- ./inp_files/6603.got.cif
#   From: 2010.03.12/outbox.cif.g09.slc.cpg/sg46_4_cif.got.tgz:6603.got - 2010.04.14 02:56:35.
