data_PCOD8193225
_publ_section_title
;
Structure prediction by ZEFSAII (Michael W. Deem and Ramdas Pophale) SiO2 
 PCOD8193225
Probable space group: I M A 2
;
_chemical_formula_sum "Si O2"
_cell_formula_units_Z 56
_cell_length_a 13.649020
_cell_length_b 12.253109
_cell_length_c 14.138226
_cell_angle_alpha 90.000000
_cell_angle_beta 90.000000
_cell_angle_gamma 90.000000
_cell_volume 2364.518338
_symmetry_space_group_name_H-M "I M A 2"
_symmetry_group_IT_number 46
_symmetry_cell_setting 'orthorhombic'
loop_
_space_group_symop_operation_xyz
x,y,z
-x,-y,z
1/2-x,y,z
1/2+x,-y,z
1/2+x,1/2+y,1/2+z
1/2-x,1/2-y,1/2+z
-x,1/2+y,1/2+z
x,1/2-y,1/2+z
loop_
_atom_site_type_symbol
_atom_site_label
_atom_site_fract_x
_atom_site_fract_y
_atom_site_fract_z
Si Si1 0.633502 0.679114 0.896650
Si Si2 0.367726 0.559611 0.843805
Si Si3 0.858527 0.747373 0.103365
Si Si4 0.862629 0.383518 0.301889
Si Si5 0.641309 0.621085 0.279209
Si Si6 0.360079 0.754055 0.480975
Si Si7 0.950077 0.197576 0.180687
O O1 0.750000 0.670085 0.888151
O O2 0.589983 0.561934 0.863801
O O3 0.588412 0.775038 0.830511
O O4 0.600885 0.709536 0.002321
O O5 0.250000 0.564451 0.841906
O O6 0.408586 0.641141 0.926263
O O7 0.404329 0.598340 0.740084
O O8 0.750000 0.802872 0.097352
O O9 0.852638 0.638010 0.166519
O O10 0.934603 0.826670 0.158170
O O11 0.750000 0.377589 0.263486
O O12 0.908369 0.505112 0.299381
O O13 0.865661 0.347628 0.410161
O O14 0.933354 0.311723 0.235689
O O15 0.750000 0.616340 0.324043
O O16 0.250000 0.788193 0.504765
O O17 0.406416 0.713895 0.577274
#
# Coordination Sequence:
#
# PCOD8193225 Si02
#       7
#     8   8   8   8   8   8   8
#     4   9  19  39  64  90 123 170 220 265 318 386
#     4   9  19  37  63  96 132 168 209 264 331 397
#     4  10  23  41  61  87 122 173 225 264 316 380
#     4   9  19  36  61  94 129 164 204 255 322 392
#     4   9  19  39  63  85 118 168 214 259 311 374
#     4   9  18  34  58  91 129 166 203 256 328 395
#     4  11  21  36  60  93 130 166 211 268 324 387
#
# _framework density 23.68347
#
# number of rings (size 3 to 8) (size 9 to 14) (size 15 to 20)
#    0.000    2.571    0.000    2.143    2.000    2.857 
#    2.571    2.143    0.000    0.000    0.000    1.000 
#    0.000    1.143    0.000    0.000    0.000    0.000 
#
# Total GULP energy -346996.051231 kJ/mol
# GULP energy per Si atom -12392.716115 kJ/mol
# Density = 2.362957 g / cm^3
# Si number density = 23.683470 Si / 1000 Ang^3
#
#
#
# Elastic Constant Matrix: (Units=GPa)
#
#
# Indices 1 2 3 4 5 6 
#
# 1 63.7546 5.6028 43.5750 0.0000 0.0000 0.0000
# 2 5.6028 101.1961 39.2580 0.0000 0.0000 0.0000
# 3 43.5750 39.2580 154.5910 0.0000 0.0000 0.0000
# 4 0.0000 0.0000 0.0000 23.5217 0.0000 0.0000
# 5 0.0000 0.0000 0.0000 0.0000 32.9423 0.0000
# 6 0.0000 0.0000 0.0000 0.0000 0.0000 14.9763
#
#
#
# Elastic Compliance Matrix: (Units=1/GPa)
#
#
# Indices 1 2 3 4 5 6 
#
# 1 0.019552 0.001171 -0.005809 0.000000 0.000000 0.000000
# 2 0.001171 0.011032 -0.003132 0.000000 0.000000 0.000000
# 3 -0.005809 -0.003132 0.008901 0.000000 0.000000 0.000000
# 4 0.000000 0.000000 0.000000 0.042514 0.000000 0.000000
# 5 0.000000 0.000000 0.000000 0.000000 0.030356 0.000000
# 6 0.000000 0.000000 0.000000 0.000000 0.000000 0.066772
#
#
# Mechanical properties :
#
#
# Convention : Reuss Voigt Hill
#
# Bulk Modulus (GPa) = 41.75925 55.15702 48.45814
# Shear Modulus (GPa) = 24.67328 29.69511 27.18420
#
# Velocity S-wave (km/s) = 3.23118 3.54479 3.39161
# Velocity P-wave (km/s) = 5.62061 6.33197 5.98687
#
# Compressibility (1/GPa) = 0.02394679
#
# Stress axis : x y z
#
# Youngs Moduli (GPa) = 51.14487 90.64678 112.34420
#
# Poissons Ratio (x) = -0.10613 0.65256
# Poissons Ratio (y) = -0.05988 0.35181
# Poissons Ratio (z) = 0.29708 0.28386
#
# Static dielectric constant tensor:
#      x y z
#    x 4.480250 0.000000 0.000000 
#    y 0.000000 4.234440 0.000000 
#    z 0.000000 0.000000 4.248660 
# 
# 
# High freq. dielectric constant tensor:
#      x y z
#    x 1.960090 0.000000 0.000000 
#    y 0.000000 1.912560 0.000000 
#    z 0.000000 0.000000 1.940020 
# 
# From -- ./inp_files/15944.got.cif
#   From: 2010.03.12/outbox.cif.g09.slc.cpg/sg46_8_cif.got.tgz:15944.got - 2010.04.14 02:56:35.
