data_PCOD8193502
_publ_section_title
;
Structure prediction by ZEFSAII (Michael W. Deem and Ramdas Pophale) SiO2 
 PCOD8193502
Probable space group: P M M M
;
_chemical_formula_sum "Si O2"
_cell_formula_units_Z 40
_cell_length_a 9.483640
_cell_length_b 14.168744
_cell_length_c 20.835411
_cell_angle_alpha 90.000000
_cell_angle_beta 90.000000
_cell_angle_gamma 90.000000
_cell_volume 2799.680582
_symmetry_space_group_name_H-M "P M M M"
_symmetry_group_IT_number 47
_symmetry_cell_setting 'orthorhombic'
loop_
_space_group_symop_operation_xyz
x,y,z
-x,-y,z
x,-y,-z
-x,y,-z
-x,-y,-z
x,y,-z
-x,y,z
x,-y,z
loop_
_atom_site_type_symbol
_atom_site_label
_atom_site_fract_x
_atom_site_fract_y
_atom_site_fract_z
Si Si1 0.832496 0.104938 0.258488
Si Si2 0.842681 0.887660 0.117207
Si Si3 0.658751 0.887293 0.000000
Si Si4 0.167511 0.224896 0.378005
Si Si5 0.337481 0.607538 0.425916
Si Si6 0.832804 0.105737 0.500000
O O1 0.787143 0.142758 0.187922
O O2 0.777522 0.176211 0.312726
O O3 0.000000 0.098094 0.261214
O O4 0.770029 0.000000 0.271195
O O5 0.000000 0.847552 0.104219
O O6 0.848612 0.000000 0.114514
O O7 0.737505 0.847682 0.063174
O O8 0.500000 0.847921 0.000000
O O9 0.659786 0.000000 0.000000
O O10 0.239543 0.326898 0.382109
O O11 0.219986 0.160325 0.436961
O O12 0.000000 0.238417 0.378761
O O13 0.294489 0.620560 0.500000
O O14 0.500000 0.635297 0.415772
O O15 0.311103 0.500000 0.404439
O O16 0.000000 0.099803 0.500000
O O17 0.768971 0.000000 0.500000
#
# Coordination Sequence:
#
# PCOD8193502 Si02
#       6
#     8   8   4   8   8   4
#     4   8  14  24  38  56  79 106 134 161 190 229
#     4   8  13  22  35  49  67  97 133 160 183 220
#     4   9  15  21  31  49  71  93 122 165 204 223
#     4  10  17  26  42  63  80  98 128 166 200 229
#     4   9  18  32  46  57  73  99 127 158 202 251
#     4   9  16  24  36  57  82 104 127 157 194 231
#
# _framework density 14.287345
#
# number of rings (size 3 to 8) (size 9 to 14) (size 15 to 20)
#    0.000    3.200    1.000    2.700    0.000    4.000 
#    0.000    2.000    0.000    4.200    0.000    0.000 
#    0.000    0.000    0.000    0.900    0.000   18.900 
#
# Total GULP energy -495794.153628 kJ/mol
# GULP energy per Si atom -12394.853841 kJ/mol
# Density = 1.425483 g / cm^3
# Si number density = 14.287345 Si / 1000 Ang^3
#
#
#
# Elastic Constant Matrix: (Units=GPa)
#
#
# Indices 1 2 3 4 5 6 
#
# 1 50.3411 29.0611 45.3192 0.0000 0.0000 0.0000
# 2 29.0611 64.7022 43.3365 0.0000 0.0000 0.0000
# 3 45.3192 43.3365 129.0251 0.0000 0.0000 0.0000
# 4 0.0000 0.0000 0.0000 6.3824 0.0000 0.0000
# 5 0.0000 0.0000 0.0000 0.0000 11.6449 0.0000
# 6 0.0000 0.0000 0.0000 0.0000 0.0000 12.8199
#
#
#
# Elastic Compliance Matrix: (Units=1/GPa)
#
#
# Indices 1 2 3 4 5 6 
#
# 1 0.032676 -0.009018 -0.008448 0.000000 0.000000 0.000000
# 2 -0.009018 0.022430 -0.004366 0.000000 0.000000 0.000000
# 3 -0.008448 -0.004366 0.012184 0.000000 0.000000 0.000000
# 4 0.000000 0.000000 0.000000 0.156682 0.000000 0.000000
# 5 0.000000 0.000000 0.000000 0.000000 0.085875 0.000000
# 6 0.000000 0.000000 0.000000 0.000000 0.000000 0.078004
#
#
# Mechanical properties :
#
#
# Convention : Reuss Voigt Hill
#
# Bulk Modulus (GPa) = 42.32703 53.27798 47.80251
# Shear Modulus (GPa) = 11.37939 14.59288 12.98613
#
# Velocity S-wave (km/s) = 2.82524 3.19938 3.01811
# Velocity P-wave (km/s) = 6.35078 7.14278 6.75839
#
# Compressibility (1/GPa) = 0.02362556
#
# Stress axis : x y z
#
# Youngs Moduli (GPa) = 30.60362 44.58248 82.07225
#
# Poissons Ratio (x) = 0.40204 0.69337
# Poissons Ratio (y) = 0.27598 0.35836
# Poissons Ratio (z) = 0.25855 0.19466
#
# Static dielectric constant tensor:
#      x y z
#    x 2.599560 0.000000 0.000000 
#    y 0.000000 2.525160 0.000000 
#    z 0.000000 0.000000 3.042070 
# 
# 
# High freq. dielectric constant tensor:
#      x y z
#    x 1.522160 0.000000 0.000000 
#    y 0.000000 1.500560 0.000000 
#    z 0.000000 0.000000 1.546220 
# 
# From -- ./inp_files/6676.got.cif
#   From: 2010.03.12/outbox.cif.g09.slc.cpg/sg47_4_cif.got.tgz:6676.got - 2010.04.14 03:12:58.
