data_PCOD8193273
_publ_section_title
;
Structure prediction by ZEFSAII (Michael W. Deem and Ramdas Pophale) SiO2 
 PCOD8193273
Probable space group: I M A 2
;
_chemical_formula_sum "Si O2"
_cell_formula_units_Z 32
_cell_length_a 19.880154
_cell_length_b 12.650459
_cell_length_c 4.980687
_cell_angle_alpha 90.000000
_cell_angle_beta 90.000000
_cell_angle_gamma 90.000000
_cell_volume 1252.608280
_symmetry_space_group_name_H-M "I M A 2"
_symmetry_group_IT_number 46
_symmetry_cell_setting 'orthorhombic'
loop_
_space_group_symop_operation_xyz
x,y,z
-x,-y,z
1/2-x,y,z
1/2+x,-y,z
1/2+x,1/2+y,1/2+z
1/2-x,1/2-y,1/2+z
-x,1/2+y,1/2+z
x,1/2-y,1/2+z
loop_
_atom_site_type_symbol
_atom_site_label
_atom_site_fract_x
_atom_site_fract_y
_atom_site_fract_z
Si Si1 0.621580 0.452592 0.572790
Si Si2 0.750000 0.322983 0.474034
Si Si3 0.974499 0.318421 0.849213
Si Si4 0.500000 0.000000 0.677652
Si Si5 0.829610 0.816493 0.143545
O O1 0.684991 0.397124 0.431394
O O2 0.597823 0.380232 0.829034
O O3 0.561674 0.461138 0.357371
O O4 0.639725 0.568182 0.680508
O O5 0.750000 0.226260 0.269400
O O6 0.983001 0.283555 0.539416
O O7 0.024718 0.406176 0.973027
O O8 0.750000 0.827039 0.151988
O O9 0.856149 0.738202 0.373609
#
# Coordination Sequence:
#
# PCOD8193273 Si02
#       5
#     8   4   8   4   8
#     4  12  27  54  81 121 164 219 281 342 423 508
#     4  12  30  50  84 124 162 224 280 358 428 494
#     4  12  27  50  77 113 163 210 268 337 405 493
#     4  12  30  50  80 122 162 218 276 336 416 500
#     4  10  24  46  75 111 151 197 260 331 401 480
#
# _framework density 25.546692
#
# number of rings (size 3 to 8) (size 9 to 14) (size 15 to 20)
#    0.000    0.500    3.750    2.250    7.000    2.000 
#    0.000    0.000    0.000    0.000    0.000    0.000 
#    0.000    0.000    0.000    0.000    0.000    0.000 
#
# Total GULP energy -198247.784975 kJ/mol
# GULP energy per Si atom -12390.486561 kJ/mol
# Density = 2.548855 g / cm^3
# Si number density = 25.546692 Si / 1000 Ang^3
#
#
#
# Elastic Constant Matrix: (Units=GPa)
#
#
# Indices 1 2 3 4 5 6 
#
# 1 115.6292 40.0509 45.7290 0.0000 0.0000 0.0000
# 2 40.0509 126.1119 34.7327 0.0000 0.0000 0.0000
# 3 45.7290 34.7327 129.9128 0.0000 0.0000 0.0000
# 4 0.0000 0.0000 0.0000 57.9128 0.0000 0.0000
# 5 0.0000 0.0000 0.0000 0.0000 11.5091 0.0000
# 6 0.0000 0.0000 0.0000 0.0000 0.0000 45.8332
#
#
#
# Elastic Compliance Matrix: (Units=1/GPa)
#
#
# Indices 1 2 3 4 5 6 
#
# 1 0.010764 -0.002564 -0.003103 0.000000 0.000000 0.000000
# 2 -0.002564 0.009170 -0.001549 0.000000 0.000000 0.000000
# 3 -0.003103 -0.001549 0.009204 0.000000 0.000000 0.000000
# 4 0.000000 0.000000 0.000000 0.017267 0.000000 0.000000
# 5 0.000000 0.000000 0.000000 0.000000 0.086888 0.000000
# 6 0.000000 0.000000 0.000000 0.000000 0.000000 0.021818
#
#
# Mechanical properties :
#
#
# Convention : Reuss Voigt Hill
#
# Bulk Modulus (GPa) = 68.00241 68.07543 68.03892
# Shear Modulus (GPa) = 28.66216 39.79376 34.22796
#
# Velocity S-wave (km/s) = 3.35319 3.95104 3.66433
# Velocity P-wave (km/s) = 6.45511 6.89344 6.67788
#
# Compressibility (1/GPa) = 0.01470536
#
# Stress axis : x y z
#
# Youngs Moduli (GPa) = 92.90541 109.04731 108.64753
#
# Poissons Ratio (x) = 0.27956 0.33717
# Poissons Ratio (y) = 0.23818 0.16833
# Poissons Ratio (z) = 0.28832 0.16895
#
# Static dielectric constant tensor:
#      x y z
#    x 5.221640 0.000000 0.000000 
#    y 0.000000 5.080690 0.000000 
#    z 0.000000 0.000000 4.668070 
# 
# 
# High freq. dielectric constant tensor:
#      x y z
#    x 2.009640 0.000000 0.000000 
#    y 0.000000 2.054150 0.000000 
#    z 0.000000 0.000000 2.024880 
# 
# From -- ./inp_files/1928.got.cif
#   From: 2010.03.12/outbox.cif.g09.slc.cpg/sg46_1_cif.got.tgz:1928.got - 2010.04.14 02:56:35.
