data_PCOD8193405
_publ_section_title
;
Structure prediction by ZEFSAII (Michael W. Deem and Ramdas Pophale) SiO2 
 PCOD8193405
Probable space group: I M A 2
;
_chemical_formula_sum "Si O2"
_cell_formula_units_Z 40
_cell_length_a 15.555986
_cell_length_b 13.997573
_cell_length_c 8.017138
_cell_angle_alpha 90.000000
_cell_angle_beta 90.000000
_cell_angle_gamma 90.000000
_cell_volume 1745.700129
_symmetry_space_group_name_H-M "I M A 2"
_symmetry_group_IT_number 46
_symmetry_cell_setting 'orthorhombic'
loop_
_space_group_symop_operation_xyz
x,y,z
-x,-y,z
1/2-x,y,z
1/2+x,-y,z
1/2+x,1/2+y,1/2+z
1/2-x,1/2-y,1/2+z
-x,1/2+y,1/2+z
x,1/2-y,1/2+z
loop_
_atom_site_type_symbol
_atom_site_label
_atom_site_fract_x
_atom_site_fract_y
_atom_site_fract_z
Si Si1 0.349199 0.313464 0.520520
Si Si2 0.250000 0.889704 0.006137
Si Si3 0.599821 0.071387 0.495181
Si Si4 0.750000 0.309647 0.874954
Si Si5 0.914392 0.625045 0.865452
Si Si6 0.095577 0.005759 0.867889
O O1 0.250000 0.324280 0.572909
O O2 0.409679 0.346193 0.672661
O O3 0.366298 0.204515 0.474130
O O4 0.373523 0.383179 0.365219
O O5 0.250000 0.804732 0.871011
O O6 0.163501 0.950716 0.983966
O O7 0.250000 0.846335 0.188541
O O8 0.667908 0.154919 0.477690
O O9 0.511645 0.115189 0.427620
O O10 0.630528 0.978114 0.391195
O O11 0.591340 0.039784 0.685988
O O12 0.000000 0.000000 0.947596
#
# Coordination Sequence:
#
# PCOD8193405 Si02
#       6
#     8   4   8   4   8   8
#     4  12  27  46  76 110 148 193 241 307 365 441
#     4  12  28  50  73 116 139 198 250 298 374 434
#     4  11  26  49  73 108 145 198 241 304 363 438
#     4  12  28  46  81 102 157 188 244 304 356 448
#     4  11  26  46  70 110 147 190 248 290 374 432
#     4  12  26  49  76 104 148 191 245 304 369 429
#
# _framework density 22.913443000000001
#
# number of rings (size 3 to 8) (size 9 to 14) (size 15 to 20)
#    0.000    0.400    3.000    4.800   11.200    0.000 
#    0.000    0.000    0.000    0.000    0.000    0.000 
#    0.000    0.000    0.000    0.000    0.000    0.000 
#
# Total GULP energy -248057.886450 kJ/mol
# GULP energy per Si atom -12402.894322 kJ/mol
# Density = 2.286129 g / cm^3
# Si number density = 22.913443 Si / 1000 Ang^3
#
#
#
# Elastic Constant Matrix: (Units=GPa)
#
#
# Indices 1 2 3 4 5 6 
#
# 1 142.9475 49.4325 45.8236 0.0000 0.0000 0.0000
# 2 49.4325 111.8577 16.0821 0.0000 0.0000 0.0000
# 3 45.8236 16.0821 101.7096 0.0000 0.0000 0.0000
# 4 0.0000 0.0000 0.0000 41.3221 0.0000 0.0000
# 5 0.0000 0.0000 0.0000 0.0000 -96.4101 0.0000
# 6 0.0000 0.0000 0.0000 0.0000 0.0000 42.2088
#
#
#
# Elastic Compliance Matrix: (Units=1/GPa)
#
#
# Indices 1 2 3 4 5 6 
#
# 1 0.009432 -0.003640 -0.003674 0.000000 0.000000 0.000000
# 2 -0.003640 0.010553 -0.000029 0.000000 0.000000 0.000000
# 3 -0.003674 -0.000029 0.011492 0.000000 0.000000 0.000000
# 4 0.000000 0.000000 0.000000 0.024200 0.000000 0.000000
# 5 0.000000 0.000000 0.000000 0.000000 -0.010372 0.000000
# 6 0.000000 0.000000 0.000000 0.000000 0.000000 0.023692
#
#
# Mechanical properties :
#
#
# Convention : Reuss Voigt Hill
#
# Bulk Modulus (GPa) = 59.55471 64.35458 61.95464
# Shear Modulus (GPa) = 56.00482 13.76927 34.88704
#
# Velocity S-wave (km/s) = 4.94924 2.45404 3.90623
# Velocity P-wave (km/s) = 7.66208 6.01470 6.88782
#
# Compressibility (1/GPa) = 0.01679128
#
# Stress axis : x y z
#
# Youngs Moduli (GPa) = 106.02152 94.76285 87.01967
#
# Poissons Ratio (x) = 0.34494 0.31970
# Poissons Ratio (y) = 0.38592 0.00249
# Poissons Ratio (z) = 0.38951 0.00271
#
# Static dielectric constant tensor:
#      x y z
#    x 5.110600 0.000000 0.000000 
#    y 0.000000 4.534130 0.000000 
#    z 0.000000 0.000000 4.000550 
# 
# 
# High freq. dielectric constant tensor:
#      x y z
#    x 1.912010 0.000000 0.000000 
#    y 0.000000 1.921930 0.000000 
#    z 0.000000 0.000000 1.907490 
# 
# From -- ./inp_files/5437.got.cif
#   From: 2010.03.12/outbox.cif.g09.slc.cpg/sg46_3_cif.got.tgz:5437.got - 2010.04.14 02:56:35.
