data_PCOD8193994
_publ_section_title
;
Structure prediction by ZEFSAII (Michael W. Deem and Ramdas Pophale) SiO2 
 PCOD8193994
Probable space group: P M M M
;
_chemical_formula_sum "Si O2"
_cell_formula_units_Z 56
_cell_length_a 23.273552
_cell_length_b 21.946362
_cell_length_c 9.206149
_cell_angle_alpha 90.000000
_cell_angle_beta 90.000000
_cell_angle_gamma 90.000000
_cell_volume 4702.222858
_symmetry_space_group_name_H-M "P M M M"
_symmetry_group_IT_number 47
_symmetry_cell_setting 'orthorhombic'
loop_
_space_group_symop_operation_xyz
x,y,z
-x,-y,z
x,-y,-z
-x,y,-z
-x,-y,-z
x,y,-z
-x,y,z
x,-y,z
loop_
_atom_site_type_symbol
_atom_site_label
_atom_site_fract_x
_atom_site_fract_y
_atom_site_fract_z
Si Si1 0.565928 0.265545 0.166399
Si Si2 0.568565 0.500000 0.835756
Si Si3 0.500000 0.931523 0.827406
Si Si4 0.613362 0.135377 0.830534
Si Si5 0.936570 0.072463 0.663153
Si Si6 0.828997 0.927639 0.162500
Si Si7 0.568410 0.383100 0.336218
Si Si8 0.284477 0.929428 0.328967
O O1 0.500000 0.248720 0.205044
O O2 0.605853 0.207294 0.194776
O O3 0.590002 0.320345 0.264543
O O4 0.569673 0.286906 0.000000
O O5 0.500000 0.500000 0.834593
O O6 0.592693 0.559600 0.753783
O O7 0.592032 0.500000 0.000000
O O8 0.443257 0.898140 0.769701
O O9 0.500000 0.000000 0.766969
O O10 0.500000 0.929182 0.000000
O O11 0.666340 0.112465 0.737116
O O12 0.623643 0.120203 0.000000
O O13 0.925964 0.096757 0.500000
O O14 0.887460 0.099687 0.767987
O O15 0.000000 0.093071 0.717927
O O16 0.932949 0.000000 0.662355
O O17 0.775168 0.907165 0.259299
O O18 0.832807 0.000000 0.158465
O O19 0.822182 0.901254 0.000000
O O20 0.592038 0.386914 0.500000
O O21 0.500000 0.384630 0.333676
O O22 0.280696 0.919098 0.500000
O O23 0.297064 0.000000 0.290782
#
# Coordination Sequence:
#
# PCOD8193994 Si02
#       8
#     8   4   4   8   8   8   8   8
#     4   9  16  27  40  53  68  84 104 128 158 196
#     4   9  15  23  35  51  69  89 109 127 147 171
#     4   9  16  26  41  57  67  76  95 128 169 209
#     4  10  18  29  43  56  66  80 104 134 166 205
#     4   8  13  21  33  49  69  90 106 120 144 180
#     4   9  16  25  37  51  65  82 105 131 156 185
#     4   9  16  24  35  51  70  89 107 125 148 179
#     4  10  20  31  40  50  65  84 105 132 169 210
#
# _framework density 11.909261000000001
#
# number of rings (size 3 to 8) (size 9 to 14) (size 15 to 20)
#    0.000    2.857    0.714    2.357    0.000    6.571 
#    0.000    1.786    0.000    1.286    0.000    0.000 
#    0.000    0.000    0.000    0.000    0.000    0.000 
#
# Total GULP energy -694235.324732 kJ/mol
# GULP energy per Si atom -12397.059370 kJ/mol
# Density = 1.188216 g / cm^3
# Si number density = 11.909261 Si / 1000 Ang^3
#
#
#
# Elastic Constant Matrix: (Units=GPa)
#
#
# Indices 1 2 3 4 5 6 
#
# 1 76.1043 25.1991 41.8346 0.0000 0.0000 0.0000
# 2 25.1991 56.6600 37.8253 0.0000 0.0000 0.0000
# 3 41.8346 37.8253 85.0794 0.0000 0.0000 0.0000
# 4 0.0000 0.0000 0.0000 15.3775 0.0000 0.0000
# 5 0.0000 0.0000 0.0000 0.0000 19.2818 0.0000
# 6 0.0000 0.0000 0.0000 0.0000 0.0000 1.4956
#
#
#
# Elastic Compliance Matrix: (Units=1/GPa)
#
#
# Indices 1 2 3 4 5 6 
#
# 1 0.018369 -0.003043 -0.007679 0.000000 0.000000 0.000000
# 2 -0.003043 0.025602 -0.009886 0.000000 0.000000 0.000000
# 3 -0.007679 -0.009886 0.019925 0.000000 0.000000 0.000000
# 4 0.000000 0.000000 0.000000 0.065030 0.000000 0.000000
# 5 0.000000 0.000000 0.000000 0.000000 0.051862 0.000000
# 6 0.000000 0.000000 0.000000 0.000000 0.000000 0.668622
#
#
# Mechanical properties :
#
#
# Convention : Reuss Voigt Hill
#
# Bulk Modulus (GPa) = 44.09311 47.50685 45.79998
# Shear Modulus (GPa) = 5.56677 14.76330 10.16504
#
# Velocity S-wave (km/s) = 2.16436 3.52468 2.92471
# Velocity P-wave (km/s) = 6.58411 7.51943 7.06726
#
# Compressibility (1/GPa) = 0.02267928
#
# Stress axis : x y z
#
# Youngs Moduli (GPa) = 54.44044 39.05900 50.18795
#
# Poissons Ratio (x) = 0.11885 0.38541
# Poissons Ratio (y) = 0.16565 0.49617
# Poissons Ratio (z) = 0.41807 0.38615
#
# Static dielectric constant tensor:
#      x y z
#    x 2.354760 0.000000 0.000000 
#    y 0.000000 2.271360 0.000000 
#    z 0.000000 0.000000 2.581690 
# 
# 
# High freq. dielectric constant tensor:
#      x y z
#    x 1.419440 0.000000 0.000000 
#    y 0.000000 1.413920 0.000000 
#    z 0.000000 0.000000 1.459920 
# 
# From -- ./inp_files/11772.got.cif
#   From: 2010.03.12/outbox.cif.g09.slc.cpg/sg47_6_cif.got.tgz:11772.got - 2010.04.14 03:12:58.
