data_PCOD8193494
_publ_section_title
;
Structure prediction by ZEFSAII (Michael W. Deem and Ramdas Pophale) SiO2 
 PCOD8193494
Probable space group: P M M M
;
_chemical_formula_sum "Si O2"
_cell_formula_units_Z 52
_cell_length_a 17.216094
_cell_length_b 7.918782
_cell_length_c 23.871431
_cell_angle_alpha 90.000000
_cell_angle_beta 90.000000
_cell_angle_gamma 90.000000
_cell_volume 3254.404011
_symmetry_space_group_name_H-M "P M M M"
_symmetry_group_IT_number 47
_symmetry_cell_setting 'orthorhombic'
loop_
_space_group_symop_operation_xyz
x,y,z
-x,-y,z
x,-y,-z
-x,y,-z
-x,-y,-z
x,y,-z
-x,y,z
x,-y,z
loop_
_atom_site_type_symbol
_atom_site_label
_atom_site_fract_x
_atom_site_fract_y
_atom_site_fract_z
Si Si1 0.409127 0.000000 0.827095
Si Si2 0.322943 0.685395 0.214187
Si Si3 0.776572 0.312965 0.897731
Si Si4 0.087805 0.304361 0.177734
Si Si5 0.912917 0.803480 0.618270
Si Si6 0.184124 0.192620 0.720569
Si Si7 0.910860 0.302840 0.500000
Si Si8 0.309015 0.000000 0.938800
O O1 0.386428 0.166014 0.791183
O O2 0.500000 0.000000 0.837141
O O3 0.371061 0.000000 0.888875
O O4 0.363033 0.500000 0.220654
O O5 0.271566 0.689784 0.159115
O O6 0.264824 0.711642 0.266547
O O7 0.769452 0.500000 0.925988
O O8 0.865603 0.273976 0.880371
O O9 0.745003 0.166846 0.937892
O O10 0.092972 0.500000 0.195207
O O11 0.124002 0.197098 0.228027
O O12 0.000000 0.244438 0.167369
O O13 0.857028 0.724219 0.665899
O O14 0.874043 0.771104 0.557186
O O15 0.000000 0.721871 0.621510
O O16 0.920091 0.000000 0.630311
O O17 0.206912 0.000000 0.709024
O O18 0.898751 0.500000 0.500000
O O19 0.000000 0.245183 0.500000
O O20 0.350629 0.000000 0.000000
#
# Coordination Sequence:
#
# PCOD8193494 Si02
#       8
#     4   8   8   8   8   8   4   4
#     4  10  20  35  54  75  99 121 141 170 208 260
#     4   9  17  31  49  69  94 122 149 177 215 267
#     4   8  16  30  46  64  88 118 150 183 222 266
#     4   9  17  27  40  61  87 115 149 189 234 277
#     4   9  17  27  38  54  81 119 161 202 241 275
#     4  10  17  26  41  64  90 117 152 191 232 274
#     4   9  17  27  37  49  71 111 163 210 245 276
#     4  10  20  33  51  72  90 115 150 180 212 252
#
# _framework density 15.978349
#
# number of rings (size 3 to 8) (size 9 to 14) (size 15 to 20)
#    0.000    2.846    0.769    2.077    3.231    3.846 
#    0.000    1.538    0.000    0.923    0.000    6.462 
#    0.000    0.000    0.000    1.385    0.000    3.231 
#
# Total GULP energy -644391.460780 kJ/mol
# GULP energy per Si atom -12392.143477 kJ/mol
# Density = 1.594198 g / cm^3
# Si number density = 15.978349 Si / 1000 Ang^3
#
#
#
# Elastic Constant Matrix: (Units=GPa)
#
#
# Indices 1 2 3 4 5 6 
#
# 1 75.4272 32.9820 33.5812 0.0000 0.0000 0.0000
# 2 32.9820 85.5268 29.5172 0.0000 0.0000 0.0000
# 3 33.5812 29.5172 79.8774 0.0000 0.0000 0.0000
# 4 0.0000 0.0000 0.0000 5.5566 0.0000 0.0000
# 5 0.0000 0.0000 0.0000 0.0000 12.2731 0.0000
# 6 0.0000 0.0000 0.0000 0.0000 0.0000 11.9450
#
#
#
# Elastic Compliance Matrix: (Units=1/GPa)
#
#
# Indices 1 2 3 4 5 6 
#
# 1 0.017974 -0.004955 -0.005725 0.000000 0.000000 0.000000
# 2 -0.004955 0.014768 -0.003374 0.000000 0.000000 0.000000
# 3 -0.005725 -0.003374 0.016173 0.000000 0.000000 0.000000
# 4 0.000000 0.000000 0.000000 0.179967 0.000000 0.000000
# 5 0.000000 0.000000 0.000000 0.000000 0.081479 0.000000
# 6 0.000000 0.000000 0.000000 0.000000 0.000000 0.083717
#
#
# Mechanical properties :
#
#
# Convention : Reuss Voigt Hill
#
# Bulk Modulus (GPa) = 48.06440 48.11024 48.08732
# Shear Modulus (GPa) = 11.65173 15.60499 13.62836
#
# Velocity S-wave (km/s) = 2.70334 3.12850 2.92366
# Velocity P-wave (km/s) = 6.31588 6.57458 6.44652
#
# Compressibility (1/GPa) = 0.02080542
#
# Stress axis : x y z
#
# Youngs Moduli (GPa) = 55.63744 67.71597 61.83225
#
# Poissons Ratio (x) = 0.33556 0.35399
# Poissons Ratio (y) = 0.27570 0.20861
# Poissons Ratio (z) = 0.31853 0.22846
#
# Static dielectric constant tensor:
#      x y z
#    x 2.777590 0.000000 0.000000 
#    y 0.000000 3.251310 0.000000 
#    z 0.000000 0.000000 2.957330 
# 
# 
# High freq. dielectric constant tensor:
#      x y z
#    x 1.567150 0.000000 0.000000 
#    y 0.000000 1.626470 0.000000 
#    z 0.000000 0.000000 1.590230 
# 
# From -- ./inp_files/32692.got.cif
#   From: 2010.03.12/outbox.cif.g09.slc.cpg/sg47_17_cif.got.tgz:32692.got - 2010.04.14 03:12:58.
