data_PCOD8193078
_publ_section_title
;
Structure prediction by ZEFSAII (Michael W. Deem and Ramdas Pophale) SiO2 
 PCOD8193078
Probable space group: I M A 2
;
_chemical_formula_sum "Si O2"
_cell_formula_units_Z 28
_cell_length_a 32.549822
_cell_length_b 6.758761
_cell_length_c 5.257122
_cell_angle_alpha 90.000000
_cell_angle_beta 90.000000
_cell_angle_gamma 90.000000
_cell_volume 1156.548269
_symmetry_space_group_name_H-M "I M A 2"
_symmetry_group_IT_number 46
_symmetry_cell_setting 'orthorhombic'
loop_
_space_group_symop_operation_xyz
x,y,z
-x,-y,z
1/2-x,y,z
1/2+x,-y,z
1/2+x,1/2+y,1/2+z
1/2-x,1/2-y,1/2+z
-x,1/2+y,1/2+z
x,1/2-y,1/2+z
loop_
_atom_site_type_symbol
_atom_site_label
_atom_site_fract_x
_atom_site_fract_y
_atom_site_fract_z
Si Si1 0.082666 0.963542 0.458610
Si Si2 0.668279 0.877666 0.536197
Si Si3 0.047849 0.522565 0.458181
Si Si4 0.750000 0.123984 0.541681
O O1 0.063748 0.746597 0.417063
O O2 0.059956 0.079650 0.690027
O O3 0.131558 0.963307 0.502940
O O4 0.071978 0.077397 0.194733
O O5 0.665224 0.711433 0.318753
O O6 0.710532 0.990302 0.498058
O O7 0.000000 0.500000 0.511248
O O8 0.750000 0.293434 0.327871
#
# Coordination Sequence:
#
# PCOD8193078 Si02
#       4
#     8   8   8   4
#     4  10  23  41  68  97 136 186 244 293 360 432
#     4  12  26  49  73 109 154 196 238 297 375 443
#     4  10  21  42  66  94 135 183 239 312 356 416
#     4  12  28  46  84 114 146 190 244 304 360 448
#
# _framework density 24.209972
#
# number of rings (size 3 to 8) (size 9 to 14) (size 15 to 20)
#    0.000    1.143    0.000    5.143    8.000    0.000 
#   30.857    0.000    0.000    0.000    0.000    0.000 
#    0.000    0.000    0.000    0.000    0.000    0.000 
#
# Total GULP energy -173537.377329 kJ/mol
# GULP energy per Si atom -12395.526952 kJ/mol
# Density = 2.415487 g / cm^3
# Si number density = 24.209972 Si / 1000 Ang^3
#
#
#
# Elastic Constant Matrix: (Units=GPa)
#
#
# Indices 1 2 3 4 5 6 
#
# 1 169.7186 18.8507 1.1428 -0.0032 0.0001 -0.0002
# 2 18.8507 71.4644 -24.8726 -0.0072 0.0001 -0.0005
# 3 1.1428 -24.8726 195.3624 -0.0084 0.0004 -0.0016
# 4 -0.0032 -0.0072 -0.0084 -61.2174 -0.0023 0.0069
# 5 0.0001 0.0001 0.0004 -0.0023 33.6494 -0.0003
# 6 -0.0002 -0.0005 -0.0016 0.0069 -0.0003 45.3530
#
#
#
# Elastic Compliance Matrix: (Units=1/GPa)
#
#
# Indices 1 2 3 4 5 6 
#
# 1 0.006082 -0.001692 -0.000251 0.000000 0.000000 0.000000
# 2 -0.001692 0.015112 0.001934 -0.000002 0.000000 0.000000
# 3 -0.000251 0.001934 0.005366 -0.000001 0.000000 0.000000
# 4 0.000000 -0.000002 -0.000001 -0.016335 -0.000001 0.000003
# 5 0.000000 0.000000 0.000000 -0.000001 0.029718 0.000000
# 6 0.000000 0.000000 0.000000 0.000003 0.000000 0.022049
#
#
# Mechanical properties :
#
#
# Convention : Reuss Voigt Hill
#
# Bulk Modulus (GPa) = 37.67444 47.42078 42.54761
# Shear Modulus (GPa) = 70.56430 32.98532 51.77481
#
# Velocity S-wave (km/s) = 5.40463 3.69517 4.62949
# Velocity P-wave (km/s) = 7.38526 6.15106 6.79623
#
# Compressibility (1/GPa) = 0.02654319
#
# Stress axis : x y z
#
# Youngs Moduli (GPa) = 164.42835 66.17143 186.34541
#
# Poissons Ratio (x) = 0.11193 0.04676
# Poissons Ratio (y) = 0.27814 -0.36038
# Poissons Ratio (z) = 0.04126 -0.12797
#
# Static dielectric constant tensor:
#      x y z
#    x 4.399450 -0.000020 0.000000 
#    y -0.000020 5.637500 -0.000110 
#    z 0.000000 -0.000110 5.981810 
# 
# 
# High freq. dielectric constant tensor:
#      x y z
#    x 1.968110 0.000000 0.000000 
#    y 0.000000 1.952870 0.000000 
#    z 0.000000 0.000000 2.005590 
# 
# From -- ./inp_files/2653.got.cif
#   From: 2010.03.12/outbox.cif.g09.slc.cpg/sg46_2_cif.got.tgz:2653.got - 2010.04.14 02:56:35.
