data_PCOD8193458
_publ_section_title
;
Structure prediction by ZEFSAII (Michael W. Deem and Ramdas Pophale) SiO2 
 PCOD8193458
Probable space group: P M M M
;
_chemical_formula_sum "Si O2"
_cell_formula_units_Z 60
_cell_length_a 24.622486
_cell_length_b 12.552932
_cell_length_c 14.235417
_cell_angle_alpha 90.000000
_cell_angle_beta 90.000000
_cell_angle_gamma 90.000000
_cell_volume 4399.945214
_symmetry_space_group_name_H-M "P M M M"
_symmetry_group_IT_number 47
_symmetry_cell_setting 'orthorhombic'
loop_
_space_group_symop_operation_xyz
x,y,z
-x,-y,z
x,-y,-z
-x,y,-z
-x,-y,-z
x,y,-z
-x,y,z
x,-y,z
loop_
_atom_site_type_symbol
_atom_site_label
_atom_site_fract_x
_atom_site_fract_y
_atom_site_fract_z
Si Si1 0.937117 0.377237 0.107318
Si Si2 0.771134 0.875268 0.108242
Si Si3 0.336774 0.126398 0.211734
Si Si4 0.559902 0.873236 0.894225
Si Si5 0.715036 0.873265 0.397850
Si Si6 0.161480 0.874618 0.605677
Si Si7 0.064338 0.000000 0.107798
Si Si8 0.123102 0.194792 0.204274
O O1 0.921682 0.500000 0.122405
O O2 0.901023 0.309340 0.178713
O O3 0.000000 0.357526 0.130297
O O4 0.924990 0.342764 0.000000
O O5 0.711536 0.840072 0.141928
O O6 0.815573 0.811328 0.166843
O O7 0.780926 0.000000 0.126694
O O8 0.776817 0.845253 0.000000
O O9 0.393599 0.175045 0.173883
O O10 0.324203 0.171955 0.316116
O O11 0.341340 0.000000 0.215324
O O12 0.500000 0.836538 0.859182
O O13 0.563201 0.000000 0.894381
O O14 0.570062 0.831572 0.000000
O O15 0.694144 0.832993 0.500000
O O16 0.776635 0.834895 0.381167
O O17 0.715125 0.000000 0.395512
O O18 0.141143 0.847264 0.500000
O O19 0.123727 0.816057 0.682375
O O20 0.157833 0.000000 0.624515
O O21 0.085998 0.104740 0.158132
O O22 0.000000 0.000000 0.113431
O O23 0.084767 0.000000 0.000000
#
# Coordination Sequence:
#
# PCOD8193458 Si02
#       8
#     8   8   8   8   8   8   4   8
#     4   9  19  35  51  64  79 105 141 170 190 226
#     4  10  17  22  31  54  84 104 116 145 199 253
#     4   9  14  20  30  44  66  93 122 155 190 232
#     4   8  13  20  28  38  55  86 128 164 190 221
#     4   8  13  21  32  46  66  94 126 155 185 229
#     4   9  16  27  41  59  84 111 135 158 193 245
#     4  11  22  30  39  61  89 111 125 147 195 252
#     4  12  18  28  45  63  84 106 131 163 202 241
#
# _framework density 13.636533
#
# number of rings (size 3 to 8) (size 9 to 14) (size 15 to 20)
#    0.000    2.600    2.667    3.600    0.000    2.667 
#    0.000    0.000    0.000    2.800    0.000    3.733 
#    0.000    0.000    0.000    0.000    0.000    0.667 
#
# Total GULP energy -743667.294114 kJ/mol
# GULP energy per Si atom -12394.454902 kJ/mol
# Density = 1.360550 g / cm^3
# Si number density = 13.636533 Si / 1000 Ang^3
#
#
#
# Elastic Constant Matrix: (Units=GPa)
#
#
# Indices 1 2 3 4 5 6 
#
# 1 77.4911 23.0583 53.2752 0.0000 0.0000 0.0000
# 2 23.0583 30.5531 25.9095 0.0000 0.0000 0.0000
# 3 53.2752 25.9095 120.0761 0.0000 0.0000 0.0000
# 4 0.0000 0.0000 0.0000 11.8702 0.0000 0.0000
# 5 0.0000 0.0000 0.0000 0.0000 19.0062 0.0000
# 6 0.0000 0.0000 0.0000 0.0000 0.0000 5.5312
#
#
#
# Elastic Compliance Matrix: (Units=1/GPa)
#
#
# Indices 1 2 3 4 5 6 
#
# 1 0.020619 -0.009551 -0.007087 0.000000 0.000000 0.000000
# 2 -0.009551 0.044484 -0.005361 0.000000 0.000000 0.000000
# 3 -0.007087 -0.005361 0.012629 0.000000 0.000000 0.000000
# 4 0.000000 0.000000 0.000000 0.084244 0.000000 0.000000
# 5 0.000000 0.000000 0.000000 0.000000 0.052614 0.000000
# 6 0.000000 0.000000 0.000000 0.000000 0.000000 0.180792
#
#
# Mechanical properties :
#
#
# Convention : Reuss Voigt Hill
#
# Bulk Modulus (GPa) = 29.64373 48.06734 38.85553
# Shear Modulus (GPa) = 11.09564 15.67335 13.38450
#
# Velocity S-wave (km/s) = 2.85559 3.39391 3.13632
# Velocity P-wave (km/s) = 5.71473 7.11924 6.45530
#
# Compressibility (1/GPa) = 0.03373395
#
# Stress axis : x y z
#
# Youngs Moduli (GPa) = 48.49810 22.47985 79.18033
#
# Poissons Ratio (x) = 0.21471 0.56119
# Poissons Ratio (y) = 0.46321 0.42449
# Poissons Ratio (z) = 0.34373 0.12052
#
# Static dielectric constant tensor:
#      x y z
#    x 2.818370 0.000000 0.000000 
#    y 0.000000 2.171940 0.000000 
#    z 0.000000 0.000000 2.993840 
# 
# 
# High freq. dielectric constant tensor:
#      x y z
#    x 1.516560 0.000000 0.000000 
#    y 0.000000 1.445810 0.000000 
#    z 0.000000 0.000000 1.528150 
# 
# From -- ./inp_files/25351.got.cif
#   From: 2010.03.12/outbox.cif.g09.slc.cpg/sg47_13_cif.got.tgz:25351.got - 2010.04.14 03:12:58.
