data_PCOD8193609
_publ_section_title
;
Structure prediction by ZEFSAII (Michael W. Deem and Ramdas Pophale) SiO2 
 PCOD8193609
Probable space group: P M M M
;
_chemical_formula_sum "Si O2"
_cell_formula_units_Z 52
_cell_length_a 10.120100
_cell_length_b 14.282898
_cell_length_c 21.685737
_cell_angle_alpha 90.000000
_cell_angle_beta 90.000000
_cell_angle_gamma 90.000000
_cell_volume 3134.550890
_symmetry_space_group_name_H-M "P M M M"
_symmetry_group_IT_number 47
_symmetry_cell_setting 'orthorhombic'
loop_
_space_group_symop_operation_xyz
x,y,z
-x,-y,z
x,-y,-z
-x,y,-z
-x,-y,-z
x,y,-z
-x,y,z
x,-y,z
loop_
_atom_site_type_symbol
_atom_site_label
_atom_site_fract_x
_atom_site_fract_y
_atom_site_fract_z
Si Si1 0.848118 0.606154 0.858051
Si Si2 0.343210 0.707981 0.623548
Si Si3 0.751006 0.221549 0.073119
Si Si4 0.000000 0.895441 0.073199
Si Si5 0.500000 0.894218 0.926776
Si Si6 0.343699 0.102208 0.568629
Si Si7 0.149552 0.391778 0.285893
Si Si8 0.656267 0.396025 0.500000
O O1 0.803511 0.500000 0.873028
O O2 0.754673 0.676094 0.896189
O O3 0.831666 0.627063 0.786147
O O4 0.000000 0.620379 0.878453
O O5 0.500000 0.694539 0.636174
O O6 0.301387 0.816799 0.616039
O O7 0.259570 0.669268 0.680159
O O8 0.296425 0.656488 0.561302
O O9 0.625301 0.163850 0.096776
O O10 0.873492 0.160504 0.096860
O O11 0.750437 0.235533 0.000000
O O12 0.000000 0.000000 0.101459
O O13 0.000000 0.902237 0.000000
O O14 0.500000 0.000000 0.899306
O O15 0.500000 0.901531 0.000000
O O16 0.285069 0.120409 0.500000
O O17 0.500000 0.104692 0.562524
O O18 0.296315 0.000000 0.593082
O O19 0.174756 0.500000 0.301642
O O20 0.000000 0.363839 0.305682
O O21 0.717770 0.500000 0.500000
O O22 0.500000 0.400114 0.500000
#
# Coordination Sequence:
#
# PCOD8193609 Si02
#       8
#     8   8   8   4   4   8   8   4
#     4   9  18  34  53  72  96 130 169 206 248 295
#     4  10  17  28  48  74  96 121 159 197 239 279
#     4  10  18  30  50  77 102 128 164 202 249 298
#     4   9  16  26  45  75 103 123 158 209 245 282
#     4   9  18  32  49  71 105 141 162 187 243 310
#     4   8  13  23  42  69  97 122 152 188 229 281
#     4   9  19  35  51  66  91 130 166 194 234 292
#     4   9  16  24  38  66 102 123 139 189 250 283
#
# _framework density 16.589297999999999
#
# number of rings (size 3 to 8) (size 9 to 14) (size 15 to 20)
#    0.000    2.846    1.538    2.308    0.000    3.077 
#    1.385    1.538    0.000    5.077    0.000    1.077 
#    0.000    0.000    0.000    0.000    0.000    0.000 
#
# Total GULP energy -644526.785825 kJ/mol
# GULP energy per Si atom -12394.745881 kJ/mol
# Density = 1.655154 g / cm^3
# Si number density = 16.589298 Si / 1000 Ang^3
#
#
#
# Elastic Constant Matrix: (Units=GPa)
#
#
# Indices 1 2 3 4 5 6 
#
# 1 88.9080 60.8614 32.2886 0.0000 0.0000 0.0000
# 2 60.8614 151.5597 49.5896 0.0000 0.0000 0.0000
# 3 32.2886 49.5896 44.8120 0.0000 0.0000 0.0000
# 4 0.0000 0.0000 0.0000 17.3121 0.0000 0.0000
# 5 0.0000 0.0000 0.0000 0.0000 18.4860 0.0000
# 6 0.0000 0.0000 0.0000 0.0000 0.0000 23.5818
#
#
#
# Elastic Compliance Matrix: (Units=1/GPa)
#
#
# Indices 1 2 3 4 5 6 
#
# 1 0.016917 -0.004397 -0.007324 0.000000 0.000000 0.000000
# 2 -0.004397 0.011486 -0.009542 0.000000 0.000000 0.000000
# 3 -0.007324 -0.009542 0.038152 0.000000 0.000000 0.000000
# 4 0.000000 0.000000 0.000000 0.057763 0.000000 0.000000
# 5 0.000000 0.000000 0.000000 0.000000 0.054095 0.000000
# 6 0.000000 0.000000 0.000000 0.000000 0.000000 0.042406
#
#
# Mechanical properties :
#
#
# Convention : Reuss Voigt Hill
#
# Bulk Modulus (GPa) = 41.61584 63.41765 52.51675
# Shear Modulus (GPa) = 18.42607 21.37865 19.90236
#
# Velocity S-wave (km/s) = 3.33636 3.59374 3.46744
# Velocity P-wave (km/s) = 6.32315 7.45191 6.91061
#
# Compressibility (1/GPa) = 0.02402931
#
# Stress axis : x y z
#
# Youngs Moduli (GPa) = 59.11086 87.06229 26.21098
#
# Poissons Ratio (x) = 0.38283 0.19196
# Poissons Ratio (y) = 0.25992 0.25011
# Poissons Ratio (z) = 0.43290 0.83077
#
# Static dielectric constant tensor:
#      x y z
#    x 2.903290 0.000000 0.000000 
#    y 0.000000 3.473040 0.000000 
#    z 0.000000 0.000000 2.793190 
# 
# 
# High freq. dielectric constant tensor:
#      x y z
#    x 1.610930 0.000000 0.000000 
#    y 0.000000 1.654690 0.000000 
#    z 0.000000 0.000000 1.605720 
# 
# From -- ./inp_files/29668.got.cif
#   From: 2010.03.12/outbox.cif.g09.slc.cpg/sg47_15_cif.got.tgz:29668.got - 2010.04.14 03:12:58.
