data_PCOD8193765
_publ_section_title
;
Structure prediction by ZEFSAII (Michael W. Deem and Ramdas Pophale) SiO2 
 PCOD8193765
Probable space group: P M M M
;
_chemical_formula_sum "Si O2"
_cell_formula_units_Z 52
_cell_length_a 12.833061
_cell_length_b 26.420768
_cell_length_c 9.312758
_cell_angle_alpha 90.000000
_cell_angle_beta 90.000000
_cell_angle_gamma 90.000000
_cell_volume 3157.577464
_symmetry_space_group_name_H-M "P M M M"
_symmetry_group_IT_number 47
_symmetry_cell_setting 'orthorhombic'
loop_
_space_group_symop_operation_xyz
x,y,z
-x,-y,z
x,-y,-z
-x,y,-z
-x,-y,-z
x,y,-z
-x,y,z
x,-y,z
loop_
_atom_site_type_symbol
_atom_site_label
_atom_site_fract_x
_atom_site_fract_y
_atom_site_fract_z
Si Si1 0.000000 0.173811 0.329752
Si Si2 0.620241 0.282950 0.333281
Si Si3 0.881901 0.000000 0.671293
Si Si4 0.193053 0.893195 0.670885
Si Si5 0.614517 0.168862 0.329010
Si Si6 0.794583 0.658663 0.168886
Si Si7 0.116696 0.555326 0.170345
Si Si8 0.000000 0.278715 0.832391
O O1 0.899860 0.142691 0.276451
O O2 0.000000 0.227893 0.257654
O O3 0.000000 0.181246 0.500000
O O4 0.648566 0.287866 0.500000
O O5 0.500000 0.297447 0.305945
O O6 0.641799 0.225724 0.278797
O O7 0.692516 0.320574 0.245497
O O8 0.822828 0.049855 0.730077
O O9 0.883728 0.000000 0.500000
O O10 0.000000 0.000000 0.729291
O O11 0.194704 0.894327 0.500000
O O12 0.301042 0.870632 0.732963
O O13 0.614327 0.168171 0.500000
O O14 0.500000 0.153002 0.271646
O O15 0.810067 0.600904 0.224960
O O16 0.897616 0.689904 0.210590
O O17 0.774456 0.660872 0.000000
O O18 0.161382 0.500000 0.217179
O O19 0.000000 0.562058 0.232830
O O20 0.109486 0.558828 0.000000
O O21 0.000000 0.265468 0.000000
#
# Coordination Sequence:
#
# PCOD8193765 Si02
#       8
#     4   8   4   8   8   8   8   4
#     4  10  18  27  42  61  81 111 152 181 202 252
#     4   9  18  32  48  65  88 121 157 188 221 264
#     4   9  14  22  33  51  81 107 130 170 222 258
#     4   9  15  23  37  57  78 102 136 178 216 252
#     4   8  14  25  39  54  75 105 140 175 211 256
#     4  10  18  29  46  69  96 119 145 184 227 268
#     4   8  13  24  44  67  90 119 152 181 216 267
#     4  10  20  30  40  65 101 124 136 173 234 276
#
# _framework density 16.468321
#
# number of rings (size 3 to 8) (size 9 to 14) (size 15 to 20)
#    0.000    3.000    1.538    2.308    0.000    2.154 
#    0.000    0.385    0.000    3.231    0.000    5.385 
#    0.000    0.000    0.000    0.000    0.000   25.692 
#
# Total GULP energy -644469.906730 kJ/mol
# GULP energy per Si atom -12393.652052 kJ/mol
# Density = 1.643084 g / cm^3
# Si number density = 16.468321 Si / 1000 Ang^3
#
#
#
# Elastic Constant Matrix: (Units=GPa)
#
#
# Indices 1 2 3 4 5 6 
#
# 1 126.4589 90.9401 24.0023 0.0000 0.0000 0.0000
# 2 90.9401 168.7679 29.5754 0.0000 0.0000 0.0000
# 3 24.0023 29.5754 18.0973 0.0000 0.0000 0.0000
# 4 0.0000 0.0000 0.0000 15.2903 0.0000 0.0000
# 5 0.0000 0.0000 0.0000 0.0000 18.7671 0.0000
# 6 0.0000 0.0000 0.0000 0.0000 0.0000 24.6605
#
#
#
# Elastic Compliance Matrix: (Units=1/GPa)
#
#
# Indices 1 2 3 4 5 6 
#
# 1 0.013809 -0.005929 -0.008624 0.000000 0.000000 0.000000
# 2 -0.005929 0.010849 -0.009866 0.000000 0.000000 0.000000
# 3 -0.008624 -0.009866 0.082819 0.000000 0.000000 0.000000
# 4 0.000000 0.000000 0.000000 0.065401 0.000000 0.000000
# 5 0.000000 0.000000 0.000000 0.000000 0.053285 0.000000
# 6 0.000000 0.000000 0.000000 0.000000 0.000000 0.040551
#
#
# Mechanical properties :
#
#
# Convention : Reuss Voigt Hill
#
# Bulk Modulus (GPa) = 17.05403 66.92886 41.99145
# Shear Modulus (GPa) = 14.92096 22.99734 18.95915
#
# Velocity S-wave (km/s) = 3.01332 3.74098 3.39669
# Velocity P-wave (km/s) = 4.74183 7.70643 6.39820
#
# Compressibility (1/GPa) = 0.05863716
#
# Stress axis : x y z
#
# Youngs Moduli (GPa) = 72.41864 92.17149 12.07451
#
# Poissons Ratio (x) = 0.54652 0.10413
# Poissons Ratio (y) = 0.42940 0.11913
# Poissons Ratio (z) = 0.62455 0.90940
#
# Static dielectric constant tensor:
#      x y z
#    x 3.233610 0.000000 0.000000 
#    y 0.000000 3.391360 0.000000 
#    z 0.000000 0.000000 2.541470 
# 
# 
# High freq. dielectric constant tensor:
#      x y z
#    x 1.631490 0.000000 0.000000 
#    y 0.000000 1.642680 0.000000 
#    z 0.000000 0.000000 1.573210 
# 
# From -- ./inp_files/4627.got.cif
#   From: 2010.03.12/outbox.cif.g09.slc.cpg/sg47_3_cif.got.tgz:4627.got - 2010.04.14 03:12:58.
