data_PCOD8193527
_publ_section_title
;
Structure prediction by ZEFSAII (Michael W. Deem and Ramdas Pophale) SiO2 
 PCOD8193527
Probable space group: P M M M
;
_chemical_formula_sum "Si O2"
_cell_formula_units_Z 64
_cell_length_a 14.250144
_cell_length_b 31.465201
_cell_length_c 9.253001
_cell_angle_alpha 90.000000
_cell_angle_beta 90.000000
_cell_angle_gamma 90.000000
_cell_volume 4148.894318
_symmetry_space_group_name_H-M "P M M M"
_symmetry_group_IT_number 47
_symmetry_cell_setting 'orthorhombic'
loop_
_space_group_symop_operation_xyz
x,y,z
-x,-y,z
x,-y,-z
-x,y,-z
-x,-y,-z
x,y,-z
-x,y,z
x,-y,z
loop_
_atom_site_type_symbol
_atom_site_label
_atom_site_fract_x
_atom_site_fract_y
_atom_site_fract_z
Si Si1 0.290373 0.120108 0.332468
Si Si2 0.725521 0.715402 0.328209
Si Si3 0.892819 0.250125 0.831832
Si Si4 0.394439 0.363996 0.672823
Si Si5 0.605277 0.795761 0.671670
Si Si6 0.104842 0.835618 0.335418
Si Si7 0.388537 0.455020 0.661863
Si Si8 0.606118 0.048426 0.169405
O O1 0.312851 0.113064 0.500000
O O2 0.346804 0.160963 0.272527
O O3 0.179385 0.127121 0.304350
O O4 0.320072 0.078107 0.249192
O O5 0.738772 0.715596 0.500000
O O6 0.826755 0.716635 0.251804
O O7 0.674280 0.672863 0.272587
O O8 0.664515 0.755480 0.273683
O O9 0.875009 0.203229 0.770295
O O10 0.000000 0.264302 0.805197
O O11 0.867418 0.249646 0.000000
O O12 0.395841 0.365710 0.500000
O O13 0.500000 0.354325 0.728834
O O14 0.356652 0.410064 0.734079
O O15 0.602871 0.795206 0.500000
O O16 0.500000 0.792987 0.734953
O O17 0.118270 0.818883 0.500000
O O18 0.000000 0.854039 0.311803
O O19 0.347883 0.456836 0.500000
O O20 0.500000 0.452982 0.655455
O O21 0.357531 0.500000 0.740228
O O22 0.500000 0.060075 0.216647
O O23 0.628541 0.000000 0.212715
O O24 0.617995 0.054982 0.000000
#
# Coordination Sequence:
#
# PCOD8193527 Si02
#       8
#     8   8   8   8   8   8   8   8
#     4  10  18  29  47  71  92 112 142 177 212 249
#     4  10  17  27  42  60  84 115 146 174 207 248
#     4  10  20  32  45  61  82 109 142 180 219 255
#     4   8  13  20  33  55  81 113 150 178 204 247
#     4   9  16  25  38  60  89 115 138 168 203 238
#     4   9  17  31  50  70  91 113 140 175 214 253
#     4   7   9  14  25  44  74 109 141 174 210 245
#     4   9  19  35  51  67  90 119 147 176 213 252
#
# _framework density 15.425796
#
# number of rings (size 3 to 8) (size 9 to 14) (size 15 to 20)
#    0.000    3.000    1.250    2.625    0.000    3.750 
#    0.000    0.625    0.000    1.875    0.000    2.625 
#    0.000    1.000    0.000    9.375    0.000    3.750 
#
# Total GULP energy -793030.443032 kJ/mol
# GULP energy per Si atom -12391.100672 kJ/mol
# Density = 1.539069 g / cm^3
# Si number density = 15.425796 Si / 1000 Ang^3
#
#
#
# Elastic Constant Matrix: (Units=GPa)
#
#
# Indices 1 2 3 4 5 6 
#
# 1 101.0857 63.8328 32.6756 0.0000 0.0000 0.0000
# 2 63.8328 130.1865 33.9815 0.0000 0.0000 0.0000
# 3 32.6756 33.9815 33.4970 0.0000 0.0000 0.0000
# 4 0.0000 0.0000 0.0000 4.9422 0.0000 0.0000
# 5 0.0000 0.0000 0.0000 0.0000 15.5891 0.0000
# 6 0.0000 0.0000 0.0000 0.0000 0.0000 13.3361
#
#
#
# Elastic Compliance Matrix: (Units=1/GPa)
#
#
# Indices 1 2 3 4 5 6 
#
# 1 0.016842 -0.005399 -0.010952 0.000000 0.000000 0.000000
# 2 -0.005399 0.012179 -0.007088 0.000000 0.000000 0.000000
# 3 -0.010952 -0.007088 0.047727 0.000000 0.000000 0.000000
# 4 0.000000 0.000000 0.000000 0.202341 0.000000 0.000000
# 5 0.000000 0.000000 0.000000 0.000000 0.064147 0.000000
# 6 0.000000 0.000000 0.000000 0.000000 0.000000 0.074984
#
#
# Mechanical properties :
#
#
# Convention : Reuss Voigt Hill
#
# Bulk Modulus (GPa) = 33.47849 58.41656 45.94753
# Shear Modulus (GPa) = 10.52508 15.72542 13.12525
#
# Velocity S-wave (km/s) = 2.61493 3.19630 2.92012
# Velocity P-wave (km/s) = 5.55582 7.18146 6.42030
#
# Compressibility (1/GPa) = 0.02986992
#
# Stress axis : x y z
#
# Youngs Moduli (GPa) = 59.37414 82.10962 20.95244
#
# Poissons Ratio (x) = 0.44335 0.22947
# Poissons Ratio (y) = 0.32059 0.14851
# Poissons Ratio (z) = 0.65026 0.58199
#
# Static dielectric constant tensor:
#      x y z
#    x 2.990650 0.000000 0.000000 
#    y 0.000000 3.158080 0.000000 
#    z 0.000000 0.000000 2.602890 
# 
# 
# High freq. dielectric constant tensor:
#      x y z
#    x 1.576670 0.000000 0.000000 
#    y 0.000000 1.586660 0.000000 
#    z 0.000000 0.000000 1.552710 
# 
# From -- ./inp_files/8201.got.cif
#   From: 2010.03.12/outbox.cif.g09.slc.cpg/sg47_5_cif.got.tgz:8201.got - 2010.04.14 03:12:58.
