data_PCOD8193512
_publ_section_title
;
Structure prediction by ZEFSAII (Michael W. Deem and Ramdas Pophale) SiO2 
 PCOD8193512
Probable space group: P M M M
;
_chemical_formula_sum "Si O2"
_cell_formula_units_Z 52
_cell_length_a 26.516673
_cell_length_b 12.623255
_cell_length_c 9.496955
_cell_angle_alpha 90.000000
_cell_angle_beta 90.000000
_cell_angle_gamma 90.000000
_cell_volume 3178.884645
_symmetry_space_group_name_H-M "P M M M"
_symmetry_group_IT_number 47
_symmetry_cell_setting 'orthorhombic'
loop_
_space_group_symop_operation_xyz
x,y,z
-x,-y,z
x,-y,-z
-x,y,-z
-x,-y,-z
x,y,-z
-x,y,z
x,-y,z
loop_
_atom_site_type_symbol
_atom_site_label
_atom_site_fract_x
_atom_site_fract_y
_atom_site_fract_z
Si Si1 0.392394 0.381477 0.832064
Si Si2 0.885072 0.122372 0.662649
Si Si3 0.769912 0.877085 0.338057
Si Si4 0.941408 0.706583 0.164092
Si Si5 0.288242 0.292512 0.833070
Si Si6 0.229839 0.500000 0.832774
Si Si7 0.116070 0.500000 0.167564
Si Si8 0.500000 0.626261 0.844954
O O1 0.380590 0.500000 0.776279
O O2 0.346794 0.304766 0.787055
O O3 0.446844 0.340030 0.769922
O O4 0.396621 0.385918 0.000000
O O5 0.894730 0.149005 0.500000
O O6 0.827476 0.149217 0.703427
O O7 0.922962 0.189412 0.756519
O O8 0.896615 0.000000 0.693233
O O9 0.760188 0.847004 0.500000
O O10 0.732565 0.812027 0.239647
O O11 0.758505 0.000000 0.312145
O O12 0.912110 0.604320 0.224244
O O13 0.000000 0.688468 0.193520
O O14 0.930176 0.723225 0.000000
O O15 0.257839 0.395056 0.777656
O O16 0.282548 0.280018 0.000000
O O17 0.172963 0.500000 0.773835
O O18 0.230520 0.500000 0.000000
O O19 0.114688 0.500000 0.000000
O O20 0.500000 0.500000 0.856646
O O21 0.500000 0.677598 0.000000
#
# Coordination Sequence:
#
# PCOD8193512 Si02
#       8
#     8   8   8   8   8   4   4   4
#     4   8  12  20  34  58  93 126 153 182 219 263
#     4   9  19  36  54  69  88 116 148 183 226 275
#     4   9  19  35  50  64  87 119 152 186 226 271
#     4  10  20  33  50  72  95 118 148 185 220 258
#     4  10  17  26  44  70  97 120 147 187 227 265
#     4   9  16  25  41  67  96 121 143 174 221 266
#     4   9  17  30  46  64  91 126 153 172 207 262
#     4   7  10  16  30  52  84 127 160 178 209 262
#
# _framework density 16.357938999999998
#
# number of rings (size 3 to 8) (size 9 to 14) (size 15 to 20)
#    0.000    3.000    0.769    3.000    0.000    4.000 
#    0.000    3.846    0.000    3.692    0.000    1.077 
#    0.000    6.154    0.000    0.000    0.000    0.000 
#
# Total GULP energy -644477.056830 kJ/mol
# GULP energy per Si atom -12393.789554 kJ/mol
# Density = 1.632071 g / cm^3
# Si number density = 16.357939 Si / 1000 Ang^3
#
#
#
# Elastic Constant Matrix: (Units=GPa)
#
#
# Indices 1 2 3 4 5 6 
#
# 1 134.6460 55.0046 35.9770 0.0000 0.0000 0.0000
# 2 55.0046 74.2996 30.1973 0.0000 0.0000 0.0000
# 3 35.9770 30.1973 30.4708 0.0000 0.0000 0.0000
# 4 0.0000 0.0000 0.0000 -1.5373 0.0000 0.0000
# 5 0.0000 0.0000 0.0000 0.0000 12.5806 0.0000
# 6 0.0000 0.0000 0.0000 0.0000 0.0000 19.0402
#
#
#
# Elastic Compliance Matrix: (Units=1/GPa)
#
#
# Indices 1 2 3 4 5 6 
#
# 1 0.011943 -0.005208 -0.008940 0.000000 0.000000 0.000000
# 2 -0.005208 0.024807 -0.018435 0.000000 0.000000 0.000000
# 3 -0.008940 -0.018435 0.061644 0.000000 0.000000 0.000000
# 4 0.000000 0.000000 0.000000 -0.650494 0.000000 0.000000
# 5 0.000000 0.000000 0.000000 0.000000 0.079487 0.000000
# 6 0.000000 0.000000 0.000000 0.000000 0.000000 0.052520
#
#
# Mechanical properties :
#
#
# Convention : Reuss Voigt Hill
#
# Bulk Modulus (GPa) = 30.09584 53.53046 41.81315
# Shear Modulus (GPa) = -14.54124 13.89920 -0.32102
#
# Velocity S-wave (km/s) = -2.98475 2.91811 -0.44348
# Velocity P-wave (km/s) = 2.56124 6.64449 5.03534
#
# Compressibility (1/GPa) = 0.03322718
#
# Stress axis : x y z
#
# Youngs Moduli (GPa) = 83.72939 40.31061 16.22230
#
# Poissons Ratio (x) = 0.20995 0.14503
# Poissons Ratio (y) = 0.43608 0.29906
# Poissons Ratio (z) = 0.74853 0.74314
#
# Static dielectric constant tensor:
#      x y z
#    x 3.434580 0.000000 0.000000 
#    y 0.000000 2.918530 0.000000 
#    z 0.000000 0.000000 2.655360 
# 
# 
# High freq. dielectric constant tensor:
#      x y z
#    x 1.643730 0.000000 0.000000 
#    y 0.000000 1.612120 0.000000 
#    z 0.000000 0.000000 1.584270 
# 
# From -- ./inp_files/13357.got.cif
#   From: 2010.03.12/outbox.cif.g09.slc.cpg/sg47_7_cif.got.tgz:13357.got - 2010.04.14 03:12:58.
