data_PCOD8193923
_publ_section_title
;
Structure prediction by ZEFSAII (Michael W. Deem and Ramdas Pophale) SiO2 
 PCOD8193923
Probable space group: P M M M
;
_chemical_formula_sum "Si O2"
_cell_formula_units_Z 64
_cell_length_a 8.845443
_cell_length_b 20.688120
_cell_length_c 19.944141
_cell_angle_alpha 90.000000
_cell_angle_beta 90.000000
_cell_angle_gamma 90.000000
_cell_volume 3649.689774
_symmetry_space_group_name_H-M "P M M M"
_symmetry_group_IT_number 47
_symmetry_cell_setting 'orthorhombic'
loop_
_space_group_symop_operation_xyz
x,y,z
-x,-y,z
x,-y,-z
-x,y,-z
-x,-y,-z
x,y,-z
-x,y,z
x,-y,z
loop_
_atom_site_type_symbol
_atom_site_label
_atom_site_fract_x
_atom_site_fract_y
_atom_site_fract_z
Si Si1 0.180489 0.736009 0.786547
Si Si2 0.829570 0.730831 0.929591
Si Si3 0.679457 0.693581 0.654792
Si Si4 0.679497 0.571021 0.424978
Si Si5 0.326994 0.926863 0.653230
Si Si6 0.823691 0.187772 0.578041
Si Si7 0.170142 0.115412 0.926632
Si Si8 0.326282 0.127063 0.795256
O O1 0.241031 0.707302 0.858699
O O2 0.253120 0.692620 0.729175
O O3 0.229792 0.809821 0.777310
O O4 0.000000 0.733414 0.782902
O O5 0.828912 0.807706 0.926190
O O6 0.000000 0.705155 0.933455
O O7 0.747195 0.708597 0.000000
O O8 0.500000 0.694918 0.658874
O O9 0.743546 0.627975 0.621501
O O10 0.731386 0.755091 0.612596
O O11 0.742677 0.581634 0.500000
O O12 0.500000 0.574687 0.426487
O O13 0.730927 0.500000 0.398410
O O14 0.500000 0.909689 0.635140
O O15 0.218740 0.880278 0.611312
O O16 0.302827 0.921190 0.733248
O O17 0.287364 0.000000 0.632433
O O18 0.781004 0.185652 0.500000
O O19 0.000000 0.200732 0.589435
O O20 0.271856 0.091620 0.864032
O O21 0.000000 0.089586 0.916084
O O22 0.230503 0.091062 0.000000
O O23 0.500000 0.147570 0.804187
#
# Coordination Sequence:
#
# PCOD8193923 Si02
#       8
#     8   8   8   8   8   8   8   8
#     4  10  18  28  45  68  98 131 161 199 245 293
#     4   7  11  21  37  58  85 120 159 193 229 276
#     4  11  20  31  51  78 105 133 165 201 242 291
#     4   8  15  29  49  73 100 131 168 206 241 281
#     4  10  22  39  56  73  95 125 161 204 255 308
#     4  11  24  39  55  76 100 126 159 201 248 299
#     4   8  14  25  42  64  91 124 158 193 239 293
#     4  10  18  29  47  70  94 121 159 204 247 295
#
# _framework density 17.535736
#
# number of rings (size 3 to 8) (size 9 to 14) (size 15 to 20)
#    0.000    2.625    1.250    3.750    0.000    2.750 
#    0.000    1.250    0.000    3.000    0.000    7.000 
#    0.000    0.500    0.000    6.250    0.000    0.125 
#
# Total GULP energy -792948.249989 kJ/mol
# GULP energy per Si atom -12389.816406 kJ/mol
# Density = 1.749582 g / cm^3
# Si number density = 17.535736 Si / 1000 Ang^3
#
#
#
# Elastic Constant Matrix: (Units=GPa)
#
#
# Indices 1 2 3 4 5 6 
#
# 1 56.6727 20.2018 39.6220 0.0000 0.0000 0.0000
# 2 20.2018 78.1264 48.1777 0.0000 0.0000 0.0000
# 3 39.6220 48.1777 145.2457 0.0000 0.0000 0.0000
# 4 0.0000 0.0000 0.0000 14.5501 0.0000 0.0000
# 5 0.0000 0.0000 0.0000 0.0000 27.4672 0.0000
# 6 0.0000 0.0000 0.0000 0.0000 0.0000 2.1419
#
#
#
# Elastic Compliance Matrix: (Units=1/GPa)
#
#
# Indices 1 2 3 4 5 6 
#
# 1 0.022192 -0.002521 -0.005218 0.000000 0.000000 0.000000
# 2 -0.002521 0.016377 -0.004745 0.000000 0.000000 0.000000
# 3 -0.005218 -0.004745 0.009882 0.000000 0.000000 0.000000
# 4 0.000000 0.000000 0.000000 0.068728 0.000000 0.000000
# 5 0.000000 0.000000 0.000000 0.000000 0.036407 0.000000
# 6 0.000000 0.000000 0.000000 0.000000 0.000000 0.466879
#
#
# Mechanical properties :
#
#
# Convention : Reuss Voigt Hill
#
# Bulk Modulus (GPa) = 42.58050 55.11642 48.84846
# Shear Modulus (GPa) = 7.65392 20.30139 13.97765
#
# Velocity S-wave (km/s) = 2.09147 3.40621 2.82635
# Velocity P-wave (km/s) = 5.49246 6.85338 6.21031
#
# Compressibility (1/GPa) = 0.02348493
#
# Stress axis : x y z
#
# Youngs Moduli (GPa) = 45.06217 61.05945 101.19383
#
# Poissons Ratio (x) = 0.15392 0.52799
# Poissons Ratio (y) = 0.11359 0.48014
# Poissons Ratio (z) = 0.23512 0.28971
#
# Static dielectric constant tensor:
#      x y z
#    x 3.110890 0.000000 0.000000 
#    y 0.000000 2.987560 0.000000 
#    z 0.000000 0.000000 3.958270 
# 
# 
# High freq. dielectric constant tensor:
#      x y z
#    x 1.658490 0.000000 0.000000 
#    y 0.000000 1.628230 0.000000 
#    z 0.000000 0.000000 1.700150 
# 
# From -- ./inp_files/30175.got.cif
#   From: 2010.03.12/outbox.cif.g09.slc.cpg/sg47_16_cif.got.tgz:30175.got - 2010.04.14 03:12:58.
