data_PCOD8193650
_publ_section_title
;
Structure prediction by ZEFSAII (Michael W. Deem and Ramdas Pophale) SiO2 
 PCOD8193650
Probable space group: P M M M
;
_chemical_formula_sum "Si O2"
_cell_formula_units_Z 44
_cell_length_a 9.691572
_cell_length_b 13.578012
_cell_length_c 19.305205
_cell_angle_alpha 90.000000
_cell_angle_beta 90.000000
_cell_angle_gamma 90.000000
_cell_volume 2540.415959
_symmetry_space_group_name_H-M "P M M M"
_symmetry_group_IT_number 47
_symmetry_cell_setting 'orthorhombic'
loop_
_space_group_symop_operation_xyz
x,y,z
-x,-y,z
x,-y,-z
-x,y,-z
-x,-y,-z
x,y,-z
-x,y,z
x,-y,z
loop_
_atom_site_type_symbol
_atom_site_label
_atom_site_fract_x
_atom_site_fract_y
_atom_site_fract_z
Si Si1 0.657908 0.386630 0.206782
Si Si2 0.657523 0.740630 0.077849
Si Si3 0.162694 0.893763 0.309082
Si Si4 0.845273 0.112473 0.846443
Si Si5 0.163870 0.500000 0.577525
Si Si6 0.162997 0.318177 0.669867
O O1 0.500000 0.367261 0.229840
O O2 0.696230 0.500000 0.209650
O O3 0.684786 0.350941 0.128743
O O4 0.760843 0.330639 0.257613
O O5 0.500000 0.776331 0.083096
O O6 0.751367 0.831900 0.098747
O O7 0.693869 0.706191 0.000000
O O8 0.218299 0.877697 0.231045
O O9 0.198104 0.795266 0.354659
O O10 0.000000 0.904863 0.303827
O O11 0.220468 0.000000 0.338976
O O12 0.000000 0.156688 0.848536
O O13 0.847019 0.000000 0.870093
O O14 0.225459 0.500000 0.500000
O O15 0.216777 0.400208 0.615330
O O16 0.000000 0.500000 0.574946
O O17 0.000000 0.331225 0.681789
#
# Coordination Sequence:
#
# PCOD8193650 Si02
#       6
#     8   8   8   8   4   8
#     4  10  20  33  49  69  93 120 155 203 246 285
#     4  10  21  34  46  63  90 125 161 198 245 296
#     4   8  14  25  44  71  96 119 155 200 239 275
#     4   9  17  30  48  68  91 119 154 201 250 291
#     4   9  18  30  47  79 112 131 154 190 235 283
#     4  10  17  29  53  75  95 129 163 194 232 282
#
# _framework density 17.319998999999999
#
# number of rings (size 3 to 8) (size 9 to 14) (size 15 to 20)
#    0.000    2.636    2.727    1.091    0.000    1.455 
#    0.000    3.636    0.000    2.182    0.000    6.364 
#    0.000    0.000    0.000    1.636    0.000    1.818 
#
# Total GULP energy -545152.395631 kJ/mol
# GULP energy per Si atom -12389.827173 kJ/mol
# Density = 1.728058 g / cm^3
# Si number density = 17.319999 Si / 1000 Ang^3
#
#
#
# Elastic Constant Matrix: (Units=GPa)
#
#
# Indices 1 2 3 4 5 6 
#
# 1 31.5249 28.0114 14.2734 0.0000 0.0000 0.0000
# 2 28.0114 147.4032 52.4771 0.0000 0.0000 0.0000
# 3 14.2734 52.4771 71.8435 0.0000 0.0000 0.0000
# 4 0.0000 0.0000 0.0000 19.7490 0.0000 0.0000
# 5 0.0000 0.0000 0.0000 0.0000 11.2931 0.0000
# 6 0.0000 0.0000 0.0000 0.0000 0.0000 19.6545
#
#
#
# Elastic Compliance Matrix: (Units=1/GPa)
#
#
# Indices 1 2 3 4 5 6 
#
# 1 0.038679 -0.006236 -0.003129 0.000000 0.000000 0.000000
# 2 -0.006236 0.010174 -0.006192 0.000000 0.000000 0.000000
# 3 -0.003129 -0.006192 0.019064 0.000000 0.000000 0.000000
# 4 0.000000 0.000000 0.000000 0.050635 0.000000 0.000000
# 5 0.000000 0.000000 0.000000 0.000000 0.088549 0.000000
# 6 0.000000 0.000000 0.000000 0.000000 0.000000 0.050879
#
#
# Mechanical properties :
#
#
# Convention : Reuss Voigt Hill
#
# Bulk Modulus (GPa) = 27.17320 48.92171 38.04746
# Shear Modulus (GPa) = 16.59128 20.53997 18.56562
#
# Velocity S-wave (km/s) = 3.09840 3.44744 3.27757
# Velocity P-wave (km/s) = 5.34070 6.64482 6.02813
#
# Compressibility (1/GPa) = 0.03680096
#
# Stress axis : x y z
#
# Youngs Moduli (GPa) = 25.85386 98.29254 52.45501
#
# Poissons Ratio (x) = 0.61297 0.16415
# Poissons Ratio (y) = 0.16123 0.32482
# Poissons Ratio (z) = 0.08091 0.60866
#
# Static dielectric constant tensor:
#      x y z
#    x 2.980610 0.000000 0.000000 
#    y 0.000000 3.625840 0.000000 
#    z 0.000000 0.000000 3.063010 
# 
# 
# High freq. dielectric constant tensor:
#      x y z
#    x 1.637440 0.000000 0.000000 
#    y 0.000000 1.687080 0.000000 
#    z 0.000000 0.000000 1.634200 
# 
# From -- ./inp_files/6082.got.cif
#   From: 2010.03.12/outbox.cif.g09.slc.cpg/sg47_4_cif.got.tgz:6082.got - 2010.04.14 03:12:58.
