data_PCOD8193351
_publ_section_title
;
Structure prediction by ZEFSAII (Michael W. Deem and Ramdas Pophale) SiO2 
 PCOD8193351
Probable space group: I M A 2
;
_chemical_formula_sum "Si O2"
_cell_formula_units_Z 48
_cell_length_a 24.200501
_cell_length_b 8.864858
_cell_length_c 10.188418
_cell_angle_alpha 90.000000
_cell_angle_beta 90.000000
_cell_angle_gamma 90.000000
_cell_volume 2185.762117
_symmetry_space_group_name_H-M "I M A 2"
_symmetry_group_IT_number 46
_symmetry_cell_setting 'orthorhombic'
loop_
_space_group_symop_operation_xyz
x,y,z
-x,-y,z
1/2-x,y,z
1/2+x,-y,z
1/2+x,1/2+y,1/2+z
1/2-x,1/2-y,1/2+z
-x,1/2+y,1/2+z
x,1/2-y,1/2+z
loop_
_atom_site_type_symbol
_atom_site_label
_atom_site_fract_x
_atom_site_fract_y
_atom_site_fract_z
Si Si1 0.310893 0.852962 0.157060
Si Si2 0.990420 0.321421 0.458274
Si Si3 0.158373 0.173891 0.215458
Si Si4 0.532782 0.849091 0.227869
Si Si5 0.185802 0.398705 0.990163
Si Si6 0.367217 0.710812 0.921120
O O1 0.250000 0.780402 0.161648
O O2 0.346520 0.773960 0.271704
O O3 0.304224 0.031917 0.176125
O O4 0.337003 0.828771 0.014760
O O5 0.931166 0.256048 0.418729
O O6 0.000000 0.500000 0.460288
O O7 0.033704 0.259844 0.352853
O O8 0.004931 0.263472 0.604242
O O9 0.096021 0.114906 0.194846
O O10 0.172541 0.213055 0.367638
O O11 0.171947 0.318009 0.126957
O O12 0.500000 0.000000 0.264453
O O13 0.250000 0.449260 0.988953
O O14 0.145546 0.543267 0.976055
#
# Coordination Sequence:
#
# PCOD8193351 Si02
#       6
#     8   8   8   8   8   8
#     4  11  22  40  63  92 126 166 208 259 316 374
#     4  11  24  42  63  91 125 164 209 259 311 372
#     4  11  23  40  63  92 127 167 211 263 317 374
#     4  11  23  41  62  91 126 165 209 259 313 373
#     4  11  23  42  65  96 130 168 213 263 317 380
#     4  11  23  41  63  90 126 166 210 263 316 375
#
# _framework density 21.960304000000001
#
# number of rings (size 3 to 8) (size 9 to 14) (size 15 to 20)
#    0.000    1.000    0.000   10.000    0.000    4.667 
#    0.000    3.333    0.000    0.000    0.000    0.000 
#    0.000    0.000    0.000    0.000    0.000    0.000 
#
# Total GULP energy -297621.859308 kJ/mol
# GULP energy per Si atom -12400.910805 kJ/mol
# Density = 2.191032 g / cm^3
# Si number density = 21.960304 Si / 1000 Ang^3
#
#
#
# Elastic Constant Matrix: (Units=GPa)
#
#
# Indices 1 2 3 4 5 6 
#
# 1 123.5102 25.8941 12.7352 0.0000 0.0000 0.0000
# 2 25.8941 65.5965 42.0399 0.0000 0.0000 0.0000
# 3 12.7352 42.0399 96.0165 0.0000 0.0000 0.0000
# 4 0.0000 0.0000 0.0000 37.2422 0.0000 0.0000
# 5 0.0000 0.0000 0.0000 0.0000 30.5864 0.0000
# 6 0.0000 0.0000 0.0000 0.0000 0.0000 31.3374
#
#
#
# Elastic Compliance Matrix: (Units=1/GPa)
#
#
# Indices 1 2 3 4 5 6 
#
# 1 0.008844 -0.003808 0.000494 0.000000 0.000000 0.000000
# 2 -0.003808 0.022831 -0.009491 0.000000 0.000000 0.000000
# 3 0.000494 -0.009491 0.014505 0.000000 0.000000 0.000000
# 4 0.000000 0.000000 0.000000 0.026851 0.000000 0.000000
# 5 0.000000 0.000000 0.000000 0.000000 0.032694 0.000000
# 6 0.000000 0.000000 0.000000 0.000000 0.000000 0.031911
#
#
# Mechanical properties :
#
#
# Convention : Reuss Voigt Hill
#
# Bulk Modulus (GPa) = 48.61469 49.60683 49.11076
# Shear Modulus (GPa) = 29.39418 33.46346 31.42882
#
# Velocity S-wave (km/s) = 3.66254 3.90784 3.78718
# Velocity P-wave (km/s) = 6.33018 6.55744 6.44481
#
# Compressibility (1/GPa) = 0.02056991
#
# Stress axis : x y z
#
# Youngs Moduli (GPa) = 113.07280 43.80094 68.94216
#
# Poissons Ratio (x) = 0.16679 -0.03407
# Poissons Ratio (y) = 0.43056 0.65434
# Poissons Ratio (z) = -0.05588 0.41572
#
# Static dielectric constant tensor:
#      x y z
#    x 3.874950 0.000000 0.000000 
#    y 0.000000 3.642350 0.000000 
#    z 0.000000 0.000000 4.338650 
# 
# 
# High freq. dielectric constant tensor:
#      x y z
#    x 1.880070 0.000000 0.000000 
#    y 0.000000 1.840550 0.000000 
#    z 0.000000 0.000000 1.881420 
# 
# From -- ./inp_files/12704.got.cif
#   From: 2010.03.12/outbox.cif.g09.slc.cpg/sg46_7_cif.got.tgz:12704.got - 2010.04.14 02:56:35.
