data_PCOD8193309
_publ_section_title
;
Structure prediction by ZEFSAII (Michael W. Deem and Ramdas Pophale) SiO2 
 PCOD8193309
Probable space group: I M A 2
;
_chemical_formula_sum "Si O2"
_cell_formula_units_Z 48
_cell_length_a 9.013687
_cell_length_b 13.692841
_cell_length_c 23.862059
_cell_angle_alpha 90.000000
_cell_angle_beta 90.000000
_cell_angle_gamma 90.000000
_cell_volume 2945.126500
_symmetry_space_group_name_H-M "I M A 2"
_symmetry_group_IT_number 46
_symmetry_cell_setting 'orthorhombic'
loop_
_space_group_symop_operation_xyz
x,y,z
-x,-y,z
1/2-x,y,z
1/2+x,-y,z
1/2+x,1/2+y,1/2+z
1/2-x,1/2-y,1/2+z
-x,1/2+y,1/2+z
x,1/2-y,1/2+z
loop_
_atom_site_type_symbol
_atom_site_label
_atom_site_fract_x
_atom_site_fract_y
_atom_site_fract_z
Si Si1 0.423970 0.600422 0.550580
Si Si2 0.420601 0.900272 0.258864
Si Si3 0.575850 0.274167 0.653866
Si Si4 0.423223 0.705894 0.316066
Si Si5 0.577378 0.098968 0.925425
Si Si6 0.073187 0.397172 0.214772
O O1 0.500000 0.500000 0.569153
O O2 0.250000 0.581729 0.554484
O O3 0.469974 0.687510 0.592398
O O4 0.474495 0.631252 0.487728
O O5 0.250000 0.926140 0.260741
O O6 0.465459 0.859290 0.197926
O O7 0.462838 0.818996 0.305390
O O8 0.500000 0.000000 0.273905
O O9 0.750000 0.247997 0.658399
O O10 0.480188 0.178434 0.667070
O O11 0.250000 0.686379 0.302325
O O12 0.462400 0.683091 0.380716
O O13 0.519213 0.636691 0.275986
O O14 0.750000 0.076309 0.925716
O O15 0.500000 0.000000 0.905926
O O16 0.250000 0.405597 0.214261
O O17 0.000000 0.500000 0.199659
#
# Coordination Sequence:
#
# PCOD8193309 Si02
#       6
#     8   8   8   8   8   8
#     4   9  17  29  47  70  95 123 153 187 226 269
#     4   9  17  28  43  63  88 117 147 183 224 266
#     4   9  18  32  47  66  93 121 149 184 227 272
#     4   9  18  32  47  66  94 124 154 188 227 270
#     4   9  17  29  46  68  93 122 153 185 225 270
#     4  11  21  32  48  69  92 119 152 189 230 273
#
# _framework density 16.298110999999999
#
# number of rings (size 3 to 8) (size 9 to 14) (size 15 to 20)
#    0.000    2.667    0.000    3.500    0.000    5.333 
#    0.000    0.000    0.000    1.000    0.000    2.333 
#    0.000    0.000    0.000    0.000    0.000    0.000 
#
# Total GULP energy -297551.310849 kJ/mol
# GULP energy per Si atom -12397.971285 kJ/mol
# Density = 1.626102 g / cm^3
# Si number density = 16.298111 Si / 1000 Ang^3
#
#
#
# Elastic Constant Matrix: (Units=GPa)
#
#
# Indices 1 2 3 4 5 6 
#
# 1 64.8378 54.5318 39.0723 0.0000 0.0000 0.0000
# 2 54.5318 130.0361 71.6772 0.0000 0.0000 0.0000
# 3 39.0723 71.6772 115.7939 0.0000 0.0000 0.0000
# 4 0.0000 0.0000 0.0000 23.8894 0.0000 0.0000
# 5 0.0000 0.0000 0.0000 0.0000 19.2285 0.0000
# 6 0.0000 0.0000 0.0000 0.0000 0.0000 30.5935
#
#
#
# Elastic Compliance Matrix: (Units=1/GPa)
#
#
# Indices 1 2 3 4 5 6 
#
# 1 0.024447 -0.008660 -0.002889 0.000000 0.000000 0.000000
# 2 -0.008660 0.014741 -0.006202 0.000000 0.000000 0.000000
# 3 -0.002889 -0.006202 0.013450 0.000000 0.000000 0.000000
# 4 0.000000 0.000000 0.000000 0.041860 0.000000 0.000000
# 5 0.000000 0.000000 0.000000 0.000000 0.052006 0.000000
# 6 0.000000 0.000000 0.000000 0.000000 0.000000 0.032687
#
#
# Mechanical properties :
#
#
# Convention : Reuss Voigt Hill
#
# Bulk Modulus (GPa) = 58.35684 71.24779 64.80232
# Shear Modulus (GPa) = 22.68554 24.43469 23.56011
#
# Velocity S-wave (km/s) = 3.73488 3.87620 3.80619
# Velocity P-wave (km/s) = 7.38124 7.99021 7.69176
#
# Compressibility (1/GPa) = 0.01713595
#
# Stress axis : x y z
#
# Youngs Moduli (GPa) = 40.90431 67.83971 74.34885
#
# Poissons Ratio (x) = 0.58749 0.21477
# Poissons Ratio (y) = 0.35423 0.46114
# Poissons Ratio (z) = 0.11816 0.42077
#
# Static dielectric constant tensor:
#      x y z
#    x 3.033070 0.000000 0.000000 
#    y 0.000000 3.070910 0.000000 
#    z 0.000000 0.000000 3.264690 
# 
# 
# High freq. dielectric constant tensor:
#      x y z
#    x 1.624800 0.000000 0.000000 
#    y 0.000000 1.615470 0.000000 
#    z 0.000000 0.000000 1.621010 
# 
# From -- ./inp_files/20918.got.cif
#   From: 2010.03.12/outbox.cif.g09.slc.cpg/sg46_11_cif.got.tgz:20918.got - 2010.04.14 02:56:35.
