data_PCOD8193960
_publ_section_title
;
Structure prediction by ZEFSAII (Michael W. Deem and Ramdas Pophale) SiO2 
 PCOD8193960
Probable space group: P M M M
;
_chemical_formula_sum "Si O2"
_cell_formula_units_Z 48
_cell_length_a 7.753989
_cell_length_b 19.418823
_cell_length_c 15.504914
_cell_angle_alpha 90.000000
_cell_angle_beta 90.000000
_cell_angle_gamma 90.000000
_cell_volume 2334.626686
_symmetry_space_group_name_H-M "P M M M"
_symmetry_group_IT_number 47
_symmetry_cell_setting 'orthorhombic'
loop_
_space_group_symop_operation_xyz
x,y,z
-x,-y,z
x,-y,-z
-x,y,-z
-x,-y,-z
x,y,-z
-x,y,z
x,-y,z
loop_
_atom_site_type_symbol
_atom_site_label
_atom_site_fract_x
_atom_site_fract_y
_atom_site_fract_z
Si Si1 0.693557 0.176637 0.819400
Si Si2 0.205115 0.576052 0.229804
Si Si3 0.201326 0.689192 0.097179
Si Si4 0.800353 0.639647 0.405882
Si Si5 0.000000 0.881897 0.591596
Si Si6 0.690655 0.787287 0.628710
Si Si7 0.000000 0.921910 0.785700
O O1 0.500000 0.145423 0.826057
O O2 0.716496 0.235130 0.891699
O O3 0.726469 0.216596 0.730489
O O4 0.830652 0.114516 0.825379
O O5 0.275909 0.500000 0.205947
O O6 0.280843 0.632104 0.162365
O O7 0.267282 0.592281 0.327639
O O8 0.000000 0.576029 0.224337
O O9 0.000000 0.697220 0.115297
O O10 0.239647 0.664220 0.000000
O O11 0.772714 0.603514 0.500000
O O12 0.698325 0.710861 0.408038
O O13 0.000000 0.657116 0.390239
O O14 0.170095 0.835647 0.584834
O O15 0.000000 0.925009 0.500000
O O16 0.000000 0.924765 0.680515
O O17 0.500000 0.817481 0.609333
O O18 0.000000 0.000000 0.818948
#
# Coordination Sequence:
#
# PCOD8193960 Si02
#       7
#     8   8   8   8   4   8   4
#     4  10  20  36  61  87 115 153 194 237 286 339
#     4   9  18  31  49  76 115 157 194 241 296 347
#     4  10  19  33  58  87 115 149 192 241 293 351
#     4  10  18  28  47  72 104 147 194 243 291 339
#     4  10  20  33  52  81 117 152 191 237 281 337
#     4  10  19  31  51  79 109 146 193 243 291 335
#     4  10  22  39  61  88 122 159 191 233 286 342
#
# _framework density 20.560032
#
# number of rings (size 3 to 8) (size 9 to 14) (size 15 to 20)
#    0.000    2.167    3.333    0.500    0.000    2.833 
#    0.000    3.333    0.000    3.000    0.000    8.167 
#    0.000    0.000    0.000    0.000    0.000    0.000 
#
# Total GULP energy -594902.482866 kJ/mol
# GULP energy per Si atom -12393.801726 kJ/mol
# Density = 2.051324 g / cm^3
# Si number density = 20.560032 Si / 1000 Ang^3
#
#
#
# Elastic Constant Matrix: (Units=GPa)
#
#
# Indices 1 2 3 4 5 6 
#
# 1 95.0241 37.2460 28.8929 0.0000 0.0000 0.0000
# 2 37.2460 128.8025 45.6877 0.0000 0.0000 0.0000
# 3 28.8929 45.6877 104.6870 0.0000 0.0000 0.0000
# 4 0.0000 0.0000 0.0000 5.9140 0.0000 0.0000
# 5 0.0000 0.0000 0.0000 0.0000 18.6757 0.0000
# 6 0.0000 0.0000 0.0000 0.0000 0.0000 -2.9178
#
#
#
# Elastic Compliance Matrix: (Units=1/GPa)
#
#
# Indices 1 2 3 4 5 6 
#
# 1 0.012274 -0.002778 -0.002175 0.000000 0.000000 0.000000
# 2 -0.002778 0.009814 -0.003517 0.000000 0.000000 0.000000
# 3 -0.002175 -0.003517 0.011687 0.000000 0.000000 0.000000
# 4 0.000000 0.000000 0.000000 0.169089 0.000000 0.000000
# 5 0.000000 0.000000 0.000000 0.000000 0.053546 0.000000
# 6 0.000000 0.000000 0.000000 0.000000 0.000000 -0.342728
#
#
# Mechanical properties :
#
#
# Convention : Reuss Voigt Hill
#
# Bulk Modulus (GPa) = 59.39464 61.35189 60.37326
# Shear Modulus (GPa) = -78.41154 18.78019 -29.81568
#
# Velocity S-wave (km/s) = -6.18228 3.02558 -3.81225
# Velocity P-wave (km/s) = 4.69145 6.48927 3.17025
#
# Compressibility (1/GPa) = 0.01683654
#
# Stress axis : x y z
#
# Youngs Moduli (GPa) = 81.47446 101.89085 85.56247
#
# Poissons Ratio (x) = 0.28302 0.18612
# Poissons Ratio (y) = 0.22631 0.30089
# Poissons Ratio (z) = 0.17723 0.35831
#
# Static dielectric constant tensor:
#      x y z
#    x 3.586580 0.000000 0.000000 
#    y 0.000000 3.377280 0.000000 
#    z 0.000000 0.000000 3.795030 
# 
# 
# High freq. dielectric constant tensor:
#      x y z
#    x 1.793330 0.000000 0.000000 
#    y 0.000000 1.764990 0.000000 
#    z 0.000000 0.000000 1.805110 
# 
# From -- ./inp_files/21095.got.cif
#   From: 2010.03.12/outbox.cif.g09.slc.cpg/sg47_11_cif.got.tgz:21095.got - 2010.04.14 03:12:58.
