data_PCOD8193226
_publ_section_title
;
Structure prediction by ZEFSAII (Michael W. Deem and Ramdas Pophale) SiO2 
 PCOD8193226
Probable space group: I M A 2
;
_chemical_formula_sum "Si O2"
_cell_formula_units_Z 64
_cell_length_a 20.137890
_cell_length_b 17.187126
_cell_length_c 9.975470
_cell_angle_alpha 90.000000
_cell_angle_beta 90.000000
_cell_angle_gamma 90.000000
_cell_volume 3452.634390
_symmetry_space_group_name_H-M "I M A 2"
_symmetry_group_IT_number 46
_symmetry_cell_setting 'orthorhombic'
loop_
_space_group_symop_operation_xyz
x,y,z
-x,-y,z
1/2-x,y,z
1/2+x,-y,z
1/2+x,1/2+y,1/2+z
1/2-x,1/2-y,1/2+z
-x,1/2+y,1/2+z
x,1/2-y,1/2+z
loop_
_atom_site_type_symbol
_atom_site_label
_atom_site_fract_x
_atom_site_fract_y
_atom_site_fract_z
Si Si1 0.176105 0.119807 0.266290
Si Si2 0.104369 0.474821 0.977059
Si Si3 0.488726 0.223685 0.954861
Si Si4 0.827167 0.580033 0.227402
Si Si5 0.096897 0.267014 0.209040
Si Si6 0.454911 0.573490 0.582114
Si Si7 0.472940 0.888659 0.390573
Si Si8 0.674476 0.513991 0.516893
O O1 0.250000 0.151319 0.291684
O O2 0.160921 0.054054 0.375657
O O3 0.125220 0.190205 0.279995
O O4 0.169380 0.085263 0.118511
O O5 0.089916 0.565186 0.948563
O O6 0.039600 0.421598 0.957944
O O7 0.130138 0.473155 0.128212
O O8 0.433657 0.245643 0.065468
O O9 0.532216 0.149270 0.992897
O O10 0.456952 0.200151 0.812692
O O11 0.535940 0.298399 0.928654
O O12 0.750000 0.569424 0.198166
O O13 0.845221 0.669517 0.195324
O O14 0.845801 0.551671 0.375583
O O15 0.500000 0.500000 0.537424
O O16 0.475336 0.597033 0.731884
O O17 0.377261 0.552747 0.561883
O O18 0.750000 0.479809 0.514866
#
# Coordination Sequence:
#
# PCOD8193226 Si02
#       8
#     8   8   8   8   8   8   8   8
#     4  11  20  35  60  87 116 165 215 243 288 376
#     4  11  20  37  61  83 119 162 204 246 308 354
#     4  12  24  36  60  91 125 156 206 256 312 359
#     4  11  23  38  55  86 131 166 197 247 309 379
#     4  12  21  36  52  88 130 163 196 247 308 373
#     4  12  21  41  68  91 121 166 212 260 308 366
#     4  11  21  39  61  87 120 154 202 266 302 356
#     4  10  23  41  62  88 120 163 212 258 304 368
#
# _framework density 18.536570999999999
#
# number of rings (size 3 to 8) (size 9 to 14) (size 15 to 20)
#    0.000    0.750    6.250    3.000    0.000    1.000 
#    2.250    3.750    0.000    2.250    0.000    0.000 
#    0.000    0.000    0.000    0.000    0.000    0.000 
#
# Total GULP energy -396852.241873 kJ/mol
# GULP energy per Si atom -12401.632559 kJ/mol
# Density = 1.849438 g / cm^3
# Si number density = 18.536571 Si / 1000 Ang^3
#
#
#
# Elastic Constant Matrix: (Units=GPa)
#
#
# Indices 1 2 3 4 5 6 
#
# 1 69.4743 34.8425 15.6688 0.0000 0.0000 0.0000
# 2 34.8425 110.3853 11.0465 0.0000 0.0000 0.0000
# 3 15.6688 11.0465 75.8782 0.0000 0.0000 0.0000
# 4 0.0000 0.0000 0.0000 32.2557 0.0000 0.0000
# 5 0.0000 0.0000 0.0000 0.0000 32.0938 0.0000
# 6 0.0000 0.0000 0.0000 0.0000 0.0000 31.8700
#
#
#
# Elastic Compliance Matrix: (Units=1/GPa)
#
#
# Indices 1 2 3 4 5 6 
#
# 1 0.017702 -0.005299 -0.002884 0.000000 0.000000 0.000000
# 2 -0.005299 0.010779 -0.000475 0.000000 0.000000 0.000000
# 3 -0.002884 -0.000475 0.013844 0.000000 0.000000 0.000000
# 4 0.000000 0.000000 0.000000 0.031002 0.000000 0.000000
# 5 0.000000 0.000000 0.000000 0.000000 0.031159 0.000000
# 6 0.000000 0.000000 0.000000 0.000000 0.000000 0.031378
#
#
# Mechanical properties :
#
#
# Convention : Reuss Voigt Hill
#
# Bulk Modulus (GPa) = 39.98573 42.09484 41.04029
# Shear Modulus (GPa) = 30.95684 32.18923 31.57303
#
# Velocity S-wave (km/s) = 4.09105 4.17168 4.13156
# Velocity P-wave (km/s) = 6.62825 6.77955 6.70433
#
# Compressibility (1/GPa) = 0.02500892
#
# Stress axis : x y z
#
# Youngs Moduli (GPa) = 56.49177 92.77067 72.23499
#
# Poissons Ratio (x) = 0.49158 0.20832
# Poissons Ratio (y) = 0.29934 0.03432
# Poissons Ratio (z) = 0.16292 0.04407
#
# Static dielectric constant tensor:
#      x y z
#    x 3.404960 0.000000 0.000000 
#    y 0.000000 3.440800 0.000000 
#    z 0.000000 0.000000 3.508480 
# 
# 
# High freq. dielectric constant tensor:
#      x y z
#    x 1.706200 0.000000 0.000000 
#    y 0.000000 1.707100 0.000000 
#    z 0.000000 0.000000 1.735300 
# 
# From -- ./inp_files/7541.got.cif
#   From: 2010.03.12/outbox.cif.g09.slc.cpg/sg46_4_cif.got.tgz:7541.got - 2010.04.14 02:56:35.
