data_PCOD8193256
_publ_section_title
;
Structure prediction by ZEFSAII (Michael W. Deem and Ramdas Pophale) SiO2 
 PCOD8193256
Probable space group: I M A 2
;
_chemical_formula_sum "Si O2"
_cell_formula_units_Z 40
_cell_length_a 18.828426
_cell_length_b 12.069963
_cell_length_c 8.262364
_cell_angle_alpha 90.000000
_cell_angle_beta 90.000000
_cell_angle_gamma 90.000000
_cell_volume 1877.691666
_symmetry_space_group_name_H-M "I M A 2"
_symmetry_group_IT_number 46
_symmetry_cell_setting 'orthorhombic'
loop_
_space_group_symop_operation_xyz
x,y,z
-x,-y,z
1/2-x,y,z
1/2+x,-y,z
1/2+x,1/2+y,1/2+z
1/2-x,1/2-y,1/2+z
-x,1/2+y,1/2+z
x,1/2-y,1/2+z
loop_
_atom_site_type_symbol
_atom_site_label
_atom_site_fract_x
_atom_site_fract_y
_atom_site_fract_z
Si Si1 0.670341 0.009919 0.895340
Si Si2 0.390062 0.981859 0.546254
Si Si3 0.985055 0.660565 0.917625
Si Si4 0.750000 0.092264 0.423735
Si Si5 0.045162 0.105346 0.046285
Si Si6 0.750000 0.181389 0.072866
O O1 0.750000 0.960975 0.859083
O O2 0.627008 0.037681 0.733734
O O3 0.627618 0.921709 0.006550
O O4 0.679438 0.125886 0.993178
O O5 0.438074 0.883325 0.472953
O O6 0.318396 0.985185 0.441023
O O7 0.426890 0.101173 0.530983
O O8 0.980941 0.791600 0.939246
O O9 0.967791 0.628902 0.733942
O O10 0.750000 0.159725 0.260828
O O11 0.750000 0.186052 0.563530
O O12 0.000000 0.000000 0.988295
#
# Coordination Sequence:
#
# PCOD8193256 Si02
#       6
#     8   8   8   4   8   4
#     4  10  24  45  68 104 139 188 246 304 373 436
#     4  11  23  46  68 106 140 187 236 309 371 446
#     4  11  27  44  71 104 146 185 248 299 374 445
#     4  12  22  40  69  96 145 184 246 299 373 445
#     4  12  26  48  73 106 143 196 243 302 372 451
#     4  10  24  38  63 100 135 184 236 307 361 427
#
# _framework density 21.302752000000002
#
# number of rings (size 3 to 8) (size 9 to 14) (size 15 to 20)
#    0.600    0.400    3.000    3.600    8.400    0.000 
#    1.800    0.000    0.000    0.000    0.000    0.000 
#    0.000    0.000    0.000    0.000    0.000    0.000 
#
# Total GULP energy -248002.610857 kJ/mol
# GULP energy per Si atom -12400.130543 kJ/mol
# Density = 2.125427 g / cm^3
# Si number density = 21.302752 Si / 1000 Ang^3
#
#
#
# Elastic Constant Matrix: (Units=GPa)
#
#
# Indices 1 2 3 4 5 6 
#
# 1 151.7613 47.0662 45.3405 0.0000 0.0000 0.0000
# 2 47.0662 121.6846 9.5282 0.0000 0.0000 0.0000
# 3 45.3405 9.5282 100.6499 0.0000 0.0000 0.0000
# 4 0.0000 0.0000 0.0000 36.7810 0.0000 0.0000
# 5 0.0000 0.0000 0.0000 0.0000 44.2257 0.0000
# 6 0.0000 0.0000 0.0000 0.0000 0.0000 24.6827
#
#
#
# Elastic Compliance Matrix: (Units=1/GPa)
#
#
# Indices 1 2 3 4 5 6 
#
# 1 0.008607 -0.003048 -0.003589 0.000000 0.000000 0.000000
# 2 -0.003048 0.009359 0.000487 0.000000 0.000000 0.000000
# 3 -0.003589 0.000487 0.011506 0.000000 0.000000 0.000000
# 4 0.000000 0.000000 0.000000 0.027188 0.000000 0.000000
# 5 0.000000 0.000000 0.000000 0.000000 0.022611 0.000000
# 6 0.000000 0.000000 0.000000 0.000000 0.000000 0.040514
#
#
# Mechanical properties :
#
#
# Convention : Reuss Voigt Hill
#
# Bulk Modulus (GPa) = 58.23298 64.21839 61.22568
# Shear Modulus (GPa) = 36.28238 39.28194 37.78216
#
# Velocity S-wave (km/s) = 4.13144 4.29882 4.21596
# Velocity P-wave (km/s) = 7.08192 7.40614 7.24584
#
# Compressibility (1/GPa) = 0.01717240
#
# Stress axis : x y z
#
# Youngs Moduli (GPa) = 116.18848 106.85186 86.91194
#
# Poissons Ratio (x) = 0.32568 0.31189
# Poissons Ratio (y) = 0.35414 -0.04233
# Poissons Ratio (z) = 0.41695 -0.05205
#
# Static dielectric constant tensor:
#      x y z
#    x 4.025300 0.000000 0.000000 
#    y 0.000000 3.895680 0.000000 
#    z 0.000000 0.000000 3.826470 
# 
# 
# High freq. dielectric constant tensor:
#      x y z
#    x 1.841690 0.000000 0.000000 
#    y 0.000000 1.818950 0.000000 
#    z 0.000000 0.000000 1.851100 
# 
# From -- ./inp_files/6398.got.cif
#   From: 2010.03.12/outbox.cif.g09.slc.cpg/sg46_4_cif.got.tgz:6398.got - 2010.04.14 02:56:35.
