data_PCOD8193470
_publ_section_title
;
Structure prediction by ZEFSAII (Michael W. Deem and Ramdas Pophale) SiO2 
 PCOD8193470
Probable space group: P M M M
;
_chemical_formula_sum "Si O2"
_cell_formula_units_Z 40
_cell_length_a 22.317067
_cell_length_b 14.740702
_cell_length_c 7.934689
_cell_angle_alpha 90.000000
_cell_angle_beta 90.000000
_cell_angle_gamma 90.000000
_cell_volume 2610.268564
_symmetry_space_group_name_H-M "P M M M"
_symmetry_group_IT_number 47
_symmetry_cell_setting 'orthorhombic'
loop_
_space_group_symop_operation_xyz
x,y,z
-x,-y,z
x,-y,-z
-x,y,-z
-x,-y,-z
x,y,-z
-x,y,z
x,-y,z
loop_
_atom_site_type_symbol
_atom_site_label
_atom_site_fract_x
_atom_site_fract_y
_atom_site_fract_z
Si Si1 0.355764 0.392285 0.687193
Si Si2 0.432108 0.391713 0.000000
Si Si3 0.000000 0.601706 0.798501
Si Si4 0.931479 0.901729 0.800360
Si Si5 0.779167 0.398621 0.302835
Si Si6 0.111126 0.714959 0.195360
O O1 0.372913 0.354274 0.500000
O O2 0.359759 0.500000 0.680200
O O3 0.288079 0.364529 0.736153
O O4 0.400039 0.353504 0.830976
O O5 0.429524 0.500000 0.000000
O O6 0.500000 0.355986 0.000000
O O7 0.059310 0.651405 0.725822
O O8 0.000000 0.500000 0.725855
O O9 0.000000 0.599813 0.000000
O O10 0.892337 0.817329 0.727397
O O11 0.000000 0.884264 0.747086
O O12 0.909729 0.000000 0.727253
O O13 0.926152 0.905914 0.000000
O O14 0.790769 0.401662 0.500000
O O15 0.789411 0.500000 0.227412
O O16 0.823610 0.326981 0.220196
O O17 0.096760 0.723290 0.000000
#
# Coordination Sequence:
#
# PCOD8193470 Si02
#       6
#     8   4   4   8   8   8
#     4   8  15  27  39  52  76 107 137 170 204 238
#     4   9  16  24  38  60  80 101 136 175 206 237
#     4   9  16  24  32  50  78  95 115 163 212 241
#     4   8  13  23  39  57  76  95 119 159 207 251
#     4   9  18  30  40  52  74 105 136 164 198 242
#     4  10  17  25  40  59  73  94 130 166 204 246
#
# _framework density 15.324093
#
# number of rings (size 3 to 8) (size 9 to 14) (size 15 to 20)
#    0.000    3.200    1.000    2.400    1.400    1.600 
#    0.000    2.500    0.000    2.400    0.000    1.400 
#    0.000    0.000    0.000    0.000    0.000    2.000 
#
# Total GULP energy -495584.535850 kJ/mol
# GULP energy per Si atom -12389.613396 kJ/mol
# Density = 1.528921 g / cm^3
# Si number density = 15.324093 Si / 1000 Ang^3
#
#
#
# Elastic Constant Matrix: (Units=GPa)
#
#
# Indices 1 2 3 4 5 6 
#
# 1 101.4950 46.6491 37.4578 0.0000 0.0000 0.0000
# 2 46.6491 99.6898 20.6766 0.0000 0.0000 0.0000
# 3 37.4578 20.6766 44.9871 0.0000 0.0000 0.0000
# 4 0.0000 0.0000 0.0000 3.4981 0.0000 0.0000
# 5 0.0000 0.0000 0.0000 0.0000 -2.6511 0.0000
# 6 0.0000 0.0000 0.0000 0.0000 0.0000 5.6979
#
#
#
# Elastic Compliance Matrix: (Units=1/GPa)
#
#
# Indices 1 2 3 4 5 6 
#
# 1 0.016474 -0.005377 -0.011246 0.000000 0.000000 0.000000
# 2 -0.005377 0.012843 -0.001426 0.000000 0.000000 0.000000
# 3 -0.011246 -0.001426 0.032248 0.000000 0.000000 0.000000
# 4 0.000000 0.000000 0.000000 0.285867 0.000000 0.000000
# 5 0.000000 0.000000 0.000000 0.000000 -0.377196 0.000000
# 6 0.000000 0.000000 0.000000 0.000000 0.000000 0.175503
#
#
# Mechanical properties :
#
#
# Convention : Reuss Voigt Hill
#
# Bulk Modulus (GPa) = 39.26512 50.63764 44.95138
# Shear Modulus (GPa) = 26.27083 10.73487 18.50285
#
# Velocity S-wave (km/s) = 4.14496 2.64961 3.47859
# Velocity P-wave (km/s) = 6.97039 6.51742 6.74771
#
# Compressibility (1/GPa) = 0.02546790
#
# Stress axis : x y z
#
# Youngs Moduli (GPa) = 60.70057 77.86473 31.00985
#
# Poissons Ratio (x) = 0.41864 0.34874
# Poissons Ratio (y) = 0.32636 0.04422
# Poissons Ratio (z) = 0.68264 0.11104
#
# Static dielectric constant tensor:
#      x y z
#    x 2.903420 0.000000 0.000000 
#    y 0.000000 3.047490 0.000000 
#    z 0.000000 0.000000 2.857450 
# 
# 
# High freq. dielectric constant tensor:
#      x y z
#    x 1.566090 0.000000 0.000000 
#    y 0.000000 1.546320 0.000000 
#    z 0.000000 0.000000 1.575470 
# 
# From -- ./inp_files/6662.got.cif
#   From: 2010.03.12/outbox.cif.g09.slc.cpg/sg47_4_cif.got.tgz:6662.got - 2010.04.14 03:12:58.
