data_PCOD8193716
_publ_section_title
;
Structure prediction by ZEFSAII (Michael W. Deem and Ramdas Pophale) SiO2 
 PCOD8193716
Probable space group: P M M M
;
_chemical_formula_sum "Si O2"
_cell_formula_units_Z 52
_cell_length_a 12.814433
_cell_length_b 8.789256
_cell_length_c 26.400474
_cell_angle_alpha 90.000000
_cell_angle_beta 90.000000
_cell_angle_gamma 90.000000
_cell_volume 2973.467755
_symmetry_space_group_name_H-M "P M M M"
_symmetry_group_IT_number 47
_symmetry_cell_setting 'orthorhombic'
loop_
_space_group_symop_operation_xyz
x,y,z
-x,-y,z
x,-y,-z
-x,y,-z
-x,-y,-z
x,y,-z
-x,y,z
x,-y,z
loop_
_atom_site_type_symbol
_atom_site_label
_atom_site_fract_x
_atom_site_fract_y
_atom_site_fract_z
Si Si1 0.882064 0.819098 0.055161
Si Si2 0.379129 0.177064 0.339703
Si Si3 0.000000 0.180258 0.778845
Si Si4 0.118613 0.820016 0.500000
Si Si5 0.198231 0.181644 0.840487
Si Si6 0.000000 0.321553 0.330616
Si Si7 0.385510 0.819000 0.225251
Si Si8 0.805006 0.321358 0.398592
O O1 0.810656 0.757999 0.101431
O O2 0.000000 0.759529 0.063016
O O3 0.883382 0.000000 0.056460
O O4 0.839474 0.763186 0.000000
O O5 0.500000 0.207226 0.353464
O O6 0.356097 0.230966 0.282189
O O7 0.307016 0.275823 0.376293
O O8 0.351624 0.000000 0.346399
O O9 0.898862 0.243392 0.808022
O O10 0.000000 0.234818 0.721827
O O11 0.000000 0.000000 0.779169
O O12 0.180736 0.762219 0.451505
O O13 0.000000 0.755953 0.500000
O O14 0.118133 0.000000 0.500000
O O15 0.303086 0.248318 0.815020
O O16 0.199694 0.000000 0.839591
O O17 0.897471 0.269836 0.361098
O O18 0.000000 0.500000 0.320115
O O19 0.500000 0.755737 0.210637
O O20 0.386803 0.000000 0.223510
O O21 0.808745 0.500000 0.408249
#
# Coordination Sequence:
#
# PCOD8193716 Si02
#       8
#     8   8   4   4   8   4   8   8
#     4   8  12  18  28  44  73 111 144 181 236 289
#     4   9  18  34  54  76 102 130 165 208 249 290
#     4  10  18  26  42  67  88 112 149 197 238 275
#     4  11  23  39  60  83 104 131 171 209 241 282
#     4   9  14  21  34  56  83 106 142 193 237 278
#     4  10  22  35  47  69 104 137 158 187 240 297
#     4   8  14  24  39  58  82 115 149 185 233 284
#     4  11  22  37  56  77 105 137 166 198 241 295
#
# _framework density 17.487998999999999
#
# number of rings (size 3 to 8) (size 9 to 14) (size 15 to 20)
#    0.000    2.692    1.538    3.000    0.000    3.077 
#    0.000    0.385    0.000    2.769    0.000    3.231 
#    0.000    1.231    0.000    0.000    0.000    0.000 
#
# Total GULP energy -644575.312251 kJ/mol
# GULP energy per Si atom -12395.679082 kJ/mol
# Density = 1.744820 g / cm^3
# Si number density = 17.487999 Si / 1000 Ang^3
#
#
#
# Elastic Constant Matrix: (Units=GPa)
#
#
# Indices 1 2 3 4 5 6 
#
# 1 120.4392 19.1858 80.8705 0.0000 0.0000 0.0000
# 2 19.1858 23.5254 22.0680 0.0000 0.0000 0.0000
# 3 80.8705 22.0680 156.0905 0.0000 0.0000 0.0000
# 4 0.0000 0.0000 0.0000 -0.2375 0.0000 0.0000
# 5 0.0000 0.0000 0.0000 0.0000 25.2761 0.0000
# 6 0.0000 0.0000 0.0000 0.0000 0.0000 15.6226
#
#
#
# Elastic Compliance Matrix: (Units=1/GPa)
#
#
# Indices 1 2 3 4 5 6 
#
# 1 0.013228 -0.005026 -0.006143 0.000000 0.000000 0.000000
# 2 -0.005026 0.050916 -0.004595 0.000000 0.000000 0.000000
# 3 -0.006143 -0.004595 0.010239 0.000000 0.000000 0.000000
# 4 0.000000 0.000000 0.000000 -4.210360 0.000000 0.000000
# 5 0.000000 0.000000 0.000000 0.000000 0.039563 0.000000
# 6 0.000000 0.000000 0.000000 0.000000 0.000000 0.064010
#
#
# Mechanical properties :
#
#
# Convention : Reuss Voigt Hill
#
# Bulk Modulus (GPa) = 23.33382 60.47820 41.90601
# Shear Modulus (GPa) = -1.25420 19.99428 9.37004
#
# Velocity S-wave (km/s) = -0.84778 3.38496 2.31724
# Velocity P-wave (km/s) = 3.52327 7.06647 5.58339
#
# Compressibility (1/GPa) = 0.04285624
#
# Stress axis : x y z
#
# Youngs Moduli (GPa) = 75.59495 19.64023 97.66704
#
# Poissons Ratio (x) = 0.09871 0.59998
# Poissons Ratio (y) = 0.37992 0.44875
# Poissons Ratio (z) = 0.46439 0.09024
#
# Static dielectric constant tensor:
#      x y z
#    x 3.441060 0.000000 0.000000 
#    y 0.000000 2.749870 0.000000 
#    z 0.000000 0.000000 3.510550 
# 
# 
# High freq. dielectric constant tensor:
#      x y z
#    x 1.670210 0.000000 0.000000 
#    y 0.000000 1.627390 0.000000 
#    z 0.000000 0.000000 1.683500 
# 
# From -- ./inp_files/33641.got.cif
#   From: 2010.03.12/outbox.cif.g09.slc.cpg/sg47_17_cif.got.tgz:33641.got - 2010.04.14 03:12:58.
