data_PCOD8193945
_publ_section_title
;
Structure prediction by ZEFSAII (Michael W. Deem and Ramdas Pophale) SiO2 
 PCOD8193945
Probable space group: P M M M
;
_chemical_formula_sum "Si O2"
_cell_formula_units_Z 52
_cell_length_a 15.728981
_cell_length_b 19.479107
_cell_length_c 10.002116
_cell_angle_alpha 90.000000
_cell_angle_beta 90.000000
_cell_angle_gamma 90.000000
_cell_volume 3064.513353
_symmetry_space_group_name_H-M "P M M M"
_symmetry_group_IT_number 47
_symmetry_cell_setting 'orthorhombic'
loop_
_space_group_symop_operation_xyz
x,y,z
-x,-y,z
x,-y,-z
-x,y,-z
-x,-y,-z
x,y,-z
-x,y,z
x,-y,z
loop_
_atom_site_type_symbol
_atom_site_label
_atom_site_fract_x
_atom_site_fract_y
_atom_site_fract_z
Si Si1 0.406488 0.335358 0.841515
Si Si2 0.904525 0.670728 0.158705
Si Si3 0.635748 0.185762 0.158186
Si Si4 0.500000 0.077841 0.159352
Si Si5 0.751923 0.422521 0.159628
Si Si6 0.900073 0.075775 0.645893
Si Si7 0.829662 0.815912 0.842192
O O1 0.500000 0.364707 0.802314
O O2 0.399408 0.257913 0.784371
O O3 0.331483 0.383406 0.782817
O O4 0.395570 0.333205 0.000000
O O5 0.838457 0.613521 0.212471
O O6 0.870629 0.744542 0.205778
O O7 0.000000 0.657527 0.215680
O O8 0.906882 0.668212 0.000000
O O9 0.582377 0.120281 0.211819
O O10 0.732472 0.179662 0.203652
O O11 0.627375 0.187635 0.000000
O O12 0.500000 0.000000 0.218411
O O13 0.500000 0.073616 0.000000
O O14 0.750688 0.500000 0.214589
O O15 0.750384 0.421296 0.000000
O O16 0.867257 0.102569 0.500000
O O17 0.876616 0.123583 0.768164
O O18 0.000000 0.070678 0.640936
O O19 0.861715 0.000000 0.672948
O O20 0.840580 0.826108 0.000000
#
# Coordination Sequence:
#
# PCOD8193945 Si02
#       7
#     8   8   8   4   8   8   8
#     4   9  14  22  36  50  72 110 150 182 221 271
#     4   9  16  25  37  55  81 112 143 179 225 272
#     4   9  15  24  38  56  82 115 142 176 229 275
#     4   9  16  24  34  52  80 112 144 176 216 275
#     4   9  16  24  33  49  76 111 151 188 219 264
#     4   9  19  35  50  64  88 121 151 182 226 277
#     4  10  18  28  46  70  92 114 150 195 233 267
#
# _framework density 16.968436000000001
#
# number of rings (size 3 to 8) (size 9 to 14) (size 15 to 20)
#    0.000    2.846    2.308    0.923    0.000    2.462 
#    0.000    5.385    0.000    0.000    0.000    0.538 
#    0.000    2.462    0.000    3.231    0.000    4.923 
#
# Total GULP energy -644351.531781 kJ/mol
# GULP energy per Si atom -12391.375611 kJ/mol
# Density = 1.692981 g / cm^3
# Si number density = 16.968436 Si / 1000 Ang^3
#
#
#
# Elastic Constant Matrix: (Units=GPa)
#
#
# Indices 1 2 3 4 5 6 
#
# 1 134.8054 81.2280 11.8697 0.0000 0.0000 0.0000
# 2 81.2280 145.5618 17.8752 0.0000 0.0000 0.0000
# 3 11.8697 17.8752 14.4009 0.0000 0.0000 0.0000
# 4 0.0000 0.0000 0.0000 2.2383 0.0000 0.0000
# 5 0.0000 0.0000 0.0000 0.0000 3.9390 0.0000
# 6 0.0000 0.0000 0.0000 0.0000 0.0000 38.4250
#
#
#
# Elastic Compliance Matrix: (Units=1/GPa)
#
#
# Indices 1 2 3 4 5 6 
#
# 1 0.011213 -0.006043 -0.001741 0.000000 0.000000 0.000000
# 2 -0.006043 0.011363 -0.009123 0.000000 0.000000 0.000000
# 3 -0.001741 -0.009123 0.082199 0.000000 0.000000 0.000000
# 4 0.000000 0.000000 0.000000 0.446777 0.000000 0.000000
# 5 0.000000 0.000000 0.000000 0.000000 0.253869 0.000000
# 6 0.000000 0.000000 0.000000 0.000000 0.000000 0.026025
#
#
# Mechanical properties :
#
#
# Convention : Reuss Voigt Hill
#
# Bulk Modulus (GPa) = 14.09235 57.41267 35.75251
# Shear Modulus (GPa) = 5.62485 21.17347 13.39916
#
# Velocity S-wave (km/s) = 1.82266 3.53627 2.81312
# Velocity P-wave (km/s) = 3.57107 7.11211 5.62737
#
# Compressibility (1/GPa) = 0.07096047
#
# Stress axis : x y z
#
# Youngs Moduli (GPa) = 89.18348 88.00795 12.16566
#
# Poissons Ratio (x) = 0.53186 0.02118
# Poissons Ratio (y) = 0.53897 0.11098
# Poissons Ratio (z) = 0.15524 0.80288
#
# Static dielectric constant tensor:
#      x y z
#    x 3.488610 0.000000 0.000000 
#    y 0.000000 3.394050 0.000000 
#    z 0.000000 0.000000 2.493260 
# 
# 
# High freq. dielectric constant tensor:
#      x y z
#    x 1.669310 0.000000 0.000000 
#    y 0.000000 1.661490 0.000000 
#    z 0.000000 0.000000 1.562470 
# 
# From -- ./inp_files/10999.got.cif
#   From: 2010.03.12/outbox.cif.g09.slc.cpg/sg47_6_cif.got.tgz:10999.got - 2010.04.14 03:12:58.
