data_PCOD8193383
_publ_section_title
;
Structure prediction by ZEFSAII (Michael W. Deem and Ramdas Pophale) SiO2 
 PCOD8193383
Probable space group: I M A 2
;
_chemical_formula_sum "Si O2"
_cell_formula_units_Z 64
_cell_length_a 9.268186
_cell_length_b 23.915090
_cell_length_c 14.487338
_cell_angle_alpha 90.000000
_cell_angle_beta 90.000000
_cell_angle_gamma 90.000000
_cell_volume 3211.111258
_symmetry_space_group_name_H-M "I M A 2"
_symmetry_group_IT_number 46
_symmetry_cell_setting 'orthorhombic'
loop_
_space_group_symop_operation_xyz
x,y,z
-x,-y,z
1/2-x,y,z
1/2+x,-y,z
1/2+x,1/2+y,1/2+z
1/2-x,1/2-y,1/2+z
-x,1/2+y,1/2+z
x,1/2-y,1/2+z
loop_
_atom_site_type_symbol
_atom_site_label
_atom_site_fract_x
_atom_site_fract_y
_atom_site_fract_z
Si Si1 0.909523 0.737048 0.298250
Si Si2 0.418240 0.842234 0.302033
Si Si3 0.921299 0.055541 0.642272
Si Si4 0.409523 0.237048 0.017157
Si Si5 0.418240 0.657766 0.013375
Si Si6 0.421300 0.555541 0.673136
Si Si7 0.919236 0.612552 0.300648
Si Si8 0.580764 0.612552 0.514760
O O1 0.750000 0.746897 0.257954
O O2 0.905765 0.739582 0.407704
O O3 0.965482 0.675428 0.270304
O O4 0.009262 0.786535 0.258828
O O5 0.250000 0.831671 0.294945
O O6 0.466868 0.852257 0.407704
O O7 0.465919 0.896039 0.244307
O O8 0.750000 0.046464 0.647588
O O9 0.965915 0.103961 0.571101
O O10 0.983106 0.069806 0.743288
O O11 0.000000 0.000000 0.605692
O O12 0.250000 0.246897 0.057453
O O13 0.509261 0.286535 0.056580
O O14 0.465481 0.175428 0.045104
O O15 0.250000 0.668332 0.020460
O O16 0.500000 0.500000 0.709714
O O17 0.250000 0.546465 0.667821
O O18 0.483105 0.569806 0.572120
O O19 0.750000 0.602862 0.280531
O O20 0.953261 0.601901 0.407704
O O21 0.750000 0.602862 0.534876
#
# Coordination Sequence:
#
# PCOD8193383 Si02
#       8
#     8   8   8   8   8   8   8   8
#     4   8  15  30  54  83 110 137 172 212 259 317
#     4   9  19  36  56  79 109 142 175 216 266 317
#     4  11  24  39  55  77 105 140 184 227 266 313
#     4   8  15  30  54  83 110 137 172 212 259 317
#     4   9  19  36  56  79 109 142 175 216 266 317
#     4  11  24  39  55  77 105 140 184 227 266 313
#     4   9  19  37  59  82 110 142 175 215 263 315
#     4   9  19  37  59  82 110 142 175 215 263 315
#
# _framework density 19.930793999999999
#
# number of rings (size 3 to 8) (size 9 to 14) (size 15 to 20)
#    0.000    2.750    0.000    2.250    0.000    5.500 
#    0.000    7.500    0.000    0.000    0.000    0.000 
#    0.000    0.000    0.000    0.000    0.000    0.000 
#
# Total GULP energy -396748.847611 kJ/mol
# GULP energy per Si atom -12398.401488 kJ/mol
# Density = 1.988543 g / cm^3
# Si number density = 19.930794 Si / 1000 Ang^3
#
#
#
# Elastic Constant Matrix: (Units=GPa)
#
#
# Indices 1 2 3 4 5 6 
#
# 1 52.7406 30.2730 11.8959 -0.0001 0.0000 0.0000
# 2 30.2730 86.9355 4.9010 -0.0003 0.0000 0.0000
# 3 11.8959 4.9010 36.7034 -0.0004 0.0001 0.0001
# 4 -0.0001 -0.0003 -0.0004 33.0756 0.0000 0.0000
# 5 0.0000 0.0000 0.0001 0.0000 18.7082 0.0000
# 6 0.0000 0.0000 0.0001 0.0000 0.0000 40.4442
#
#
#
# Elastic Compliance Matrix: (Units=1/GPa)
#
#
# Indices 1 2 3 4 5 6 
#
# 1 0.025414 -0.008449 -0.007109 0.000000 0.000000 0.000000
# 2 -0.008449 0.014399 0.000816 0.000000 0.000000 0.000000
# 3 -0.007109 0.000816 0.029441 0.000000 0.000000 0.000000
# 4 0.000000 0.000000 0.000000 0.030234 0.000000 0.000000
# 5 0.000000 0.000000 0.000000 0.000000 0.053452 0.000000
# 6 0.000000 0.000000 0.000000 0.000000 0.000000 0.024725
#
#
# Mechanical properties :
#
#
# Convention : Reuss Voigt Hill
#
# Bulk Modulus (GPa) = 25.14495 30.05770 27.60133
# Shear Modulus (GPa) = 22.68550 27.06624 24.87587
#
# Velocity S-wave (km/s) = 3.37740 3.68912 3.53670
# Velocity P-wave (km/s) = 5.27756 5.76714 5.52777
#
# Compressibility (1/GPa) = 0.03976941
#
# Stress axis : x y z
#
# Youngs Moduli (GPa) = 39.34872 69.44964 33.96680
#
# Poissons Ratio (x) = 0.58678 0.24146
# Poissons Ratio (y) = 0.33245 -0.02771
# Poissons Ratio (z) = 0.27972 -0.05665
#
# Static dielectric constant tensor:
#      x y z
#    x 3.589950 0.000000 0.000000 
#    y 0.000000 3.796140 0.000000 
#    z 0.000000 0.000000 3.496090 
# 
# 
# High freq. dielectric constant tensor:
#      x y z
#    x 1.767980 0.000000 0.000000 
#    y 0.000000 1.782990 0.000000 
#    z 0.000000 0.000000 1.770800 
# 
# From -- ./inp_files/6093.got.cif
#   From: 2010.03.12/outbox.cif.g09.slc.cpg/sg46_4_cif.got.tgz:6093.got - 2010.04.14 02:56:35.
