data_PCOD8193672
_publ_section_title
;
Structure prediction by ZEFSAII (Michael W. Deem and Ramdas Pophale) SiO2 
 PCOD8193672
Probable space group: P M M M
;
_chemical_formula_sum "Si O2"
_cell_formula_units_Z 52
_cell_length_a 7.953873
_cell_length_b 14.494100
_cell_length_c 24.896377
_cell_angle_alpha 90.000000
_cell_angle_beta 90.000000
_cell_angle_gamma 90.000000
_cell_volume 2870.159668
_symmetry_space_group_name_H-M "P M M M"
_symmetry_group_IT_number 47
_symmetry_cell_setting 'orthorhombic'
loop_
_space_group_symop_operation_xyz
x,y,z
-x,-y,z
x,-y,-z
-x,y,-z
-x,-y,-z
x,y,-z
-x,y,z
x,-y,z
loop_
_atom_site_type_symbol
_atom_site_label
_atom_site_fract_x
_atom_site_fract_y
_atom_site_fract_z
Si Si1 0.303270 0.396639 0.604190
Si Si2 0.500000 0.890544 0.940029
Si Si3 0.189584 0.892960 0.131477
Si Si4 0.693457 0.898407 0.340460
Si Si5 0.700188 0.792900 0.236045
Si Si6 0.807822 0.786982 0.559544
Si Si7 0.300758 0.400236 0.274795
O O1 0.500000 0.374136 0.602194
O O2 0.266987 0.500000 0.582614
O O3 0.208695 0.322947 0.567386
O O4 0.233293 0.386536 0.664794
O O5 0.670113 0.856107 0.910376
O O6 0.500000 0.000000 0.943126
O O7 0.500000 0.848309 0.000000
O O8 0.204896 0.837798 0.186513
O O9 0.000000 0.878632 0.108279
O O10 0.223449 0.000000 0.144164
O O11 0.500000 0.911819 0.327726
O O12 0.768878 0.840887 0.290530
O O13 0.707373 0.843854 0.396105
O O14 0.779341 0.000000 0.344272
O O15 0.500000 0.803559 0.229159
O O16 0.756599 0.685149 0.237778
O O17 0.739535 0.811961 0.500000
O O18 0.000000 0.816335 0.564586
O O19 0.500000 0.401638 0.278412
O O20 0.236763 0.500000 0.251965
#
# Coordination Sequence:
#
# PCOD8193672 Si02
#       7
#     8   4   8   8   8   8   8
#     4   9  17  33  56  76  93 117 155 202 251 306
#     4   9  18  34  54  76 109 151 190 228 264 299
#     4  10  20  32  49  77 111 147 186 224 262 305
#     4  10  21  36  55  76  94 121 164 212 261 310
#     4  10  17  30  53  76 105 137 165 209 263 312
#     4  11  24  38  50  67  95 128 161 203 255 314
#     4   8  14  26  48  76 101 127 160 199 251 313
#
# _framework density 18.117459
#
# number of rings (size 3 to 8) (size 9 to 14) (size 15 to 20)
#    0.000    2.385    2.308    1.846    0.000    4.000 
#    0.000    4.615    0.000    0.462    0.000    0.000 
#    0.000    1.231    0.000    1.385    0.000    0.154 
#
# Total GULP energy -644505.864783 kJ/mol
# GULP energy per Si atom -12394.343554 kJ/mol
# Density = 1.807622 g / cm^3
# Si number density = 18.117459 Si / 1000 Ang^3
#
#
#
# Elastic Constant Matrix: (Units=GPa)
#
#
# Indices 1 2 3 4 5 6 
#
# 1 57.0096 21.2622 33.6486 0.0000 0.0000 0.0000
# 2 21.2622 108.0729 46.1877 0.0000 0.0000 0.0000
# 3 33.6486 46.1877 114.2826 0.0000 0.0000 0.0000
# 4 0.0000 0.0000 0.0000 14.6294 0.0000 0.0000
# 5 0.0000 0.0000 0.0000 0.0000 8.6755 0.0000
# 6 0.0000 0.0000 0.0000 0.0000 0.0000 11.3901
#
#
#
# Elastic Compliance Matrix: (Units=1/GPa)
#
#
# Indices 1 2 3 4 5 6 
#
# 1 0.021531 -0.001845 -0.005593 0.000000 0.000000 0.000000
# 2 -0.001845 0.011343 -0.004041 0.000000 0.000000 0.000000
# 3 -0.005593 -0.004041 0.012030 0.000000 0.000000 0.000000
# 4 0.000000 0.000000 0.000000 0.068355 0.000000 0.000000
# 5 0.000000 0.000000 0.000000 0.000000 0.115267 0.000000
# 6 0.000000 0.000000 0.000000 0.000000 0.000000 0.087796
#
#
# Mechanical properties :
#
#
# Convention : Reuss Voigt Hill
#
# Bulk Modulus (GPa) = 45.57007 53.50690 49.53848
# Shear Modulus (GPa) = 14.42599 18.82344 16.62471
#
# Velocity S-wave (km/s) = 2.82485 3.22680 3.03249
# Velocity P-wave (km/s) = 5.98722 6.59397 6.29791
#
# Compressibility (1/GPa) = 0.02194423
#
# Stress axis : x y z
#
# Youngs Moduli (GPa) = 46.44556 88.15924 83.12324
#
# Poissons Ratio (x) = 0.16269 0.46495
# Poissons Ratio (y) = 0.08571 0.33590
# Poissons Ratio (z) = 0.25979 0.35625
#
# Static dielectric constant tensor:
#      x y z
#    x 3.156830 0.000000 0.000000 
#    y 0.000000 3.643870 0.000000 
#    z 0.000000 0.000000 3.171460 
# 
# 
# High freq. dielectric constant tensor:
#      x y z
#    x 1.688030 0.000000 0.000000 
#    y 0.000000 1.696360 0.000000 
#    z 0.000000 0.000000 1.668120 
# 
# From -- ./inp_files/29586.got.cif
#   From: 2010.03.12/outbox.cif.g09.slc.cpg/sg47_15_cif.got.tgz:29586.got - 2010.04.14 03:12:58.
