data_PCOD8193370
_publ_section_title
;
Structure prediction by ZEFSAII (Michael W. Deem and Ramdas Pophale) SiO2 
 PCOD8193370
Probable space group: I M A 2
;
_chemical_formula_sum "Si O2"
_cell_formula_units_Z 56
_cell_length_a 21.225340
_cell_length_b 8.635096
_cell_length_c 14.394322
_cell_angle_alpha 90.000000
_cell_angle_beta 90.000000
_cell_angle_gamma 90.000000
_cell_volume 2638.232339
_symmetry_space_group_name_H-M "I M A 2"
_symmetry_group_IT_number 46
_symmetry_cell_setting 'orthorhombic'
loop_
_space_group_symop_operation_xyz
x,y,z
-x,-y,z
1/2-x,y,z
1/2+x,-y,z
1/2+x,1/2+y,1/2+z
1/2-x,1/2-y,1/2+z
-x,1/2+y,1/2+z
x,1/2-y,1/2+z
loop_
_atom_site_type_symbol
_atom_site_label
_atom_site_fract_x
_atom_site_fract_y
_atom_site_fract_z
Si Si1 0.823541 0.153777 0.626940
Si Si2 0.616915 0.319093 0.465909
Si Si3 0.483138 0.174049 0.456658
Si Si4 0.319808 0.366671 0.451863
Si Si5 0.322497 0.648166 0.801876
Si Si6 0.377143 0.184202 0.603055
Si Si7 0.116009 0.327420 0.802085
O O1 0.750000 0.136077 0.602595
O O2 0.856568 0.289745 0.568599
O O3 0.833201 0.207012 0.732972
O O4 0.859626 0.995782 0.604611
O O5 0.542810 0.287506 0.456260
O O6 0.628774 0.497697 0.440807
O O7 0.656784 0.202661 0.402796
O O8 0.437398 0.224752 0.539748
O O9 0.450515 0.180967 0.355627
O O10 0.500000 0.000000 0.480409
O O11 0.250000 0.437576 0.440781
O O12 0.322103 0.282514 0.552698
O O13 0.330645 0.244142 0.369065
O O14 0.250000 0.595726 0.802074
O O15 0.365355 0.501852 0.774961
O O16 0.390383 0.232954 0.707681
#
# Coordination Sequence:
#
# PCOD8193370 Si02
#       7
#     8   8   8   8   8   8   8
#     4  11  23  39  64  96 129 170 218 271 331 395
#     4  12  23  42  66  91 130 168 221 271 326 394
#     4  11  23  47  66  92 130 172 222 274 321 387
#     4  11  24  42  68 101 135 173 217 275 344 407
#     4  11  23  39  64  96 129 170 218 271 331 395
#     4  11  24  43  66  95 131 175 219 274 335 393
#     4  11  24  43  66  95 131 175 219 274 335 393
#
# _framework density 21.226333
#
# number of rings (size 3 to 8) (size 9 to 14) (size 15 to 20)
#    0.000    0.857    2.857    4.714    0.000    8.000 
#    5.143    0.000    0.000    0.000    0.000    0.000 
#    0.000    0.000    0.000    0.000    0.000    0.000 
#
# Total GULP energy -347303.931088 kJ/mol
# GULP energy per Si atom -12403.711825 kJ/mol
# Density = 2.117802 g / cm^3
# Si number density = 21.226333 Si / 1000 Ang^3
#
#
#
# Elastic Constant Matrix: (Units=GPa)
#
#
# Indices 1 2 3 4 5 6 
#
# 1 123.4470 38.3485 42.3070 0.0000 0.0000 0.0000
# 2 38.3485 103.4069 13.7397 0.0000 0.0000 0.0000
# 3 42.3070 13.7397 108.0799 0.0000 0.0000 0.0000
# 4 0.0000 0.0000 0.0000 38.9618 0.0000 0.0000
# 5 0.0000 0.0000 0.0000 0.0000 22.3575 0.0000
# 6 0.0000 0.0000 0.0000 0.0000 0.0000 37.1177
#
#
#
# Elastic Compliance Matrix: (Units=1/GPa)
#
#
# Indices 1 2 3 4 5 6 
#
# 1 0.010396 -0.003372 -0.003641 0.000000 0.000000 0.000000
# 2 -0.003372 0.010930 -0.000070 0.000000 0.000000 0.000000
# 3 -0.003641 -0.000070 0.010686 0.000000 0.000000 0.000000
# 4 0.000000 0.000000 0.000000 0.025666 0.000000 0.000000
# 5 0.000000 0.000000 0.000000 0.000000 0.044728 0.000000
# 6 0.000000 0.000000 0.000000 0.000000 0.000000 0.026941
#
#
# Mechanical properties :
#
#
# Convention : Reuss Voigt Hill
#
# Bulk Modulus (GPa) = 56.02774 58.19160 57.10967
# Shear Modulus (GPa) = 33.45358 35.72331 34.58845
#
# Velocity S-wave (km/s) = 3.97425 4.10685 4.04109
# Velocity P-wave (km/s) = 6.89291 7.06843 6.98122
#
# Compressibility (1/GPa) = 0.01784830
#
# Stress axis : x y z
#
# Youngs Moduli (GPa) = 96.19344 91.49020 93.57681
#
# Poissons Ratio (x) = 0.30846 0.34069
# Poissons Ratio (y) = 0.32432 0.00653
# Poissons Ratio (z) = 0.35021 0.00638
#
# Static dielectric constant tensor:
#      x y z
#    x 3.921170 0.000000 0.000000 
#    y 0.000000 3.840870 0.000000 
#    z 0.000000 0.000000 3.853230 
# 
# 
# High freq. dielectric constant tensor:
#      x y z
#    x 1.832240 0.000000 0.000000 
#    y 0.000000 1.841570 0.000000 
#    z 0.000000 0.000000 1.838880 
# 
# From -- ./inp_files/17098.got.cif
#   From: 2010.03.12/outbox.cif.g09.slc.cpg/sg46_9_cif.got.tgz:17098.got - 2010.04.14 02:56:35.
