data_PCOD8193932
_publ_section_title
;
Structure prediction by ZEFSAII (Michael W. Deem and Ramdas Pophale) SiO2 
 PCOD8193932
Probable space group: P M M M
;
_chemical_formula_sum "Si O2"
_cell_formula_units_Z 56
_cell_length_a 19.116943
_cell_length_b 9.162747
_cell_length_c 19.212125
_cell_angle_alpha 90.000000
_cell_angle_beta 90.000000
_cell_angle_gamma 90.000000
_cell_volume 3365.267133
_symmetry_space_group_name_H-M "P M M M"
_symmetry_group_IT_number 47
_symmetry_cell_setting 'orthorhombic'
loop_
_space_group_symop_operation_xyz
x,y,z
-x,-y,z
x,-y,-z
-x,y,-z
-x,-y,-z
x,y,-z
-x,y,z
x,-y,z
loop_
_atom_site_type_symbol
_atom_site_label
_atom_site_fract_x
_atom_site_fract_y
_atom_site_fract_z
Si Si1 0.294594 0.171511 0.576444
Si Si2 0.578829 0.170923 0.330509
Si Si3 0.147355 0.172233 0.076714
Si Si4 0.660656 0.330543 0.221112
Si Si5 0.076728 0.173118 0.215062
Si Si6 0.709732 0.666122 0.076251
Si Si7 0.787042 0.172242 0.292090
O O1 0.284105 0.244208 0.500000
O O2 0.367442 0.227711 0.610380
O O3 0.229316 0.210874 0.626940
O O4 0.300091 0.000000 0.567059
O O5 0.500000 0.206997 0.354517
O O6 0.595288 0.252833 0.258250
O O7 0.589429 0.000000 0.316930
O O8 0.096863 0.231290 0.137835
O O9 0.224329 0.232082 0.089207
O O10 0.153533 0.000000 0.082228
O O11 0.118648 0.218687 0.000000
O O12 0.660934 0.500000 0.241706
O O13 0.653188 0.307214 0.137606
O O14 0.733708 0.259234 0.243883
O O15 0.134208 0.222452 0.272450
O O16 0.000000 0.236860 0.234829
O O17 0.073206 0.000000 0.213686
O O18 0.736844 0.500000 0.079974
O O19 0.675850 0.698311 0.000000
O O20 0.776144 0.000000 0.278455
#
# Coordination Sequence:
#
# PCOD8193932 Si02
#       7
#     8   8   8   8   8   8   8
#     4   8  14  25  44  69  91 113 143 176 208 247
#     4   9  18  31  47  68  93 119 143 169 206 254
#     4   9  16  25  39  59  82 110 145 183 221 262
#     4  10  18  28  46  67  87 114 147 182 217 254
#     4   9  16  25  39  60  86 116 148 184 224 261
#     4   9  17  28  42  61  85 112 143 181 222 259
#     4   9  16  28  45  63  86 114 147 184 219 259
#
# _framework density 16.640581999999998
#
# number of rings (size 3 to 8) (size 9 to 14) (size 15 to 20)
#    0.000    3.000    1.429    1.286    0.000    1.429 
#    0.000    2.857    0.000    9.429    0.000   12.000 
#    0.000    0.000    0.000    5.143    0.000    5.714 
#
# Total GULP energy -693832.664658 kJ/mol
# GULP energy per Si atom -12389.869012 kJ/mol
# Density = 1.660271 g / cm^3
# Si number density = 16.640582 Si / 1000 Ang^3
#
#
#
# Elastic Constant Matrix: (Units=GPa)
#
#
# Indices 1 2 3 4 5 6 
#
# 1 94.4120 14.4605 67.1422 0.0000 0.0000 0.0000
# 2 14.4605 23.8557 20.4453 0.0000 0.0000 0.0000
# 3 67.1422 20.4453 143.2422 0.0000 0.0000 0.0000
# 4 0.0000 0.0000 0.0000 13.9156 0.0000 0.0000
# 5 0.0000 0.0000 0.0000 0.0000 19.6144 0.0000
# 6 0.0000 0.0000 0.0000 0.0000 0.0000 5.2302
#
#
#
# Elastic Compliance Matrix: (Units=1/GPa)
#
#
# Indices 1 2 3 4 5 6 
#
# 1 0.016180 -0.003769 -0.007046 0.000000 0.000000 0.000000
# 2 -0.003769 0.048639 -0.005176 0.000000 0.000000 0.000000
# 3 -0.007046 -0.005176 0.011023 0.000000 0.000000 0.000000
# 4 0.000000 0.000000 0.000000 0.071862 0.000000 0.000000
# 5 0.000000 0.000000 0.000000 0.000000 0.050983 0.000000
# 6 0.000000 0.000000 0.000000 0.000000 0.000000 0.191197
#
#
# Mechanical properties :
#
#
# Convention : Reuss Voigt Hill
#
# Bulk Modulus (GPa) = 22.79971 51.73397 37.26684
# Shear Modulus (GPa) = 11.45512 18.38283 14.91897
#
# Velocity S-wave (km/s) = 2.62655 3.32731 2.99748
# Velocity P-wave (km/s) = 4.78847 6.77627 5.86716
#
# Compressibility (1/GPa) = 0.04386020
#
# Stress axis : x y z
#
# Youngs Moduli (GPa) = 61.80424 20.55956 90.72185
#
# Poissons Ratio (x) = 0.07749 0.63924
# Poissons Ratio (y) = 0.23294 0.46955
# Poissons Ratio (z) = 0.43548 0.10641
#
# Static dielectric constant tensor:
#      x y z
#    x 3.125060 0.000000 0.000000 
#    y 0.000000 2.883890 0.000000 
#    z 0.000000 0.000000 3.554670 
# 
# 
# High freq. dielectric constant tensor:
#      x y z
#    x 1.613230 0.000000 0.000000 
#    y 0.000000 1.611660 0.000000 
#    z 0.000000 0.000000 1.645630 
# 
# From -- ./inp_files/9801.got.cif
#   From: 2010.03.12/outbox.cif.g09.slc.cpg/sg47_5_cif.got.tgz:9801.got - 2010.04.14 03:12:58.
