data_PCOD8193104
_publ_section_title
;
Structure prediction by ZEFSAII (Michael W. Deem and Ramdas Pophale) SiO2 
 PCOD8193104
Probable space group: I M A 2
;
_chemical_formula_sum "Si O2"
_cell_formula_units_Z 40
_cell_length_a 8.723384
_cell_length_b 9.191160
_cell_length_c 26.056813
_cell_angle_alpha 90.000000
_cell_angle_beta 90.000000
_cell_angle_gamma 90.000000
_cell_volume 2089.183624
_symmetry_space_group_name_H-M "I M A 2"
_symmetry_group_IT_number 46
_symmetry_cell_setting 'orthorhombic'
loop_
_space_group_symop_operation_xyz
x,y,z
-x,-y,z
1/2-x,y,z
1/2+x,-y,z
1/2+x,1/2+y,1/2+z
1/2-x,1/2-y,1/2+z
-x,1/2+y,1/2+z
x,1/2-y,1/2+z
loop_
_atom_site_type_symbol
_atom_site_label
_atom_site_fract_x
_atom_site_fract_y
_atom_site_fract_z
Si Si1 0.931157 0.341446 0.361670
Si Si2 0.568526 0.661301 0.769462
Si Si3 0.429060 0.841802 0.054914
Si Si4 0.430067 0.842952 0.460788
Si Si5 0.429387 0.657916 0.667415
O O1 0.750000 0.349508 0.353488
O O2 0.977147 0.253929 0.412414
O O3 0.000000 0.500000 0.367690
O O4 0.007396 0.263737 0.313654
O O5 0.500000 0.500000 0.775525
O O6 0.750000 0.651711 0.772022
O O7 0.515189 0.735031 0.715211
O O8 0.250000 0.863956 0.046067
O O9 0.460262 0.770266 0.111438
O O10 0.500000 0.000000 0.048159
O O11 0.497056 0.732672 0.012255
O O12 0.250000 0.861391 0.465139
O O13 0.500000 0.000000 0.453345
O O14 0.500000 0.500000 0.662981
O O15 0.250000 0.649382 0.680125
#
# Coordination Sequence:
#
# PCOD8193104 Si02
#       5
#     8   8   8   8   8
#     4  11  23  39  58  81 109 141 180 224 273 327
#     4  11  21  35  56  82 112 145 184 226 270 319
#     4   9  18  33  54  81 110 141 178 221 266 315
#     4  10  22  38  56  80 109 141 178 220 267 320
#     4   9  16  29  51  78 109 142 179 221 265 315
#
# _framework density 19.146235000000001
#
# number of rings (size 3 to 8) (size 9 to 14) (size 15 to 20)
#    0.000    2.000    0.000    5.400    0.000    4.800 
#    0.000    1.000    0.000    2.400    0.000    0.000 
#    0.000    0.000    0.000    0.000    0.000    0.000 
#
# Total GULP energy -247915.739533 kJ/mol
# GULP energy per Si atom -12395.786977 kJ/mol
# Density = 1.910266 g / cm^3
# Si number density = 19.146235 Si / 1000 Ang^3
#
#
#
# Elastic Constant Matrix: (Units=GPa)
#
#
# Indices 1 2 3 4 5 6 
#
# 1 95.2335 53.8683 75.8754 0.0000 0.0000 0.0000
# 2 53.8683 118.6746 85.0704 0.0000 0.0000 0.0000
# 3 75.8754 85.0704 197.0970 0.0000 0.0000 0.0000
# 4 0.0000 0.0000 0.0000 35.4675 0.0000 0.0000
# 5 0.0000 0.0000 0.0000 0.0000 101.3605 0.0000
# 6 0.0000 0.0000 0.0000 0.0000 0.0000 28.5733
#
#
#
# Elastic Compliance Matrix: (Units=1/GPa)
#
#
# Indices 1 2 3 4 5 6 
#
# 1 0.016507 -0.004254 -0.004519 0.000000 0.000000 0.000000
# 2 -0.004254 0.013298 -0.004102 0.000000 0.000000 0.000000
# 3 -0.004519 -0.004102 0.008584 0.000000 0.000000 0.000000
# 4 0.000000 0.000000 0.000000 0.028195 0.000000 0.000000
# 5 0.000000 0.000000 0.000000 0.000000 0.009866 0.000000
# 6 0.000000 0.000000 0.000000 0.000000 0.000000 0.034998
#
#
# Mechanical properties :
#
#
# Convention : Reuss Voigt Hill
#
# Bulk Modulus (GPa) = 79.11632 93.40370 86.26001
# Shear Modulus (GPa) = 35.35879 46.15965 40.75922
#
# Velocity S-wave (km/s) = 4.30207 4.91542 4.61894
# Velocity P-wave (km/s) = 8.12951 9.00585 8.57888
#
# Compressibility (1/GPa) = 0.01263962
#
# Stress axis : x y z
#
# Youngs Moduli (GPa) = 60.58206 75.20141 116.50081
#
# Poissons Ratio (x) = 0.31987 0.52641
# Poissons Ratio (y) = 0.25769 0.47789
# Poissons Ratio (z) = 0.27374 0.30848
#
# Static dielectric constant tensor:
#      x y z
#    x 3.564630 0.000000 0.000000 
#    y 0.000000 3.183400 0.000000 
#    z 0.000000 0.000000 4.501270 
# 
# 
# High freq. dielectric constant tensor:
#      x y z
#    x 1.751280 0.000000 0.000000 
#    y 0.000000 1.713700 0.000000 
#    z 0.000000 0.000000 1.775140 
# 
# From -- ./inp_files/22737.got.cif
#   From: 2010.03.12/outbox.cif.g09.slc.cpg/sg46_12_cif.got.tgz:22737.got - 2010.04.14 02:56:35.
