data_PCOD8193853
_publ_section_title
;
Structure prediction by ZEFSAII (Michael W. Deem and Ramdas Pophale) SiO2 
 PCOD8193853
Probable space group: P M M M
;
_chemical_formula_sum "Si O2"
_cell_formula_units_Z 40
_cell_length_a 9.705012
_cell_length_b 20.898695
_cell_length_c 13.952206
_cell_angle_alpha 90.000000
_cell_angle_beta 90.000000
_cell_angle_gamma 90.000000
_cell_volume 2829.815522
_symmetry_space_group_name_H-M "P M M M"
_symmetry_group_IT_number 47
_symmetry_cell_setting 'orthorhombic'
loop_
_space_group_symop_operation_xyz
x,y,z
-x,-y,z
x,-y,-z
-x,y,-z
-x,-y,-z
x,y,-z
-x,y,z
x,-y,z
loop_
_atom_site_type_symbol
_atom_site_label
_atom_site_fract_x
_atom_site_fract_y
_atom_site_fract_z
Si Si1 0.341616 0.926103 0.609920
Si Si2 0.837909 0.121321 0.773110
Si Si3 0.836608 0.000000 0.106628
Si Si4 0.345350 0.637113 0.114553
Si Si5 0.840505 0.247429 0.110659
Si Si6 0.336532 0.500000 0.104863
O O1 0.318560 0.906268 0.500000
O O2 0.500000 0.915281 0.639559
O O3 0.243704 0.880988 0.673225
O O4 0.300127 0.000000 0.625125
O O5 0.799160 0.186106 0.827582
O O6 0.000000 0.116430 0.751807
O O7 0.785165 0.062955 0.838620
O O8 0.000000 0.000000 0.099619
O O9 0.772499 0.000000 0.000000
O O10 0.500000 0.653245 0.149730
O O11 0.244391 0.692417 0.151774
O O12 0.295684 0.567337 0.156794
O O13 0.341665 0.632697 0.000000
O O14 0.000000 0.264435 0.122266
O O15 0.803994 0.232886 0.000000
O O16 0.500000 0.500000 0.092801
O O17 0.266553 0.500000 0.000000
#
# Coordination Sequence:
#
# PCOD8193853 Si02
#       6
#     8   8   4   8   8   4
#     4   9  18  32  47  61  78  98 119 153 206 255
#     4  10  18  28  43  61  77 100 134 167 195 228
#     4   9  16  26  40  57  76 100 133 167 194 221
#     4   8  13  22  36  52  70  97 133 167 196 227
#     4   9  17  27  37  53  80 109 134 162 196 231
#     4   7  10  18  33  51  69  91 126 169 200 221
#
# _framework density 14.135197
#
# number of rings (size 3 to 8) (size 9 to 14) (size 15 to 20)
#    0.000    3.200    1.000    2.400    0.000    3.600 
#    0.000    1.500    0.000    5.400    0.000    0.000 
#    0.000    0.000    0.000    0.900    0.000   17.700 
#
# Total GULP energy -495701.685488 kJ/mol
# GULP energy per Si atom -12392.542137 kJ/mol
# Density = 1.410302 g / cm^3
# Si number density = 14.135197 Si / 1000 Ang^3
#
#
#
# Elastic Constant Matrix: (Units=GPa)
#
#
# Indices 1 2 3 4 5 6 
#
# 1 50.1724 54.1213 32.7956 0.0000 0.0000 0.0000
# 2 54.1213 134.6020 40.6334 0.0000 0.0000 0.0000
# 3 32.7956 40.6334 56.8599 0.0000 0.0000 0.0000
# 4 0.0000 0.0000 0.0000 4.1746 0.0000 0.0000
# 5 0.0000 0.0000 0.0000 0.0000 17.8249 0.0000
# 6 0.0000 0.0000 0.0000 0.0000 0.0000 24.4582
#
#
#
# Elastic Compliance Matrix: (Units=1/GPa)
#
#
# Indices 1 2 3 4 5 6 
#
# 1 0.044768 -0.013013 -0.016522 0.000000 0.000000 0.000000
# 2 -0.013013 0.013255 -0.001967 0.000000 0.000000 0.000000
# 3 -0.016522 -0.001967 0.028522 0.000000 0.000000 0.000000
# 4 0.000000 0.000000 0.000000 0.239543 0.000000 0.000000
# 5 0.000000 0.000000 0.000000 0.000000 0.056101 0.000000
# 6 0.000000 0.000000 0.000000 0.000000 0.000000 0.040886
#
#
# Mechanical properties :
#
#
# Convention : Reuss Voigt Hill
#
# Bulk Modulus (GPa) = 42.47733 55.19274 48.83504
# Shear Modulus (GPa) = 10.12295 16.89714 13.51005
#
# Velocity S-wave (km/s) = 2.67901 3.46120 3.09491
# Velocity P-wave (km/s) = 6.29964 7.42323 6.88439
#
# Compressibility (1/GPa) = 0.02354197
#
# Stress axis : x y z
#
# Youngs Moduli (GPa) = 22.33732 75.44095 35.06030
#
# Poissons Ratio (x) = 0.98171 0.57927
# Poissons Ratio (y) = 0.29067 0.06896
# Poissons Ratio (z) = 0.36906 0.14839
#
# Static dielectric constant tensor:
#      x y z
#    x 2.637630 0.000000 0.000000 
#    y 0.000000 3.000630 0.000000 
#    z 0.000000 0.000000 2.461310 
# 
# 
# High freq. dielectric constant tensor:
#      x y z
#    x 1.526050 0.000000 0.000000 
#    y 0.000000 1.541510 0.000000 
#    z 0.000000 0.000000 1.493520 
# 
# From -- ./inp_files/6630.got.cif
#   From: 2010.03.12/outbox.cif.g09.slc.cpg/sg47_4_cif.got.tgz:6630.got - 2010.04.14 03:12:58.
