data_PCOD8193815
_publ_section_title
;
Structure prediction by ZEFSAII (Michael W. Deem and Ramdas Pophale) SiO2 
 PCOD8193815
Probable space group: P M M M
;
_chemical_formula_sum "Si O2"
_cell_formula_units_Z 56
_cell_length_a 14.552430
_cell_length_b 23.247351
_cell_length_c 9.235978
_cell_angle_alpha 90.000000
_cell_angle_beta 90.000000
_cell_angle_gamma 90.000000
_cell_volume 3124.581676
_symmetry_space_group_name_H-M "P M M M"
_symmetry_group_IT_number 47
_symmetry_cell_setting 'orthorhombic'
loop_
_space_group_symop_operation_xyz
x,y,z
-x,-y,z
x,-y,-z
-x,y,-z
-x,-y,-z
x,y,-z
-x,y,z
x,-y,z
loop_
_atom_site_type_symbol
_atom_site_label
_atom_site_fract_x
_atom_site_fract_y
_atom_site_fract_z
Si Si1 0.717358 0.330659 0.331190
Si Si2 0.394949 0.761608 0.164684
Si Si3 0.771803 0.065484 0.665718
Si Si4 0.396482 0.563636 0.327960
Si Si5 0.394907 0.894225 0.834230
Si Si6 0.896837 0.728633 0.667608
Si Si7 0.892693 0.156035 0.833169
O O1 0.696251 0.330604 0.500000
O O2 0.668179 0.275250 0.268082
O O3 0.676132 0.389838 0.264112
O O4 0.826682 0.324139 0.299917
O O5 0.500000 0.752841 0.211762
O O6 0.366350 0.827767 0.182317
O O7 0.380555 0.741480 0.000000
O O8 0.770464 0.086573 0.500000
O O9 0.669154 0.068638 0.729919
O O10 0.840743 0.104265 0.756758
O O11 0.806378 0.000000 0.676573
O O12 0.391687 0.562158 0.500000
O O13 0.500000 0.580457 0.278627
O O14 0.371116 0.500000 0.267815
O O15 0.500000 0.904026 0.786565
O O16 0.381352 0.913944 0.000000
O O17 0.891167 0.747081 0.500000
O O18 0.866593 0.783246 0.761797
O O19 0.000000 0.708015 0.708062
O O20 0.000000 0.143629 0.815586
O O21 0.862197 0.158686 0.000000
#
# Coordination Sequence:
#
# PCOD8193815 Si02
#       7
#     8   8   8   8   8   8   8
#     4  10  18  27  45  71  94 122 163 202 233 276
#     4   9  18  31  46  68  98 125 148 184 239 292
#     4  11  24  38  52  73 100 129 161 198 242 292
#     4   8  14  25  41  63  93 127 163 204 243 275
#     4   9  19  36  55  73  96 129 166 202 242 289
#     4   9  18  32  49  71 100 128 152 188 243 297
#     4  10  21  37  57  78  98 123 158 199 242 292
#
# _framework density 17.922398000000001
#
# number of rings (size 3 to 8) (size 9 to 14) (size 15 to 20)
#    0.000    2.571    0.000    3.429    0.000    7.143 
#    0.000    4.286    0.000    0.857    0.000    5.000 
#    0.000    0.000    0.000    4.857    0.000    5.286 
#
# Total GULP energy -694293.125948 kJ/mol
# GULP energy per Si atom -12398.091535 kJ/mol
# Density = 1.788161 g / cm^3
# Si number density = 17.922398 Si / 1000 Ang^3
#
#
#
# Elastic Constant Matrix: (Units=GPa)
#
#
# Indices 1 2 3 4 5 6 
#
# 1 92.4121 63.7027 40.1851 0.0000 0.0000 0.0000
# 2 63.7027 90.0309 39.1993 0.0000 0.0000 0.0000
# 3 40.1851 39.1993 65.0010 0.0000 0.0000 0.0000
# 4 0.0000 0.0000 0.0000 6.5863 0.0000 0.0000
# 5 0.0000 0.0000 0.0000 0.0000 24.6083 0.0000
# 6 0.0000 0.0000 0.0000 0.0000 0.0000 27.7899
#
#
#
# Elastic Compliance Matrix: (Units=1/GPa)
#
#
# Indices 1 2 3 4 5 6 
#
# 1 0.022673 -0.013479 -0.005889 0.000000 0.000000 0.000000
# 2 -0.013479 0.023075 -0.005583 0.000000 0.000000 0.000000
# 3 -0.005889 -0.005583 0.022392 0.000000 0.000000 0.000000
# 4 0.000000 0.000000 0.000000 0.151831 0.000000 0.000000
# 5 0.000000 0.000000 0.000000 0.000000 0.040637 0.000000
# 6 0.000000 0.000000 0.000000 0.000000 0.000000 0.035984
#
#
# Mechanical properties :
#
#
# Convention : Reuss Voigt Hill
#
# Bulk Modulus (GPa) = 54.82573 59.29091 57.05832
# Shear Modulus (GPa) = 14.18153 18.75402 16.46778
#
# Velocity S-wave (km/s) = 2.81601 3.23832 3.03452
# Velocity P-wave (km/s) = 6.42108 6.86558 6.64704
#
# Compressibility (1/GPa) = 0.01823961
#
# Stress axis : x y z
#
# Youngs Moduli (GPa) = 44.10517 43.33667 44.65977
#
# Poissons Ratio (x) = 0.58413 0.26298
# Poissons Ratio (y) = 0.59449 0.24932
# Poissons Ratio (z) = 0.25971 0.24194
#
# Static dielectric constant tensor:
#      x y z
#    x 3.491470 0.000000 0.000000 
#    y 0.000000 3.346470 0.000000 
#    z 0.000000 0.000000 3.195330 
# 
# 
# High freq. dielectric constant tensor:
#      x y z
#    x 1.699740 0.000000 0.000000 
#    y 0.000000 1.678090 0.000000 
#    z 0.000000 0.000000 1.678380 
# 
# From -- ./inp_files/7253.got.cif
#   From: 2010.03.12/outbox.cif.g09.slc.cpg/sg47_4_cif.got.tgz:7253.got - 2010.04.14 03:12:58.
