data_PCOD8193746
_publ_section_title
;
Structure prediction by ZEFSAII (Michael W. Deem and Ramdas Pophale) SiO2 
 PCOD8193746
Probable space group: P M M M
;
_chemical_formula_sum "Si O2"
_cell_formula_units_Z 48
_cell_length_a 12.699630
_cell_length_b 14.342296
_cell_length_c 18.250782
_cell_angle_alpha 90.000000
_cell_angle_beta 90.000000
_cell_angle_gamma 90.000000
_cell_volume 3324.231244
_symmetry_space_group_name_H-M "P M M M"
_symmetry_group_IT_number 47
_symmetry_cell_setting 'orthorhombic'
loop_
_space_group_symop_operation_xyz
x,y,z
-x,-y,z
x,-y,-z
-x,y,-z
-x,-y,-z
x,y,-z
-x,y,z
x,-y,z
loop_
_atom_site_type_symbol
_atom_site_label
_atom_site_fract_x
_atom_site_fract_y
_atom_site_fract_z
Si Si1 0.500000 0.111358 0.324530
Si Si2 0.305246 0.107678 0.583034
Si Si3 0.124247 0.602047 0.581830
Si Si4 0.877421 0.789065 0.347268
Si Si5 0.290170 0.110512 0.918344
Si Si6 0.500000 0.888853 0.841379
Si Si7 0.879087 0.107345 0.198884
O O1 0.604371 0.150656 0.364582
O O2 0.500000 0.148583 0.241623
O O3 0.500000 0.000000 0.329086
O O4 0.341460 0.124589 0.500000
O O5 0.191931 0.153284 0.595856
O O6 0.290827 0.000000 0.600902
O O7 0.167112 0.627388 0.500000
O O8 0.168753 0.500000 0.606028
O O9 0.155363 0.680502 0.641727
O O10 0.000000 0.596116 0.577387
O O11 0.851983 0.823589 0.265431
O O12 0.000000 0.806352 0.366296
O O13 0.397153 0.150250 0.882668
O O14 0.190552 0.140658 0.869584
O O15 0.297384 0.000000 0.922653
O O16 0.276583 0.152353 0.000000
O O17 0.500000 0.000000 0.840777
O O18 0.000000 0.116492 0.174846
O O19 0.852894 0.000000 0.221440
#
# Coordination Sequence:
#
# PCOD8193746 Si02
#       7
#     4   8   8   8   8   4   8
#     4   9  17  29  41  51  70 103 140 171 193 220
#     4  10  19  28  38  53  75 105 139 169 194 224
#     4   8  14  25  40  57  77 100 126 159 200 241
#     4  10  18  27  40  58  80 103 129 163 201 237
#     4   9  16  25  37  53  73  97 127 161 192 223
#     4   9  15  23  37  53  67  88 122 163 202 228
#     4   9  17  27  37  51  75 107 136 157 182 223
#
# _framework density 14.439429000000001
#
# number of rings (size 3 to 8) (size 9 to 14) (size 15 to 20)
#    0.000    2.833    0.000    3.000    0.000    7.000 
#    0.000    2.500    0.000    0.000    0.000    0.583 
#    0.000    3.333    0.000    6.500    0.000    6.500 
#
# Total GULP energy -594917.208253 kJ/mol
# GULP energy per Si atom -12394.108505 kJ/mol
# Density = 1.440656 g / cm^3
# Si number density = 14.439429 Si / 1000 Ang^3
#
#
#
# Elastic Constant Matrix: (Units=GPa)
#
#
# Indices 1 2 3 4 5 6 
#
# 1 72.1743 33.1780 47.1262 0.0000 0.0000 0.0000
# 2 33.1780 49.9885 55.5385 0.0000 0.0000 0.0000
# 3 47.1262 55.5385 102.1684 0.0000 0.0000 0.0000
# 4 0.0000 0.0000 0.0000 8.6703 0.0000 0.0000
# 5 0.0000 0.0000 0.0000 0.0000 25.8979 0.0000
# 6 0.0000 0.0000 0.0000 0.0000 0.0000 4.6698
#
#
#
# Elastic Compliance Matrix: (Units=1/GPa)
#
#
# Indices 1 2 3 4 5 6 
#
# 1 0.021031 -0.008031 -0.005335 0.000000 0.000000 0.000000
# 2 -0.008031 0.053577 -0.025420 0.000000 0.000000 0.000000
# 3 -0.005335 -0.025420 0.026067 0.000000 0.000000 0.000000
# 4 0.000000 0.000000 0.000000 0.115336 0.000000 0.000000
# 5 0.000000 0.000000 0.000000 0.000000 0.038613 0.000000
# 6 0.000000 0.000000 0.000000 0.000000 0.000000 0.214144
#
#
# Mechanical properties :
#
#
# Convention : Reuss Voigt Hill
#
# Bulk Modulus (GPa) = 43.28512 55.11297 49.19905
# Shear Modulus (GPa) = 9.02461 13.74683 11.38572
#
# Velocity S-wave (km/s) = 2.50271 3.08885 2.81110
# Velocity P-wave (km/s) = 6.19625 7.13951 6.68454
#
# Compressibility (1/GPa) = 0.02310263
#
# Stress axis : x y z
#
# Youngs Moduli (GPa) = 47.54971 18.66462 38.36288
#
# Poissons Ratio (x) = 0.14990 0.20466
# Poissons Ratio (y) = 0.38187 0.97519
# Poissons Ratio (z) = 0.25367 0.47446
#
# Static dielectric constant tensor:
#      x y z
#    x 2.842960 0.000000 0.000000 
#    y 0.000000 2.661660 0.000000 
#    z 0.000000 0.000000 2.929550 
# 
# 
# High freq. dielectric constant tensor:
#      x y z
#    x 1.550420 0.000000 0.000000 
#    y 0.000000 1.492640 0.000000 
#    z 0.000000 0.000000 1.552550 
# 
# From -- ./inp_files/23704.got.cif
#   From: 2010.03.12/outbox.cif.g09.slc.cpg/sg47_12_cif.got.tgz:23704.got - 2010.04.14 03:12:58.
