data_PCOD8193059
_publ_section_title
;
Structure prediction by ZEFSAII (Michael W. Deem and Ramdas Pophale) SiO2 
 PCOD8193059
Probable space group: I M A 2
;
_chemical_formula_sum "Si O2"
_cell_formula_units_Z 36
_cell_length_a 20.913510
_cell_length_b 15.664456
_cell_length_c 4.825739
_cell_angle_alpha 90.000000
_cell_angle_beta 90.000000
_cell_angle_gamma 90.000000
_cell_volume 1580.906099
_symmetry_space_group_name_H-M "I M A 2"
_symmetry_group_IT_number 46
_symmetry_cell_setting 'orthorhombic'
loop_
_space_group_symop_operation_xyz
x,y,z
-x,-y,z
1/2-x,y,z
1/2+x,-y,z
1/2+x,1/2+y,1/2+z
1/2-x,1/2-y,1/2+z
-x,1/2+y,1/2+z
x,1/2-y,1/2+z
loop_
_atom_site_type_symbol
_atom_site_label
_atom_site_fract_x
_atom_site_fract_y
_atom_site_fract_z
Si Si1 0.677408 0.964533 0.529120
Si Si2 0.142232 0.930817 0.031609
Si Si3 0.609075 0.694927 0.301875
Si Si4 0.750000 0.193555 0.104127
Si Si5 0.960392 0.193631 0.825551
O O1 0.750000 0.945664 0.431066
O O2 0.648244 0.883661 0.685364
O O3 0.678387 0.038388 0.757413
O O4 0.634957 0.993142 0.260738
O O5 0.186597 0.859837 0.174793
O O6 0.074677 0.891788 0.931734
O O7 0.626380 0.721864 0.614648
O O8 0.534754 0.670233 0.309934
O O9 0.750000 0.220970 0.784589
O O10 0.941748 0.225365 0.519290
#
# Coordination Sequence:
#
# PCOD8193059 Si02
#       5
#     8   8   8   4   8
#     4  12  24  42  63  94 137 171 213 276 335 400
#     4  12  23  40  62  94 134 173 211 270 333 394
#     4  10  23  43  67  92 121 167 223 276 330 390
#     4  12  22  36  60  90 126 176 218 248 314 394
#     4  10  21  41  64  91 126 166 219 270 314 385
#
# _framework density 22.771749
#
# number of rings (size 3 to 8) (size 9 to 14) (size 15 to 20)
#    0.000    0.889    2.222    5.333    0.000    1.778 
#    0.000    2.222    0.000    0.000    0.000    0.000 
#    0.000    0.000    0.000    0.000    0.000    0.000 
#
# Total GULP energy -223170.683541 kJ/mol
# GULP energy per Si atom -12398.371308 kJ/mol
# Density = 2.271992 g / cm^3
# Si number density = 22.771749 Si / 1000 Ang^3
#
#
#
# Elastic Constant Matrix: (Units=GPa)
#
#
# Indices 1 2 3 4 5 6 
#
# 1 93.9090 52.2184 31.1341 0.0000 0.0000 0.0000
# 2 52.2184 82.2968 15.6308 0.0000 0.0000 0.0000
# 3 31.1341 15.6308 98.3871 0.0000 0.0000 0.0000
# 4 0.0000 0.0000 0.0000 46.5398 0.0000 0.0000
# 5 0.0000 0.0000 0.0000 0.0000 32.1034 0.0000
# 6 0.0000 0.0000 0.0000 0.0000 0.0000 24.1889
#
#
#
# Elastic Compliance Matrix: (Units=1/GPa)
#
#
# Indices 1 2 3 4 5 6 
#
# 1 0.017839 -0.010565 -0.003966 0.000000 0.000000 0.000000
# 2 -0.010565 0.018787 0.000359 0.000000 0.000000 0.000000
# 3 -0.003966 0.000359 0.011362 0.000000 0.000000 0.000000
# 4 0.000000 0.000000 0.000000 0.021487 0.000000 0.000000
# 5 0.000000 0.000000 0.000000 0.000000 0.031149 0.000000
# 6 0.000000 0.000000 0.000000 0.000000 0.000000 0.041341
#
#
# Mechanical properties :
#
#
# Convention : Reuss Voigt Hill
#
# Bulk Modulus (GPa) = 50.91311 52.50659 51.70985
# Shear Modulus (GPa) = 28.27117 32.27373 30.27245
#
# Velocity S-wave (km/s) = 3.52732 3.76875 3.65003
# Velocity P-wave (km/s) = 6.24467 6.48427 6.36560
#
# Compressibility (1/GPa) = 0.01964131
#
# Stress axis : x y z
#
# Youngs Moduli (GPa) = 56.05832 53.22844 88.01198
#
# Poissons Ratio (x) = 0.56238 0.34909
# Poissons Ratio (y) = 0.59228 -0.03157
# Poissons Ratio (z) = 0.22235 -0.01909
#
# Static dielectric constant tensor:
#      x y z
#    x 3.850700 0.000000 0.000000 
#    y 0.000000 3.871130 0.000000 
#    z 0.000000 0.000000 4.398270 
# 
# 
# High freq. dielectric constant tensor:
#      x y z
#    x 1.883410 0.000000 0.000000 
#    y 0.000000 1.889830 0.000000 
#    z 0.000000 0.000000 1.921890 
# 
# From -- ./inp_files/1956.got.cif
#   From: 2010.03.12/outbox.cif.g09.slc.cpg/sg46_1_cif.got.tgz:1956.got - 2010.04.14 02:56:35.
