data_PCOD8193335
_publ_section_title
;
Structure prediction by ZEFSAII (Michael W. Deem and Ramdas Pophale) SiO2 
 PCOD8193335
Probable space group: I M A 2
;
_chemical_formula_sum "Si O2"
_cell_formula_units_Z 32
_cell_length_a 9.006283
_cell_length_b 15.056881
_cell_length_c 13.555776
_cell_angle_alpha 90.000000
_cell_angle_beta 90.000000
_cell_angle_gamma 90.000000
_cell_volume 1838.251764
_symmetry_space_group_name_H-M "I M A 2"
_symmetry_group_IT_number 46
_symmetry_cell_setting 'orthorhombic'
loop_
_space_group_symop_operation_xyz
x,y,z
-x,-y,z
1/2-x,y,z
1/2+x,-y,z
1/2+x,1/2+y,1/2+z
1/2-x,1/2-y,1/2+z
-x,1/2+y,1/2+z
x,1/2-y,1/2+z
loop_
_atom_site_type_symbol
_atom_site_label
_atom_site_fract_x
_atom_site_fract_y
_atom_site_fract_z
Si Si1 0.577808 0.906810 0.563130
Si Si2 0.916655 0.087660 0.945266
Si Si3 0.422069 0.245054 0.413503
Si Si4 0.416869 0.673140 0.248304
O O1 0.750000 0.923125 0.586041
O O2 0.553841 0.849688 0.464333
O O3 0.508216 0.853385 0.653053
O O4 0.500000 0.000000 0.545266
O O5 0.750000 0.088283 0.988977
O O6 0.912083 0.090021 0.825028
O O7 0.000000 0.000000 0.982838
O O8 0.004505 0.176372 0.981033
O O9 0.250000 0.267792 0.399842
O O10 0.501642 0.244863 0.305597
O O11 0.250000 0.701572 0.218175
#
# Coordination Sequence:
#
# PCOD8193335 Si02
#       4
#     8   8   8   8
#     4  11  22  34  54  81 109 142 178 221 265 314
#     4   9  17  28  47  73  99 133 167 207 257 304
#     4   9  19  34  50  74 107 140 175 218 267 315
#     4   9  19  32  51  76 104 137 171 214 262 309
#
# _framework density 17.407844000000001
#
# number of rings (size 3 to 8) (size 9 to 14) (size 15 to 20)
#    1.500    1.000    0.000    3.000    0.000    6.000 
#    0.000    0.000    0.000    1.500    0.000    7.000 
#    0.000    0.000    0.000    0.000    0.000    0.000 
#
# Total GULP energy -198229.783748 kJ/mol
# GULP energy per Si atom -12389.361484 kJ/mol
# Density = 1.736822 g / cm^3
# Si number density = 17.407844 Si / 1000 Ang^3
#
#
#
# Elastic Constant Matrix: (Units=GPa)
#
#
# Indices 1 2 3 4 5 6 
#
# 1 176.4151 68.3773 51.6260 0.0000 0.0000 0.0000
# 2 68.3773 74.2610 52.7650 0.0000 0.0000 0.0000
# 3 51.6260 52.7650 47.3062 0.0000 0.0000 0.0000
# 4 0.0000 0.0000 0.0000 22.6690 0.0000 0.0000
# 5 0.0000 0.0000 0.0000 0.0000 22.4906 0.0000
# 6 0.0000 0.0000 0.0000 0.0000 0.0000 31.6109
#
#
#
# Elastic Compliance Matrix: (Units=1/GPa)
#
#
# Indices 1 2 3 4 5 6 
#
# 1 0.008888 -0.006227 -0.002754 0.000000 0.000000 0.000000
# 2 -0.006227 0.069267 -0.070465 0.000000 0.000000 0.000000
# 3 -0.002754 -0.070465 0.102741 0.000000 0.000000 0.000000
# 4 0.000000 0.000000 0.000000 0.044113 0.000000 0.000000
# 5 0.000000 0.000000 0.000000 0.000000 0.044463 0.000000
# 6 0.000000 0.000000 0.000000 0.000000 0.000000 0.031635
#
#
# Mechanical properties :
#
#
# Convention : Reuss Voigt Hill
#
# Bulk Modulus (GPa) = 45.44599 71.50211 58.47405
# Shear Modulus (GPa) = 10.69900 23.70169 17.20035
#
# Velocity S-wave (km/s) = 2.48182 3.69392 3.14678
# Velocity P-wave (km/s) = 5.86309 7.70437 6.84592
#
# Compressibility (1/GPa) = 0.02200414
#
# Stress axis : x y z
#
# Youngs Moduli (GPa) = 112.51273 14.43686 9.73322
#
# Poissons Ratio (x) = 0.08989 0.02681
# Poissons Ratio (y) = 0.70058 0.68585
# Poissons Ratio (z) = 0.30989 1.01729
#
# Static dielectric constant tensor:
#      x y z
#    x 3.425650 0.000000 0.000000 
#    y 0.000000 3.004260 0.000000 
#    z 0.000000 0.000000 2.832160 
# 
# 
# High freq. dielectric constant tensor:
#      x y z
#    x 1.698290 0.000000 0.000000 
#    y 0.000000 1.651030 0.000000 
#    z 0.000000 0.000000 1.629320 
# 
# From -- ./inp_files/8899.got.cif
#   From: 2010.03.12/outbox.cif.g09.slc.cpg/sg46_5_cif.got.tgz:8899.got - 2010.04.14 02:56:35.
