data_PCOD8193231
_publ_section_title
;
Structure prediction by ZEFSAII (Michael W. Deem and Ramdas Pophale) SiO2 
 PCOD8193231
Probable space group: I M A 2
;
_chemical_formula_sum "Si O2"
_cell_formula_units_Z 48
_cell_length_a 16.616276
_cell_length_b 9.909180
_cell_length_c 13.506896
_cell_angle_alpha 90.000000
_cell_angle_beta 90.000000
_cell_angle_gamma 90.000000
_cell_volume 2223.959994
_symmetry_space_group_name_H-M "I M A 2"
_symmetry_group_IT_number 46
_symmetry_cell_setting 'orthorhombic'
loop_
_space_group_symop_operation_xyz
x,y,z
-x,-y,z
1/2-x,y,z
1/2+x,-y,z
1/2+x,1/2+y,1/2+z
1/2-x,1/2-y,1/2+z
-x,1/2+y,1/2+z
x,1/2-y,1/2+z
loop_
_atom_site_type_symbol
_atom_site_label
_atom_site_fract_x
_atom_site_fract_y
_atom_site_fract_z
Si Si1 0.842342 0.103717 0.264170
Si Si2 0.659524 0.342781 0.399168
Si Si3 0.938794 0.612118 0.045264
Si Si4 0.910765 0.947962 0.762481
Si Si5 0.844273 0.819296 0.354510
Si Si6 0.048128 0.634196 0.583247
O O1 0.750000 0.121558 0.233169
O O2 0.860835 0.191633 0.362264
O O3 0.894518 0.163247 0.175529
O O4 0.862165 0.948047 0.285747
O O5 0.750000 0.349900 0.440648
O O6 0.652249 0.446795 0.307993
O O7 0.599351 0.386009 0.484612
O O8 0.895701 0.556948 0.144573
O O9 0.000000 0.500000 0.001946
O O10 0.987104 0.744100 0.075133
O O11 0.870424 0.647701 0.966367
O O12 0.897557 0.801742 0.811707
O O13 0.000000 0.000000 0.787861
O O14 0.750000 0.781759 0.354985
O O15 0.000000 0.500000 0.604687
#
# Coordination Sequence:
#
# PCOD8193231 Si02
#       6
#     8   8   8   8   8   8
#     4  10  23  42  63  89 121 159 203 250 302 360
#     4  11  23  40  63  89 121 159 200 250 303 360
#     4  11  24  40  63  92 123 161 204 253 306 363
#     4  11  23  41  62  90 124 160 204 250 303 363
#     4  11  24  42  65  92 125 164 205 254 308 365
#     4  12  24  39  62  90 121 159 201 249 303 361
#
# _framework density 21.583123000000001
#
# number of rings (size 3 to 8) (size 9 to 14) (size 15 to 20)
#    0.000    1.000    0.000    7.500    0.000    4.667 
#    0.000    6.667    0.000    0.000    0.000    0.000 
#    0.000    0.000    0.000    0.000    0.000    0.000 
#
# Total GULP energy -297757.679924 kJ/mol
# GULP energy per Si atom -12406.569997 kJ/mol
# Density = 2.153400 g / cm^3
# Si number density = 21.583123 Si / 1000 Ang^3
#
#
#
# Elastic Constant Matrix: (Units=GPa)
#
#
# Indices 1 2 3 4 5 6 
#
# 1 52.4544 2.3810 28.7171 0.0000 0.0000 0.0000
# 2 2.3810 73.6520 -17.5714 0.0000 0.0000 0.0000
# 3 28.7171 -17.5714 84.2431 0.0000 0.0000 0.0000
# 4 0.0000 0.0000 0.0000 29.8099 0.0000 0.0000
# 5 0.0000 0.0000 0.0000 0.0000 49.9649 0.0000
# 6 0.0000 0.0000 0.0000 0.0000 0.0000 28.6355
#
#
#
# Elastic Compliance Matrix: (Units=1/GPa)
#
#
# Indices 1 2 3 4 5 6 
#
# 1 0.024002 -0.002871 -0.008780 0.000000 0.000000 0.000000
# 2 -0.002871 0.014632 0.004030 0.000000 0.000000 0.000000
# 3 -0.008780 0.004030 0.015704 0.000000 0.000000 0.000000
# 4 0.000000 0.000000 0.000000 0.033546 0.000000 0.000000
# 5 0.000000 0.000000 0.000000 0.000000 0.020014 0.000000
# 6 0.000000 0.000000 0.000000 0.000000 0.000000 0.034922
#
#
# Mechanical properties :
#
#
# Convention : Reuss Voigt Hill
#
# Bulk Modulus (GPa) = 25.57807 26.37808 25.97808
# Shear Modulus (GPa) = 29.22396 34.80360 32.01378
#
# Velocity S-wave (km/s) = 3.68369 4.02000 3.85551
# Velocity P-wave (km/s) = 5.47444 5.81338 5.64645
#
# Compressibility (1/GPa) = 0.03909599
#
# Stress axis : x y z
#
# Youngs Moduli (GPa) = 41.66405 68.34459 63.67726
#
# Poissons Ratio (x) = 0.19620 0.55912
# Poissons Ratio (y) = 0.11961 -0.25665
# Poissons Ratio (z) = 0.36583 -0.27546
#
# Static dielectric constant tensor:
#      x y z
#    x 3.829580 0.000000 0.000000 
#    y 0.000000 4.073320 0.000000 
#    z 0.000000 0.000000 3.876290 
# 
# 
# High freq. dielectric constant tensor:
#      x y z
#    x 1.848740 0.000000 0.000000 
#    y 0.000000 1.866820 0.000000 
#    z 0.000000 0.000000 1.849790 
# 
# From -- ./inp_files/16529.got.cif
#   From: 2010.03.12/outbox.cif.g09.slc.cpg/sg46_9_cif.got.tgz:16529.got - 2010.04.14 02:56:35.
