data_PCOD8193991
_publ_section_title
;
Structure prediction by ZEFSAII (Michael W. Deem and Ramdas Pophale) SiO2 
 PCOD8193991
Probable space group: P M M M
;
_chemical_formula_sum "Si O2"
_cell_formula_units_Z 40
_cell_length_a 15.736477
_cell_length_b 9.439298
_cell_length_c 19.589759
_cell_angle_alpha 90.000000
_cell_angle_beta 90.000000
_cell_angle_gamma 90.000000
_cell_volume 2909.888188
_symmetry_space_group_name_H-M "P M M M"
_symmetry_group_IT_number 47
_symmetry_cell_setting 'orthorhombic'
loop_
_space_group_symop_operation_xyz
x,y,z
-x,-y,z
x,-y,-z
-x,y,-z
-x,-y,-z
x,y,-z
-x,y,z
x,-y,z
loop_
_atom_site_type_symbol
_atom_site_label
_atom_site_fract_x
_atom_site_fract_y
_atom_site_fract_z
Si Si1 0.849347 0.833215 0.349028
Si Si2 0.097671 0.163029 0.800086
Si Si3 0.318473 0.831256 0.423781
Si Si4 0.000000 0.665471 0.580775
Si Si5 0.898972 0.339949 0.074795
Si Si6 0.500000 0.155409 0.418824
O O1 0.851938 0.799824 0.268672
O O2 0.756376 0.783668 0.373464
O O3 0.917335 0.741057 0.389351
O O4 0.867000 0.000000 0.363119
O O5 0.139150 0.246572 0.863771
O O6 0.000000 0.206466 0.787428
O O7 0.105529 0.000000 0.819385
O O8 0.297061 0.775545 0.500000
O O9 0.410474 0.768039 0.398075
O O10 0.326564 0.000000 0.425375
O O11 0.000000 0.500000 0.601415
O O12 0.000000 0.685101 0.500000
O O13 0.868432 0.500000 0.086422
O O14 0.000000 0.329870 0.076594
O O15 0.867199 0.286512 0.000000
O O16 0.500000 0.140573 0.500000
O O17 0.500000 0.000000 0.384776
#
# Coordination Sequence:
#
# PCOD8193991 Si02
#       6
#     8   8   8   4   8   4
#     4  10  18  29  42  56  74 100 132 160 188 227
#     4   9  16  25  35  50  72  95 122 154 183 214
#     4   8  13  21  36  56  75  96 122 155 194 229
#     4  11  23  33  39  51  72  99 132 169 201 222
#     4   8  14  24  37  52  68  89 120 152 180 215
#     4   7  10  18  32  54  79  93 110 149 196 234
#
# _framework density 13.746231999999999
#
# number of rings (size 3 to 8) (size 9 to 14) (size 15 to 20)
#    0.000    3.200    1.000    2.700    0.000    2.800 
#    0.000    2.000    0.000    0.000    0.000    0.700 
#    0.000    4.000    0.000    0.900    0.000   22.000 
#
# Total GULP energy -495541.024317 kJ/mol
# GULP energy per Si atom -12388.525608 kJ/mol
# Density = 1.371495 g / cm^3
# Si number density = 13.746232 Si / 1000 Ang^3
#
#
#
# Elastic Constant Matrix: (Units=GPa)
#
#
# Indices 1 2 3 4 5 6 
#
# 1 98.3400 29.5959 54.8587 0.0000 0.0000 0.0000
# 2 29.5959 42.3498 42.9287 0.0000 0.0000 0.0000
# 3 54.8587 42.9287 111.3766 0.0000 0.0000 0.0000
# 4 0.0000 0.0000 0.0000 20.0793 0.0000 0.0000
# 5 0.0000 0.0000 0.0000 0.0000 4.4828 0.0000
# 6 0.0000 0.0000 0.0000 0.0000 0.0000 3.0577
#
#
#
# Elastic Compliance Matrix: (Units=1/GPa)
#
#
# Indices 1 2 3 4 5 6 
#
# 1 0.014588 -0.004778 -0.005344 0.000000 0.000000 0.000000
# 2 -0.004778 0.040319 -0.013187 0.000000 0.000000 0.000000
# 3 -0.005344 -0.013187 0.016693 0.000000 0.000000 0.000000
# 4 0.000000 0.000000 0.000000 0.049803 0.000000 0.000000
# 5 0.000000 0.000000 0.000000 0.000000 0.223074 0.000000
# 6 0.000000 0.000000 0.000000 0.000000 0.000000 0.327044
#
#
# Mechanical properties :
#
#
# Convention : Reuss Voigt Hill
#
# Bulk Modulus (GPa) = 40.02717 56.31477 48.17097
# Shear Modulus (GPa) = 6.88263 13.83616 10.35940
#
# Velocity S-wave (km/s) = 2.24004 3.17605 2.74819
# Velocity P-wave (km/s) = 5.98934 7.38282 6.72229
#
# Compressibility (1/GPa) = 0.02498303
#
# Stress axis : x y z
#
# Youngs Moduli (GPa) = 68.55126 24.80199 59.90383
#
# Poissons Ratio (x) = 0.11850 0.32010
# Poissons Ratio (y) = 0.32752 0.78997
# Poissons Ratio (z) = 0.36631 0.32707
#
# Static dielectric constant tensor:
#      x y z
#    x 2.802400 0.000000 0.000000 
#    y 0.000000 2.558620 0.000000 
#    z 0.000000 0.000000 2.866420 
# 
# 
# High freq. dielectric constant tensor:
#      x y z
#    x 1.491950 0.000000 0.000000 
#    y 0.000000 1.498890 0.000000 
#    z 0.000000 0.000000 1.516800 
# 
# From -- ./inp_files/30721.got.cif
#   From: 2010.03.12/outbox.cif.g09.slc.cpg/sg47_16_cif.got.tgz:30721.got - 2010.04.14 03:12:58.
