data_PCOD8193340
_publ_section_title
;
Structure prediction by ZEFSAII (Michael W. Deem and Ramdas Pophale) SiO2 
 PCOD8193340
Probable space group: I M A 2
;
_chemical_formula_sum "Si O2"
_cell_formula_units_Z 48
_cell_length_a 8.441507
_cell_length_b 20.137978
_cell_length_c 14.332630
_cell_angle_alpha 90.000000
_cell_angle_beta 90.000000
_cell_angle_gamma 90.000000
_cell_volume 2436.473749
_symmetry_space_group_name_H-M "I M A 2"
_symmetry_group_IT_number 46
_symmetry_cell_setting 'orthorhombic'
loop_
_space_group_symop_operation_xyz
x,y,z
-x,-y,z
1/2-x,y,z
1/2+x,-y,z
1/2+x,1/2+y,1/2+z
1/2-x,1/2-y,1/2+z
-x,1/2+y,1/2+z
x,1/2-y,1/2+z
loop_
_atom_site_type_symbol
_atom_site_label
_atom_site_fract_x
_atom_site_fract_y
_atom_site_fract_z
Si Si1 0.568354 0.180751 0.948500
Si Si2 0.068183 0.868600 0.637747
Si Si3 0.932894 0.774286 0.134479
Si Si4 0.565865 0.696255 0.842874
Si Si5 0.565684 0.929669 0.822343
Si Si6 0.433916 0.571450 0.940862
O O1 0.750000 0.161366 0.932513
O O2 0.535629 0.251828 0.902124
O O3 0.460045 0.124147 0.903254
O O4 0.533963 0.185700 0.058397
O O5 0.250000 0.844963 0.641810
O O6 0.036388 0.916019 0.550115
O O7 0.958707 0.804401 0.628284
O O8 0.027528 0.909577 0.729607
O O9 0.750000 0.788940 0.114760
O O10 0.986604 0.800186 0.235370
O O11 0.750000 0.714545 0.854171
O O12 0.532014 0.623028 0.879212
O O13 0.750000 0.934547 0.798779
O O14 0.500000 0.000000 0.858162
O O15 0.500000 0.500000 0.913908
O O16 0.250000 0.576966 0.914963
#
# Coordination Sequence:
#
# PCOD8193340 Si02
#       6
#     8   8   8   8   8   8
#     4  12  24  40  64  92 125 164 208 257 308 369
#     4  11  22  37  61  94 129 164 204 254 312 369
#     4  11  23  39  63  94 126 162 207 258 309 361
#     4  11  23  40  64  91 123 163 207 255 307 366
#     4  12  25  42  63  91 127 167 209 258 315 375
#     4  11  24  40  61  90 126 166 206 254 309 368
#
# _framework density 19.700603000000001
#
# number of rings (size 3 to 8) (size 9 to 14) (size 15 to 20)
#    0.000    0.667    3.333    5.500    0.000    5.333 
#    0.000    0.833    0.000    4.000    0.000    0.000 
#    0.000    0.000    0.000    0.000    0.000    0.000 
#
# Total GULP energy -297811.000962 kJ/mol
# GULP energy per Si atom -12408.791707 kJ/mol
# Density = 1.965576 g / cm^3
# Si number density = 19.700603 Si / 1000 Ang^3
#
#
#
# Elastic Constant Matrix: (Units=GPa)
#
#
# Indices 1 2 3 4 5 6 
#
# 1 67.5406 3.7810 29.2146 0.0000 0.0000 0.0000
# 2 3.7810 103.0116 29.8436 0.0000 0.0000 0.0000
# 3 29.2146 29.8436 108.5894 0.0001 0.0000 0.0000
# 4 0.0000 0.0000 0.0001 26.1870 0.0000 0.0000
# 5 0.0000 0.0000 0.0000 0.0000 24.5663 0.0000
# 6 0.0000 0.0000 0.0000 0.0000 0.0000 33.5639
#
#
#
# Elastic Compliance Matrix: (Units=1/GPa)
#
#
# Indices 1 2 3 4 5 6 
#
# 1 0.016809 0.000753 -0.004729 0.000000 0.000000 0.000000
# 2 0.000753 0.010581 -0.003111 0.000000 0.000000 0.000000
# 3 -0.004729 -0.003111 0.011336 0.000000 0.000000 0.000000
# 4 0.000000 0.000000 0.000000 0.038187 0.000000 0.000000
# 5 0.000000 0.000000 0.000000 0.000000 0.040706 0.000000
# 6 0.000000 0.000000 0.000000 0.000000 0.000000 0.029794
#
#
# Mechanical properties :
#
#
# Convention : Reuss Voigt Hill
#
# Bulk Modulus (GPa) = 40.72788 44.97998 42.85393
# Shear Modulus (GPa) = 29.45127 31.28360 30.36744
#
# Velocity S-wave (km/s) = 3.87064 3.98923 3.93039
# Velocity P-wave (km/s) = 6.37920 6.64078 6.51130
#
# Compressibility (1/GPa) = 0.02455321
#
# Stress axis : x y z
#
# Youngs Moduli (GPa) = 59.49047 94.50734 88.21239
#
# Poissons Ratio (x) = -0.07118 0.41719
# Poissons Ratio (y) = -0.04481 0.27440
# Poissons Ratio (z) = 0.28135 0.29398
#
# Static dielectric constant tensor:
#      x y z
#    x 3.649500 0.000000 0.000000 
#    y 0.000000 3.576370 0.000000 
#    z 0.000000 0.000000 3.686420 
# 
# 
# High freq. dielectric constant tensor:
#      x y z
#    x 1.782550 0.000000 0.000000 
#    y 0.000000 1.762420 0.000000 
#    z 0.000000 0.000000 1.770870 
# 
# From -- ./inp_files/13900.got.cif
#   From: 2010.03.12/outbox.cif.g09.slc.cpg/sg46_7_cif.got.tgz:13900.got - 2010.04.14 02:56:35.
