data_PCOD8193016
_publ_section_title
;
Structure prediction by ZEFSAII (Michael W. Deem and Ramdas Pophale) SiO2 
 PCOD8193016
Probable space group: I M A 2
;
_chemical_formula_sum "Si O2"
_cell_formula_units_Z 64
_cell_length_a 17.327795
_cell_length_b 14.588595
_cell_length_c 12.016015
_cell_angle_alpha 90.000000
_cell_angle_beta 90.000000
_cell_angle_gamma 90.000000
_cell_volume 3037.506605
_symmetry_space_group_name_H-M "I M A 2"
_symmetry_group_IT_number 46
_symmetry_cell_setting 'orthorhombic'
loop_
_space_group_symop_operation_xyz
x,y,z
-x,-y,z
1/2-x,y,z
1/2+x,-y,z
1/2+x,1/2+y,1/2+z
1/2-x,1/2-y,1/2+z
-x,1/2+y,1/2+z
x,1/2-y,1/2+z
loop_
_atom_site_type_symbol
_atom_site_label
_atom_site_fract_x
_atom_site_fract_y
_atom_site_fract_z
Si Si1 0.839621 0.581152 0.187910
Si Si2 0.967032 0.595563 0.757461
Si Si3 0.570765 0.845107 0.488409
Si Si4 0.161068 0.635686 0.515875
Si Si5 0.337082 0.437905 0.600157
Si Si6 0.573439 0.430626 0.300307
Si Si7 0.340410 0.318857 0.399397
Si Si8 0.949578 0.258851 0.141422
O O1 0.750000 0.590994 0.157579
O O2 0.890220 0.587772 0.077211
O O3 0.854432 0.484398 0.247081
O O4 0.869584 0.659557 0.274220
O O5 0.882231 0.604370 0.704473
O O6 0.000000 0.500000 0.712241
O O7 0.020255 0.678754 0.720353
O O8 0.964483 0.592551 0.891240
O O9 0.635886 0.782261 0.432793
O O10 0.506983 0.778743 0.539944
O O11 0.250000 0.654449 0.477628
O O12 0.158677 0.547608 0.596237
O O13 0.102947 0.615956 0.413696
O O14 0.130538 0.723770 0.585452
O O15 0.250000 0.403231 0.616990
O O16 0.372578 0.395340 0.485884
O O17 0.500000 0.500000 0.316084
O O18 0.555738 0.350282 0.213626
O O19 0.250000 0.329104 0.398555
#
# Coordination Sequence:
#
# PCOD8193016 Si02
#       8
#     8   8   8   8   8   8   8   8
#     4  11  24  44  70  99 137 184 230 287 359 422
#     4  12  26  43  68  97 135 179 220 283 343 414
#     4  12  25  41  64 101 141 178 228 279 347 420
#     4  11  25  45  72 102 138 181 239 296 351 422
#     4  10  21  41  68  99 130 170 222 277 340 410
#     4  12  26  44  72 106 139 185 242 302 351 423
#     4  10  21  39  67 101 133 168 223 285 343 412
#     4  12  26  45  70 103 134 184 234 286 352 412
#
# _framework density 21.069911999999999
#
# number of rings (size 3 to 8) (size 9 to 14) (size 15 to 20)
#    0.000    0.750    5.000    2.250    5.250    2.000 
#    0.000    0.000    0.000    0.000    0.000    0.000 
#    0.000    0.000    0.000    0.000    0.000    0.000 
#
# Total GULP energy -396800.624241 kJ/mol
# GULP energy per Si atom -12400.019508 kJ/mol
# Density = 2.102196 g / cm^3
# Si number density = 21.069912 Si / 1000 Ang^3
#
#
#
# Elastic Constant Matrix: (Units=GPa)
#
#
# Indices 1 2 3 4 5 6 
#
# 1 80.0941 29.1082 53.1941 0.0000 0.0000 0.0000
# 2 29.1082 78.6110 25.7375 0.0000 0.0000 0.0000
# 3 53.1941 25.7375 116.0816 0.0000 0.0000 0.0000
# 4 0.0000 0.0000 0.0000 34.2270 0.0000 0.0000
# 5 0.0000 0.0000 0.0000 0.0000 26.7913 0.0000
# 6 0.0000 0.0000 0.0000 0.0000 0.0000 34.0606
#
#
#
# Elastic Compliance Matrix: (Units=1/GPa)
#
#
# Indices 1 2 3 4 5 6 
#
# 1 0.019378 -0.004602 -0.007859 0.000000 0.000000 0.000000
# 2 -0.004602 0.014810 -0.001175 0.000000 0.000000 0.000000
# 3 -0.007859 -0.001175 0.012477 0.000000 0.000000 0.000000
# 4 0.000000 0.000000 0.000000 0.029217 0.000000 0.000000
# 5 0.000000 0.000000 0.000000 0.000000 0.037326 0.000000
# 6 0.000000 0.000000 0.000000 0.000000 0.000000 0.029359
#
#
# Mechanical properties :
#
#
# Convention : Reuss Voigt Hill
#
# Bulk Modulus (GPa) = 51.56879 54.54071 53.05475
# Shear Modulus (GPa) = 28.36055 30.13225 29.24640
#
# Velocity S-wave (km/s) = 3.67280 3.78578 3.72972
# Velocity P-wave (km/s) = 6.52029 6.71203 6.61685
#
# Compressibility (1/GPa) = 0.01939157
#
# Stress axis : x y z
#
# Youngs Moduli (GPa) = 51.60614 67.52422 80.14996
#
# Poissons Ratio (x) = 0.31074 0.62993
# Poissons Ratio (y) = 0.23749 0.09415
# Poissons Ratio (z) = 0.40559 0.07932
#
# Static dielectric constant tensor:
#      x y z
#    x 3.845600 0.000000 0.000000 
#    y 0.000000 3.743180 0.000000 
#    z 0.000000 0.000000 3.886610 
# 
# 
# High freq. dielectric constant tensor:
#      x y z
#    x 1.826360 0.000000 0.000000 
#    y 0.000000 1.822660 0.000000 
#    z 0.000000 0.000000 1.829740 
# 
# From -- ./inp_files/11959.got.cif
#   From: 2010.03.12/outbox.cif.g09.slc.cpg/sg46_6_cif.got.tgz:11959.got - 2010.04.14 02:56:35.
