data_PCOD8193475
_publ_section_title
;
Structure prediction by ZEFSAII (Michael W. Deem and Ramdas Pophale) SiO2 
 PCOD8193475
Probable space group: P M M M
;
_chemical_formula_sum "Si O2"
_cell_formula_units_Z 48
_cell_length_a 21.844932
_cell_length_b 11.401200
_cell_length_c 12.496721
_cell_angle_alpha 90.000000
_cell_angle_beta 90.000000
_cell_angle_gamma 90.000000
_cell_volume 3112.413821
_symmetry_space_group_name_H-M "P M M M"
_symmetry_group_IT_number 47
_symmetry_cell_setting 'orthorhombic'
loop_
_space_group_symop_operation_xyz
x,y,z
-x,-y,z
x,-y,-z
-x,y,-z
-x,-y,-z
x,y,-z
-x,y,z
x,-y,z
loop_
_atom_site_type_symbol
_atom_site_label
_atom_site_fract_x
_atom_site_fract_y
_atom_site_fract_z
Si Si1 0.256802 0.136569 0.121506
Si Si2 0.072251 0.135564 0.000000
Si Si3 0.378469 0.257322 0.873546
Si Si4 0.500000 0.865588 0.872003
Si Si5 0.928902 0.133787 0.623448
Si Si6 0.859487 0.746795 0.805013
Si Si7 0.325212 0.500000 0.127362
Si Si8 0.816538 0.500000 0.127844
O O1 0.324816 0.168090 0.159646
O O2 0.208489 0.200096 0.196728
O O3 0.246783 0.000000 0.129573
O O4 0.246220 0.182272 0.000000
O O5 0.098844 0.195129 0.104835
O O6 0.000000 0.151251 0.000000
O O7 0.091995 0.000000 0.000000
O O8 0.441249 0.204697 0.825843
O O9 0.361570 0.386286 0.828106
O O10 0.385419 0.264826 0.000000
O O11 0.500000 0.000000 0.829966
O O12 0.500000 0.867087 0.000000
O O13 0.912042 0.152919 0.500000
O O14 0.889586 0.226475 0.690742
O O15 0.000000 0.159107 0.643885
O O16 0.913606 0.000000 0.658012
O O17 0.853594 0.608894 0.823951
O O18 0.254489 0.500000 0.165943
O O19 0.325178 0.500000 0.000000
O O20 0.820285 0.500000 0.000000
#
# Coordination Sequence:
#
# PCOD8193475 Si02
#       8
#     8   4   8   4   8   8   4   4
#     4  10  17  25  40  64  90 115 153 199 242 287
#     4  11  22  33  47  71  99 119 147 198 249 293
#     4   9  16  25  37  54  79 116 157 194 233 275
#     4   9  16  25  35  51  79 114 154 201 244 273
#     4   9  19  37  58  76  95 121 155 198 247 296
#     4  12  20  32  50  71  94 128 162 196 240 291
#     4   9  16  27  40  54  80 120 161 197 230 271
#     4  11  20  34  46  66 101 136 162 197 239 289
#
# _framework density 15.422113
#
# number of rings (size 3 to 8) (size 9 to 14) (size 15 to 20)
#    0.000    2.000    3.333    3.000    0.000    3.667 
#    0.000    4.167    0.000    1.000    0.000    0.000 
#    0.000    0.000    0.000    0.750    0.000   10.250 
#
# Total GULP energy -595136.904846 kJ/mol
# GULP energy per Si atom -12398.685518 kJ/mol
# Density = 1.538701 g / cm^3
# Si number density = 15.422113 Si / 1000 Ang^3
#
#
#
# Elastic Constant Matrix: (Units=GPa)
#
#
# Indices 1 2 3 4 5 6 
#
# 1 104.3317 64.9064 36.6968 0.0000 0.0000 0.0000
# 2 64.9064 120.5007 33.0022 0.0000 0.0000 0.0000
# 3 36.6968 33.0022 46.7692 0.0000 0.0000 0.0000
# 4 0.0000 0.0000 0.0000 15.8819 0.0000 0.0000
# 5 0.0000 0.0000 0.0000 0.0000 5.8768 0.0000
# 6 0.0000 0.0000 0.0000 0.0000 0.0000 20.3156
#
#
#
# Elastic Compliance Matrix: (Units=1/GPa)
#
#
# Indices 1 2 3 4 5 6 
#
# 1 0.016699 -0.006701 -0.008374 0.000000 0.000000 0.000000
# 2 -0.006701 0.012976 -0.003898 0.000000 0.000000 0.000000
# 3 -0.008374 -0.003898 0.030703 0.000000 0.000000 0.000000
# 4 0.000000 0.000000 0.000000 0.062965 0.000000 0.000000
# 5 0.000000 0.000000 0.000000 0.000000 0.170159 0.000000
# 6 0.000000 0.000000 0.000000 0.000000 0.000000 0.049223
#
#
# Mechanical properties :
#
#
# Convention : Reuss Voigt Hill
#
# Bulk Modulus (GPa) = 44.58156 60.09027 52.33591
# Shear Modulus (GPa) = 12.88163 17.54795 15.21479
#
# Velocity S-wave (km/s) = 2.89324 3.37685 3.14436
# Velocity P-wave (km/s) = 6.33494 7.36563 6.86964
#
# Compressibility (1/GPa) = 0.02243080
#
# Stress axis : x y z
#
# Youngs Moduli (GPa) = 59.88270 77.06540 32.57024
#
# Poissons Ratio (x) = 0.51645 0.27275
# Poissons Ratio (y) = 0.40130 0.12696
# Poissons Ratio (z) = 0.50146 0.30041
#
# Static dielectric constant tensor:
#      x y z
#    x 3.124060 0.000000 0.000000 
#    y 0.000000 3.124630 0.000000 
#    z 0.000000 0.000000 2.481350 
# 
# 
# High freq. dielectric constant tensor:
#      x y z
#    x 1.602790 0.000000 0.000000 
#    y 0.000000 1.603050 0.000000 
#    z 0.000000 0.000000 1.519730 
# 
# From -- ./inp_files/19130.got.cif
#   From: 2010.03.12/outbox.cif.g09.slc.cpg/sg47_10_cif.got.tgz:19130.got - 2010.04.14 03:12:58.
