data_PCOD8193363
_publ_section_title
;
Structure prediction by ZEFSAII (Michael W. Deem and Ramdas Pophale) SiO2 
 PCOD8193363
Probable space group: I M A 2
;
_chemical_formula_sum "Si O2"
_cell_formula_units_Z 56
_cell_length_a 27.703031
_cell_length_b 6.587136
_cell_length_c 14.281577
_cell_angle_alpha 90.000000
_cell_angle_beta 90.000000
_cell_angle_gamma 90.000000
_cell_volume 2606.154053
_symmetry_space_group_name_H-M "I M A 2"
_symmetry_group_IT_number 46
_symmetry_cell_setting 'orthorhombic'
loop_
_space_group_symop_operation_xyz
x,y,z
-x,-y,z
1/2-x,y,z
1/2+x,-y,z
1/2+x,1/2+y,1/2+z
1/2-x,1/2-y,1/2+z
-x,1/2+y,1/2+z
x,1/2-y,1/2+z
loop_
_atom_site_type_symbol
_atom_site_label
_atom_site_fract_x
_atom_site_fract_y
_atom_site_fract_z
Si Si1 0.362064 0.020411 0.678640
Si Si2 0.451378 0.083892 0.989118
Si Si3 0.465596 0.306682 0.178028
Si Si4 0.642320 0.175694 0.326884
Si Si5 0.193436 0.081496 0.175913
Si Si6 0.451933 0.425131 0.857166
Si Si7 0.639385 0.189242 0.026884
O O1 0.410137 0.143163 0.695651
O O2 0.318309 0.180047 0.668539
O O3 0.353237 0.877774 0.766541
O O4 0.368135 0.894715 0.583918
O O5 0.426869 0.250674 0.920749
O O6 0.500000 0.000000 0.938756
O O7 0.471147 0.182509 0.083642
O O8 0.412744 0.908759 0.008299
O O9 0.500000 0.500000 0.176825
O O10 0.477435 0.161058 0.263897
O O11 0.663288 0.239185 0.428650
O O12 0.673029 0.001822 0.274845
O O13 0.586994 0.100616 0.336471
O O14 0.250000 0.047149 0.174954
O O15 0.172316 0.966337 0.084997
O O16 0.500000 0.500000 0.913644
#
# Coordination Sequence:
#
# PCOD8193363 Si02
#       7
#     8   8   8   8   8   8   8
#     4  11  22  44  65  98 135 176 224 288 332 394
#     4  12  23  39  61 100 142 180 225 270 327 400
#     4  12  21  36  62  90 136 185 227 269 331 396
#     4  11  24  43  71 100 138 178 226 280 338 403
#     4  11  26  48  71 100 134 175 226 288 348 399
#     4  12  23  39  61 100 142 180 225 270 327 400
#     4  11  24  43  71 100 138 178 226 280 338 403
#
# _framework density 21.487601000000002
#
# number of rings (size 3 to 8) (size 9 to 14) (size 15 to 20)
#    0.000    0.571    2.857    6.429    0.000    2.857 
#    0.000    1.429    0.000    0.000    0.000    0.000 
#    0.000    0.000    0.000    0.000    0.000    0.000 
#
# Total GULP energy -347225.990815 kJ/mol
# GULP energy per Si atom -12400.928243 kJ/mol
# Density = 2.143869 g / cm^3
# Si number density = 21.487601 Si / 1000 Ang^3
#
#
#
# Elastic Constant Matrix: (Units=GPa)
#
#
# Indices 1 2 3 4 5 6 
#
# 1 121.6451 37.1408 20.4100 0.0000 0.0000 0.0000
# 2 37.1408 121.3846 52.7516 0.0000 0.0000 0.0000
# 3 20.4100 52.7516 144.9590 0.0000 0.0000 0.0000
# 4 0.0000 0.0000 0.0000 54.4414 0.0000 0.0000
# 5 0.0000 0.0000 0.0000 0.0000 15.6838 0.0000
# 6 0.0000 0.0000 0.0000 0.0000 0.0000 30.7302
#
#
#
# Elastic Compliance Matrix: (Units=1/GPa)
#
#
# Indices 1 2 3 4 5 6 
#
# 1 0.009080 -0.002640 -0.000318 0.000000 0.000000 0.000000
# 2 -0.002640 0.010554 -0.003469 0.000000 0.000000 0.000000
# 3 -0.000318 -0.003469 0.008206 0.000000 0.000000 0.000000
# 4 0.000000 0.000000 0.000000 0.018368 0.000000 0.000000
# 5 0.000000 0.000000 0.000000 0.000000 0.063760 0.000000
# 6 0.000000 0.000000 0.000000 0.000000 0.000000 0.032541
#
#
# Mechanical properties :
#
#
# Convention : Reuss Voigt Hill
#
# Bulk Modulus (GPa) = 66.72965 67.62149 67.17557
# Shear Modulus (GPa) = 31.18031 38.68350 34.93191
#
# Velocity S-wave (km/s) = 3.81344 4.24756 4.03634
# Velocity P-wave (km/s) = 7.10719 7.45614 7.28376
#
# Compressibility (1/GPa) = 0.01498584
#
# Stress axis : x y z
#
# Youngs Moduli (GPa) = 110.13160 94.75438 121.86880
#
# Poissons Ratio (x) = 0.25017 0.03871
# Poissons Ratio (y) = 0.29077 0.42274
# Poissons Ratio (z) = 0.03498 0.32868
#
# Static dielectric constant tensor:
#      x y z
#    x 3.621580 0.000000 0.000000 
#    y 0.000000 3.669140 0.000000 
#    z 0.000000 0.000000 4.140660 
# 
# 
# High freq. dielectric constant tensor:
#      x y z
#    x 1.816530 0.000000 0.000000 
#    y 0.000000 1.865600 0.000000 
#    z 0.000000 0.000000 1.857500 
# 
# From -- ./inp_files/17696.got.cif
#   From: 2010.03.12/outbox.cif.g09.slc.cpg/sg46_9_cif.got.tgz:17696.got - 2010.04.14 02:56:35.
