data_PCOD8193072
_publ_section_title
;
Structure prediction by ZEFSAII (Michael W. Deem and Ramdas Pophale) SiO2 
 PCOD8193072
Probable space group: I M A 2
;
_chemical_formula_sum "Si O2"
_cell_formula_units_Z 44
_cell_length_a 13.989576
_cell_length_b 9.367644
_cell_length_c 16.920019
_cell_angle_alpha 90.000000
_cell_angle_beta 90.000000
_cell_angle_gamma 90.000000
_cell_volume 2217.357791
_symmetry_space_group_name_H-M "I M A 2"
_symmetry_group_IT_number 46
_symmetry_cell_setting 'orthorhombic'
loop_
_space_group_symop_operation_xyz
x,y,z
-x,-y,z
1/2-x,y,z
1/2+x,-y,z
1/2+x,1/2+y,1/2+z
1/2-x,1/2-y,1/2+z
-x,1/2+y,1/2+z
x,1/2-y,1/2+z
loop_
_atom_site_type_symbol
_atom_site_label
_atom_site_fract_x
_atom_site_fract_y
_atom_site_fract_z
Si Si1 0.597984 0.449792 0.887540
Si Si2 0.110611 0.129741 0.137723
Si Si3 0.250000 0.766392 0.478403
Si Si4 0.750000 0.662680 0.205417
Si Si5 0.250000 0.194425 0.370744
Si Si6 0.250000 0.838937 0.662096
Si Si7 0.909486 0.141858 0.214669
Si Si8 0.250000 0.433442 0.503078
O O1 0.500000 0.500000 0.931177
O O2 0.655372 0.333819 0.938915
O O3 0.658144 0.592600 0.872543
O O4 0.563000 0.371210 0.806661
O O5 0.155528 0.278098 0.163848
O O6 0.996904 0.147112 0.151245
O O7 0.149409 0.001641 0.193597
O O8 0.150255 0.088680 0.050975
O O9 0.250000 0.811397 0.569317
O O10 0.250000 0.594685 0.467575
O O11 0.750000 0.701331 0.296519
O O12 0.750000 0.498900 0.188138
O O13 0.250000 0.307003 0.440889
O O14 0.344570 0.778128 0.702480
#
# Coordination Sequence:
#
# PCOD8193072 Si02
#       8
#     8   8   4   4   4   4   8   4
#     4  11  23  43  66  93 124 169 217 259 318 382
#     4  10  21  41  71  88 118 167 227 256 306 379
#     4  11  26  41  61  97 133 166 206 263 328 383
#     4  11  22  39  63  95 129 170 210 272 314 377
#     4  11  23  40  64  95 131 170 207 262 323 386
#     4  12  25  39  60  96 135 165 215 265 323 367
#     4  11  20  43  71  89 114 175 225 263 297 382
#     4  11  24  43  64  99 130 165 206 262 332 375
#
# _framework density 19.843437999999999
#
# number of rings (size 3 to 8) (size 9 to 14) (size 15 to 20)
#    0.000    1.091    5.455    1.636    7.636    2.182 
#    0.000    0.000    0.000    0.000    0.000    0.000 
#    0.000    0.000    0.000    0.000    0.000    0.000 
#
# Total GULP energy -272597.191351 kJ/mol
# GULP energy per Si atom -12390.781425 kJ/mol
# Density = 1.979827 g / cm^3
# Si number density = 19.843438 Si / 1000 Ang^3
#
#
#
# Elastic Constant Matrix: (Units=GPa)
#
#
# Indices 1 2 3 4 5 6 
#
# 1 137.7690 58.3016 30.1245 0.0000 0.0000 0.0000
# 2 58.3016 157.0567 37.6810 0.0000 0.0000 0.0000
# 3 30.1245 37.6810 82.3153 0.0000 0.0000 0.0000
# 4 0.0000 0.0000 0.0000 37.2915 0.0000 0.0000
# 5 0.0000 0.0000 0.0000 0.0000 26.4675 0.0000
# 6 0.0000 0.0000 0.0000 0.0000 0.0000 19.1586
#
#
#
# Elastic Compliance Matrix: (Units=1/GPa)
#
#
# Indices 1 2 3 4 5 6 
#
# 1 0.008883 -0.002828 -0.001956 0.000000 0.000000 0.000000
# 2 -0.002828 0.008053 -0.002651 0.000000 0.000000 0.000000
# 3 -0.001956 -0.002651 0.014078 0.000000 0.000000 0.000000
# 4 0.000000 0.000000 0.000000 0.026816 0.000000 0.000000
# 5 0.000000 0.000000 0.000000 0.000000 0.037782 0.000000
# 6 0.000000 0.000000 0.000000 0.000000 0.000000 0.052196
#
#
# Mechanical properties :
#
#
# Convention : Reuss Voigt Hill
#
# Bulk Modulus (GPa) = 61.94805 69.92836 65.93820
# Shear Modulus (GPa) = 29.75113 33.31910 31.53512
#
# Velocity S-wave (km/s) = 3.87627 4.10213 3.99080
# Velocity P-wave (km/s) = 7.16381 7.59955 7.38489
#
# Compressibility (1/GPa) = 0.01614256
#
# Stress axis : x y z
#
# Youngs Moduli (GPa) = 112.57297 124.17553 71.03258
#
# Poissons Ratio (x) = 0.35119 0.13896
# Poissons Ratio (y) = 0.31838 0.18834
# Poissons Ratio (z) = 0.22022 0.32924
#
# Static dielectric constant tensor:
#      x y z
#    x 3.624840 0.000000 0.000000 
#    y 0.000000 3.502920 0.000000 
#    z 0.000000 0.000000 3.613030 
# 
# 
# High freq. dielectric constant tensor:
#      x y z
#    x 1.779130 0.000000 0.000000 
#    y 0.000000 1.778720 0.000000 
#    z 0.000000 0.000000 1.768180 
# 
# From -- ./inp_files/19369.got.cif
#   From: 2010.03.12/outbox.cif.g09.slc.cpg/sg46_10_cif.got.tgz:19369.got - 2010.04.14 02:56:35.
