data_PCOD8193453
_publ_section_title
;
Structure prediction by ZEFSAII (Michael W. Deem and Ramdas Pophale) SiO2 
 PCOD8193453
Probable space group: P M M M
;
_chemical_formula_sum "Si O2"
_cell_formula_units_Z 52
_cell_length_a 10.583755
_cell_length_b 17.915891
_cell_length_c 17.143221
_cell_angle_alpha 90.000000
_cell_angle_beta 90.000000
_cell_angle_gamma 90.000000
_cell_volume 3250.653010
_symmetry_space_group_name_H-M "P M M M"
_symmetry_group_IT_number 47
_symmetry_cell_setting 'orthorhombic'
loop_
_space_group_symop_operation_xyz
x,y,z
-x,-y,z
x,-y,-z
-x,y,-z
-x,-y,-z
x,y,-z
-x,y,z
x,-y,z
loop_
_atom_site_type_symbol
_atom_site_label
_atom_site_fract_x
_atom_site_fract_y
_atom_site_fract_z
Si Si1 0.851027 0.319970 0.411769
Si Si2 0.000000 0.911650 0.410740
Si Si3 0.148750 0.581757 0.271794
Si Si4 0.801832 0.818080 0.677460
Si Si5 0.354935 0.081479 0.778261
Si Si6 0.142155 0.277366 0.176050
Si Si7 0.645021 0.806579 0.090248
O O1 0.816306 0.341064 0.500000
O O2 0.811245 0.389639 0.357900
O O3 0.771488 0.247034 0.385052
O O4 0.000000 0.300252 0.402261
O O5 0.119926 0.881898 0.364840
O O6 0.000000 0.882352 0.500000
O O7 0.000000 0.000000 0.408381
O O8 0.211073 0.500000 0.256743
O O9 0.188762 0.641333 0.206071
O O10 0.000000 0.573628 0.269760
O O11 0.680081 0.861568 0.708977
O O12 0.869959 0.779622 0.751486
O O13 0.500000 0.066669 0.767665
O O14 0.325130 0.117999 0.862285
O O15 0.285918 0.000000 0.774078
O O16 0.250015 0.254812 0.114122
O O17 0.000000 0.281143 0.138785
O O18 0.500000 0.778958 0.107429
O O19 0.662086 0.825654 0.000000
#
# Coordination Sequence:
#
# PCOD8193453 Si02
#       7
#     8   4   8   8   8   8   8
#     4   9  15  23  38  59  85 117 147 180 224 268
#     4  11  20  26  38  60  82 110 146 183 224 262
#     4   8  14  24  39  63  91 116 146 182 220 265
#     4  10  16  28  42  60  85 113 146 185 217 258
#     4   9  18  31  47  65  84 111 146 184 227 270
#     4   9  16  28  47  67  89 121 151 179 221 264
#     4   9  18  31  48  70  93 116 146 184 222 267
#
# _framework density 15.996784999999999
#
# number of rings (size 3 to 8) (size 9 to 14) (size 15 to 20)
#    0.000    2.846    1.538    1.846    0.000    0.923 
#    0.000    3.077    0.000    2.769    0.000   10.769 
#    0.000    0.000    0.000   12.000    0.000    5.231 
#
# Total GULP energy -644204.765022 kJ/mol
# GULP energy per Si atom -12388.553173 kJ/mol
# Density = 1.596038 g / cm^3
# Si number density = 15.996785 Si / 1000 Ang^3
#
#
#
# Elastic Constant Matrix: (Units=GPa)
#
#
# Indices 1 2 3 4 5 6 
#
# 1 41.9189 31.1119 27.4832 0.0000 0.0000 0.0000
# 2 31.1119 116.0982 35.7084 0.0000 0.0000 0.0000
# 3 27.4832 35.7084 61.3679 0.0000 0.0000 0.0000
# 4 0.0000 0.0000 0.0000 16.5747 0.0000 0.0000
# 5 0.0000 0.0000 0.0000 0.0000 19.6679 0.0000
# 6 0.0000 0.0000 0.0000 0.0000 0.0000 13.9103
#
#
#
# Elastic Compliance Matrix: (Units=1/GPa)
#
#
# Indices 1 2 3 4 5 6 
#
# 1 0.036748 -0.005829 -0.013066 0.000000 0.000000 0.000000
# 2 -0.005829 0.011416 -0.004032 0.000000 0.000000 0.000000
# 3 -0.013066 -0.004032 0.024493 0.000000 0.000000 0.000000
# 4 0.000000 0.000000 0.000000 0.060333 0.000000 0.000000
# 5 0.000000 0.000000 0.000000 0.000000 0.050844 0.000000
# 6 0.000000 0.000000 0.000000 0.000000 0.000000 0.071889
#
#
# Mechanical properties :
#
#
# Convention : Reuss Voigt Hill
#
# Bulk Modulus (GPa) = 37.30921 45.33243 41.32082
# Shear Modulus (GPa) = 16.10254 18.36935 17.23594
#
# Velocity S-wave (km/s) = 3.17616 3.39236 3.28603
# Velocity P-wave (km/s) = 6.06829 6.61393 6.34698
#
# Compressibility (1/GPa) = 0.02680303
#
# Stress axis : x y z
#
# Youngs Moduli (GPa) = 27.21231 87.59959 40.82872
#
# Poissons Ratio (x) = 0.51063 0.53345
# Poissons Ratio (y) = 0.15862 0.16462
# Poissons Ratio (z) = 0.35554 0.35319
#
# Static dielectric constant tensor:
#      x y z
#    x 2.837230 0.000000 0.000000 
#    y 0.000000 3.581890 0.000000 
#    z 0.000000 0.000000 2.993250 
# 
# 
# High freq. dielectric constant tensor:
#      x y z
#    x 1.573380 0.000000 0.000000 
#    y 0.000000 1.619090 0.000000 
#    z 0.000000 0.000000 1.607020 
# 
# From -- ./inp_files/18560.got.cif
#   From: 2010.03.12/outbox.cif.g09.slc.cpg/sg47_10_cif.got.tgz:18560.got - 2010.04.14 03:12:58.
