data_PCOD8193942
_publ_section_title
;
Structure prediction by ZEFSAII (Michael W. Deem and Ramdas Pophale) SiO2 
 PCOD8193942
Probable space group: P M M M
;
_chemical_formula_sum "Si O2"
_cell_formula_units_Z 52
_cell_length_a 13.297086
_cell_length_b 24.269736
_cell_length_c 8.821920
_cell_angle_alpha 90.000000
_cell_angle_beta 90.000000
_cell_angle_gamma 90.000000
_cell_volume 2846.981499
_symmetry_space_group_name_H-M "P M M M"
_symmetry_group_IT_number 47
_symmetry_cell_setting 'orthorhombic'
loop_
_space_group_symop_operation_xyz
x,y,z
-x,-y,z
x,-y,-z
-x,y,-z
-x,-y,-z
x,y,-z
-x,y,z
x,-y,z
loop_
_atom_site_type_symbol
_atom_site_label
_atom_site_fract_x
_atom_site_fract_y
_atom_site_fract_z
Si Si1 0.886954 0.143388 0.177504
Si Si2 0.689985 0.122589 0.322445
Si Si3 0.500000 0.064990 0.173707
Si Si4 0.386539 0.439970 0.320163
Si Si5 0.888159 0.258351 0.672020
Si Si6 0.299323 0.328003 0.677254
Si Si7 0.614888 0.772901 0.828963
O O1 0.801628 0.106264 0.261057
O O2 0.870333 0.207555 0.215930
O O3 0.000000 0.125276 0.228922
O O4 0.873381 0.134774 0.000000
O O5 0.685487 0.113026 0.500000
O O6 0.602063 0.086768 0.248652
O O7 0.676345 0.186840 0.281368
O O8 0.500000 0.000000 0.191037
O O9 0.500000 0.084357 0.000000
O O10 0.385394 0.441468 0.500000
O O11 0.500000 0.428765 0.262839
O O12 0.349294 0.500000 0.258784
O O13 0.314513 0.390531 0.262245
O O14 0.870025 0.237154 0.500000
O O15 0.814052 0.308583 0.712695
O O16 0.000000 0.282438 0.691356
O O17 0.325572 0.324172 0.500000
O O18 0.376076 0.288893 0.767122
O O19 0.500000 0.791902 0.825484
O O20 0.657296 0.777148 0.000000
#
# Coordination Sequence:
#
# PCOD8193942 Si02
#       7
#     8   8   4   8   8   8   8
#     4  10  20  34  54  80 112 150 189 228 274 330
#     4  12  23  36  58  85 116 151 186 228 273 323
#     4  11  25  45  67  89 117 155 194 231 272 319
#     4   8  14  25  41  62  88 120 163 217 269 318
#     4   9  17  28  42  65  99 133 167 211 265 321
#     4  10  18  28  46  69  93 127 171 216 265 325
#     4  11  22  33  47  71 107 142 171 213 269 325
#
# _framework density 18.264959000000001
#
# number of rings (size 3 to 8) (size 9 to 14) (size 15 to 20)
#    0.000    1.923    2.308    3.462    0.000    3.077 
#    0.000    0.000    0.000    1.385    0.000    8.615 
#    0.000    0.000    0.000    5.231    0.000    5.692 
#
# Total GULP energy -644599.545877 kJ/mol
# GULP energy per Si atom -12396.145113 kJ/mol
# Density = 1.822339 g / cm^3
# Si number density = 18.264959 Si / 1000 Ang^3
#
#
#
# Elastic Constant Matrix: (Units=GPa)
#
#
# Indices 1 2 3 4 5 6 
#
# 1 137.0661 40.7000 54.7580 0.0000 0.0000 0.0000
# 2 40.7000 63.9510 33.2303 0.0000 0.0000 0.0000
# 3 54.7580 33.2303 92.4701 0.0000 0.0000 0.0000
# 4 0.0000 0.0000 0.0000 12.7901 0.0000 0.0000
# 5 0.0000 0.0000 0.0000 0.0000 26.0413 0.0000
# 6 0.0000 0.0000 0.0000 0.0000 0.0000 16.9599
#
#
#
# Elastic Compliance Matrix: (Units=1/GPa)
#
#
# Indices 1 2 3 4 5 6 
#
# 1 0.010401 -0.004204 -0.004648 0.000000 0.000000 0.000000
# 2 -0.004204 0.020927 -0.005031 0.000000 0.000000 0.000000
# 3 -0.004648 -0.005031 0.015375 0.000000 0.000000 0.000000
# 4 0.000000 0.000000 0.000000 0.078185 0.000000 0.000000
# 5 0.000000 0.000000 0.000000 0.000000 0.038400 0.000000
# 6 0.000000 0.000000 0.000000 0.000000 0.000000 0.058963
#
#
# Mechanical properties :
#
#
# Convention : Reuss Voigt Hill
#
# Bulk Modulus (GPa) = 52.80921 61.20707 57.00814
# Shear Modulus (GPa) = 19.50613 22.14487 20.82550
#
# Velocity S-wave (km/s) = 3.27150 3.48576 3.38033
# Velocity P-wave (km/s) = 6.57616 7.05579 6.82019
#
# Compressibility (1/GPa) = 0.01893609
#
# Stress axis : x y z
#
# Youngs Moduli (GPa) = 96.14301 47.78597 65.04144
#
# Poissons Ratio (x) = 0.20090 0.30234
# Poissons Ratio (y) = 0.40420 0.32720
# Poissons Ratio (z) = 0.44692 0.24040
#
# Static dielectric constant tensor:
#      x y z
#    x 3.642340 0.000000 0.000000 
#    y 0.000000 3.315550 0.000000 
#    z 0.000000 0.000000 3.252600 
# 
# 
# High freq. dielectric constant tensor:
#      x y z
#    x 1.716860 0.000000 0.000000 
#    y 0.000000 1.677630 0.000000 
#    z 0.000000 0.000000 1.696470 
# 
# From -- ./inp_files/7091.got.cif
#   From: 2010.03.12/outbox.cif.g09.slc.cpg/sg47_4_cif.got.tgz:7091.got - 2010.04.14 03:12:58.
