data_PCOD8193849
_publ_section_title
;
Structure prediction by ZEFSAII (Michael W. Deem and Ramdas Pophale) SiO2 
 PCOD8193849
Probable space group: P M M M
;
_chemical_formula_sum "Si O2"
_cell_formula_units_Z 48
_cell_length_a 26.887095
_cell_length_b 16.896564
_cell_length_c 7.824211
_cell_angle_alpha 90.000000
_cell_angle_beta 90.000000
_cell_angle_gamma 90.000000
_cell_volume 3554.535313
_symmetry_space_group_name_H-M "P M M M"
_symmetry_group_IT_number 47
_symmetry_cell_setting 'orthorhombic'
loop_
_space_group_symop_operation_xyz
x,y,z
-x,-y,z
x,-y,-z
-x,y,-z
-x,-y,-z
x,y,-z
-x,y,z
x,-y,z
loop_
_atom_site_type_symbol
_atom_site_label
_atom_site_fract_x
_atom_site_fract_y
_atom_site_fract_z
Si Si1 0.596568 0.826226 0.304979
Si Si2 0.304198 0.093039 0.301987
Si Si3 0.500000 0.910388 0.704266
Si Si4 0.556635 0.500000 0.700464
Si Si5 0.055829 0.905939 0.689771
Si Si6 0.232730 0.906671 0.000000
Si Si7 0.556476 0.332257 0.196970
Si Si8 0.878504 0.094739 0.000000
O O1 0.597454 0.852621 0.500000
O O2 0.648043 0.859183 0.229209
O O3 0.548603 0.867259 0.217362
O O4 0.591800 0.731439 0.288715
O O5 0.290713 0.114281 0.500000
O O6 0.315579 0.000000 0.285102
O O7 0.259959 0.119971 0.175342
O O8 0.500000 0.904030 0.500000
O O9 0.500000 0.000000 0.768319
O O10 0.500000 0.500000 0.764888
O O11 0.562008 0.500000 0.500000
O O12 0.580763 0.580762 0.773339
O O13 0.072471 0.877487 0.500000
O O14 0.093557 0.872014 0.831544
O O15 0.000000 0.875484 0.729646
O O16 0.056114 0.000000 0.696491
O O17 0.177308 0.870322 0.000000
O O18 0.228592 0.000000 0.000000
O O19 0.500000 0.328900 0.273407
O O20 0.555571 0.311043 0.000000
O O21 0.878525 0.000000 0.000000
#
# Coordination Sequence:
#
# PCOD8193849 Si02
#       8
#     8   8   4   4   8   4   8   4
#     4  10  18  28  43  58  72  91 117 144 177 222
#     4   9  18  31  43  54  70  93 121 155 194 230
#     4   9  16  26  41  58  73  88 111 145 180 218
#     4   9  17  29  45  59  75  97 117 131 153 193
#     4   8  13  20  30  46  68  90 109 133 170 215
#     4   9  18  29  40  52  66  88 120 155 189 223
#     4  10  19  29  41  59  81  97 111 133 166 208
#     4   9  15  22  33  48  63  84 114 145 175 212
#
# _framework density 13.503874
#
# number of rings (size 3 to 8) (size 9 to 14) (size 15 to 20)
#    0.000    2.833    0.833    2.000    1.167    5.333 
#    0.000    3.333    0.000    0.500    0.000    0.000 
#    0.000    0.000    0.000    0.000    0.000    0.000 
#
# Total GULP energy -594874.137290 kJ/mol
# GULP energy per Si atom -12393.211194 kJ/mol
# Density = 1.347314 g / cm^3
# Si number density = 13.503874 Si / 1000 Ang^3
#
#
#
# Elastic Constant Matrix: (Units=GPa)
#
#
# Indices 1 2 3 4 5 6 
#
# 1 101.6943 24.6808 50.3126 0.0000 0.0000 0.0000
# 2 24.6808 54.9392 11.9650 0.0000 0.0000 0.0000
# 3 50.3126 11.9650 70.7769 0.0000 0.0000 0.0000
# 4 0.0000 0.0000 0.0000 8.9830 0.0000 0.0000
# 5 0.0000 0.0000 0.0000 0.0000 15.6956 0.0000
# 6 0.0000 0.0000 0.0000 0.0000 0.0000 3.1161
#
#
#
# Elastic Compliance Matrix: (Units=1/GPa)
#
#
# Indices 1 2 3 4 5 6 
#
# 1 0.016398 -0.005012 -0.010809 0.000000 0.000000 0.000000
# 2 -0.005012 0.020430 0.000109 0.000000 0.000000 0.000000
# 3 -0.010809 0.000109 0.021794 0.000000 0.000000 0.000000
# 4 0.000000 0.000000 0.000000 0.111321 0.000000 0.000000
# 5 0.000000 0.000000 0.000000 0.000000 0.063712 0.000000
# 6 0.000000 0.000000 0.000000 0.000000 0.000000 0.320917
#
#
# Mechanical properties :
#
#
# Convention : Reuss Voigt Hill
#
# Bulk Modulus (GPa) = 36.76807 44.59193 40.68000
# Shear Modulus (GPa) = 8.40248 14.92240 11.66244
#
# Velocity S-wave (km/s) = 2.49716 3.32783 2.94196
# Velocity P-wave (km/s) = 5.96668 6.91803 6.45990
#
# Compressibility (1/GPa) = 0.02719751
#
# Stress axis : x y z
#
# Youngs Moduli (GPa) = 60.98456 48.94793 45.88384
#
# Poissons Ratio (x) = 0.24534 0.49596
# Poissons Ratio (y) = 0.30568 -0.00502
# Poissons Ratio (z) = 0.65919 -0.00535
#
# Static dielectric constant tensor:
#      x y z
#    x 2.691000 0.000000 0.000000 
#    y 0.000000 2.412350 0.000000 
#    z 0.000000 0.000000 2.774180 
# 
# 
# High freq. dielectric constant tensor:
#      x y z
#    x 1.483550 0.000000 0.000000 
#    y 0.000000 1.465030 0.000000 
#    z 0.000000 0.000000 1.525690 
# 
# From -- ./inp_files/11453.got.cif
#   From: 2010.03.12/outbox.cif.g09.slc.cpg/sg47_6_cif.got.tgz:11453.got - 2010.04.14 03:12:58.
