data_PCOD8193169
_publ_section_title
;
Structure prediction by ZEFSAII (Michael W. Deem and Ramdas Pophale) SiO2 
 PCOD8193169
Probable space group: I M A 2
;
_chemical_formula_sum "Si O2"
_cell_formula_units_Z 56
_cell_length_a 16.328949
_cell_length_b 14.722762
_cell_length_c 10.628231
_cell_angle_alpha 90.000000
_cell_angle_beta 90.000000
_cell_angle_gamma 90.000000
_cell_volume 2555.103573
_symmetry_space_group_name_H-M "I M A 2"
_symmetry_group_IT_number 46
_symmetry_cell_setting 'orthorhombic'
loop_
_space_group_symop_operation_xyz
x,y,z
-x,-y,z
1/2-x,y,z
1/2+x,-y,z
1/2+x,1/2+y,1/2+z
1/2-x,1/2-y,1/2+z
-x,1/2+y,1/2+z
x,1/2-y,1/2+z
loop_
_atom_site_type_symbol
_atom_site_label
_atom_site_fract_x
_atom_site_fract_y
_atom_site_fract_z
Si Si1 0.843724 0.863302 0.378040
Si Si2 0.567132 0.240278 0.644452
Si Si3 0.160973 0.506862 0.302056
Si Si4 0.661346 0.669213 0.460810
Si Si5 0.039519 0.404272 0.663240
Si Si6 0.053499 0.425228 0.095754
Si Si7 0.844168 0.304638 0.395709
O O1 0.750000 0.889068 0.351427
O O2 0.860756 0.755244 0.372330
O O3 0.899730 0.917979 0.280280
O O4 0.868103 0.893420 0.517957
O O5 0.532040 0.334865 0.696786
O O6 0.498505 0.161639 0.640794
O O7 0.604278 0.253046 0.503811
O O8 0.634200 0.219381 0.750817
O O9 0.250000 0.531841 0.239055
O O10 0.174105 0.414072 0.371891
O O11 0.087075 0.490556 0.206586
O O12 0.138811 0.586628 0.402415
O O13 0.750000 0.688820 0.529261
O O14 0.588696 0.647048 0.554291
O O15 0.000000 0.500000 0.622123
O O16 0.000000 0.500000 0.017976
O O17 0.750000 0.279346 0.419907
#
# Coordination Sequence:
#
# PCOD8193169 Si02
#       7
#     8   8   8   8   8   8   8
#     4  11  24  43  66  98 142 183 221 282 358 426
#     4  12  25  44  71 104 139 181 233 291 352 409
#     4  10  22  41  68  97 129 178 235 284 338 408
#     4  10  22  40  66  97 132 174 223 281 344 412
#     4  12  25  43  67  98 138 176 227 277 349 411
#     4  12  23  41  67 101 135 169 234 285 345 399
#     4  11  25  47  70 100 138 187 238 286 347 415
#
# _framework density 21.916920000000001
#
# number of rings (size 3 to 8) (size 9 to 14) (size 15 to 20)
#    0.000    0.857    2.857    4.286    2.000    0.571 
#    0.000    3.571    0.000    0.000    0.000    0.000 
#    0.000    0.000    0.000    0.000    0.000    0.000 
#
# Total GULP energy -347012.541282 kJ/mol
# GULP energy per Si atom -12393.305046 kJ/mol
# Density = 2.186704 g / cm^3
# Si number density = 21.916920 Si / 1000 Ang^3
#
#
#
# Elastic Constant Matrix: (Units=GPa)
#
#
# Indices 1 2 3 4 5 6 
#
# 1 104.8192 30.6807 35.1550 0.0000 0.0000 0.0000
# 2 30.6807 94.3594 5.6399 0.0000 0.0000 0.0000
# 3 35.1550 5.6399 81.4241 0.0000 0.0000 0.0000
# 4 0.0000 0.0000 0.0000 32.4169 0.0000 0.0000
# 5 0.0000 0.0000 0.0000 0.0000 45.4999 0.0000
# 6 0.0000 0.0000 0.0000 0.0000 0.0000 37.0782
#
#
#
# Elastic Compliance Matrix: (Units=1/GPa)
#
#
# Indices 1 2 3 4 5 6 
#
# 1 0.012323 -0.003704 -0.005064 0.000000 0.000000 0.000000
# 2 -0.003704 0.011755 0.000785 0.000000 0.000000 0.000000
# 3 -0.005064 0.000785 0.014413 0.000000 0.000000 0.000000
# 4 0.000000 0.000000 0.000000 0.030848 0.000000 0.000000
# 5 0.000000 0.000000 0.000000 0.000000 0.021978 0.000000
# 6 0.000000 0.000000 0.000000 0.000000 0.000000 0.026970
#
#
# Mechanical properties :
#
#
# Convention : Reuss Voigt Hill
#
# Bulk Modulus (GPa) = 44.39401 47.06154 45.72778
# Shear Modulus (GPa) = 35.27047 36.94082 36.10564
#
# Velocity S-wave (km/s) = 4.01594 4.10993 4.06320
# Velocity P-wave (km/s) = 6.46554 6.63637 6.55151
#
# Compressibility (1/GPa) = 0.02252556
#
# Stress axis : x y z
#
# Youngs Moduli (GPa) = 81.15075 85.06868 69.38030
#
# Poissons Ratio (x) = 0.31510 0.35133
# Poissons Ratio (y) = 0.30058 -0.05446
# Poissons Ratio (z) = 0.41093 -0.06678
#
# Static dielectric constant tensor:
#      x y z
#    x 4.608080 0.000000 0.000000 
#    y 0.000000 4.172220 0.000000 
#    z 0.000000 0.000000 3.807570 
# 
# 
# High freq. dielectric constant tensor:
#      x y z
#    x 1.881150 0.000000 0.000000 
#    y 0.000000 1.875470 0.000000 
#    z 0.000000 0.000000 1.839290 
# 
# From -- ./inp_files/11141.got.cif
#   From: 2010.03.12/outbox.cif.g09.slc.cpg/sg46_6_cif.got.tgz:11141.got - 2010.04.14 02:56:35.
