data_PCOD8193379
_publ_section_title
;
Structure prediction by ZEFSAII (Michael W. Deem and Ramdas Pophale) SiO2 
 PCOD8193379
Probable space group: I M A 2
;
_chemical_formula_sum "Si O2"
_cell_formula_units_Z 40
_cell_length_a 16.444047
_cell_length_b 4.942621
_cell_length_c 22.331883
_cell_angle_alpha 90.000000
_cell_angle_beta 90.000000
_cell_angle_gamma 90.000000
_cell_volume 1815.061577
_symmetry_space_group_name_H-M "I M A 2"
_symmetry_group_IT_number 46
_symmetry_cell_setting 'orthorhombic'
loop_
_space_group_symop_operation_xyz
x,y,z
-x,-y,z
1/2-x,y,z
1/2+x,-y,z
1/2+x,1/2+y,1/2+z
1/2-x,1/2-y,1/2+z
-x,1/2+y,1/2+z
x,1/2-y,1/2+z
loop_
_atom_site_type_symbol
_atom_site_label
_atom_site_fract_x
_atom_site_fract_y
_atom_site_fract_z
Si Si1 0.343877 0.084469 0.596270
Si Si2 0.410903 0.395438 0.838593
Si Si3 0.593332 0.081494 0.030053
Si Si4 0.055214 0.243542 0.207503
Si Si5 0.657390 0.384846 0.400997
O O1 0.250000 0.001449 0.601728
O O2 0.353324 0.322035 0.547917
O O3 0.375715 0.184660 0.660190
O O4 0.395839 0.823035 0.577511
O O5 0.500000 0.500000 0.855389
O O6 0.399991 0.354197 0.767676
O O7 0.346293 0.617730 0.860096
O O8 0.398078 0.116785 0.873010
O O9 0.500000 0.000000 0.027830
O O10 0.624365 0.189561 0.966522
O O11 0.000000 0.500000 0.223633
O O12 0.000000 0.000000 0.181275
O O13 0.750000 0.484294 0.404185
#
# Coordination Sequence:
#
# PCOD8193379 Si02
#       5
#     8   8   8   8   8
#     4  12  25  42  66  98 132 165 211 268 323 374
#     4  11  23  43  67  94 126 170 219 261 312 379
#     4  12  25  44  67  93 129 173 217 258 314 385
#     4  11  23  43  68  93 127 170 217 263 313 380
#     4  12  25  42  65  96 133 168 210 266 324 376
#
# _framework density 22.037821000000001
#
# number of rings (size 3 to 8) (size 9 to 14) (size 15 to 20)
#    0.000    0.400    0.000   11.400    0.000    1.600 
#    0.000    0.000    0.000    0.000    0.000    0.000 
#    0.000    0.000    0.000    0.000    0.000    0.000 
#
# Total GULP energy -248202.737671 kJ/mol
# GULP energy per Si atom -12410.136884 kJ/mol
# Density = 2.198766 g / cm^3
# Si number density = 22.037821 Si / 1000 Ang^3
#
#
#
# Elastic Constant Matrix: (Units=GPa)
#
#
# Indices 1 2 3 4 5 6 
#
# 1 113.4125 29.8185 65.7109 0.0000 0.0000 0.0000
# 2 29.8185 127.6668 41.0465 0.0000 0.0000 0.0000
# 3 65.7109 41.0465 127.9092 0.0000 0.0000 0.0000
# 4 0.0000 0.0000 0.0000 43.8297 0.0000 0.0000
# 5 0.0000 0.0000 0.0000 0.0000 17.0379 0.0000
# 6 0.0000 0.0000 0.0000 0.0000 0.0000 35.3144
#
#
#
# Elastic Compliance Matrix: (Units=1/GPa)
#
#
# Indices 1 2 3 4 5 6 
#
# 1 0.012660 -0.000965 -0.006194 0.000000 0.000000 0.000000
# 2 -0.000965 0.008808 -0.002330 0.000000 0.000000 0.000000
# 3 -0.006194 -0.002330 0.011748 0.000000 0.000000 0.000000
# 4 0.000000 0.000000 0.000000 0.022816 0.000000 0.000000
# 5 0.000000 0.000000 0.000000 0.000000 0.058693 0.000000
# 6 0.000000 0.000000 0.000000 0.000000 0.000000 0.028317
#
#
# Mechanical properties :
#
#
# Convention : Reuss Voigt Hill
#
# Bulk Modulus (GPa) = 70.24545 71.34890 70.79717
# Shear Modulus (GPa) = 29.98217 34.73060 32.35639
#
# Velocity S-wave (km/s) = 3.69248 3.97414 3.83589
# Velocity P-wave (km/s) = 7.07979 7.31466 7.19818
#
# Compressibility (1/GPa) = 0.01423580
#
# Stress axis : x y z
#
# Youngs Moduli (GPa) = 78.98895 113.53765 85.12136
#
# Poissons Ratio (x) = 0.10962 0.52724
# Poissons Ratio (y) = 0.07626 0.19837
# Poissons Ratio (z) = 0.48926 0.26459
#
# Static dielectric constant tensor:
#      x y z
#    x 3.973870 0.000000 0.000000 
#    y 0.000000 4.219380 0.000000 
#    z 0.000000 0.000000 4.031860 
# 
# 
# High freq. dielectric constant tensor:
#      x y z
#    x 1.863890 0.000000 0.000000 
#    y 0.000000 1.886340 0.000000 
#    z 0.000000 0.000000 1.877900 
# 
# From -- ./inp_files/23548.got.cif
#   From: 2010.03.12/outbox.cif.g09.slc.cpg/sg46_12_cif.got.tgz:23548.got - 2010.04.14 02:56:35.
