data_PCOD8193402
_publ_section_title
;
Structure prediction by ZEFSAII (Michael W. Deem and Ramdas Pophale) SiO2 
 PCOD8193402
Probable space group: I M A 2
;
_chemical_formula_sum "Si O2"
_cell_formula_units_Z 40
_cell_length_a 14.270185
_cell_length_b 12.121686
_cell_length_c 9.253296
_cell_angle_alpha 90.000000
_cell_angle_beta 90.000000
_cell_angle_gamma 90.000000
_cell_volume 1600.623129
_symmetry_space_group_name_H-M "I M A 2"
_symmetry_group_IT_number 46
_symmetry_cell_setting 'orthorhombic'
loop_
_space_group_symop_operation_xyz
x,y,z
-x,-y,z
1/2-x,y,z
1/2+x,-y,z
1/2+x,1/2+y,1/2+z
1/2-x,1/2-y,1/2+z
-x,1/2+y,1/2+z
x,1/2-y,1/2+z
loop_
_atom_site_type_symbol
_atom_site_label
_atom_site_fract_x
_atom_site_fract_y
_atom_site_fract_z
Si Si1 0.396562 0.471503 0.564940
Si Si2 0.354011 0.219069 0.567304
Si Si3 0.355143 0.013826 0.393902
Si Si4 0.053440 0.842361 0.597972
Si Si5 0.648820 0.170994 0.901013
O O1 0.500000 0.500000 0.510637
O O2 0.365630 0.347277 0.531973
O O3 0.388166 0.506073 0.731797
O O4 0.332661 0.550509 0.468364
O O5 0.250000 0.200688 0.641032
O O6 0.356950 0.146374 0.419655
O O7 0.444770 0.170775 0.653375
O O8 0.250000 0.967556 0.415615
O O9 0.425332 0.952023 0.504357
O O10 0.117392 0.841047 0.737010
O O11 0.074262 0.738250 0.495329
O O12 0.750000 0.231837 0.899834
#
# Coordination Sequence:
#
# PCOD8193402 Si02
#       5
#     8   8   8   8   8
#     4  12  25  47  75 108 151 190 245 303 363 432
#     4  11  26  47  73 107 147 193 242 296 362 434
#     4  11  25  47  77 109 146 194 244 302 365 433
#     4  12  26  48  73 109 149 188 247 302 361 437
#     4  12  26  46  75 108 147 193 241 304 369 431
#
# _framework density 24.990268
#
# number of rings (size 3 to 8) (size 9 to 14) (size 15 to 20)
#    0.000    0.400    2.000    6.600    2.800    3.200 
#    0.000    2.000    0.000    0.000    0.000    0.000 
#    0.000    0.000    0.000    0.000    0.000    0.000 
#
# Total GULP energy -247860.568333 kJ/mol
# GULP energy per Si atom -12393.028417 kJ/mol
# Density = 2.493339 g / cm^3
# Si number density = 24.990268 Si / 1000 Ang^3
#
#
#
# Elastic Constant Matrix: (Units=GPa)
#
#
# Indices 1 2 3 4 5 6 
#
# 1 196.0428 37.3533 20.9554 0.0000 0.0000 0.0000
# 2 37.3533 155.2390 47.2967 0.0000 0.0000 0.0000
# 3 20.9554 47.2967 130.0302 0.0000 0.0000 0.0000
# 4 0.0000 0.0000 0.0000 29.9749 0.0000 0.0000
# 5 0.0000 0.0000 0.0000 0.0000 30.6269 0.0000
# 6 0.0000 0.0000 0.0000 0.0000 0.0000 21.5037
#
#
#
# Elastic Compliance Matrix: (Units=1/GPa)
#
#
# Indices 1 2 3 4 5 6 
#
# 1 0.005369 -0.001156 -0.000445 0.000000 0.000000 0.000000
# 2 -0.001156 0.007494 -0.002539 0.000000 0.000000 0.000000
# 3 -0.000445 -0.002539 0.008686 0.000000 0.000000 0.000000
# 4 0.000000 0.000000 0.000000 0.033361 0.000000 0.000000
# 5 0.000000 0.000000 0.000000 0.000000 0.032651 0.000000
# 6 0.000000 0.000000 0.000000 0.000000 0.000000 0.046504
#
#
# Mechanical properties :
#
#
# Convention : Reuss Voigt Hill
#
# Bulk Modulus (GPa) = 75.37172 76.94696 76.15934
# Shear Modulus (GPa) = 34.06756 41.46821 37.76788
#
# Velocity S-wave (km/s) = 3.69620 4.07796 3.89177
# Velocity P-wave (km/s) = 6.96001 7.28221 7.12294
#
# Compressibility (1/GPa) = 0.01326758
#
# Stress axis : x y z
#
# Youngs Moduli (GPa) = 186.26198 133.44753 115.13022
#
# Poissons Ratio (x) = 0.15431 0.05119
# Poissons Ratio (y) = 0.21539 0.29235
# Poissons Ratio (z) = 0.08281 0.33887
#
# Static dielectric constant tensor:
#      x y z
#    x 5.052320 0.000000 0.000000 
#    y 0.000000 4.627740 0.000000 
#    z 0.000000 0.000000 4.031000 
# 
# 
# High freq. dielectric constant tensor:
#      x y z
#    x 2.030660 0.000000 0.000000 
#    y 0.000000 2.006630 0.000000 
#    z 0.000000 0.000000 1.964460 
# 
# From -- ./inp_files/5414.got.cif
#   From: 2010.03.12/outbox.cif.g09.slc.cpg/sg46_3_cif.got.tgz:5414.got - 2010.04.14 02:56:35.
