data_PCOD8193332
_publ_section_title
;
Structure prediction by ZEFSAII (Michael W. Deem and Ramdas Pophale) SiO2 
 PCOD8193332
Probable space group: I M A 2
;
_chemical_formula_sum "Si O2"
_cell_formula_units_Z 48
_cell_length_a 9.636200
_cell_length_b 8.552103
_cell_length_c 27.775765
_cell_angle_alpha 90.000000
_cell_angle_beta 90.000000
_cell_angle_gamma 90.000000
_cell_volume 2288.994542
_symmetry_space_group_name_H-M "I M A 2"
_symmetry_group_IT_number 46
_symmetry_cell_setting 'orthorhombic'
loop_
_space_group_symop_operation_xyz
x,y,z
-x,-y,z
1/2-x,y,z
1/2+x,-y,z
1/2+x,1/2+y,1/2+z
1/2-x,1/2-y,1/2+z
-x,1/2+y,1/2+z
x,1/2-y,1/2+z
loop_
_atom_site_type_symbol
_atom_site_label
_atom_site_fract_x
_atom_site_fract_y
_atom_site_fract_z
Si Si1 0.481214 0.815383 0.846060
Si Si2 0.413116 0.151095 0.529376
Si Si3 0.250000 0.193371 0.797839
Si Si4 0.250000 0.824054 0.777240
Si Si5 0.250000 0.661078 0.167366
Si Si6 0.915235 0.161007 0.951690
Si Si7 0.016139 0.183223 0.124508
Si Si8 0.250000 0.207186 0.689169
O O1 0.626813 0.741899 0.831045
O O2 0.382582 0.753077 0.803780
O O3 0.426139 0.764102 0.898402
O O4 0.500000 0.000000 0.845844
O O5 0.250000 0.119278 0.515188
O O6 0.503675 0.221999 0.486227
O O7 0.413037 0.264217 0.575023
O O8 0.500000 0.000000 0.545043
O O9 0.250000 0.260365 0.744418
O O10 0.250000 0.008592 0.787470
O O11 0.250000 0.771044 0.721631
O O12 0.377481 0.720834 0.135722
O O13 0.250000 0.474825 0.173972
O O14 0.750000 0.139661 0.964872
O O15 0.000000 0.000000 0.954621
O O16 0.113714 0.213533 0.169305
O O17 0.000000 0.000000 0.119027
#
# Coordination Sequence:
#
# PCOD8193332 Si02
#       8
#     8   8   4   4   4   8   8   4
#     4   9  17  30  54  90 130 165 214 270 326 380
#     4  12  27  47  71  95 128 169 223 280 342 414
#     4   9  18  29  58  87 128 165 216 277 322 381
#     4   9  16  33  52  93 124 165 216 271 324 371
#     4  11  23  37  70  95 132 179 220 279 324 393
#     4  11  23  39  66 100 138 174 218 274 336 399
#     4  12  26  43  66  96 134 172 220 273 338 403
#     4  11  21  43  62  99 132 173 230 273 332 387
#
# _framework density 20.969906000000002
#
# number of rings (size 3 to 8) (size 9 to 14) (size 15 to 20)
#    0.000    1.333    1.667    4.500    7.000    2.667 
#    0.000    0.000    0.000    6.000    0.000    0.000 
#    0.000    0.000    0.000    0.000    0.000    0.000 
#
# Total GULP energy -297393.215871 kJ/mol
# GULP energy per Si atom -12391.383995 kJ/mol
# Density = 2.092218 g / cm^3
# Si number density = 20.969906 Si / 1000 Ang^3
#
#
#
# Elastic Constant Matrix: (Units=GPa)
#
#
# Indices 1 2 3 4 5 6 
#
# 1 182.8095 23.1984 47.4333 0.0000 0.0000 0.0000
# 2 23.1984 73.2081 19.8812 0.0000 0.0000 0.0000
# 3 47.4333 19.8812 111.8229 0.0000 0.0000 0.0000
# 4 0.0000 0.0000 0.0000 26.2513 0.0000 0.0000
# 5 0.0000 0.0000 0.0000 0.0000 45.3093 0.0000
# 6 0.0000 0.0000 0.0000 0.0000 0.0000 22.7098
#
#
#
# Elastic Compliance Matrix: (Units=1/GPa)
#
#
# Indices 1 2 3 4 5 6 
#
# 1 0.006267 -0.001328 -0.002422 0.000000 0.000000 0.000000
# 2 -0.001328 0.014634 -0.002038 0.000000 0.000000 0.000000
# 3 -0.002422 -0.002038 0.010333 0.000000 0.000000 0.000000
# 4 0.000000 0.000000 0.000000 0.038093 0.000000 0.000000
# 5 0.000000 0.000000 0.000000 0.000000 0.022071 0.000000
# 6 0.000000 0.000000 0.000000 0.000000 0.000000 0.044034
#
#
# Mechanical properties :
#
#
# Convention : Reuss Voigt Hill
#
# Bulk Modulus (GPa) = 50.87461 60.98515 55.92988
# Shear Modulus (GPa) = 32.56022 37.34260 34.95141
#
# Velocity S-wave (km/s) = 3.94472 4.22450 4.08700
# Velocity P-wave (km/s) = 6.71276 7.27602 7.00006
#
# Compressibility (1/GPa) = 0.01965617
#
# Stress axis : x y z
#
# Youngs Moduli (GPa) = 159.56016 68.33338 96.78070
#
# Poissons Ratio (x) = 0.09076 0.23443
# Poissons Ratio (y) = 0.21192 0.19728
# Poissons Ratio (z) = 0.38650 0.13929
#
# Static dielectric constant tensor:
#      x y z
#    x 4.227870 0.000000 0.000000 
#    y 0.000000 3.446870 0.000000 
#    z 0.000000 0.000000 4.023800 
# 
# 
# High freq. dielectric constant tensor:
#      x y z
#    x 1.845210 0.000000 0.000000 
#    y 0.000000 1.781890 0.000000 
#    z 0.000000 0.000000 1.837690 
# 
# From -- ./inp_files/25069.got.cif
#   From: 2010.03.12/outbox.cif.g09.slc.cpg/sg46_13_cif.got.tgz:25069.got - 2010.04.14 02:56:35.
