data_PCOD8193979
_publ_section_title
;
Structure prediction by ZEFSAII (Michael W. Deem and Ramdas Pophale) SiO2 
 PCOD8193979
Probable space group: P M M M
;
_chemical_formula_sum "Si O2"
_cell_formula_units_Z 56
_cell_length_a 14.592927
_cell_length_b 9.201132
_cell_length_c 23.282739
_cell_angle_alpha 90.000000
_cell_angle_beta 90.000000
_cell_angle_gamma 90.000000
_cell_volume 3126.207069
_symmetry_space_group_name_H-M "P M M M"
_symmetry_group_IT_number 47
_symmetry_cell_setting 'orthorhombic'
loop_
_space_group_symop_operation_xyz
x,y,z
-x,-y,z
x,-y,-z
-x,y,-z
-x,-y,-z
x,y,-z
-x,y,z
x,-y,z
loop_
_atom_site_type_symbol
_atom_site_label
_atom_site_fract_x
_atom_site_fract_y
_atom_site_fract_z
Si Si1 0.712040 0.670072 0.564763
Si Si2 0.100023 0.327763 0.386959
Si Si3 0.396439 0.331033 0.778180
Si Si4 0.102926 0.329401 0.260060
Si Si5 0.103165 0.830261 0.066438
Si Si6 0.221496 0.670245 0.156674
Si Si7 0.607850 0.833805 0.663806
O O1 0.680299 0.704874 0.500000
O O2 0.700979 0.500000 0.578897
O O3 0.818793 0.718364 0.570335
O O4 0.650739 0.759727 0.608180
O O5 0.092856 0.500000 0.382697
O O6 0.123362 0.264676 0.323387
O O7 0.000000 0.268202 0.407753
O O8 0.500000 0.285379 0.795622
O O9 0.391215 0.500000 0.761570
O O10 0.329714 0.298125 0.832397
O O11 0.361158 0.244969 0.722291
O O12 0.119535 0.500000 0.262383
O O13 0.169861 0.263167 0.212271
O O14 0.000000 0.290990 0.241280
O O15 0.183267 0.748268 0.100435
O O16 0.000000 0.780247 0.084597
O O17 0.113955 0.000000 0.078113
O O18 0.118801 0.793574 0.000000
O O19 0.202460 0.500000 0.148832
O O20 0.500000 0.820096 0.656448
O O21 0.640292 0.000000 0.667007
#
# Coordination Sequence:
#
# PCOD8193979 Si02
#       7
#     8   8   8   8   8   8   8
#     4  10  20  32  48  71  96 124 161 203 246 293
#     4   8  14  26  44  66  94 125 154 188 233 286
#     4   9  18  33  53  77 104 130 156 193 244 298
#     4   8  13  21  36  62  93 119 144 181 231 281
#     4   9  19  35  51  69 100 141 177 207 243 286
#     4  10  18  28  48  76 102 129 163 203 244 287
#     4  10  21  36  53  72  95 125 160 199 246 298
#
# _framework density 17.913080999999998
#
# number of rings (size 3 to 8) (size 9 to 14) (size 15 to 20)
#    0.000    2.857    0.000    3.000    0.000    5.714 
#    0.000    3.571    0.000    0.857    0.000    4.000 
#    0.000    0.000    0.000    0.000    0.000    0.000 
#
# Total GULP energy -694051.242689 kJ/mol
# GULP energy per Si atom -12393.772191 kJ/mol
# Density = 1.787231 g / cm^3
# Si number density = 17.913081 Si / 1000 Ang^3
#
#
#
# Elastic Constant Matrix: (Units=GPa)
#
#
# Indices 1 2 3 4 5 6 
#
# 1 75.9303 37.3232 56.8179 0.0000 0.0000 0.0000
# 2 37.3232 54.4653 46.0225 0.0000 0.0000 0.0000
# 3 56.8179 46.0225 94.2414 0.0000 0.0000 0.0000
# 4 0.0000 0.0000 0.0000 15.8001 0.0000 0.0000
# 5 0.0000 0.0000 0.0000 0.0000 29.7335 0.0000
# 6 0.0000 0.0000 0.0000 0.0000 0.0000 17.2529
#
#
#
# Elastic Compliance Matrix: (Units=1/GPa)
#
#
# Indices 1 2 3 4 5 6 
#
# 1 0.025768 -0.007714 -0.011768 0.000000 0.000000 0.000000
# 2 -0.007714 0.033569 -0.011743 0.000000 0.000000 0.000000
# 3 -0.011768 -0.011743 0.023441 0.000000 0.000000 0.000000
# 4 0.000000 0.000000 0.000000 0.063291 0.000000 0.000000
# 5 0.000000 0.000000 0.000000 0.000000 0.033632 0.000000
# 6 0.000000 0.000000 0.000000 0.000000 0.000000 0.057961
#
#
# Mechanical properties :
#
#
# Convention : Reuss Voigt Hill
#
# Bulk Modulus (GPa) = 49.19380 56.10714 52.65047
# Shear Modulus (GPa) = 16.29270 18.18886 17.24078
#
# Velocity S-wave (km/s) = 3.01913 3.18998 3.10573
# Velocity P-wave (km/s) = 6.29886 6.70506 6.50513
#
# Compressibility (1/GPa) = 0.02032776
#
# Stress axis : x y z
#
# Youngs Moduli (GPa) = 38.80826 29.78981 42.66098
#
# Poissons Ratio (x) = 0.22979 0.50205
# Poissons Ratio (y) = 0.29935 0.50095
# Poissons Ratio (z) = 0.45671 0.34981
#
# Static dielectric constant tensor:
#      x y z
#    x 3.541060 0.000000 0.000000 
#    y 0.000000 2.994410 0.000000 
#    z 0.000000 0.000000 3.382740 
# 
# 
# High freq. dielectric constant tensor:
#      x y z
#    x 1.700270 0.000000 0.000000 
#    y 0.000000 1.654880 0.000000 
#    z 0.000000 0.000000 1.679860 
# 
# From -- ./inp_files/30972.got.cif
#   From: 2010.03.12/outbox.cif.g09.slc.cpg/sg47_16_cif.got.tgz:30972.got - 2010.04.14 03:12:58.
