data_PCOD8193545
_publ_section_title
;
Structure prediction by ZEFSAII (Michael W. Deem and Ramdas Pophale) SiO2 
 PCOD8193545
Probable space group: P M M M
;
_chemical_formula_sum "Si O2"
_cell_formula_units_Z 40
_cell_length_a 7.884175
_cell_length_b 24.284658
_cell_length_c 12.861444
_cell_angle_alpha 90.000000
_cell_angle_beta 90.000000
_cell_angle_gamma 90.000000
_cell_volume 2462.509861
_symmetry_space_group_name_H-M "P M M M"
_symmetry_group_IT_number 47
_symmetry_cell_setting 'orthorhombic'
loop_
_space_group_symop_operation_xyz
x,y,z
-x,-y,z
x,-y,-z
-x,y,-z
-x,-y,-z
x,y,-z
-x,y,z
x,-y,z
loop_
_atom_site_type_symbol
_atom_site_label
_atom_site_fract_x
_atom_site_fract_y
_atom_site_fract_z
Si Si1 0.201080 0.255841 0.384410
Si Si2 0.809329 0.864724 0.375853
Si Si3 0.700359 0.438588 0.883467
Si Si4 0.202805 0.561845 0.500000
Si Si5 0.803203 0.630912 0.307300
Si Si6 0.500000 0.937862 0.623979
O O1 0.277906 0.263308 0.500000
O O2 0.251280 0.196092 0.337246
O O3 0.271189 0.306644 0.314231
O O4 0.000000 0.257090 0.391773
O O5 0.813315 0.864048 0.500000
O O6 0.671056 0.908341 0.333878
O O7 0.000000 0.879550 0.334921
O O8 0.500000 0.437183 0.878061
O O9 0.765105 0.500000 0.853187
O O10 0.774049 0.393338 0.806444
O O11 0.762418 0.424097 0.000000
O O12 0.275506 0.500000 0.500000
O O13 0.276144 0.592295 0.602707
O O14 0.000000 0.560856 0.500000
O O15 0.000000 0.634472 0.330801
O O16 0.500000 0.936847 0.500000
O O17 0.500000 0.000000 0.666791
#
# Coordination Sequence:
#
# PCOD8193545 Si02
#       6
#     8   8   8   4   8   4
#     4   8  13  24  40  57  80 107 132 161 204 255
#     4   8  14  24  37  51  72 106 140 171 210 251
#     4   9  19  35  48  56  75 108 140 173 216 262
#     4   9  16  24  37  61  89 109 123 156 216 267
#     4  10  17  27  45  66  83 102 134 173 211 255
#     4   9  16  24  34  52  76 102 139 184 215 237
#
# _framework density 16.243589
#
# number of rings (size 3 to 8) (size 9 to 14) (size 15 to 20)
#    0.000    3.200    1.000    2.400    0.000    2.000 
#    1.800    3.500    0.000    1.800    0.000    0.000 
#    0.000    0.000    0.000    0.000    0.000    2.000 
#
# Total GULP energy -495581.234327 kJ/mol
# GULP energy per Si atom -12389.530858 kJ/mol
# Density = 1.620662 g / cm^3
# Si number density = 16.243589 Si / 1000 Ang^3
#
#
#
# Elastic Constant Matrix: (Units=GPa)
#
#
# Indices 1 2 3 4 5 6 
#
# 1 46.4162 47.0184 9.3481 0.0000 0.0000 0.0000
# 2 47.0184 165.0788 44.2269 0.0000 0.0000 0.0000
# 3 9.3481 44.2269 54.3485 0.0000 0.0000 0.0000
# 4 0.0000 0.0000 0.0000 12.4566 0.0000 0.0000
# 5 0.0000 0.0000 0.0000 0.0000 -0.0490 0.0000
# 6 0.0000 0.0000 0.0000 0.0000 0.0000 17.3808
#
#
#
# Elastic Compliance Matrix: (Units=1/GPa)
#
#
# Indices 1 2 3 4 5 6 
#
# 1 0.030510 -0.009315 0.002332 0.000000 0.000000 0.000000
# 2 -0.009315 0.010591 -0.007016 0.000000 0.000000 0.000000
# 3 0.002332 -0.007016 0.023708 0.000000 0.000000 0.000000
# 4 0.000000 0.000000 0.000000 0.080279 0.000000 0.000000
# 5 0.000000 0.000000 0.000000 0.000000-20.421189 0.000000
# 6 0.000000 0.000000 0.000000 0.000000 0.000000 0.057535
#
#
# Mechanical properties :
#
#
# Convention : Reuss Voigt Hill
#
# Bulk Modulus (GPa) = 27.16541 51.89226 39.52883
# Shear Modulus (GPa) = -0.24779 16.97435 8.36328
#
# Velocity S-wave (km/s) = -0.39100 3.23613 2.27153
# Velocity P-wave (km/s) = 4.06894 6.78079 5.59175
#
# Compressibility (1/GPa) = 0.03681152
#
# Stress axis : x y z
#
# Youngs Moduli (GPa) = 32.77591 94.42417 42.17984
#
# Poissons Ratio (x) = 0.87955 -0.09838
# Poissons Ratio (y) = 0.30530 0.29593
# Poissons Ratio (z) = -0.07644 0.66248
#
# Static dielectric constant tensor:
#      x y z
#    x 2.928100 0.000000 0.000000 
#    y 0.000000 3.616700 0.000000 
#    z 0.000000 0.000000 2.988730 
# 
# 
# High freq. dielectric constant tensor:
#      x y z
#    x 1.612150 0.000000 0.000000 
#    y 0.000000 1.628370 0.000000 
#    z 0.000000 0.000000 1.557550 
# 
# From -- ./inp_files/21260.got.cif
#   From: 2010.03.12/outbox.cif.g09.slc.cpg/sg47_11_cif.got.tgz:21260.got - 2010.04.14 03:12:58.
