data_PCOD8193272
_publ_section_title
;
Structure prediction by ZEFSAII (Michael W. Deem and Ramdas Pophale) SiO2 
 PCOD8193272
Probable space group: I M A 2
;
_chemical_formula_sum "Si O2"
_cell_formula_units_Z 60
_cell_length_a 26.137636
_cell_length_b 9.100178
_cell_length_c 11.616658
_cell_angle_alpha 90.000000
_cell_angle_beta 90.000000
_cell_angle_gamma 90.000000
_cell_volume 2763.105049
_symmetry_space_group_name_H-M "I M A 2"
_symmetry_group_IT_number 46
_symmetry_cell_setting 'orthorhombic'
loop_
_space_group_symop_operation_xyz
x,y,z
-x,-y,z
1/2-x,y,z
1/2+x,-y,z
1/2+x,1/2+y,1/2+z
1/2-x,1/2-y,1/2+z
-x,1/2+y,1/2+z
x,1/2-y,1/2+z
loop_
_atom_site_type_symbol
_atom_site_label
_atom_site_fract_x
_atom_site_fract_y
_atom_site_fract_z
Si Si1 0.541256 0.197833 0.098730
Si Si2 0.402090 0.015144 0.937002
Si Si3 0.309490 0.940488 0.307078
Si Si4 0.500000 0.000000 0.291669
Si Si5 0.368263 0.843607 0.719595
Si Si6 0.692725 0.609415 0.579548
Si Si7 0.343195 0.071468 0.548439
Si Si8 0.945881 0.678232 0.969997
O O1 0.520805 0.135429 0.218620
O O2 0.590957 0.294592 0.123482
O O3 0.498621 0.298350 0.038637
O O4 0.556854 0.061058 0.019812
O O5 0.425111 0.174235 0.909892
O O6 0.398254 0.923982 0.821042
O O7 0.346169 0.027261 0.994635
O O8 0.250000 0.906949 0.322833
O O9 0.336185 0.789641 0.270703
O O10 0.320028 0.063833 0.210491
O O11 0.331877 0.000127 0.425544
O O12 0.453748 0.059831 0.369399
O O13 0.331245 0.956616 0.651226
O O14 0.750000 0.557160 0.546276
O O15 0.691137 0.785217 0.569121
O O16 0.402847 0.118001 0.556681
#
# Coordination Sequence:
#
# PCOD8193272 Si02
#       8
#     8   8   8   4   8   8   8   8
#     4  12  23  44  64  98 138 184 235 284 347 410
#     4  11  24  44  68 101 142 183 233 291 345 418
#     4  11  25  47  73 103 143 185 233 298 362 426
#     4  12  24  40  68  90 138 182 232 292 338 408
#     4  12  26  43  72 102 145 184 232 296 353 425
#     4  10  24  46  74 100 136 184 232 289 360 425
#     4  11  26  45  71 104 140 181 239 293 350 429
#     4  11  25  42  67  99 136 190 238 282 352 412
#
# _framework density 21.714701000000002
#
# number of rings (size 3 to 8) (size 9 to 14) (size 15 to 20)
#    0.000    0.800    2.667    3.600    5.600    1.600 
#    0.000    0.000    0.000    0.000    0.000    0.000 
#    0.000    0.000    0.000    0.000    0.000    0.000 
#
# Total GULP energy -372184.949167 kJ/mol
# GULP energy per Si atom -12406.164972 kJ/mol
# Density = 2.166528 g / cm^3
# Si number density = 21.714701 Si / 1000 Ang^3
#
#
#
# Elastic Constant Matrix: (Units=GPa)
#
#
# Indices 1 2 3 4 5 6 
#
# 1 91.4042 24.3289 22.8704 0.0000 0.0000 0.0000
# 2 24.3289 104.9625 44.6360 0.0000 0.0000 0.0000
# 3 22.8704 44.6360 88.9906 0.0000 0.0000 0.0000
# 4 0.0000 0.0000 0.0000 32.7274 0.0000 0.0000
# 5 0.0000 0.0000 0.0000 0.0000 22.8742 0.0000
# 6 0.0000 0.0000 0.0000 0.0000 0.0000 29.3386
#
#
#
# Elastic Compliance Matrix: (Units=1/GPa)
#
#
# Indices 1 2 3 4 5 6 
#
# 1 0.011973 -0.001864 -0.002142 0.000000 0.000000 0.000000
# 2 -0.001864 0.012401 -0.005741 0.000000 0.000000 0.000000
# 3 -0.002142 -0.005741 0.014667 0.000000 0.000000 0.000000
# 4 0.000000 0.000000 0.000000 0.030555 0.000000 0.000000
# 5 0.000000 0.000000 0.000000 0.000000 0.043717 0.000000
# 6 0.000000 0.000000 0.000000 0.000000 0.000000 0.034085
#
#
# Mechanical properties :
#
#
# Convention : Reuss Voigt Hill
#
# Bulk Modulus (GPa) = 51.16020 52.11419 51.63719
# Shear Modulus (GPa) = 28.83389 29.88952 29.36170
#
# Velocity S-wave (km/s) = 3.64792 3.71410 3.68116
# Velocity P-wave (km/s) = 6.43074 6.51493 6.47297
#
# Compressibility (1/GPa) = 0.01954645
#
# Stress axis : x y z
#
# Youngs Moduli (GPa) = 83.52450 80.64101 68.17991
#
# Poissons Ratio (x) = 0.15033 0.14603
# Poissons Ratio (y) = 0.15571 0.39141
# Poissons Ratio (z) = 0.17890 0.46295
#
# Static dielectric constant tensor:
#      x y z
#    x 3.984470 0.000000 0.000000 
#    y 0.000000 4.060640 0.000000 
#    z 0.000000 0.000000 3.857300 
# 
# 
# High freq. dielectric constant tensor:
#      x y z
#    x 1.859210 0.000000 0.000000 
#    y 0.000000 1.867580 0.000000 
#    z 0.000000 0.000000 1.853850 
# 
# From -- ./inp_files/13077.got.cif
#   From: 2010.03.12/outbox.cif.g09.slc.cpg/sg46_7_cif.got.tgz:13077.got - 2010.04.14 02:56:35.
