data_PCOD8193533
_publ_section_title
;
Structure prediction by ZEFSAII (Michael W. Deem and Ramdas Pophale) SiO2 
 PCOD8193533
Probable space group: P M M M
;
_chemical_formula_sum "Si O2"
_cell_formula_units_Z 60
_cell_length_a 18.575077
_cell_length_b 25.113037
_cell_length_c 8.247422
_cell_angle_alpha 90.000000
_cell_angle_beta 90.000000
_cell_angle_gamma 90.000000
_cell_volume 3847.229340
_symmetry_space_group_name_H-M "P M M M"
_symmetry_group_IT_number 47
_symmetry_cell_setting 'orthorhombic'
loop_
_space_group_symop_operation_xyz
x,y,z
-x,-y,z
x,-y,-z
-x,y,-z
-x,-y,-z
x,y,-z
-x,y,z
x,-y,z
loop_
_atom_site_type_symbol
_atom_site_label
_atom_site_fract_x
_atom_site_fract_y
_atom_site_fract_z
Si Si1 0.419973 0.662741 0.689451
Si Si2 0.914866 0.940556 0.500000
Si Si3 0.921183 0.665470 0.311634
Si Si4 0.156360 0.771314 0.311859
Si Si5 0.712527 0.719308 0.179746
Si Si6 0.795375 0.608681 0.179676
Si Si7 0.344881 0.559391 0.192003
Si Si8 0.915865 0.873587 0.814801
O O1 0.420359 0.670274 0.500000
O O2 0.500000 0.671343 0.761773
O O3 0.368344 0.708871 0.758703
O O4 0.396610 0.602227 0.726665
O O5 0.889615 0.912859 0.669424
O O6 0.000000 0.943087 0.500000
O O7 0.881963 0.000000 0.500000
O O8 0.930346 0.672687 0.500000
O O9 0.886554 0.719869 0.243344
O O10 0.869188 0.614828 0.280082
O O11 0.000000 0.656095 0.231863
O O12 0.139878 0.782914 0.500000
O O13 0.242142 0.761016 0.289162
O O14 0.130135 0.820083 0.203198
O O15 0.752169 0.663367 0.181654
O O16 0.708381 0.743411 0.000000
O O17 0.738631 0.565848 0.252078
O O18 0.819316 0.592201 0.000000
O O19 0.371322 0.500000 0.237765
O O20 0.346454 0.569489 0.000000
O O21 0.000000 0.860478 0.790685
O O22 0.902941 0.896069 0.000000
#
# Coordination Sequence:
#
# PCOD8193533 Si02
#       8
#     8   4   8   8   8   8   8   8
#     4  10  20  32  45  63  87 111 136 166 200 245
#     4   9  18  32  46  60  84 120 161 205 248 283
#     4   9  17  26  38  57  80 106 132 161 202 253
#     4  10  17  27  43  62  88 116 143 180 225 266
#     4   9  17  29  44  62  83 109 141 171 204 252
#     4   8  15  27  41  57  76  97 125 162 200 244
#     4   9  18  32  48  63  78  99 129 166 208 250
#     4  10  19  29  43  64  89 119 158 202 243 280
#
# _framework density 15.595637999999999
#
# number of rings (size 3 to 8) (size 9 to 14) (size 15 to 20)
#    0.000    2.733    0.667    2.400    0.000    6.400 
#    0.000    2.667    0.000    0.400    0.000    2.800 
#    0.000    0.000    0.000    0.000    0.000    1.333 
#
# Total GULP energy -743403.028763 kJ/mol
# GULP energy per Si atom -12390.050479 kJ/mol
# Density = 1.556014 g / cm^3
# Si number density = 15.595638 Si / 1000 Ang^3
#
#
#
# Elastic Constant Matrix: (Units=GPa)
#
#
# Indices 1 2 3 4 5 6 
#
# 1 102.8461 24.7778 22.6586 0.0000 0.0000 0.0000
# 2 24.7778 39.7501 17.6762 0.0000 0.0000 0.0000
# 3 22.6586 17.6762 62.4219 0.0000 0.0000 0.0000
# 4 0.0000 0.0000 0.0000 17.5788 0.0000 0.0000
# 5 0.0000 0.0000 0.0000 0.0000 19.6256 0.0000
# 6 0.0000 0.0000 0.0000 0.0000 0.0000 10.3387
#
#
#
# Elastic Compliance Matrix: (Units=1/GPa)
#
#
# Indices 1 2 3 4 5 6 
#
# 1 0.011776 -0.006223 -0.002512 0.000000 0.000000 0.000000
# 2 -0.006223 0.032070 -0.006822 0.000000 0.000000 0.000000
# 3 -0.002512 -0.006822 0.018864 0.000000 0.000000 0.000000
# 4 0.000000 0.000000 0.000000 0.056887 0.000000 0.000000
# 5 0.000000 0.000000 0.000000 0.000000 0.050954 0.000000
# 6 0.000000 0.000000 0.000000 0.000000 0.000000 0.096724
#
#
# Mechanical properties :
#
#
# Convention : Reuss Voigt Hill
#
# Bulk Modulus (GPa) = 31.65151 37.24927 34.45039
# Shear Modulus (GPa) = 16.18530 18.83565 17.51048
#
# Velocity S-wave (km/s) = 3.22500 3.47904 3.35443
# Velocity P-wave (km/s) = 5.84865 6.33045 6.09431
#
# Compressibility (1/GPa) = 0.03159407
#
# Stress axis : x y z
#
# Youngs Moduli (GPa) = 84.91770 31.18158 53.01126
#
# Poissons Ratio (x) = 0.19405 0.13318
# Poissons Ratio (y) = 0.52847 0.36167
# Poissons Ratio (z) = 0.21334 0.21273
#
# Static dielectric constant tensor:
#      x y z
#    x 3.191150 0.000000 0.000000 
#    y 0.000000 2.776740 0.000000 
#    z 0.000000 0.000000 3.050960 
# 
# 
# High freq. dielectric constant tensor:
#      x y z
#    x 1.582700 0.000000 0.000000 
#    y 0.000000 1.550310 0.000000 
#    z 0.000000 0.000000 1.604960 
# 
# From -- ./inp_files/10228.got.cif
#   From: 2010.03.12/outbox.cif.g09.slc.cpg/sg47_6_cif.got.tgz:10228.got - 2010.04.14 03:12:58.
