data_PCOD8193821
_publ_section_title
;
Structure prediction by ZEFSAII (Michael W. Deem and Ramdas Pophale) SiO2 
 PCOD8193821
Probable space group: P M M M
;
_chemical_formula_sum "Si O2"
_cell_formula_units_Z 48
_cell_length_a 19.457135
_cell_length_b 20.333345
_cell_length_c 9.674289
_cell_angle_alpha 90.000000
_cell_angle_beta 90.000000
_cell_angle_gamma 90.000000
_cell_volume 3827.425787
_symmetry_space_group_name_H-M "P M M M"
_symmetry_group_IT_number 47
_symmetry_cell_setting 'orthorhombic'
loop_
_space_group_symop_operation_xyz
x,y,z
-x,-y,z
x,-y,-z
-x,y,-z
-x,-y,-z
x,y,-z
-x,y,z
x,-y,z
loop_
_atom_site_type_symbol
_atom_site_label
_atom_site_fract_x
_atom_site_fract_y
_atom_site_fract_z
Si Si1 0.075725 0.921859 0.155484
Si Si2 0.801726 0.075716 0.341252
Si Si3 0.582102 0.500000 0.344240
Si Si4 0.654383 0.871019 0.661829
Si Si5 0.581357 0.384199 0.847184
Si Si6 0.579279 0.764566 0.161437
Si Si7 0.422732 0.000000 0.664256
O O1 0.135122 0.893830 0.254444
O O2 0.000000 0.896297 0.201883
O O3 0.076106 0.000000 0.163417
O O4 0.091283 0.898116 0.000000
O O5 0.823439 0.080307 0.500000
O O6 0.735064 0.119502 0.310457
O O7 0.785511 0.000000 0.301389
O O8 0.500000 0.500000 0.346674
O O9 0.611442 0.500000 0.500000
O O10 0.610715 0.564517 0.265062
O O11 0.639058 0.859904 0.500000
O O12 0.628893 0.808786 0.746830
O O13 0.614997 0.935095 0.719355
O O14 0.500000 0.390417 0.854724
O O15 0.601025 0.310193 0.804145
O O16 0.611209 0.400635 0.000000
O O17 0.500000 0.777316 0.202652
O O18 0.590269 0.779874 0.000000
O O19 0.500000 0.000000 0.721797
O O20 0.420142 0.000000 0.500000
#
# Coordination Sequence:
#
# PCOD8193821 Si02
#       7
#     8   8   4   8   8   8   4
#     4   8  14  24  37  53  71  88 106 129 161 205
#     4   9  16  26  38  52  70  88 110 141 174 212
#     4   9  15  21  33  55  75  85 101 133 166 199
#     4  10  18  28  40  53  67  87 116 149 184 222
#     4   8  14  25  38  49  65  90 112 131 165 212
#     4   9  18  30  40  51  68  89 116 150 184 218
#     4   9  16  26  39  51  62  81 112 148 187 227
#
# _framework density 12.541066000000001
#
# number of rings (size 3 to 8) (size 9 to 14) (size 15 to 20)
#    0.000    3.167    0.833    2.250    0.000    3.667 
#    0.000    3.750    0.000    1.500    0.000    0.000 
#    0.000    0.000    0.000    0.000    0.000    0.000 
#
# Total GULP energy -594948.923077 kJ/mol
# GULP energy per Si atom -12394.769231 kJ/mol
# Density = 1.251252 g / cm^3
# Si number density = 12.541066 Si / 1000 Ang^3
#
#
#
# Elastic Constant Matrix: (Units=GPa)
#
#
# Indices 1 2 3 4 5 6 
#
# 1 70.6937 31.4495 44.2154 0.0000 0.0000 0.0000
# 2 31.4495 74.6899 48.3729 0.0000 0.0000 0.0000
# 3 44.2154 48.3729 72.8437 0.0000 0.0000 0.0000
# 4 0.0000 0.0000 0.0000 19.3594 0.0000 0.0000
# 5 0.0000 0.0000 0.0000 0.0000 19.7392 0.0000
# 6 0.0000 0.0000 0.0000 0.0000 0.0000 3.1424
#
#
#
# Elastic Compliance Matrix: (Units=1/GPa)
#
#
# Indices 1 2 3 4 5 6 
#
# 1 0.022856 -0.001121 -0.013129 0.000000 0.000000 0.000000
# 2 -0.001121 0.023547 -0.014957 0.000000 0.000000 0.000000
# 3 -0.013129 -0.014957 0.031629 0.000000 0.000000 0.000000
# 4 0.000000 0.000000 0.000000 0.051654 0.000000 0.000000
# 5 0.000000 0.000000 0.000000 0.000000 0.050661 0.000000
# 6 0.000000 0.000000 0.000000 0.000000 0.000000 0.318224
#
#
# Mechanical properties :
#
#
# Convention : Reuss Voigt Hill
#
# Bulk Modulus (GPa) = 50.96938 51.81142 51.39040
# Shear Modulus (GPa) = 8.87274 14.72751 11.80013
#
# Velocity S-wave (km/s) = 2.66276 3.43059 3.07077
# Velocity P-wave (km/s) = 7.08406 7.55612 7.32390
#
# Compressibility (1/GPa) = 0.01961962
#
# Stress axis : x y z
#
# Youngs Moduli (GPa) = 43.75302 42.46781 31.61644
#
# Poissons Ratio (x) = 0.04760 0.41508
# Poissons Ratio (y) = 0.04904 0.47287
# Poissons Ratio (z) = 0.57442 0.63517
#
# Static dielectric constant tensor:
#      x y z
#    x 2.461160 0.000000 0.000000 
#    y 0.000000 2.435380 0.000000 
#    z 0.000000 0.000000 2.631320 
# 
# 
# High freq. dielectric constant tensor:
#      x y z
#    x 1.443920 0.000000 0.000000 
#    y 0.000000 1.447940 0.000000 
#    z 0.000000 0.000000 1.477740 
# 
# From -- ./inp_files/11446.got.cif
#   From: 2010.03.12/outbox.cif.g09.slc.cpg/sg47_6_cif.got.tgz:11446.got - 2010.04.14 03:12:58.
