data_PCOD8193771
_publ_section_title
;
Structure prediction by ZEFSAII (Michael W. Deem and Ramdas Pophale) SiO2 
 PCOD8193771
Probable space group: P M M M
;
_chemical_formula_sum "Si O2"
_cell_formula_units_Z 48
_cell_length_a 9.167393
_cell_length_b 23.957257
_cell_length_c 12.883517
_cell_angle_alpha 90.000000
_cell_angle_beta 90.000000
_cell_angle_gamma 90.000000
_cell_volume 2829.550024
_symmetry_space_group_name_H-M "P M M M"
_symmetry_group_IT_number 47
_symmetry_cell_setting 'orthorhombic'
loop_
_space_group_symop_operation_xyz
x,y,z
-x,-y,z
x,-y,-z
-x,y,-z
-x,-y,-z
x,y,-z
-x,y,z
x,-y,z
loop_
_atom_site_type_symbol
_atom_site_label
_atom_site_fract_x
_atom_site_fract_y
_atom_site_fract_z
Si Si1 0.827076 0.937797 0.195993
Si Si2 0.326473 0.560628 0.117653
Si Si3 0.328594 0.748693 0.616888
Si Si4 0.673198 0.252026 0.000000
Si Si5 0.829518 0.137550 0.382630
Si Si6 0.673089 0.324313 0.804246
Si Si7 0.826463 0.866554 0.000000
O O1 0.776021 0.910662 0.304734
O O2 0.000000 0.941817 0.191571
O O3 0.759626 0.000000 0.188498
O O4 0.771332 0.900546 0.100460
O O5 0.500000 0.562109 0.118855
O O6 0.272627 0.500000 0.161010
O O7 0.264000 0.612453 0.184998
O O8 0.271263 0.568210 0.000000
O O9 0.287284 0.730226 0.500000
O O10 0.500000 0.758350 0.629129
O O11 0.252536 0.806120 0.647683
O O12 0.271534 0.700938 0.695154
O O13 0.726918 0.285938 0.899084
O O14 0.500000 0.243096 0.000000
O O15 0.750993 0.192915 0.000000
O O16 0.791955 0.118578 0.500000
O O17 0.000000 0.149531 0.369242
O O18 0.500000 0.326676 0.806909
O O19 0.000000 0.858464 0.000000
#
# Coordination Sequence:
#
# PCOD8193771 Si02
#       7
#     8   8   8   4   8   8   4
#     4   9  17  29  45  63  81 104 134 165 199 241
#     4   8  12  19  33  54  81 109 135 167 205 237
#     4   9  17  28  42  59  82 113 139 159 194 246
#     4  10  18  27  42  63  84 106 131 166 208 238
#     4   9  17  29  45  64  83 102 130 171 209 236
#     4   9  15  24  38  58  83 108 137 169 200 238
#     4  10  19  30  44  61  83 109 135 162 194 240
#
# _framework density 16.963827999999999
#
# number of rings (size 3 to 8) (size 9 to 14) (size 15 to 20)
#    0.000    3.000    0.833    1.750    0.000    1.333 
#    0.000    1.667    0.000    3.000    0.000    5.833 
#    0.000    3.333    0.000    4.167    0.000    4.333 
#
# Total GULP energy -594914.380876 kJ/mol
# GULP energy per Si atom -12394.049602 kJ/mol
# Density = 1.692522 g / cm^3
# Si number density = 16.963828 Si / 1000 Ang^3
#
#
#
# Elastic Constant Matrix: (Units=GPa)
#
#
# Indices 1 2 3 4 5 6 
#
# 1 11.5934 20.1566 13.8342 0.0000 0.0000 0.0000
# 2 20.1566 182.3126 92.3987 0.0000 0.0000 0.0000
# 3 13.8342 92.3987 120.6572 0.0000 0.0000 0.0000
# 4 0.0000 0.0000 0.0000 22.9405 0.0000 0.0000
# 5 0.0000 0.0000 0.0000 0.0000 10.8128 0.0000
# 6 0.0000 0.0000 0.0000 0.0000 0.0000 207.6135
#
#
#
# Elastic Compliance Matrix: (Units=1/GPa)
#
#
# Indices 1 2 3 4 5 6 
#
# 1 0.108843 -0.009330 -0.005335 0.000000 0.000000 0.000000
# 2 -0.009330 0.009764 -0.006407 0.000000 0.000000 0.000000
# 3 -0.005335 -0.006407 0.013806 0.000000 0.000000 0.000000
# 4 0.000000 0.000000 0.000000 0.043591 0.000000 0.000000
# 5 0.000000 0.000000 0.000000 0.000000 0.092483 0.000000
# 6 0.000000 0.000000 0.000000 0.000000 0.000000 0.004817
#
#
# Mechanical properties :
#
#
# Convention : Reuss Voigt Hill
#
# Bulk Modulus (GPa) = 11.07797 63.03804 37.05801
# Shear Modulus (GPa) = 14.47014 60.81825 37.64420
#
# Velocity S-wave (km/s) = 2.92378 5.99413 4.71583
# Velocity P-wave (km/s) = 4.23586 9.22751 7.17947
#
# Compressibility (1/GPa) = 0.09026921
#
# Stress axis : x y z
#
# Youngs Moduli (GPa) = 9.18751 102.41661 72.42998
#
# Poissons Ratio (x) = 0.95556 0.38640
# Poissons Ratio (y) = 0.08572 0.46409
# Poissons Ratio (z) = 0.04901 0.65623
#
# Static dielectric constant tensor:
#      x y z
#    x 2.672390 0.000000 0.000000 
#    y 0.000000 3.562080 0.000000 
#    z 0.000000 0.000000 3.387300 
# 
# 
# High freq. dielectric constant tensor:
#      x y z
#    x 1.597040 0.000000 0.000000 
#    y 0.000000 1.661930 0.000000 
#    z 0.000000 0.000000 1.654980 
# 
# From -- ./inp_files/16466.got.cif
#   From: 2010.03.12/outbox.cif.g09.slc.cpg/sg47_9_cif.got.tgz:16466.got - 2010.04.14 03:12:58.
