data_PCOD8193295
_publ_section_title
;
Structure prediction by ZEFSAII (Michael W. Deem and Ramdas Pophale) SiO2 
 PCOD8193295
Probable space group: I M A 2
;
_chemical_formula_sum "Si O2"
_cell_formula_units_Z 56
_cell_length_a 8.934159
_cell_length_b 13.727186
_cell_length_c 29.272386
_cell_angle_alpha 90.000000
_cell_angle_beta 90.000000
_cell_angle_gamma 90.000000
_cell_volume 3589.990662
_symmetry_space_group_name_H-M "I M A 2"
_symmetry_group_IT_number 46
_symmetry_cell_setting 'orthorhombic'
loop_
_space_group_symop_operation_xyz
x,y,z
-x,-y,z
1/2-x,y,z
1/2+x,-y,z
1/2+x,1/2+y,1/2+z
1/2-x,1/2-y,1/2+z
-x,1/2+y,1/2+z
x,1/2-y,1/2+z
loop_
_atom_site_type_symbol
_atom_site_label
_atom_site_fract_x
_atom_site_fract_y
_atom_site_fract_z
Si Si1 0.575195 0.099745 0.355530
Si Si2 0.427273 0.106302 0.988987
Si Si3 0.075343 0.899146 0.812899
Si Si4 0.428233 0.707708 0.767040
Si Si5 0.424634 0.896066 0.177877
Si Si6 0.423357 0.795048 0.906088
Si Si7 0.074446 0.604567 0.577957
O O1 0.750000 0.080944 0.352792
O O2 0.513467 0.132306 0.305665
O O3 0.539208 0.184247 0.392113
O O4 0.500000 0.000000 0.371788
O O5 0.250000 0.095258 0.991939
O O6 0.470361 0.177042 0.947823
O O7 0.500000 0.000000 0.981793
O O8 0.491291 0.157309 0.035591
O O9 0.250000 0.912745 0.806100
O O10 0.012484 0.816180 0.778431
O O11 0.038931 0.867685 0.864592
O O12 0.000000 0.000000 0.800064
O O13 0.250000 0.710182 0.769881
O O14 0.487358 0.675779 0.717137
O O15 0.250000 0.914237 0.185218
O O16 0.453517 0.846638 0.127887
O O17 0.500000 0.000000 0.183022
O O18 0.250000 0.805563 0.920298
O O19 0.250000 0.596105 0.567051
O O20 0.000000 0.500000 0.581351
#
# Coordination Sequence:
#
# PCOD8193295 Si02
#       7
#     8   8   8   8   8   8   8
#     4   9  17  29  45  63  87 115 141 172 208 244
#     4  11  20  29  43  62  85 113 141 174 212 252
#     4   9  17  29  44  60  83 112 141 173 207 242
#     4   8  15  28  43  61  85 114 142 167 202 247
#     4   9  16  26  42  62  85 112 140 168 201 243
#     4   9  18  31  44  61  85 114 144 173 207 248
#     4   9  16  26  40  59  83 110 138 169 205 248
#
# _framework density 15.598927
#
# number of rings (size 3 to 8) (size 9 to 14) (size 15 to 20)
#    0.000    2.857    0.000    5.143    0.000    2.857 
#    0.000    2.857    0.000    0.000    0.000    1.000 
#    0.000    2.286    0.000    0.000    0.000    0.000 
#
# Total GULP energy -346979.804903 kJ/mol
# GULP energy per Si atom -12392.135889 kJ/mol
# Density = 1.556342 g / cm^3
# Si number density = 15.598927 Si / 1000 Ang^3
#
#
#
# Elastic Constant Matrix: (Units=GPa)
#
#
# Indices 1 2 3 4 5 6 
#
# 1 64.7682 33.7355 50.7667 0.0000 0.0000 0.0000
# 2 33.7355 94.7359 53.9188 0.0000 0.0000 0.0000
# 3 50.7667 53.9188 130.8809 0.0000 0.0000 0.0000
# 4 0.0000 0.0000 0.0000 20.9012 0.0000 0.0000
# 5 0.0000 0.0000 0.0000 0.0000 18.6287 0.0000
# 6 0.0000 0.0000 0.0000 0.0000 0.0000 23.5431
#
#
#
# Elastic Compliance Matrix: (Units=1/GPa)
#
#
# Indices 1 2 3 4 5 6 
#
# 1 0.023359 -0.004130 -0.007359 0.000000 0.000000 0.000000
# 2 -0.004130 0.014519 -0.004379 0.000000 0.000000 0.000000
# 3 -0.007359 -0.004379 0.012299 0.000000 0.000000 0.000000
# 4 0.000000 0.000000 0.000000 0.047844 0.000000 0.000000
# 5 0.000000 0.000000 0.000000 0.000000 0.053681 0.000000
# 6 0.000000 0.000000 0.000000 0.000000 0.000000 0.042475
#
#
# Mechanical properties :
#
#
# Convention : Reuss Voigt Hill
#
# Bulk Modulus (GPa) = 54.22906 63.02525 58.62715
# Shear Modulus (GPa) = 21.54607 22.74553 22.14580
#
# Velocity S-wave (km/s) = 3.72055 3.82271 3.77198
# Velocity P-wave (km/s) = 7.30046 7.74438 7.52570
#
# Compressibility (1/GPa) = 0.01844030
#
# Stress axis : x y z
#
# Youngs Moduli (GPa) = 42.80992 68.87631 81.30528
#
# Poissons Ratio (x) = 0.28443 0.59836
# Poissons Ratio (y) = 0.17679 0.35607
# Poissons Ratio (z) = 0.31505 0.30164
#
# Static dielectric constant tensor:
#      x y z
#    x 2.880660 0.000000 0.000000 
#    y 0.000000 2.905820 0.000000 
#    z 0.000000 0.000000 3.490630 
# 
# 
# High freq. dielectric constant tensor:
#      x y z
#    x 1.591370 0.000000 0.000000 
#    y 0.000000 1.565230 0.000000 
#    z 0.000000 0.000000 1.602670 
# 
# From -- ./inp_files/25233.got.cif
#   From: 2010.03.12/outbox.cif.g09.slc.cpg/sg46_13_cif.got.tgz:25233.got - 2010.04.14 02:56:35.
