data_PCOD8193060
_publ_section_title
;
Structure prediction by ZEFSAII (Michael W. Deem and Ramdas Pophale) SiO2 
 PCOD8193060
Probable space group: I M A 2
;
_chemical_formula_sum "Si O2"
_cell_formula_units_Z 64
_cell_length_a 16.401672
_cell_length_b 10.550696
_cell_length_c 17.872758
_cell_angle_alpha 90.000000
_cell_angle_beta 90.000000
_cell_angle_gamma 90.000000
_cell_volume 3092.863885
_symmetry_space_group_name_H-M "I M A 2"
_symmetry_group_IT_number 46
_symmetry_cell_setting 'orthorhombic'
loop_
_space_group_symop_operation_xyz
x,y,z
-x,-y,z
1/2-x,y,z
1/2+x,-y,z
1/2+x,1/2+y,1/2+z
1/2-x,1/2-y,1/2+z
-x,1/2+y,1/2+z
x,1/2-y,1/2+z
loop_
_atom_site_type_symbol
_atom_site_label
_atom_site_fract_x
_atom_site_fract_y
_atom_site_fract_z
Si Si1 0.154584 0.184293 0.108870
Si Si2 0.159034 0.463369 0.455283
Si Si3 0.027050 0.633763 0.251255
Si Si4 0.067262 0.722887 0.453811
Si Si5 0.003938 0.358300 0.084528
Si Si6 0.904939 0.540492 0.757523
Si Si7 0.841722 0.293293 0.821083
Si Si8 0.589669 0.744106 0.357848
O O1 0.250000 0.225587 0.119231
O O2 0.096827 0.307457 0.094893
O O3 0.123630 0.105835 0.180597
O O4 0.144293 0.099168 0.035609
O O5 0.250000 0.520555 0.451425
O O6 0.094217 0.576520 0.447678
O O7 0.154193 0.359652 0.387149
O O8 0.110316 0.670668 0.291422
O O9 0.000000 0.500000 0.284205
O O10 0.040889 0.635132 0.163659
O O11 0.952228 0.722451 0.276122
O O12 0.127900 0.814365 0.406840
O O13 0.057359 0.767028 0.539007
O O14 0.976880 0.743681 0.422546
O O15 0.000000 0.500000 0.049231
O O16 0.854856 0.411094 0.766368
O O17 0.876795 0.617492 0.833966
O O18 0.000000 0.500000 0.755629
O O19 0.750000 0.250158 0.821527
#
# Coordination Sequence:
#
# PCOD8193060 Si02
#       8
#     8   8   8   8   8   8   8   8
#     4  11  25  44  66  98 136 173 219 273 334 392
#     4  11  25  41  63  98 134 172 218 275 337 390
#     4  10  21  41  64  92 123 169 220 255 321 395
#     4  11  23  40  66  94 127 171 218 270 325 389
#     4  11  24  43  68  94 128 174 224 264 326 403
#     4  12  23  41  69  99 130 178 227 267 328 404
#     4  11  24  42  66  99 135 166 216 281 331 380
#     4  11  21  38  66  90 125 169 217 263 323 388
#
# _framework density 20.692796000000001
#
# number of rings (size 3 to 8) (size 9 to 14) (size 15 to 20)
#    0.000    1.000    5.000    2.625    5.250    1.000 
#    0.000    5.625    0.000    0.000    0.000    0.000 
#    0.000    0.000    0.000    0.000    0.000    0.000 
#
# Total GULP energy -396493.348218 kJ/mol
# GULP energy per Si atom -12390.417132 kJ/mol
# Density = 2.064570 g / cm^3
# Si number density = 20.692796 Si / 1000 Ang^3
#
#
#
# Elastic Constant Matrix: (Units=GPa)
#
#
# Indices 1 2 3 4 5 6 
#
# 1 112.3326 46.5755 40.1911 0.0000 0.0000 0.0000
# 2 46.5755 107.2909 43.7729 0.0000 0.0000 0.0000
# 3 40.1911 43.7729 100.8334 0.0000 0.0000 0.0000
# 4 0.0000 0.0000 0.0000 33.7297 0.0000 0.0000
# 5 0.0000 0.0000 0.0000 0.0000 21.9756 0.0000
# 6 0.0000 0.0000 0.0000 0.0000 0.0000 23.4220
#
#
#
# Elastic Compliance Matrix: (Units=1/GPa)
#
#
# Indices 1 2 3 4 5 6 
#
# 1 0.011534 -0.003805 -0.002945 0.000000 0.000000 0.000000
# 2 -0.003805 0.012582 -0.003945 0.000000 0.000000 0.000000
# 3 -0.002945 -0.003945 0.012804 0.000000 0.000000 0.000000
# 4 0.000000 0.000000 0.000000 0.029647 0.000000 0.000000
# 5 0.000000 0.000000 0.000000 0.000000 0.045505 0.000000
# 6 0.000000 0.000000 0.000000 0.000000 0.000000 0.042695
#
#
# Mechanical properties :
#
#
# Convention : Reuss Voigt Hill
#
# Bulk Modulus (GPa) = 64.39951 64.61510 64.50731
# Shear Modulus (GPa) = 27.57338 28.48663 28.03000
#
# Velocity S-wave (km/s) = 3.65432 3.71434 3.68445
# Velocity P-wave (km/s) = 6.99962 7.04903 7.02437
#
# Compressibility (1/GPa) = 0.01552807
#
# Stress axis : x y z
#
# Youngs Moduli (GPa) = 86.70296 79.47926 78.10067
#
# Poissons Ratio (x) = 0.30243 0.23003
# Poissons Ratio (y) = 0.32992 0.30813
# Poissons Ratio (z) = 0.25537 0.31357
#
# Static dielectric constant tensor:
#      x y z
#    x 3.766820 0.000000 0.000000 
#    y 0.000000 4.326830 0.000000 
#    z 0.000000 0.000000 3.891490 
# 
# 
# High freq. dielectric constant tensor:
#      x y z
#    x 1.796300 0.000000 0.000000 
#    y 0.000000 1.812400 0.000000 
#    z 0.000000 0.000000 1.821800 
# 
# From -- ./inp_files/19662.got.cif
#   From: 2010.03.12/outbox.cif.g09.slc.cpg/sg46_10_cif.got.tgz:19662.got - 2010.04.14 02:56:35.
