data_PCOD8193439
_publ_section_title
;
Structure prediction by ZEFSAII (Michael W. Deem and Ramdas Pophale) SiO2 
 PCOD8193439
Probable space group: I M A 2
;
_chemical_formula_sum "Si O2"
_cell_formula_units_Z 32
_cell_length_a 9.000000
_cell_length_b 30.000000
_cell_length_c 12.000000
_cell_angle_alpha 90.000000
_cell_angle_beta 90.000000
_cell_angle_gamma 90.000000
_cell_volume 3240.000000
_symmetry_space_group_name_H-M "I M A 2"
_symmetry_group_IT_number 46
_symmetry_cell_setting 'orthorhombic'
loop_
_space_group_symop_operation_xyz
x,y,z
-x,-y,z
1/2-x,y,z
1/2+x,-y,z
1/2+x,1/2+y,1/2+z
1/2-x,1/2-y,1/2+z
-x,1/2+y,1/2+z
x,1/2-y,1/2+z
loop_
_atom_site_type_symbol
_atom_site_label
_atom_site_fract_x
_atom_site_fract_y
_atom_site_fract_z
Si Si1 0.578150 0.300179 0.782490
Si Si2 0.574425 0.048563 0.572128
Si Si3 0.080144 0.892314 0.783383
Si Si4 0.576904 0.080878 0.127049
Si Si5 0.076281 0.457383 0.436259
Si Si6 0.082157 0.798665 0.871112
Si Si7 0.077385 0.169726 0.075223
Si Si8 0.077041 0.606404 0.871063
O O1 0.750000 0.309231 0.746938
O O2 0.558626 0.251036 0.828608
O O3 0.466697 0.299649 0.679024
O O4 0.528157 0.341048 0.865626
O O5 0.750000 0.040303 0.562391
O O6 0.533957 0.082553 0.671082
O O7 0.504525 0.075849 0.467227
O O8 0.500000 0.000000 0.585944
O O9 0.250000 0.903800 0.813599
O O10 0.057680 0.838268 0.778571
O O11 0.974007 0.911513 0.879297
O O12 0.750000 0.072078 0.105890
O O13 0.531174 0.127718 0.073830
O O14 0.535700 0.081305 0.256842
O O15 0.480780 0.043182 0.064489
O O16 0.250000 0.463115 0.429572
O O17 0.000000 0.500000 0.375942
O O18 0.250000 0.803082 0.918613
O O19 0.957301 0.802696 0.964731
O O20 0.250000 0.155734 0.080152
O O21 0.250000 0.605959 0.895454
#
# Coordination Sequence:
#
# PCOD8193439 Si02
#       8
#     8   8   8   8   8   8   8   8
#     4   9  19  36  59  86 113 151 199 246 295 355
#     4  10  21  38  58  82 113 154 197 242 298 350
#     4  10  21  37  58  84 116 151 191 244 295 353
#     4  10  19  36  59  82 111 147 189 237 290 351
#     4  12  24  37  56  83 114 149 188 237 293 351
#     4  10  20  35  59  86 113 151 200 247 296 356
#     4  11  21  34  54  81 116 154 186 234 298 355
#     4   8  17  35  59  84 114 147 187 242 295 345
#
# _framework density 9.8765429999999999
#
# number of rings (size 3 to 8) (size 9 to 14) (size 15 to 20)
#    0.000    2.000    1.250    3.750    0.000    3.500 
#    0.000    8.125    0.000    1.500    0.000    0.000 
#    0.000    0.000    0.000    0.000    0.000    0.000 
#
# Total GULP energy -396518.836528 kJ/mol
# GULP energy per Si atom -12391.213641 kJ/mol
# Density = 0.985406 g / cm^3
# Si number density = 9.876543 Si / 1000 Ang^3
#
#
#
# Elastic Constant Matrix: (Units=GPa)
#
#
# Indices 1 2 3 4 5 6 
#
# 1 75.5988 27.5345 36.6989 0.0000 0.0000 -0.0001
# 2 27.5345 116.0652 51.4604 -0.0012 -0.0005 -0.0004
# 3 36.6989 51.4604 95.2420 -0.0010 0.0001 -0.0007
# 4 0.0000 -0.0012 -0.0010 22.1192 -0.0002 -0.0002
# 5 0.0000 -0.0005 0.0001 -0.0002 18.9588 0.0000
# 6 -0.0001 -0.0004 -0.0007 -0.0002 0.0000 26.8266
#
#
#
# Elastic Compliance Matrix: (Units=1/GPa)
#
#
# Indices 1 2 3 4 5 6 
#
# 1 0.016451 -0.001436 -0.005563 0.000000 0.000000 0.000000
# 2 -0.001436 0.011455 -0.005636 0.000000 0.000000 0.000000
# 3 -0.005563 -0.005636 0.015688 0.000000 0.000000 0.000000
# 4 0.000000 0.000000 0.000000 0.045210 0.000000 0.000000
# 5 0.000000 0.000000 0.000000 0.000000 0.052746 0.000000
# 6 0.000000 0.000000 0.000000 0.000000 0.000000 0.037276
#
#
# Mechanical properties :
#
#
# Convention : Reuss Voigt Hill
#
# Bulk Modulus (GPa) = 54.57212 57.58820 56.08016
# Shear Modulus (GPa) = 23.78616 24.99507 24.39062
#
# Velocity S-wave (km/s) = 3.47389 3.56107 3.51775
# Velocity P-wave (km/s) = 6.61647 6.79158 6.70460
#
# Compressibility (1/GPa) = 0.01832437
#
# Stress axis : x y z
#
# Youngs Moduli (GPa) = 60.78514 87.29446 63.74145
#
# Poissons Ratio (x) = 0.12538 0.35460
# Poissons Ratio (y) = 0.08731 0.35925
# Poissons Ratio (z) = 0.33815 0.49200
#
# Static dielectric constant tensor:
#      x y z
#    x 3.415270 0.000000 0.000000 
#    y 0.000000 3.773570 0.000000 
#    z 0.000000 0.000000 3.763170 
# 
# 
# High freq. dielectric constant tensor:
#      x y z
#    x 1.749050 0.000000 0.000000 
#    y 0.000000 1.784720 0.000000 
#    z 0.000000 0.000000 1.756390 
# 
# From -- ./inp_files/9786.got.cif
#   From: 2010.03.12/outbox.ucp.g09.slc.cvg/sg46_5_cif.got.tgz:9786.got - 2010.05.04 21:24:43.
