data_PCOD8193874
_publ_section_title
;
Structure prediction by ZEFSAII (Michael W. Deem and Ramdas Pophale) SiO2 
 PCOD8193874
Probable space group: P M M M
;
_chemical_formula_sum "Si O2"
_cell_formula_units_Z 64
_cell_length_a 9.224482
_cell_length_b 19.727705
_cell_length_c 20.549320
_cell_angle_alpha 90.000000
_cell_angle_beta 90.000000
_cell_angle_gamma 90.000000
_cell_volume 3739.521271
_symmetry_space_group_name_H-M "P M M M"
_symmetry_group_IT_number 47
_symmetry_cell_setting 'orthorhombic'
loop_
_space_group_symop_operation_xyz
x,y,z
-x,-y,z
x,-y,-z
-x,y,-z
-x,-y,-z
x,y,-z
-x,y,z
x,-y,z
loop_
_atom_site_type_symbol
_atom_site_label
_atom_site_fract_x
_atom_site_fract_y
_atom_site_fract_z
Si Si1 0.336930 0.074893 0.776249
Si Si2 0.834163 0.797884 0.377120
Si Si3 0.171877 0.343500 0.428361
Si Si4 0.337190 0.073928 0.378456
Si Si5 0.166902 0.203747 0.223108
Si Si6 0.830572 0.421087 0.302726
Si Si7 0.328046 0.575612 0.928082
Si Si8 0.326743 0.662792 0.807464
O O1 0.500000 0.090496 0.800738
O O2 0.334040 0.076312 0.698904
O O3 0.227471 0.131822 0.803366
O O4 0.287958 0.000000 0.800743
O O5 0.765712 0.730506 0.409215
O O6 0.756752 0.864327 0.406565
O O7 0.814161 0.790621 0.300184
O O8 0.000000 0.806197 0.396624
O O9 0.230684 0.364392 0.500000
O O10 0.218588 0.399589 0.375495
O O11 0.000000 0.338284 0.429248
O O12 0.500000 0.083166 0.404277
O O13 0.277173 0.000000 0.401488
O O14 0.261164 0.262353 0.190147
O O15 0.000000 0.210645 0.202190
O O16 0.798266 0.500000 0.293762
O O17 0.734261 0.379350 0.252845
O O18 0.000000 0.403905 0.291169
O O19 0.500000 0.573649 0.926416
O O20 0.268239 0.500000 0.913117
O O21 0.271164 0.627008 0.873522
O O22 0.274951 0.599046 0.000000
O O23 0.500000 0.666329 0.802058
#
# Coordination Sequence:
#
# PCOD8193874 Si02
#       8
#     8   8   8   8   8   8   8   8
#     4   8  14  25  40  61  91 124 158 195 235 279
#     4   9  16  27  43  62  85 113 148 189 229 271
#     4   9  17  31  49  67  88 115 152 196 238 281
#     4   8  14  24  39  60  85 112 142 179 224 273
#     4  10  18  28  43  65  96 127 158 196 237 280
#     4  10  20  34  51  71  95 120 149 191 242 289
#     4   8  15  29  48  70  96 125 159 198 234 271
#     4  11  20  30  49  74  99 127 159 193 233 281
#
# _framework density 17.11449
#
# number of rings (size 3 to 8) (size 9 to 14) (size 15 to 20)
#    0.000    2.875    1.250    2.250    0.000    2.000 
#    0.000    3.750    0.000    3.375    0.000    7.875 
#    0.000    0.500    0.000    5.750    0.000    1.875 
#
# Total GULP energy -793196.000028 kJ/mol
# GULP energy per Si atom -12393.687500 kJ/mol
# Density = 1.707554 g / cm^3
# Si number density = 17.114490 Si / 1000 Ang^3
#
#
#
# Elastic Constant Matrix: (Units=GPa)
#
#
# Indices 1 2 3 4 5 6 
#
# 1 61.3526 48.9866 27.1326 0.0000 0.0000 0.0000
# 2 48.9866 124.9350 43.5891 0.0000 0.0000 0.0000
# 3 27.1326 43.5891 70.7549 0.0000 0.0000 0.0000
# 4 0.0000 0.0000 0.0000 16.9650 0.0000 0.0000
# 5 0.0000 0.0000 0.0000 0.0000 11.6130 0.0000
# 6 0.0000 0.0000 0.0000 0.0000 0.0000 29.9644
#
#
#
# Elastic Compliance Matrix: (Units=1/GPa)
#
#
# Indices 1 2 3 4 5 6 
#
# 1 0.024796 -0.008158 -0.004482 0.000000 0.000000 0.000000
# 2 -0.008158 0.012880 -0.004806 0.000000 0.000000 0.000000
# 3 -0.004482 -0.004806 0.018813 0.000000 0.000000 0.000000
# 4 0.000000 0.000000 0.000000 0.058945 0.000000 0.000000
# 5 0.000000 0.000000 0.000000 0.000000 0.086110 0.000000
# 6 0.000000 0.000000 0.000000 0.000000 0.000000 0.033373
#
#
# Mechanical properties :
#
#
# Convention : Reuss Voigt Hill
#
# Bulk Modulus (GPa) = 46.30811 55.16214 50.73512
# Shear Modulus (GPa) = 18.04997 20.86410 19.45703
#
# Velocity S-wave (km/s) = 3.25108 3.49533 3.37542
# Velocity P-wave (km/s) = 6.41944 6.97073 6.70076
#
# Compressibility (1/GPa) = 0.02159449
#
# Stress axis : x y z
#
# Youngs Moduli (GPa) = 40.32989 77.64032 53.15447
#
# Poissons Ratio (x) = 0.63342 0.23826
# Poissons Ratio (y) = 0.32903 0.25547
# Poissons Ratio (z) = 0.18077 0.37316
#
# Static dielectric constant tensor:
#      x y z
#    x 3.056790 0.000000 0.000000 
#    y 0.000000 3.547820 0.000000 
#    z 0.000000 0.000000 3.037280 
# 
# 
# High freq. dielectric constant tensor:
#      x y z
#    x 1.636130 0.000000 0.000000 
#    y 0.000000 1.674590 0.000000 
#    z 0.000000 0.000000 1.617250 
# 
# From -- ./inp_files/27054.got.cif
#   From: 2010.03.12/outbox.cif.g09.slc.cpg/sg47_14_cif.got.tgz:27054.got - 2010.04.14 03:12:58.
