data_PCOD8193160
_publ_section_title
;
Structure prediction by ZEFSAII (Michael W. Deem and Ramdas Pophale) SiO2 
 PCOD8193160
Probable space group: I M A 2
;
_chemical_formula_sum "Si O2"
_cell_formula_units_Z 64
_cell_length_a 17.237907
_cell_length_b 11.640412
_cell_length_c 16.226611
_cell_angle_alpha 90.000000
_cell_angle_beta 90.000000
_cell_angle_gamma 90.000000
_cell_volume 3255.972366
_symmetry_space_group_name_H-M "I M A 2"
_symmetry_group_IT_number 46
_symmetry_cell_setting 'orthorhombic'
loop_
_space_group_symop_operation_xyz
x,y,z
-x,-y,z
1/2-x,y,z
1/2+x,-y,z
1/2+x,1/2+y,1/2+z
1/2-x,1/2-y,1/2+z
-x,1/2+y,1/2+z
x,1/2-y,1/2+z
loop_
_atom_site_type_symbol
_atom_site_label
_atom_site_fract_x
_atom_site_fract_y
_atom_site_fract_z
Si Si1 0.117465 0.833740 0.051470
Si Si2 0.543252 0.743771 0.609911
Si Si3 0.335196 0.593077 0.109197
Si Si4 0.839306 0.548400 0.656072
Si Si5 0.661053 0.011590 0.338846
Si Si6 0.454040 0.893314 0.739911
Si Si7 0.582751 0.557948 0.989944
Si Si8 0.160219 0.776184 0.868509
O O1 0.159363 0.730331 0.099565
O O2 0.025137 0.825288 0.064078
O O3 0.148320 0.952700 0.086909
O O4 0.140276 0.830537 0.956174
O O5 0.610125 0.659223 0.637917
O O6 0.511991 0.808011 0.691557
O O7 0.582093 0.825326 0.541334
O O8 0.250000 0.561389 0.140770
O O9 0.397535 0.546170 0.173854
O O10 0.352129 0.529827 0.023555
O O11 0.750000 0.586867 0.656727
O O12 0.865411 0.497635 0.744231
O O13 0.750000 0.974253 0.348350
O O14 0.646580 0.140613 0.369862
O O15 0.608068 0.925408 0.394429
O O16 0.400948 0.828022 0.804766
O O17 0.500000 0.000000 0.781719
O O18 0.500000 0.500000 0.997481
O O19 0.250000 0.804045 0.844127
#
# Coordination Sequence:
#
# PCOD8193160 Si02
#       8
#     8   8   8   8   8   8   8   8
#     4  11  22  40  63  91 124 160 211 266 316 380
#     4  11  23  41  63  90 124 171 209 253 326 386
#     4  11  19  35  63  88 115 158 201 258 316 360
#     4  11  25  43  62  90 131 171 214 261 314 384
#     4  10  22  40  63  94 124 159 212 264 311 370
#     4  11  22  40  57  87 127 160 208 260 306 385
#     4  12  20  38  64  95 125 154 205 263 308 377
#     4  11  22  38  63  95 123 159 212 268 321 370
#
# _framework density 19.656186999999999
#
# number of rings (size 3 to 8) (size 9 to 14) (size 15 to 20)
#    0.000    1.000    5.000    3.750    0.000    6.000 
#    0.000    0.000    0.000    1.500    0.000    0.000 
#    0.000    0.000    0.000    0.000    0.000    0.000 
#
# Total GULP energy -396823.026835 kJ/mol
# GULP energy per Si atom -12400.719589 kJ/mol
# Density = 1.961145 g / cm^3
# Si number density = 19.656187 Si / 1000 Ang^3
#
#
#
# Elastic Constant Matrix: (Units=GPa)
#
#
# Indices 1 2 3 4 5 6 
#
# 1 118.1677 63.2408 48.1713 0.0000 0.0000 0.0000
# 2 63.2408 81.2530 52.8391 0.0000 0.0000 0.0000
# 3 48.1713 52.8391 128.0436 0.0000 0.0000 0.0000
# 4 0.0000 0.0000 0.0000 30.1127 0.0000 0.0000
# 5 0.0000 0.0000 0.0000 0.0000 27.7085 0.0000
# 6 0.0000 0.0000 0.0000 0.0000 0.0000 28.2281
#
#
#
# Elastic Compliance Matrix: (Units=1/GPa)
#
#
# Indices 1 2 3 4 5 6 
#
# 1 0.014616 -0.010661 -0.001099 0.000000 0.000000 0.000000
# 2 -0.010661 0.024598 -0.006140 0.000000 0.000000 0.000000
# 3 -0.001099 -0.006140 0.010757 0.000000 0.000000 0.000000
# 4 0.000000 0.000000 0.000000 0.033209 0.000000 0.000000
# 5 0.000000 0.000000 0.000000 0.000000 0.036090 0.000000
# 6 0.000000 0.000000 0.000000 0.000000 0.000000 0.035426
#
#
# Mechanical properties :
#
#
# Convention : Reuss Voigt Hill
#
# Bulk Modulus (GPa) = 70.56889 72.88517 71.72703
# Shear Modulus (GPa) = 25.61214 28.09074 26.85144
#
# Velocity S-wave (km/s) = 3.61363 3.78445 3.70003
# Velocity P-wave (km/s) = 7.30689 7.50044 7.40430
#
# Compressibility (1/GPa) = 0.01417055
#
# Stress axis : x y z
#
# Youngs Moduli (GPa) = 68.41636 40.65389 92.96225
#
# Poissons Ratio (x) = 0.43343 0.10219
# Poissons Ratio (y) = 0.72941 0.57077
# Poissons Ratio (z) = 0.07521 0.24961
#
# Static dielectric constant tensor:
#      x y z
#    x 3.802010 0.000000 0.000000 
#    y 0.000000 4.005990 0.000000 
#    z 0.000000 0.000000 3.705440 
# 
# 
# High freq. dielectric constant tensor:
#      x y z
#    x 1.778400 0.000000 0.000000 
#    y 0.000000 1.745580 0.000000 
#    z 0.000000 0.000000 1.770250 
# 
# From -- ./inp_files/16759.got.cif
#   From: 2010.03.12/outbox.cif.g09.slc.cpg/sg46_9_cif.got.tgz:16759.got - 2010.04.14 02:56:35.
