data_PCOD8193311
_publ_section_title
;
Structure prediction by ZEFSAII (Michael W. Deem and Ramdas Pophale) SiO2 
 PCOD8193311
Probable space group: I M A 2
;
_chemical_formula_sum "Si O2"
_cell_formula_units_Z 56
_cell_length_a 8.833848
_cell_length_b 24.191528
_cell_length_c 13.901124
_cell_angle_alpha 90.000000
_cell_angle_beta 90.000000
_cell_angle_gamma 90.000000
_cell_volume 2970.729713
_symmetry_space_group_name_H-M "I M A 2"
_symmetry_group_IT_number 46
_symmetry_cell_setting 'orthorhombic'
loop_
_space_group_symop_operation_xyz
x,y,z
-x,-y,z
1/2-x,y,z
1/2+x,-y,z
1/2+x,1/2+y,1/2+z
1/2-x,1/2-y,1/2+z
-x,1/2+y,1/2+z
x,1/2-y,1/2+z
loop_
_atom_site_type_symbol
_atom_site_label
_atom_site_fract_x
_atom_site_fract_y
_atom_site_fract_z
Si Si1 0.072475 0.384317 0.711250
Si Si2 0.570939 0.659660 0.989057
Si Si3 0.929400 0.557470 0.308678
Si Si4 0.926253 0.944155 0.024609
Si Si5 0.070186 0.333519 0.206526
Si Si6 0.570621 0.441928 0.885202
Si Si7 0.571857 0.773757 0.308366
O O1 0.250000 0.392488 0.733374
O O2 0.033876 0.395253 0.599309
O O3 0.020678 0.322067 0.735124
O O4 0.982247 0.427289 0.777428
O O5 0.750000 0.648778 0.981080
O O6 0.486506 0.603725 0.960469
O O7 0.522086 0.709553 0.916843
O O8 0.521088 0.676370 0.096307
O O9 0.750000 0.552396 0.301394
O O10 0.984280 0.570656 0.417713
O O11 0.992377 0.607570 0.243536
O O12 0.000000 0.500000 0.271594
O O13 0.750000 0.955254 0.020848
O O14 0.000000 0.000000 0.063755
O O15 0.250000 0.333690 0.215676
O O16 0.999728 0.284121 0.272185
O O17 0.500000 0.500000 0.917292
O O18 0.750000 0.445774 0.888837
O O19 0.750000 0.766690 0.304307
#
# Coordination Sequence:
#
# PCOD8193311 Si02
#       7
#     8   8   8   8   8   8   8
#     4   9  17  30  48  73 103 132 163 200 246 297
#     4   9  18  33  51  73 102 132 166 207 248 295
#     4   9  18  32  48  69  97 127 163 203 243 288
#     4   9  17  28  44  67  96 128 160 197 238 283
#     4   9  17  30  51  76  99 128 164 202 245 293
#     4  11  21  33  50  72 100 133 169 209 254 300
#     4   8  15  28  47  72  98 122 155 200 242 282
#
# _framework density 18.850587999999998
#
# number of rings (size 3 to 8) (size 9 to 14) (size 15 to 20)
#    0.000    2.857    0.000    2.571    0.000    3.429 
#    0.000    7.857    0.000    6.857    0.000    4.000 
#    0.000    0.000    0.000    0.000    0.000    0.000 
#
# Total GULP energy -347077.395448 kJ/mol
# GULP energy per Si atom -12395.621266 kJ/mol
# Density = 1.880768 g / cm^3
# Si number density = 18.850588 Si / 1000 Ang^3
#
#
#
# Elastic Constant Matrix: (Units=GPa)
#
#
# Indices 1 2 3 4 5 6 
#
# 1 41.5805 27.6745 21.8345 0.0001 0.0000 0.0000
# 2 27.6745 157.5004 87.7820 0.0001 0.0000 0.0000
# 3 21.8345 87.7820 134.1640 0.0003 -0.0001 0.0001
# 4 0.0001 0.0001 0.0003 24.7464 0.0000 0.0000
# 5 0.0000 0.0000 -0.0001 0.0000 16.1661 0.0000
# 6 0.0000 0.0000 0.0001 0.0000 0.0000 21.2711
#
#
#
# Elastic Compliance Matrix: (Units=1/GPa)
#
#
# Indices 1 2 3 4 5 6 
#
# 1 0.027597 -0.003692 -0.002075 0.000000 0.000000 0.000000
# 2 -0.003692 0.010487 -0.006261 0.000000 0.000000 0.000000
# 3 -0.002075 -0.006261 0.011888 0.000000 0.000000 0.000000
# 4 0.000000 0.000000 0.000000 0.040410 0.000000 0.000000
# 5 0.000000 0.000000 0.000000 0.000000 0.061858 0.000000
# 6 0.000000 0.000000 0.000000 0.000000 0.000000 0.047012
#
#
# Mechanical properties :
#
#
# Convention : Reuss Voigt Hill
#
# Bulk Modulus (GPa) = 38.58783 67.53634 53.06209
# Shear Modulus (GPa) = 21.55656 25.50031 23.52843
#
# Velocity S-wave (km/s) = 3.38531 3.68198 3.53675
# Velocity P-wave (km/s) = 5.98291 7.34717 6.69986
#
# Compressibility (1/GPa) = 0.02591491
#
# Stress axis : x y z
#
# Youngs Moduli (GPa) = 36.23572 95.35191 84.12011
#
# Poissons Ratio (x) = 0.35208 0.17458
# Poissons Ratio (y) = 0.13380 0.52667
# Poissons Ratio (z) = 0.07520 0.59699
#
# Static dielectric constant tensor:
#      x y z
#    x 3.077270 0.000000 0.000000 
#    y 0.000000 3.782430 0.000000 
#    z 0.000000 0.000000 3.662630 
# 
# 
# High freq. dielectric constant tensor:
#      x y z
#    x 1.690310 0.000000 0.000000 
#    y 0.000000 1.732240 0.000000 
#    z 0.000000 0.000000 1.734920 
# 
# From -- ./inp_files/14221.got.cif
#   From: 2010.03.12/outbox.cif.g09.slc.cpg/sg46_8_cif.got.tgz:14221.got - 2010.04.14 02:56:35.
