data_PCOD8193062
_publ_section_title
;
Structure prediction by ZEFSAII (Michael W. Deem and Ramdas Pophale) SiO2 
 PCOD8193062
Probable space group: I M A 2
;
_chemical_formula_sum "Si O2"
_cell_formula_units_Z 48
_cell_length_a 17.040648
_cell_length_b 14.362183
_cell_length_c 9.603823
_cell_angle_alpha 90.000000
_cell_angle_beta 90.000000
_cell_angle_gamma 90.000000
_cell_volume 2350.448333
_symmetry_space_group_name_H-M "I M A 2"
_symmetry_group_IT_number 46
_symmetry_cell_setting 'orthorhombic'
loop_
_space_group_symop_operation_xyz
x,y,z
-x,-y,z
1/2-x,y,z
1/2+x,-y,z
1/2+x,1/2+y,1/2+z
1/2-x,1/2-y,1/2+z
-x,1/2+y,1/2+z
x,1/2-y,1/2+z
loop_
_atom_site_type_symbol
_atom_site_label
_atom_site_fract_x
_atom_site_fract_y
_atom_site_fract_z
Si Si1 0.839590 0.544372 0.455190
Si Si2 0.840711 0.341139 0.358706
Si Si3 0.659940 0.675792 0.201024
Si Si4 0.068582 0.133711 0.193070
Si Si5 0.572528 0.249644 0.600427
Si Si6 0.539309 0.906071 0.498719
O O1 0.750000 0.538142 0.508694
O O2 0.862137 0.449700 0.375408
O O3 0.850915 0.631720 0.353096
O O4 0.897061 0.558923 0.585038
O O5 0.750000 0.326551 0.321572
O O6 0.858466 0.287938 0.502763
O O7 0.892813 0.301163 0.234665
O O8 0.750000 0.680084 0.155150
O O9 0.626074 0.778799 0.206436
O O10 0.616634 0.611988 0.088823
O O11 0.064752 0.080944 0.339335
O O12 0.981926 0.164603 0.146826
O O13 0.521359 0.178358 0.510527
O O14 0.500000 0.000000 0.554724
#
# Coordination Sequence:
#
# PCOD8193062 Si02
#       6
#     8   8   8   8   8   8
#     4  10  23  40  63  97 127 167 216 265 327 388
#     4  11  24  43  67  92 126 172 223 274 329 394
#     4  10  21  41  65  92 127 168 213 265 326 386
#     4  11  23  38  62  93 128 167 211 265 321 389
#     4  11  23  43  62  94 126 169 219 265 330 387
#     4  11  24  40  60  95 129 169 211 261 324 385
#
# _framework density 20.421637
#
# number of rings (size 3 to 8) (size 9 to 14) (size 15 to 20)
#    0.000    1.333    1.667    4.000    4.667    2.667 
#    0.000    0.833    0.000    0.000    0.000    0.000 
#    0.000    0.000    0.000    0.000    0.000    0.000 
#
# Total GULP energy -297764.967977 kJ/mol
# GULP energy per Si atom -12406.873666 kJ/mol
# Density = 2.037516 g / cm^3
# Si number density = 20.421637 Si / 1000 Ang^3
#
#
#
# Elastic Constant Matrix: (Units=GPa)
#
#
# Indices 1 2 3 4 5 6 
#
# 1 107.7306 31.9897 43.9958 0.0000 0.0000 0.0000
# 2 31.9897 60.9558 17.1249 0.0000 0.0000 0.0000
# 3 43.9958 17.1249 101.0138 0.0000 0.0000 0.0000
# 4 0.0000 0.0000 0.0000 20.8688 0.0000 0.0000
# 5 0.0000 0.0000 0.0000 0.0000 29.9323 0.0000
# 6 0.0000 0.0000 0.0000 0.0000 0.0000 27.4314
#
#
#
# Elastic Compliance Matrix: (Units=1/GPa)
#
#
# Indices 1 2 3 4 5 6 
#
# 1 0.012787 -0.005403 -0.004653 0.000000 0.000000 0.000000
# 2 -0.005403 0.019509 -0.000954 0.000000 0.000000 0.000000
# 3 -0.004653 -0.000954 0.012088 0.000000 0.000000 0.000000
# 4 0.000000 0.000000 0.000000 0.047918 0.000000 0.000000
# 5 0.000000 0.000000 0.000000 0.000000 0.033409 0.000000
# 6 0.000000 0.000000 0.000000 0.000000 0.000000 0.036455
#
#
# Mechanical properties :
#
#
# Convention : Reuss Voigt Hill
#
# Bulk Modulus (GPa) = 44.71685 50.65788 47.68737
# Shear Modulus (GPa) = 26.09030 27.41915 26.75473
#
# Velocity S-wave (km/s) = 3.57820 3.66820 3.62348
# Velocity P-wave (km/s) = 6.24626 6.54223 6.39595
#
# Compressibility (1/GPa) = 0.02236294
#
# Stress axis : x y z
#
# Youngs Moduli (GPa) = 78.20253 51.25813 82.72600
#
# Poissons Ratio (x) = 0.27697 0.38495
# Poissons Ratio (y) = 0.42257 0.07891
# Poissons Ratio (z) = 0.36390 0.04890
#
# Static dielectric constant tensor:
#      x y z
#    x 3.784890 0.000000 0.000000 
#    y 0.000000 3.661510 0.000000 
#    z 0.000000 0.000000 3.648590 
# 
# 
# High freq. dielectric constant tensor:
#      x y z
#    x 1.804700 0.000000 0.000000 
#    y 0.000000 1.801590 0.000000 
#    z 0.000000 0.000000 1.804460 
# 
# From -- ./inp_files/6580.got.cif
#   From: 2010.03.12/outbox.cif.g09.slc.cpg/sg46_4_cif.got.tgz:6580.got - 2010.04.14 02:56:35.
