data_PCOD8193905
_publ_section_title
;
Structure prediction by ZEFSAII (Michael W. Deem and Ramdas Pophale) SiO2 
 PCOD8193905
Probable space group: P M M M
;
_chemical_formula_sum "Si O2"
_cell_formula_units_Z 64
_cell_length_a 30.936914
_cell_length_b 9.464215
_cell_length_c 14.224344
_cell_angle_alpha 90.000000
_cell_angle_beta 90.000000
_cell_angle_gamma 90.000000
_cell_volume 4164.796966
_symmetry_space_group_name_H-M "P M M M"
_symmetry_group_IT_number 47
_symmetry_cell_setting 'orthorhombic'
loop_
_space_group_symop_operation_xyz
x,y,z
-x,-y,z
x,-y,-z
-x,y,-z
-x,-y,-z
x,y,-z
-x,y,z
x,-y,z
loop_
_atom_site_type_symbol
_atom_site_label
_atom_site_fract_x
_atom_site_fract_y
_atom_site_fract_z
Si Si1 0.706594 0.162335 0.390550
Si Si2 0.242575 0.838309 0.104458
Si Si3 0.952282 0.841617 0.388395
Si Si4 0.871868 0.335753 0.610604
Si Si5 0.547450 0.332216 0.394230
Si Si6 0.631636 0.665891 0.293229
Si Si7 0.327170 0.663311 0.104174
Si Si8 0.796763 0.162508 0.705152
O O1 0.713281 0.191943 0.500000
O O2 0.668435 0.259140 0.352977
O O3 0.750872 0.203478 0.339189
O O4 0.694501 0.000000 0.370403
O O5 0.284203 0.747217 0.129816
O O6 0.205559 0.811346 0.182153
O O7 0.257977 0.000000 0.109681
O O8 0.224588 0.801117 0.000000
O O9 0.952740 0.839079 0.500000
O O10 0.916282 0.733206 0.350850
O O11 0.000000 0.796585 0.351195
O O12 0.941137 0.000000 0.353122
O O13 0.866048 0.309000 0.500000
O O14 0.873256 0.500000 0.635420
O O15 0.832328 0.265309 0.663877
O O16 0.557372 0.279056 0.500000
O O17 0.500000 0.276067 0.361941
O O18 0.546933 0.500000 0.392599
O O19 0.584749 0.274914 0.324835
O O20 0.635657 0.500000 0.314377
O O21 0.636502 0.698677 0.181965
O O22 0.314269 0.500000 0.108186
O O23 0.344665 0.704356 0.000000
O O24 0.808742 0.000000 0.681577
#
# Coordination Sequence:
#
# PCOD8193905 Si02
#       8
#     8   8   8   8   8   8   8   8
#     4  10  20  31  42  60  87 116 143 173 211 253
#     4   9  17  30  48  66  82 105 142 183 216 251
#     4   8  14  26  44  63  83 112 151 190 226 264
#     4  10  20  30  41  61  89 121 155 188 219 252
#     4   8  14  25  41  61  83 106 136 175 214 250
#     4  10  18  28  45  65  83 107 142 178 209 250
#     4   9  17  28  42  62  87 110 132 167 217 262
#     4  10  19  31  45  60  84 117 147 175 212 260
#
# _framework density 15.366896000000001
#
# number of rings (size 3 to 8) (size 9 to 14) (size 15 to 20)
#    0.000    2.750    1.250    1.875    0.000    3.250 
#    0.000    1.250    0.000    0.750    0.000    4.375 
#    0.000    0.500    0.000   10.000    0.000    6.500 
#
# Total GULP energy -793283.399079 kJ/mol
# GULP energy per Si atom -12395.053111 kJ/mol
# Density = 1.533192 g / cm^3
# Si number density = 15.366896 Si / 1000 Ang^3
#
#
#
# Elastic Constant Matrix: (Units=GPa)
#
#
# Indices 1 2 3 4 5 6 
#
# 1 119.9058 57.0910 53.5786 0.0000 0.0000 0.0000
# 2 57.0910 59.7288 38.1807 0.0000 0.0000 0.0000
# 3 53.5786 38.1807 79.4015 0.0000 0.0000 0.0000
# 4 0.0000 0.0000 0.0000 17.3872 0.0000 0.0000
# 5 0.0000 0.0000 0.0000 0.0000 6.2673 0.0000
# 6 0.0000 0.0000 0.0000 0.0000 0.0000 0.5636
#
#
#
# Elastic Compliance Matrix: (Units=1/GPa)
#
#
# Indices 1 2 3 4 5 6 
#
# 1 0.016659 -0.012615 -0.005175 0.000000 0.000000 0.000000
# 2 -0.012615 0.033725 -0.007705 0.000000 0.000000 0.000000
# 3 -0.005175 -0.007705 0.019791 0.000000 0.000000 0.000000
# 4 0.000000 0.000000 0.000000 0.057514 0.000000 0.000000
# 5 0.000000 0.000000 0.000000 0.000000 0.159558 0.000000
# 6 0.000000 0.000000 0.000000 0.000000 0.000000 1.774311
#
#
# Mechanical properties :
#
#
# Convention : Reuss Voigt Hill
#
# Bulk Modulus (GPa) = 52.12201 61.85964 56.99082
# Shear Modulus (GPa) = 2.35967 12.18934 7.27451
#
# Velocity S-wave (km/s) = 1.24052 2.81947 2.17811
# Velocity P-wave (km/s) = 6.00365 7.13735 6.59491
#
# Compressibility (1/GPa) = 0.01918575
#
# Stress axis : x y z
#
# Youngs Moduli (GPa) = 60.02910 29.65142 50.52794
#
# Poissons Ratio (x) = 0.37405 0.26148
# Poissons Ratio (y) = 0.75726 0.38930
# Poissons Ratio (z) = 0.31065 0.22846
#
# Static dielectric constant tensor:
#      x y z
#    x 3.082420 0.000000 0.000000 
#    y 0.000000 2.896750 0.000000 
#    z 0.000000 0.000000 3.062600 
# 
# 
# High freq. dielectric constant tensor:
#      x y z
#    x 1.575980 0.000000 0.000000 
#    y 0.000000 1.580690 0.000000 
#    z 0.000000 0.000000 1.574910 
# 
# From -- ./inp_files/8239.got.cif
#   From: 2010.03.12/outbox.cif.g09.slc.cpg/sg47_5_cif.got.tgz:8239.got - 2010.04.14 03:12:58.
