data_PCOD8193907
_publ_section_title
;
Structure prediction by ZEFSAII (Michael W. Deem and Ramdas Pophale) SiO2 
 PCOD8193907
Probable space group: P M M M
;
_chemical_formula_sum "Si O2"
_cell_formula_units_Z 64
_cell_length_a 9.353252
_cell_length_b 14.482834
_cell_length_c 28.504784
_cell_angle_alpha 90.000000
_cell_angle_beta 90.000000
_cell_angle_gamma 90.000000
_cell_volume 3861.303536
_symmetry_space_group_name_H-M "P M M M"
_symmetry_group_IT_number 47
_symmetry_cell_setting 'orthorhombic'
loop_
_space_group_symop_operation_xyz
x,y,z
-x,-y,z
x,-y,-z
-x,y,-z
-x,-y,-z
x,y,-z
-x,y,z
x,-y,z
loop_
_atom_site_type_symbol
_atom_site_label
_atom_site_fract_x
_atom_site_fract_y
_atom_site_fract_z
Si Si1 0.330691 0.398907 0.193283
Si Si2 0.659488 0.390723 0.551623
Si Si3 0.666835 0.718029 0.719447
Si Si4 0.168631 0.392537 0.358972
Si Si5 0.666535 0.606281 0.089051
Si Si6 0.834752 0.232350 0.948004
Si Si7 0.833025 0.106005 0.136663
Si Si8 0.665617 0.895646 0.771046
O O1 0.500000 0.403765 0.191005
O O2 0.270171 0.500000 0.206973
O O3 0.279103 0.327250 0.232134
O O4 0.276245 0.370803 0.141641
O O5 0.704474 0.352505 0.500000
O O6 0.500000 0.354645 0.564603
O O7 0.656979 0.500000 0.549538
O O8 0.773008 0.358732 0.590550
O O9 0.500000 0.697028 0.709241
O O10 0.760584 0.675631 0.678294
O O11 0.695358 0.827719 0.726684
O O12 0.209283 0.500000 0.348967
O O13 0.000000 0.378412 0.358258
O O14 0.500000 0.628608 0.084106
O O15 0.697138 0.500000 0.076380
O O16 0.752163 0.670786 0.053669
O O17 0.776437 0.162151 0.908512
O O18 0.000000 0.253093 0.938965
O O19 0.811071 0.189444 0.000000
O O20 0.752105 0.138537 0.183524
O O21 0.000000 0.121786 0.145407
O O22 0.797318 0.000000 0.125991
O O23 0.500000 0.889498 0.785163
O O24 0.709000 0.000000 0.756164
#
# Coordination Sequence:
#
# PCOD8193907 Si02
#       8
#     8   8   8   8   8   8   8   8
#     4   8  14  25  42  63  83 106 141 179 210 247
#     4   8  14  26  44  63  84 117 162 203 233 266
#     4  10  18  28  45  65  88 121 153 181 219 268
#     4  10  20  30  40  61  95 129 159 194 233 267
#     4   9  18  33  51  68  86 111 146 184 218 257
#     4  10  21  34  47  66  91 116 142 175 216 260
#     4   9  18  33  52  71  90 114 143 174 213 265
#     4   9  18  32  50  72  94 115 144 184 227 268
#
# _framework density 16.574712999999999
#
# number of rings (size 3 to 8) (size 9 to 14) (size 15 to 20)
#    0.000    2.875    0.000    2.625    0.000    4.500 
#    0.000    4.375    0.000    0.750    0.000    2.625 
#    0.000    0.500    0.000    5.750    0.000    1.875 
#
# Total GULP energy -793262.459864 kJ/mol
# GULP energy per Si atom -12394.725935 kJ/mol
# Density = 1.653699 g / cm^3
# Si number density = 16.574713 Si / 1000 Ang^3
#
#
#
# Elastic Constant Matrix: (Units=GPa)
#
#
# Indices 1 2 3 4 5 6 
#
# 1 56.6038 36.2908 47.6612 0.0000 0.0000 0.0000
# 2 36.2908 72.2610 50.8816 0.0000 0.0000 0.0000
# 3 47.6612 50.8816 102.0047 0.0000 0.0000 0.0000
# 4 0.0000 0.0000 0.0000 17.6538 0.0000 0.0000
# 5 0.0000 0.0000 0.0000 0.0000 25.1808 0.0000
# 6 0.0000 0.0000 0.0000 0.0000 0.0000 19.7755
#
#
#
# Elastic Compliance Matrix: (Units=1/GPa)
#
#
# Indices 1 2 3 4 5 6 
#
# 1 0.032266 -0.008615 -0.010779 0.000000 0.000000 0.000000
# 2 -0.008615 0.023631 -0.007762 0.000000 0.000000 0.000000
# 3 -0.010779 -0.007762 0.018712 0.000000 0.000000 0.000000
# 4 0.000000 0.000000 0.000000 0.056645 0.000000 0.000000
# 5 0.000000 0.000000 0.000000 0.000000 0.039713 0.000000
# 6 0.000000 0.000000 0.000000 0.000000 0.000000 0.050568
#
#
# Mechanical properties :
#
#
# Convention : Reuss Voigt Hill
#
# Bulk Modulus (GPa) = 49.26894 55.61521 52.44208
# Shear Modulus (GPa) = 17.69215 18.92443 18.30829
#
# Velocity S-wave (km/s) = 3.27068 3.38267 3.32715
# Velocity P-wave (km/s) = 6.63725 6.99169 6.81677
#
# Compressibility (1/GPa) = 0.02029676
#
# Stress axis : x y z
#
# Youngs Moduli (GPa) = 30.99256 42.31753 53.44210
#
# Poissons Ratio (x) = 0.36455 0.57605
# Poissons Ratio (y) = 0.26699 0.41483
# Poissons Ratio (z) = 0.33407 0.32848
#
# Static dielectric constant tensor:
#      x y z
#    x 2.971970 0.000000 0.000000 
#    y 0.000000 3.078240 0.000000 
#    z 0.000000 0.000000 3.277710 
# 
# 
# High freq. dielectric constant tensor:
#      x y z
#    x 1.624200 0.000000 0.000000 
#    y 0.000000 1.618330 0.000000 
#    z 0.000000 0.000000 1.629200 
# 
# From -- ./inp_files/22198.got.cif
#   From: 2010.03.12/outbox.cif.g09.slc.cpg/sg47_12_cif.got.tgz:22198.got - 2010.04.14 03:12:58.
