data_PCOD8193514
_publ_section_title
;
Structure prediction by ZEFSAII (Michael W. Deem and Ramdas Pophale) SiO2 
 PCOD8193514
Probable space group: P M M M
;
_chemical_formula_sum "Si O2"
_cell_formula_units_Z 64
_cell_length_a 19.929526
_cell_length_b 20.725623
_cell_length_c 9.184815
_cell_angle_alpha 90.000000
_cell_angle_beta 90.000000
_cell_angle_gamma 90.000000
_cell_volume 3793.804758
_symmetry_space_group_name_H-M "P M M M"
_symmetry_group_IT_number 47
_symmetry_cell_setting 'orthorhombic'
loop_
_space_group_symop_operation_xyz
x,y,z
-x,-y,z
x,-y,-z
-x,y,-z
-x,-y,-z
x,y,-z
-x,y,z
x,-y,z
loop_
_atom_site_type_symbol
_atom_site_label
_atom_site_fract_x
_atom_site_fract_y
_atom_site_fract_z
Si Si1 0.426288 0.874231 0.330728
Si Si2 0.924839 0.186011 0.672940
Si Si3 0.297320 0.116954 0.168870
Si Si4 0.169709 0.927447 0.667142
Si Si5 0.285032 0.731117 0.835331
Si Si6 0.571541 0.256107 0.834805
Si Si7 0.158437 0.308712 0.672826
Si Si8 0.924791 0.571352 0.326957
O O1 0.407330 0.876871 0.500000
O O2 0.500000 0.906606 0.303669
O O3 0.366895 0.908677 0.240434
O O4 0.430689 0.800400 0.281634
O O5 0.928877 0.188328 0.500000
O O6 0.887056 0.121440 0.726351
O O7 0.884543 0.248169 0.731834
O O8 0.000000 0.186395 0.738816
O O9 0.236756 0.078146 0.239769
O O10 0.287141 0.192791 0.199410
O O11 0.299485 0.100160 0.000000
O O12 0.187155 0.910679 0.500000
O O13 0.141285 0.000000 0.682093
O O14 0.360624 0.702127 0.807610
O O15 0.234246 0.694792 0.729568
O O16 0.261236 0.718764 0.000000
O O17 0.500000 0.295047 0.821997
O O18 0.578198 0.227195 0.000000
O O19 0.160739 0.308644 0.500000
O O20 0.125123 0.374240 0.734941
O O21 0.925603 0.574682 0.500000
O O22 0.900973 0.500000 0.275685
O O23 0.000000 0.585045 0.268941
#
# Coordination Sequence:
#
# PCOD8193514 Si02
#       8
#     8   8   8   8   8   8   8   8
#     4   9  16  25  41  66  92 116 144 182 227 271
#     4   9  17  29  46  69  92 113 143 183 224 269
#     4  10  19  31  47  64  87 120 154 187 224 271
#     4  10  20  33  49  68  89 114 145 186 234 277
#     4   9  17  27  41  63  90 119 148 184 226 264
#     4   8  14  25  39  57  85 121 156 185 219 266
#     4  10  17  26  45  69  92 120 151 185 222 264
#     4   8  14  25  42  66  94 121 152 190 227 263
#
# _framework density 16.869606999999998
#
# number of rings (size 3 to 8) (size 9 to 14) (size 15 to 20)
#    0.000    2.875    1.250    2.250    0.000    4.750 
#    0.000    1.250    0.000    3.375    0.000    4.375 
#    0.000    0.500    0.000    6.250    0.000    0.125 
#
# Total GULP energy -793010.340506 kJ/mol
# GULP energy per Si atom -12390.786570 kJ/mol
# Density = 1.683121 g / cm^3
# Si number density = 16.869607 Si / 1000 Ang^3
#
#
#
# Elastic Constant Matrix: (Units=GPa)
#
#
# Indices 1 2 3 4 5 6 
#
# 1 153.9551 56.3480 35.5272 0.0000 0.0000 0.0000
# 2 56.3480 83.3117 20.2444 0.0000 0.0000 0.0000
# 3 35.5272 20.2444 45.9715 0.0000 0.0000 0.0000
# 4 0.0000 0.0000 0.0000 8.2145 0.0000 0.0000
# 5 0.0000 0.0000 0.0000 0.0000 16.2231 0.0000
# 6 0.0000 0.0000 0.0000 0.0000 0.0000 16.4163
#
#
#
# Elastic Compliance Matrix: (Units=1/GPa)
#
#
# Indices 1 2 3 4 5 6 
#
# 1 0.009594 -0.005249 -0.005103 0.000000 0.000000 0.000000
# 2 -0.005249 0.016313 -0.003127 0.000000 0.000000 0.000000
# 3 -0.005103 -0.003127 0.027073 0.000000 0.000000 0.000000
# 4 0.000000 0.000000 0.000000 0.121736 0.000000 0.000000
# 5 0.000000 0.000000 0.000000 0.000000 0.061641 0.000000
# 6 0.000000 0.000000 0.000000 0.000000 0.000000 0.060915
#
#
# Mechanical properties :
#
#
# Convention : Reuss Voigt Hill
#
# Bulk Modulus (GPa) = 38.42875 56.38637 47.40756
# Shear Modulus (GPa) = 15.01931 19.57870 17.29901
#
# Velocity S-wave (km/s) = 2.98706 3.41044 3.20575
# Velocity P-wave (km/s) = 5.89288 7.00039 6.47038
#
# Compressibility (1/GPa) = 0.02602218
#
# Stress axis : x y z
#
# Youngs Moduli (GPa) = 104.23049 61.30000 36.93663
#
# Poissons Ratio (x) = 0.32176 0.18849
# Poissons Ratio (y) = 0.54711 0.11551
# Poissons Ratio (z) = 0.53188 0.19171
#
# Static dielectric constant tensor:
#      x y z
#    x 3.586830 0.000000 0.000000 
#    y 0.000000 2.915640 0.000000 
#    z 0.000000 0.000000 2.914760 
# 
# 
# High freq. dielectric constant tensor:
#      x y z
#    x 1.667950 0.000000 0.000000 
#    y 0.000000 1.598900 0.000000 
#    z 0.000000 0.000000 1.626720 
# 
# From -- ./inp_files/11808.got.cif
#   From: 2010.03.12/outbox.cif.g09.slc.cpg/sg47_6_cif.got.tgz:11808.got - 2010.04.14 03:12:58.
