data_PCOD8193018
_publ_section_title
;
Structure prediction by ZEFSAII (Michael W. Deem and Ramdas Pophale) SiO2 
 PCOD8193018
Probable space group: I M A 2
;
_chemical_formula_sum "Si O2"
_cell_formula_units_Z 64
_cell_length_a 16.771884
_cell_length_b 14.388052
_cell_length_c 12.508853
_cell_angle_alpha 90.000000
_cell_angle_beta 90.000000
_cell_angle_gamma 90.000000
_cell_volume 3018.570599
_symmetry_space_group_name_H-M "I M A 2"
_symmetry_group_IT_number 46
_symmetry_cell_setting 'orthorhombic'
loop_
_space_group_symop_operation_xyz
x,y,z
-x,-y,z
1/2-x,y,z
1/2+x,-y,z
1/2+x,1/2+y,1/2+z
1/2-x,1/2-y,1/2+z
-x,1/2+y,1/2+z
x,1/2-y,1/2+z
loop_
_atom_site_type_symbol
_atom_site_label
_atom_site_fract_x
_atom_site_fract_y
_atom_site_fract_z
Si Si1 0.656258 0.582265 0.365120
Si Si2 0.344330 0.120090 0.108554
Si Si3 0.339206 0.046253 0.504971
Si Si4 0.661694 0.119074 0.794674
Si Si5 0.339914 0.685671 0.891868
Si Si6 0.570893 0.123545 0.590292
Si Si7 0.399048 0.181419 0.655727
Si Si8 0.405283 0.508111 0.787291
O O1 0.750000 0.597751 0.348231
O O2 0.630418 0.610838 0.484524
O O3 0.631271 0.474395 0.352273
O O4 0.610040 0.643474 0.276709
O O5 0.250000 0.133023 0.120617
O O6 0.391175 0.207594 0.158948
O O7 0.371430 0.028913 0.174479
O O8 0.250000 0.003419 0.504411
O O9 0.333417 0.142173 0.571751
O O10 0.403504 0.982873 0.568388
O O11 0.368918 0.055729 0.382735
O O12 0.750000 0.099757 0.748626
O O13 0.661199 0.205432 0.872742
O O14 0.604576 0.154187 0.702980
O O15 0.250000 0.649286 0.908390
O O16 0.379962 0.616465 0.803958
O O17 0.390858 0.685067 0.998715
O O18 0.478154 0.144110 0.597862
O O19 0.500000 0.500000 0.789302
#
# Coordination Sequence:
#
# PCOD8193018 Si02
#       8
#     8   8   8   8   8   8   8   8
#     4  10  23  45  67  95 129 167 223 271 322 396
#     4  11  26  46  68  94 133 183 223 266 329 400
#     4  11  21  40  69  95 126 172 224 278 331 394
#     4  10  21  39  67  94 126 169 216 270 329 397
#     4  10  22  41  68  98 129 175 225 270 331 404
#     4  11  22  38  61  95 132 166 213 280 335 382
#     4  12  25  40  65  99 132 173 222 276 329 388
#     4  11  24  43  66  96 135 169 217 275 337 389
#
# _framework density 21.202088
#
# number of rings (size 3 to 8) (size 9 to 14) (size 15 to 20)
#    0.000    1.250    1.250    6.000    3.500    2.000 
#    2.250    2.500    0.000    0.000    0.000    0.000 
#    0.000    0.000    0.000    0.000    0.000    0.000 
#
# Total GULP energy -396617.412438 kJ/mol
# GULP energy per Si atom -12394.294139 kJ/mol
# Density = 2.115383 g / cm^3
# Si number density = 21.202088 Si / 1000 Ang^3
#
#
#
# Elastic Constant Matrix: (Units=GPa)
#
#
# Indices 1 2 3 4 5 6 
#
# 1 123.6106 37.1203 50.2544 0.0000 0.0000 0.0000
# 2 37.1203 116.1138 51.8193 0.0000 0.0000 0.0000
# 3 50.2544 51.8193 136.1253 0.0000 0.0000 0.0000
# 4 0.0000 0.0000 0.0000 13.0587 0.0000 0.0000
# 5 0.0000 0.0000 0.0000 0.0000 41.2176 0.0000
# 6 0.0000 0.0000 0.0000 0.0000 0.0000 -46.0663
#
#
#
# Elastic Compliance Matrix: (Units=1/GPa)
#
#
# Indices 1 2 3 4 5 6 
#
# 1 0.009833 -0.001835 -0.002931 0.000000 0.000000 0.000000
# 2 -0.001835 0.010717 -0.003402 0.000000 0.000000 0.000000
# 3 -0.002931 -0.003402 0.009724 0.000000 0.000000 0.000000
# 4 0.000000 0.000000 0.000000 0.076577 0.000000 0.000000
# 5 0.000000 0.000000 0.000000 0.000000 0.024261 0.000000
# 6 0.000000 0.000000 0.000000 0.000000 0.000000 -0.021708
#
#
# Mechanical properties :
#
#
# Convention : Reuss Voigt Hill
#
# Bulk Modulus (GPa) = 71.75749 72.69310 72.22529
# Shear Modulus (GPa) = 38.34718 17.41905 27.88312
#
# Velocity S-wave (km/s) = 4.25744 2.86942 3.63038
# Velocity P-wave (km/s) = 7.62140 6.73337 7.19111
#
# Compressibility (1/GPa) = 0.01393583
#
# Stress axis : x y z
#
# Youngs Moduli (GPa) = 101.70021 93.30707 102.84302
#
# Poissons Ratio (x) = 0.17124 0.30148
# Poissons Ratio (y) = 0.18664 0.34990
# Poissons Ratio (z) = 0.29813 0.31746
#
# Static dielectric constant tensor:
#      x y z
#    x 3.859810 0.000000 0.000000 
#    y 0.000000 3.765980 0.000000 
#    z 0.000000 0.000000 3.838160 
# 
# 
# High freq. dielectric constant tensor:
#      x y z
#    x 1.836660 0.000000 0.000000 
#    y 0.000000 1.828380 0.000000 
#    z 0.000000 0.000000 1.831490 
# 
# From -- ./inp_files/11982.got.cif
#   From: 2010.03.12/outbox.cif.g09.slc.cpg/sg46_6_cif.got.tgz:11982.got - 2010.04.14 02:56:35.
