data_PCOD8193457
_publ_section_title
;
Structure prediction by ZEFSAII (Michael W. Deem and Ramdas Pophale) SiO2 
 PCOD8193457
Probable space group: P M M M
;
_chemical_formula_sum "Si O2"
_cell_formula_units_Z 52
_cell_length_a 29.478425
_cell_length_b 7.945144
_cell_length_c 12.062282
_cell_angle_alpha 90.000000
_cell_angle_beta 90.000000
_cell_angle_gamma 90.000000
_cell_volume 2825.111066
_symmetry_space_group_name_H-M "P M M M"
_symmetry_group_IT_number 47
_symmetry_cell_setting 'orthorhombic'
loop_
_space_group_symop_operation_xyz
x,y,z
-x,-y,z
x,-y,-z
-x,y,-z
-x,-y,-z
x,y,-z
-x,y,z
x,-y,z
loop_
_atom_site_type_symbol
_atom_site_label
_atom_site_fract_x
_atom_site_fract_y
_atom_site_fract_z
Si Si1 0.386599 0.693713 0.370161
Si Si2 0.709318 0.302379 0.283223
Si Si3 0.152423 0.187675 0.500000
Si Si4 0.248503 0.309742 0.500000
Si Si5 0.784887 0.299331 0.876070
Si Si6 0.449715 0.000000 0.630665
Si Si7 0.131633 0.691194 0.729485
Si Si8 0.948589 0.196245 0.873338
O O1 0.373119 0.717561 0.500000
O O2 0.403107 0.500000 0.351283
O O3 0.344244 0.737057 0.289327
O O4 0.424753 0.827302 0.332797
O O5 0.717594 0.500000 0.287525
O O6 0.732770 0.217204 0.390533
O O7 0.736311 0.235980 0.174677
O O8 0.194438 0.314405 0.500000
O O9 0.123621 0.215562 0.387811
O O10 0.171625 0.000000 0.500000
O O11 0.267308 0.500000 0.500000
O O12 0.787282 0.500000 0.881824
O O13 0.826510 0.230456 0.800626
O O14 0.789025 0.223627 0.000000
O O15 0.500000 0.000000 0.684410
O O16 0.453911 0.000000 0.500000
O O17 0.143535 0.500000 0.702523
O O18 0.085139 0.699185 0.797191
O O19 0.000000 0.238788 0.837884
O O20 0.938587 0.000000 0.858292
O O21 0.940567 0.250818 0.000000
#
# Coordination Sequence:
#
# PCOD8193457 Si02
#       8
#     8   8   4   4   8   4   8   8
#     4   9  16  27  44  66  91 128 172 209 252 307
#     4   9  15  26  45  67  98 132 168 206 246 298
#     4  12  24  36  49  75 104 134 177 214 257 313
#     4  10  16  30  50  69  93 131 172 211 253 289
#     4   9  17  28  46  74 104 134 165 200 249 303
#     4   9  18  30  42  64  97 131 165 209 261 307
#     4  11  21  35  55  77 104 136 172 215 256 299
#     4   9  19  37  59  81 107 138 168 204 256 310
#
# _framework density 18.406358000000001
#
# number of rings (size 3 to 8) (size 9 to 14) (size 15 to 20)
#    0.000    2.385    2.308    2.077    0.000    1.538 
#    1.385    2.692    0.000    2.308    0.000    0.000 
#    0.000    1.231    0.000    6.000    0.000    0.154 
#
# Total GULP energy -644418.415223 kJ/mol
# GULP energy per Si atom -12392.661831 kJ/mol
# Density = 1.836446 g / cm^3
# Si number density = 18.406358 Si / 1000 Ang^3
#
#
#
# Elastic Constant Matrix: (Units=GPa)
#
#
# Indices 1 2 3 4 5 6 
#
# 1 123.8595 34.8975 55.4892 0.0000 0.0000 0.0000
# 2 34.8975 54.0522 24.6995 0.0000 0.0000 0.0000
# 3 55.4892 24.6995 114.3964 0.0000 0.0000 0.0000
# 4 0.0000 0.0000 0.0000 11.4455 0.0000 0.0000
# 5 0.0000 0.0000 0.0000 0.0000 19.9507 0.0000
# 6 0.0000 0.0000 0.0000 0.0000 0.0000 11.1837
#
#
#
# Elastic Compliance Matrix: (Units=1/GPa)
#
#
# Indices 1 2 3 4 5 6 
#
# 1 0.011606 -0.005459 -0.004451 0.000000 0.000000 0.000000
# 2 -0.005459 0.023094 -0.002338 0.000000 0.000000 0.000000
# 3 -0.004451 -0.002338 0.011405 0.000000 0.000000 0.000000
# 4 0.000000 0.000000 0.000000 0.087371 0.000000 0.000000
# 5 0.000000 0.000000 0.000000 0.000000 0.050123 0.000000
# 6 0.000000 0.000000 0.000000 0.000000 0.000000 0.089416
#
#
# Mechanical properties :
#
#
# Convention : Reuss Voigt Hill
#
# Bulk Modulus (GPa) = 46.27820 58.05339 52.16580
# Shear Modulus (GPa) = 16.40884 20.33078 18.36981
#
# Velocity S-wave (km/s) = 2.98900 3.32709 3.16256
# Velocity P-wave (km/s) = 6.09174 6.80938 6.46053
#
# Compressibility (1/GPa) = 0.02160845
#
# Stress axis : x y z
#
# Youngs Moduli (GPa) = 86.16431 43.30192 87.67874
#
# Poissons Ratio (x) = 0.23639 0.39024
# Poissons Ratio (y) = 0.47038 0.20501
# Poissons Ratio (z) = 0.38350 0.10125
#
# Static dielectric constant tensor:
#      x y z
#    x 3.368580 0.000000 0.000000 
#    y 0.000000 3.135520 0.000000 
#    z 0.000000 0.000000 3.435970 
# 
# 
# High freq. dielectric constant tensor:
#      x y z
#    x 1.699360 0.000000 0.000000 
#    y 0.000000 1.695150 0.000000 
#    z 0.000000 0.000000 1.689000 
# 
# From -- ./inp_files/19865.got.cif
#   From: 2010.03.12/outbox.cif.g09.slc.cpg/sg47_10_cif.got.tgz:19865.got - 2010.04.14 03:12:58.
