data_PCOD8193792
_publ_section_title
;
Structure prediction by ZEFSAII (Michael W. Deem and Ramdas Pophale) SiO2 
 PCOD8193792
Probable space group: P M M M
;
_chemical_formula_sum "Si O2"
_cell_formula_units_Z 56
_cell_length_a 9.191495
_cell_length_b 13.754422
_cell_length_c 29.400897
_cell_angle_alpha 90.000000
_cell_angle_beta 90.000000
_cell_angle_gamma 90.000000
_cell_volume 3716.970213
_symmetry_space_group_name_H-M "P M M M"
_symmetry_group_IT_number 47
_symmetry_cell_setting 'orthorhombic'
loop_
_space_group_symop_operation_xyz
x,y,z
-x,-y,z
x,-y,-z
-x,y,-z
-x,-y,-z
x,y,-z
-x,y,z
x,-y,z
loop_
_atom_site_type_symbol
_atom_site_label
_atom_site_fract_x
_atom_site_fract_y
_atom_site_fract_z
Si Si1 0.169184 0.610379 0.218307
Si Si2 0.326605 0.283272 0.138619
Si Si3 0.828767 0.111197 0.819283
Si Si4 0.169693 0.207071 0.727333
Si Si5 0.664006 0.115512 0.450281
Si Si6 0.672523 0.391448 0.050011
Si Si7 0.829243 0.112768 0.363069
O O1 0.205532 0.500000 0.232419
O O2 0.266371 0.640822 0.175582
O O3 0.205775 0.680078 0.261374
O O4 0.000000 0.623091 0.204746
O O5 0.500000 0.278663 0.142891
O O6 0.258686 0.176461 0.144763
O O7 0.272450 0.318965 0.089128
O O8 0.774188 0.139740 0.768743
O O9 0.000000 0.132184 0.824351
O O10 0.789970 0.000000 0.829207
O O11 0.239351 0.172748 0.679553
O O12 0.000000 0.188739 0.722125
O O13 0.720645 0.151822 0.500000
O O14 0.500000 0.152174 0.442772
O O15 0.761597 0.156849 0.409328
O O16 0.670167 0.000000 0.449449
O O17 0.500000 0.395753 0.051235
O O18 0.733885 0.500000 0.059148
O O19 0.725014 0.354983 0.000000
O O20 0.000000 0.127381 0.367499
O O21 0.788371 0.000000 0.355904
#
# Coordination Sequence:
#
# PCOD8193792 Si02
#       7
#     8   8   8   8   8   8   8
#     4   9  17  29  44  60  81 111 141 164 191 237
#     4  10  18  27  43  66  87 105 130 168 208 240
#     4   9  17  30  46  60  79 111 144 168 194 235
#     4   8  14  25  40  58  78 101 132 165 195 229
#     4   8  14  24  35  47  68  99 129 154 185 228
#     4   8  14  25  41  61  84 108 132 159 197 246
#     4   9  15  22  35  54  74  97 126 160 193 224
#
# _framework density 15.066034
#
# number of rings (size 3 to 8) (size 9 to 14) (size 15 to 20)
#    0.000    3.286    0.000    3.000    0.000    3.143 
#    0.000    4.286    0.000    5.571    0.000    8.000 
#    0.000    0.571    0.000    7.143    0.000    1.429 
#
# Total GULP energy -693939.290326 kJ/mol
# GULP energy per Si atom -12391.773042 kJ/mol
# Density = 1.503174 g / cm^3
# Si number density = 15.066034 Si / 1000 Ang^3
#
#
#
# Elastic Constant Matrix: (Units=GPa)
#
#
# Indices 1 2 3 4 5 6 
#
# 1 36.1610 30.8766 39.6283 0.0000 0.0000 0.0000
# 2 30.8766 98.5504 65.2279 0.0000 0.0000 0.0000
# 3 39.6283 65.2279 149.1412 0.0000 0.0000 0.0000
# 4 0.0000 0.0000 0.0000 20.4825 0.0000 0.0000
# 5 0.0000 0.0000 0.0000 0.0000 20.4434 0.0000
# 6 0.0000 0.0000 0.0000 0.0000 0.0000 16.5885
#
#
#
# Elastic Compliance Matrix: (Units=1/GPa)
#
#
# Indices 1 2 3 4 5 6 
#
# 1 0.043457 -0.008406 -0.007870 0.000000 0.000000 0.000000
# 2 -0.008406 0.015907 -0.004724 0.000000 0.000000 0.000000
# 3 -0.007870 -0.004724 0.010862 0.000000 0.000000 0.000000
# 4 0.000000 0.000000 0.000000 0.048822 0.000000 0.000000
# 5 0.000000 0.000000 0.000000 0.000000 0.048916 0.000000
# 6 0.000000 0.000000 0.000000 0.000000 0.000000 0.060283
#
#
# Mechanical properties :
#
#
# Convention : Reuss Voigt Hill
#
# Bulk Modulus (GPa) = 35.42830 61.70204 48.56517
# Shear Modulus (GPa) = 17.87912 21.37751 19.62832
#
# Velocity S-wave (km/s) = 3.44861 3.77094 3.61337
# Velocity P-wave (km/s) = 6.27882 7.74618 7.05078
#
# Compressibility (1/GPa) = 0.02822602
#
# Stress axis : x y z
#
# Youngs Moduli (GPa) = 23.01132 62.86474 92.06258
#
# Poissons Ratio (x) = 0.52845 0.72457
# Poissons Ratio (y) = 0.19344 0.43486
# Poissons Ratio (z) = 0.18111 0.29694
#
# Static dielectric constant tensor:
#      x y z
#    x 2.703830 0.000000 0.000000 
#    y 0.000000 2.823090 0.000000 
#    z 0.000000 0.000000 3.239050 
# 
# 
# High freq. dielectric constant tensor:
#      x y z
#    x 1.554010 0.000000 0.000000 
#    y 0.000000 1.549790 0.000000 
#    z 0.000000 0.000000 1.576850 
# 
# From -- ./inp_files/8144.got.cif
#   From: 2010.03.12/outbox.cif.g09.slc.cpg/sg47_5_cif.got.tgz:8144.got - 2010.04.14 03:12:58.
