data_PCOD8193271
_publ_section_title
;
Structure prediction by ZEFSAII (Michael W. Deem and Ramdas Pophale) SiO2 
 PCOD8193271
Probable space group: I M A 2
;
_chemical_formula_sum "Si O2"
_cell_formula_units_Z 32
_cell_length_a 10.970684
_cell_length_b 13.248511
_cell_length_c 9.398196
_cell_angle_alpha 90.000000
_cell_angle_beta 90.000000
_cell_angle_gamma 90.000000
_cell_volume 1365.982937
_symmetry_space_group_name_H-M "I M A 2"
_symmetry_group_IT_number 46
_symmetry_cell_setting 'orthorhombic'
loop_
_space_group_symop_operation_xyz
x,y,z
-x,-y,z
1/2-x,y,z
1/2+x,-y,z
1/2+x,1/2+y,1/2+z
1/2-x,1/2-y,1/2+z
-x,1/2+y,1/2+z
x,1/2-y,1/2+z
loop_
_atom_site_type_symbol
_atom_site_label
_atom_site_fract_x
_atom_site_fract_y
_atom_site_fract_z
Si Si1 0.882443 0.162255 0.218650
Si Si2 0.250000 0.244693 0.297708
Si Si3 0.750000 0.943267 0.623896
Si Si4 0.495468 0.296620 0.433681
Si Si5 0.750000 0.975617 0.291399
Si Si6 0.500000 0.000000 0.766344
O O1 0.750000 0.201899 0.165516
O O2 0.912104 0.214946 0.368148
O O3 0.870226 0.040719 0.246501
O O4 0.983784 0.193654 0.103273
O O5 0.250000 0.327590 0.174558
O O6 0.361832 0.255269 0.405754
O O7 0.250000 0.134859 0.217934
O O8 0.750000 0.949513 0.456448
O O9 0.624629 0.995474 0.675874
O O10 0.517748 0.404760 0.366346
#
# Coordination Sequence:
#
# PCOD8193271 Si02
#       6
#     8   4   4   8   4   4
#     4  10  26  45  75 109 148 200 259 321 379 470
#     4  10  26  46  72 110 154 200 259 330 406 468
#     4  10  24  46  73 110 144 204 256 327 394 490
#     4  11  25  46  72 108 152 203 255 327 390 472
#     4  10  26  46  75 110 150 204 259 329 392 480
#     4  10  26  42  76 102 152 200 266 318 402 466
#
# _framework density 23.426355999999998
#
# number of rings (size 3 to 8) (size 9 to 14) (size 15 to 20)
#    0.750    1.000    0.000    0.750   14.000    3.000 
#    4.500    0.000    0.000    0.000    0.000    0.000 
#    0.000    0.000    0.000    0.000    0.000    0.000 
#
# Total GULP energy -198320.478041 kJ/mol
# GULP energy per Si atom -12395.029878 kJ/mol
# Density = 2.337304 g / cm^3
# Si number density = 23.426356 Si / 1000 Ang^3
#
#
#
# Elastic Constant Matrix: (Units=GPa)
#
#
# Indices 1 2 3 4 5 6 
#
# 1 131.5740 54.5404 28.8613 0.0000 0.0000 0.0000
# 2 54.5404 168.0080 39.0172 0.0000 0.0000 0.0000
# 3 28.8613 39.0172 110.3981 0.0000 0.0000 0.0000
# 4 0.0000 0.0000 0.0000 28.8865 0.0000 0.0000
# 5 0.0000 0.0000 0.0000 0.0000 27.4778 0.0000
# 6 0.0000 0.0000 0.0000 0.0000 0.0000 37.9418
#
#
#
# Elastic Compliance Matrix: (Units=1/GPa)
#
#
# Indices 1 2 3 4 5 6 
#
# 1 0.008986 -0.002584 -0.001436 0.000000 0.000000 0.000000
# 2 -0.002584 0.007227 -0.001879 0.000000 0.000000 0.000000
# 3 -0.001436 -0.001879 0.010098 0.000000 0.000000 0.000000
# 4 0.000000 0.000000 0.000000 0.034618 0.000000 0.000000
# 5 0.000000 0.000000 0.000000 0.000000 0.036393 0.000000
# 6 0.000000 0.000000 0.000000 0.000000 0.000000 0.026356
#
#
# Mechanical properties :
#
#
# Convention : Reuss Voigt Hill
#
# Bulk Modulus (GPa) = 68.90001 72.75754 70.82877
# Shear Modulus (GPa) = 35.63446 38.03198 36.83322
#
# Velocity S-wave (km/s) = 3.90439 4.03360 3.96952
# Velocity P-wave (km/s) = 7.05697 7.26764 7.16308
#
# Compressibility (1/GPa) = 0.01451379
#
# Stress axis : x y z
#
# Youngs Moduli (GPa) = 111.28035 138.36691 99.03357
#
# Poissons Ratio (x) = 0.35750 0.14223
# Poissons Ratio (y) = 0.28751 0.18606
# Poissons Ratio (z) = 0.15981 0.25996
#
# Static dielectric constant tensor:
#      x y z
#    x 4.367880 0.000000 0.000000 
#    y 0.000000 4.551290 0.000000 
#    z 0.000000 0.000000 3.859730 
# 
# 
# High freq. dielectric constant tensor:
#      x y z
#    x 1.938770 0.000000 0.000000 
#    y 0.000000 1.939990 0.000000 
#    z 0.000000 0.000000 1.917700 
# 
# From -- ./inp_files/4314.got.cif
#   From: 2010.03.12/outbox.cif.g09.slc.cpg/sg46_3_cif.got.tgz:4314.got - 2010.04.14 02:56:35.
