data_PCOD8193049
_publ_section_title
;
Structure prediction by ZEFSAII (Michael W. Deem and Ramdas Pophale) SiO2 
 PCOD8193049
Probable space group: I M A 2
;
_chemical_formula_sum "Si O2"
_cell_formula_units_Z 56
_cell_length_a 15.028474
_cell_length_b 5.536660
_cell_length_c 28.619815
_cell_angle_alpha 90.000000
_cell_angle_beta 90.000000
_cell_angle_gamma 90.000000
_cell_volume 2381.384712
_symmetry_space_group_name_H-M "I M A 2"
_symmetry_group_IT_number 46
_symmetry_cell_setting 'orthorhombic'
loop_
_space_group_symop_operation_xyz
x,y,z
-x,-y,z
1/2-x,y,z
1/2+x,-y,z
1/2+x,1/2+y,1/2+z
1/2-x,1/2-y,1/2+z
-x,1/2+y,1/2+z
x,1/2-y,1/2+z
loop_
_atom_site_type_symbol
_atom_site_label
_atom_site_fract_x
_atom_site_fract_y
_atom_site_fract_z
Si Si1 0.597999 0.464808 0.388990
Si Si2 0.500000 0.500000 0.558023
Si Si3 0.347901 0.202807 0.718089
Si Si4 0.000000 0.500000 0.764308
Si Si5 0.591361 0.884175 0.618266
Si Si6 0.153557 0.689254 0.294890
Si Si7 0.650005 0.534930 0.935532
Si Si8 0.849013 0.328134 0.032070
O O1 0.500000 0.500000 0.370318
O O2 0.657243 0.471737 0.341906
O O3 0.601805 0.203674 0.414865
O O4 0.620120 0.696628 0.420967
O O5 0.568400 0.640947 0.591071
O O6 0.433848 0.652507 0.524901
O O7 0.250000 0.317262 0.729616
O O8 0.432376 0.365644 0.729871
O O9 0.347024 0.154380 0.662946
O O10 0.359206 0.959943 0.747566
O O11 0.066232 0.642806 0.798936
O O12 0.500000 0.000000 0.636100
O O13 0.644841 0.056216 0.583133
O O14 0.250000 0.824524 0.292097
O O15 0.750000 0.501266 0.918386
O O16 0.640361 0.530021 0.991769
O O17 0.750000 0.205768 0.027401
#
# Coordination Sequence:
#
# PCOD8193049 Si02
#       8
#     8   4   8   4   8   8   8   8
#     4  12  27  46  74 107 143 191 242 301 366 435
#     4  10  23  40  68 100 136 180 234 292 353 428
#     4  11  24  42  67  98 136 183 233 289 355 427
#     4  12  23  42  70 102 136 182 230 292 351 428
#     4  10  21  40  65  96 137 181 229 291 354 427
#     4  11  26  46  70 101 139 182 232 291 356 429
#     4  11  26  47  72 105 145 190 242 300 366 435
#     4  10  24  43  68 100 138 184 234 293 359 429
#
# _framework density 23.515730000000001
#
# number of rings (size 3 to 8) (size 9 to 14) (size 15 to 20)
#    0.000    1.143    0.000    5.143    7.000    4.571 
#    0.000    0.000    0.000    0.000    0.000    0.000 
#    0.000    0.000    0.000    0.000    0.000    0.000 
#
# Total GULP energy -346908.276156 kJ/mol
# GULP energy per Si atom -12389.581291 kJ/mol
# Density = 2.346221 g / cm^3
# Si number density = 23.515730 Si / 1000 Ang^3
#
#
#
# Elastic Constant Matrix: (Units=GPa)
#
#
# Indices 1 2 3 4 5 6 
#
# 1 182.7856 48.7634 49.2633 0.0000 0.0000 0.0000
# 2 48.7634 109.0239 38.0753 0.0000 0.0000 0.0000
# 3 49.2633 38.0753 116.6866 0.0000 0.0000 0.0000
# 4 0.0000 0.0000 0.0000 28.7386 0.0000 0.0000
# 5 0.0000 0.0000 0.0000 0.0000 33.8064 0.0000
# 6 0.0000 0.0000 0.0000 0.0000 0.0000 19.8321
#
#
#
# Elastic Compliance Matrix: (Units=1/GPa)
#
#
# Indices 1 2 3 4 5 6 
#
# 1 0.006626 -0.002242 -0.002066 0.000000 0.000000 0.000000
# 2 -0.002242 0.011111 -0.002679 0.000000 0.000000 0.000000
# 3 -0.002066 -0.002679 0.010316 0.000000 0.000000 0.000000
# 4 0.000000 0.000000 0.000000 0.034796 0.000000 0.000000
# 5 0.000000 0.000000 0.000000 0.000000 0.029580 0.000000
# 6 0.000000 0.000000 0.000000 0.000000 0.000000 0.050423
#
#
# Mechanical properties :
#
#
# Convention : Reuss Voigt Hill
#
# Bulk Modulus (GPa) = 71.02622 75.63335 73.32979
# Shear Modulus (GPa) = 30.95609 34.63502 32.79555
#
# Velocity S-wave (km/s) = 3.63216 3.84193 3.73852
# Velocity P-wave (km/s) = 6.91805 7.20509 7.06302
#
# Compressibility (1/GPa) = 0.01407931
#
# Stress axis : x y z
#
# Youngs Moduli (GPa) = 150.92587 90.00329 96.93491
#
# Poissons Ratio (x) = 0.20180 0.20024
# Poissons Ratio (y) = 0.33839 0.25968
# Poissons Ratio (z) = 0.31177 0.24111
#
# Static dielectric constant tensor:
#      x y z
#    x 4.594120 0.000000 0.000000 
#    y 0.000000 4.220160 0.000000 
#    z 0.000000 0.000000 4.120960 
# 
# 
# High freq. dielectric constant tensor:
#      x y z
#    x 1.956720 0.000000 0.000000 
#    y 0.000000 1.910460 0.000000 
#    z 0.000000 0.000000 1.939330 
# 
# From -- ./inp_files/25460.got.cif
#   From: 2010.03.12/outbox.cif.g09.slc.cpg/sg46_13_cif.got.tgz:25460.got - 2010.04.14 02:56:35.
