data_PCOD8193794
_publ_section_title
;
Structure prediction by ZEFSAII (Michael W. Deem and Ramdas Pophale) SiO2 
 PCOD8193794
Probable space group: P M M M
;
_chemical_formula_sum "Si O2"
_cell_formula_units_Z 64
_cell_length_a 9.227373
_cell_length_b 14.616509
_cell_length_c 28.841095
_cell_angle_alpha 90.000000
_cell_angle_beta 90.000000
_cell_angle_gamma 90.000000
_cell_volume 3889.855602
_symmetry_space_group_name_H-M "P M M M"
_symmetry_group_IT_number 47
_symmetry_cell_setting 'orthorhombic'
loop_
_space_group_symop_operation_xyz
x,y,z
-x,-y,z
x,-y,-z
-x,y,-z
-x,-y,-z
x,y,-z
-x,y,z
x,-y,z
loop_
_atom_site_type_symbol
_atom_site_label
_atom_site_fract_x
_atom_site_fract_y
_atom_site_fract_z
Si Si1 0.337663 0.600646 0.055046
Si Si2 0.836846 0.891740 0.786509
Si Si3 0.833155 0.774506 0.054753
Si Si4 0.669260 0.229644 0.390291
Si Si5 0.671649 0.106101 0.306041
Si Si6 0.665448 0.108508 0.875591
Si Si7 0.157601 0.099994 0.554207
Si Si8 0.327438 0.397541 0.552311
O O1 0.500000 0.623775 0.072696
O O2 0.290215 0.500000 0.073442
O O3 0.226167 0.676866 0.073309
O O4 0.336427 0.599672 0.000000
O O5 0.751265 0.862652 0.740566
O O6 0.750292 0.852550 0.830759
O O7 0.000000 0.851186 0.785613
O O8 0.843051 0.000000 0.790172
O O9 0.742344 0.855045 0.078238
O O10 0.000000 0.782586 0.069182
O O11 0.811516 0.784786 0.000000
O O12 0.500000 0.236844 0.384484
O O13 0.730911 0.180245 0.343892
O O14 0.709316 0.163375 0.432211
O O15 0.731468 0.329133 0.406884
O O16 0.500000 0.114956 0.298773
O O17 0.709916 0.000000 0.319261
O O18 0.500000 0.142949 0.873381
O O19 0.672049 0.000000 0.877518
O O20 0.157985 0.090631 0.500000
O O21 0.000000 0.138557 0.570890
O O22 0.181713 0.000000 0.576525
O O23 0.272541 0.371025 0.500000
O O24 0.500000 0.393691 0.551872
O O25 0.273626 0.500000 0.564653
#
# Coordination Sequence:
#
# PCOD8193794 Si02
#       8
#     8   8   8   8   8   8   8   8
#     4   8  14  26  44  64  87 117 152 189 228 269
#     4   9  17  30  48  67  86 111 145 182 220 267
#     4  10  20  31  44  66  96 127 158 194 234 275
#     4  10  18  27  43  66  87 110 144 183 220 258
#     4   9  17  28  41  61  90 115 135 169 218 267
#     4  10  20  33  49  67  89 121 158 194 232 272
#     4   9  18  30  40  53  80 117 148 172 205 252
#     4   8  14  25  41  62  88 116 148 189 232 267
#
# _framework density 16.453053000000001
#
# number of rings (size 3 to 8) (size 9 to 14) (size 15 to 20)
#    0.000    2.875    0.000    3.000    0.000    5.500 
#    0.000    4.375    0.000    0.375    0.000    2.625 
#    0.000    5.000    0.000    0.000    0.000    0.000 
#
# Total GULP energy -792890.576787 kJ/mol
# GULP energy per Si atom -12388.915262 kJ/mol
# Density = 1.641560 g / cm^3
# Si number density = 16.453053 Si / 1000 Ang^3
#
#
#
# Elastic Constant Matrix: (Units=GPa)
#
#
# Indices 1 2 3 4 5 6 
#
# 1 64.7998 31.3763 41.7160 0.0000 0.0000 0.0000
# 2 31.3763 67.8473 46.7704 0.0000 0.0000 0.0000
# 3 41.7160 46.7704 73.4510 0.0000 0.0000 0.0000
# 4 0.0000 0.0000 0.0000 10.3921 0.0000 0.0000
# 5 0.0000 0.0000 0.0000 0.0000 21.9371 0.0000
# 6 0.0000 0.0000 0.0000 0.0000 0.0000 17.1428
#
#
#
# Elastic Compliance Matrix: (Units=1/GPa)
#
#
# Indices 1 2 3 4 5 6 
#
# 1 0.024692 -0.003122 -0.012036 0.000000 0.000000 0.000000
# 2 -0.003122 0.026665 -0.015206 0.000000 0.000000 0.000000
# 3 -0.012036 -0.015206 0.030132 0.000000 0.000000 0.000000
# 4 0.000000 0.000000 0.000000 0.096227 0.000000 0.000000
# 5 0.000000 0.000000 0.000000 0.000000 0.045585 0.000000
# 6 0.000000 0.000000 0.000000 0.000000 0.000000 0.058333
#
#
# Mechanical properties :
#
#
# Convention : Reuss Voigt Hill
#
# Bulk Modulus (GPa) = 48.16453 49.53596 48.85025
# Shear Modulus (GPa) = 14.31503 15.64342 14.97923
#
# Velocity S-wave (km/s) = 2.95287 3.08684 3.02059
# Velocity P-wave (km/s) = 6.40026 6.54810 6.47460
#
# Compressibility (1/GPa) = 0.02076217
#
# Stress axis : x y z
#
# Youngs Moduli (GPa) = 40.49882 37.50231 33.18680
#
# Poissons Ratio (x) = 0.11709 0.39942
# Poissons Ratio (y) = 0.12645 0.50463
# Poissons Ratio (z) = 0.48743 0.57026
#
# Static dielectric constant tensor:
#      x y z
#    x 3.165410 0.000000 0.000000 
#    y 0.000000 3.250390 0.000000 
#    z 0.000000 0.000000 3.015690 
# 
# 
# High freq. dielectric constant tensor:
#      x y z
#    x 1.627790 0.000000 0.000000 
#    y 0.000000 1.613250 0.000000 
#    z 0.000000 0.000000 1.610540 
# 
# From -- ./inp_files/34432.got.cif
#   From: 2010.03.12/outbox.cif.g09.slc.cpg/sg47_18_cif.got.tgz:34432.got - 2010.04.14 03:12:58.
