data_PCOD8193901
_publ_section_title
;
Structure prediction by ZEFSAII (Michael W. Deem and Ramdas Pophale) SiO2 
 PCOD8193901
Probable space group: P M M M
;
_chemical_formula_sum "Si O2"
_cell_formula_units_Z 52
_cell_length_a 9.839158
_cell_length_b 27.893484
_cell_length_c 11.652104
_cell_angle_alpha 90.000000
_cell_angle_beta 90.000000
_cell_angle_gamma 90.000000
_cell_volume 3197.901256
_symmetry_space_group_name_H-M "P M M M"
_symmetry_group_IT_number 47
_symmetry_cell_setting 'orthorhombic'
loop_
_space_group_symop_operation_xyz
x,y,z
-x,-y,z
x,-y,-z
-x,y,-z
-x,-y,-z
x,y,-z
-x,y,z
x,-y,z
loop_
_atom_site_type_symbol
_atom_site_label
_atom_site_fract_x
_atom_site_fract_y
_atom_site_fract_z
Si Si1 0.156045 0.630941 0.249553
Si Si2 0.842888 0.729938 0.366012
Si Si3 0.649063 0.000000 0.863671
Si Si4 0.847619 0.340542 0.000000
Si Si5 0.656541 0.198821 0.235550
Si Si6 0.337453 0.897367 0.128709
Si Si7 0.654349 0.554672 0.366000
Si Si8 0.650950 0.747331 0.000000
O O1 0.204704 0.682494 0.297548
O O2 0.177327 0.627740 0.112848
O O3 0.244350 0.588593 0.299539
O O4 0.000000 0.622469 0.285393
O O5 0.819403 0.720413 0.500000
O O6 0.751793 0.774871 0.327505
O O7 0.000000 0.741706 0.338885
O O8 0.721630 0.050515 0.828323
O O9 0.500000 0.000000 0.806633
O O10 0.635054 0.000000 0.000000
O O11 0.752807 0.295619 0.000000
O O12 0.000000 0.319879 0.000000
O O13 0.500000 0.202555 0.277165
O O14 0.704840 0.143512 0.220514
O O15 0.675660 0.220882 0.110724
O O16 0.500000 0.899969 0.122386
O O17 0.282623 0.885712 0.000000
O O18 0.677144 0.562400 0.500000
O O19 0.500000 0.567709 0.332340
O O20 0.686429 0.500000 0.331710
O O21 0.500000 0.725509 0.000000
#
# Coordination Sequence:
#
# PCOD8193901 Si02
#       8
#     8   8   4   4   8   8   8   4
#     4  10  20  34  53  75  97 124 157 193 233 275
#     4  10  21  35  49  67  93 124 159 198 236 276
#     4   7  10  16  30  54  86 121 150 178 221 274
#     4  10  20  34  51  71  97 128 161 194 225 272
#     4  10  18  28  45  69  96 124 155 191 231 277
#     4   8  12  20  35  59  91 122 150 183 225 275
#     4   9  19  36  56  77 100 126 158 196 235 274
#     4  10  18  28  44  68  97 126 156 189 225 272
#
# _framework density 16.260664999999999
#
# number of rings (size 3 to 8) (size 9 to 14) (size 15 to 20)
#    0.000    2.692    2.308    1.846    0.000    2.769 
#    0.000    1.154    0.000    2.308    0.000    1.077 
#    0.000    6.154    0.000    0.000    0.000    0.000 
#
# Total GULP energy -644435.191490 kJ/mol
# GULP energy per Si atom -12392.984452 kJ/mol
# Density = 1.622366 g / cm^3
# Si number density = 16.260665 Si / 1000 Ang^3
#
#
#
# Elastic Constant Matrix: (Units=GPa)
#
#
# Indices 1 2 3 4 5 6 
#
# 1 60.6879 61.1562 34.0078 0.0000 0.0000 0.0000
# 2 61.1562 131.1587 47.2199 0.0000 0.0000 0.0000
# 3 34.0078 47.2199 67.7691 0.0000 0.0000 0.0000
# 4 0.0000 0.0000 0.0000 21.2731 0.0000 0.0000
# 5 0.0000 0.0000 0.0000 0.0000 24.4781 0.0000
# 6 0.0000 0.0000 0.0000 0.0000 0.0000 82.4780
#
#
#
# Elastic Compliance Matrix: (Units=1/GPa)
#
#
# Indices 1 2 3 4 5 6 
#
# 1 0.034083 -0.012994 -0.008049 0.000000 0.000000 0.000000
# 2 -0.012994 0.015131 -0.004023 0.000000 0.000000 0.000000
# 3 -0.008049 -0.004023 0.021598 0.000000 0.000000 0.000000
# 4 0.000000 0.000000 0.000000 0.047008 0.000000 0.000000
# 5 0.000000 0.000000 0.000000 0.000000 0.040853 0.000000
# 6 0.000000 0.000000 0.000000 0.000000 0.000000 0.012124
#
#
# Mechanical properties :
#
#
# Convention : Reuss Voigt Hill
#
# Bulk Modulus (GPa) = 48.35525 60.48705 54.42115
# Shear Modulus (GPa) = 21.94696 33.46132 27.70414
#
# Velocity S-wave (km/s) = 3.67781 4.54123 4.13213
# Velocity P-wave (km/s) = 6.91644 8.04836 7.50377
#
# Compressibility (1/GPa) = 0.02068028
#
# Stress axis : x y z
#
# Youngs Moduli (GPa) = 29.34049 66.08812 46.30034
#
# Poissons Ratio (x) = 0.85875 0.37269
# Poissons Ratio (y) = 0.38125 0.18624
# Poissons Ratio (z) = 0.23617 0.26584
#
# Static dielectric constant tensor:
#      x y z
#    x 2.906600 0.000000 0.000000 
#    y 0.000000 3.381500 0.000000 
#    z 0.000000 0.000000 2.957900 
# 
# 
# High freq. dielectric constant tensor:
#      x y z
#    x 1.600510 0.000000 0.000000 
#    y 0.000000 1.630730 0.000000 
#    z 0.000000 0.000000 1.604490 
# 
# From -- ./inp_files/15712.got.cif
#   From: 2010.03.12/outbox.cif.g09.slc.cpg/sg47_8_cif.got.tgz:15712.got - 2010.04.14 03:12:58.
