data_PCOD8193882
_publ_section_title
;
Structure prediction by ZEFSAII (Michael W. Deem and Ramdas Pophale) SiO2 
 PCOD8193882
Probable space group: P M M M
;
_chemical_formula_sum "Si O2"
_cell_formula_units_Z 44
_cell_length_a 23.246674
_cell_length_b 9.472547
_cell_length_c 14.073586
_cell_angle_alpha 90.000000
_cell_angle_beta 90.000000
_cell_angle_gamma 90.000000
_cell_volume 3099.076990
_symmetry_space_group_name_H-M "P M M M"
_symmetry_group_IT_number 47
_symmetry_cell_setting 'orthorhombic'
loop_
_space_group_symop_operation_xyz
x,y,z
-x,-y,z
x,-y,-z
-x,y,-z
-x,-y,-z
x,y,-z
-x,y,z
x,-y,z
loop_
_atom_site_type_symbol
_atom_site_label
_atom_site_fract_x
_atom_site_fract_y
_atom_site_fract_z
Si Si1 0.831659 0.841062 0.886865
Si Si2 0.390831 0.333959 0.224163
Si Si3 0.566142 0.836624 0.608353
Si Si4 0.500000 0.667731 0.106052
Si Si5 0.063801 0.658408 0.113007
Si Si6 0.277351 0.663324 0.109917
O O1 0.888587 0.764967 0.844959
O O2 0.775585 0.756507 0.852490
O O3 0.829280 0.000000 0.846620
O O4 0.834089 0.841346 0.000000
O O5 0.395561 0.500000 0.242112
O O6 0.392607 0.256306 0.325334
O O7 0.443435 0.277912 0.160073
O O8 0.332333 0.293204 0.171255
O O9 0.584696 0.808348 0.500000
O O10 0.500000 0.790821 0.623401
O O11 0.574081 0.000000 0.634389
O O12 0.500000 0.500000 0.100524
O O13 0.500000 0.731850 0.000000
O O14 0.076537 0.500000 0.150078
O O15 0.000000 0.707040 0.146189
O O16 0.066873 0.658678 0.000000
O O17 0.260867 0.500000 0.123920
O O18 0.291640 0.694546 0.000000
#
# Coordination Sequence:
#
# PCOD8193882 Si02
#       6
#     8   8   8   4   8   8
#     4   9  16  24  34  49  69  95 128 164 197 226
#     4  10  18  28  44  64  79  97 128 164 198 231
#     4   9  18  32  47  61  79 102 123 148 192 246
#     4   9  16  26  40  59  82 102 123 157 198 235
#     4   8  13  21  33  48  66  90 121 158 199 237
#     4   9  17  28  40  54  75 104 134 161 193 235
#
# _framework density 14.197775999999999
#
# number of rings (size 3 to 8) (size 9 to 14) (size 15 to 20)
#    0.000    3.000    0.909    2.182    0.000    5.818 
#    0.000    2.727    0.000    2.182    0.000    0.000 
#    0.000    0.000    0.000    0.000    0.000    0.909 
#
# Total GULP energy -545485.884370 kJ/mol
# GULP energy per Si atom -12397.406463 kJ/mol
# Density = 1.416546 g / cm^3
# Si number density = 14.197776 Si / 1000 Ang^3
#
#
#
# Elastic Constant Matrix: (Units=GPa)
#
#
# Indices 1 2 3 4 5 6 
#
# 1 127.3419 66.1680 37.2618 0.0000 0.0000 0.0000
# 2 66.1680 74.6265 31.4111 0.0000 0.0000 0.0000
# 3 37.2618 31.4111 53.4249 0.0000 0.0000 0.0000
# 4 0.0000 0.0000 0.0000 15.7526 0.0000 0.0000
# 5 0.0000 0.0000 0.0000 0.0000 3.6243 0.0000
# 6 0.0000 0.0000 0.0000 0.0000 0.0000 19.3351
#
#
#
# Elastic Compliance Matrix: (Units=1/GPa)
#
#
# Indices 1 2 3 4 5 6 
#
# 1 0.015044 -0.011857 -0.003522 0.000000 0.000000 0.000000
# 2 -0.011857 0.027151 -0.007694 0.000000 0.000000 0.000000
# 3 -0.003522 -0.007694 0.025698 0.000000 0.000000 0.000000
# 4 0.000000 0.000000 0.000000 0.063482 0.000000 0.000000
# 5 0.000000 0.000000 0.000000 0.000000 0.275919 0.000000
# 6 0.000000 0.000000 0.000000 0.000000 0.000000 0.051719
#
#
# Mechanical properties :
#
#
# Convention : Reuss Voigt Hill
#
# Bulk Modulus (GPa) = 45.97990 58.34167 52.16078
# Shear Modulus (GPa) = 9.75786 15.77922 12.76854
#
# Velocity S-wave (km/s) = 2.62445 3.33736 3.00214
# Velocity P-wave (km/s) = 6.45285 7.48545 6.98825
#
# Compressibility (1/GPa) = 0.02174864
#
# Stress axis : x y z
#
# Youngs Moduli (GPa) = 66.47079 36.83049 38.91393
#
# Poissons Ratio (x) = 0.43669 0.13704
# Poissons Ratio (y) = 0.78813 0.29940
# Poissons Ratio (z) = 0.23408 0.28337
#
# Static dielectric constant tensor:
#      x y z
#    x 2.877630 0.000000 0.000000 
#    y 0.000000 2.791090 0.000000 
#    z 0.000000 0.000000 2.398600 
# 
# 
# High freq. dielectric constant tensor:
#      x y z
#    x 1.542100 0.000000 0.000000 
#    y 0.000000 1.539970 0.000000 
#    z 0.000000 0.000000 1.486110 
# 
# From -- ./inp_files/25375.got.cif
#   From: 2010.03.12/outbox.cif.g09.slc.cpg/sg47_13_cif.got.tgz:25375.got - 2010.04.14 03:12:58.
