data_PCOD8193799
_publ_section_title
;
Structure prediction by ZEFSAII (Michael W. Deem and Ramdas Pophale) SiO2 
 PCOD8193799
Probable space group: P M M M
;
_chemical_formula_sum "Si O2"
_cell_formula_units_Z 64
_cell_length_a 8.950961
_cell_length_b 23.942894
_cell_length_c 19.026811
_cell_angle_alpha 90.000000
_cell_angle_beta 90.000000
_cell_angle_gamma 90.000000
_cell_volume 4077.672215
_symmetry_space_group_name_H-M "P M M M"
_symmetry_group_IT_number 47
_symmetry_cell_setting 'orthorhombic'
loop_
_space_group_symop_operation_xyz
x,y,z
-x,-y,z
x,-y,-z
-x,y,-z
-x,-y,-z
x,y,-z
-x,y,z
x,-y,z
loop_
_atom_site_type_symbol
_atom_site_label
_atom_site_fract_x
_atom_site_fract_y
_atom_site_fract_z
Si Si1 0.675142 0.165417 0.790834
Si Si2 0.822526 0.331630 0.839200
Si Si3 0.322701 0.061871 0.707572
Si Si4 0.172408 0.115916 0.579682
Si Si5 0.323416 0.723684 0.713543
Si Si6 0.177292 0.438324 0.078514
Si Si7 0.674871 0.767304 0.920114
Si Si8 0.825583 0.755685 0.421082
O O1 0.500000 0.160806 0.781225
O O2 0.744889 0.106767 0.763781
O O3 0.732761 0.216408 0.742722
O O4 0.716762 0.178701 0.872049
O O5 0.749903 0.323646 0.762532
O O6 0.764983 0.391549 0.867388
O O7 0.768747 0.285636 0.895099
O O8 0.000000 0.328339 0.832762
O O9 0.500000 0.062703 0.708070
O O10 0.270673 0.077118 0.629456
O O11 0.263821 0.000000 0.727725
O O12 0.198454 0.095643 0.500000
O O13 0.223449 0.180048 0.587368
O O14 0.000000 0.109672 0.600821
O O15 0.500000 0.716741 0.716675
O O16 0.266381 0.717639 0.633654
O O17 0.231338 0.500000 0.103319
O O18 0.000000 0.436501 0.075870
O O19 0.239267 0.425936 0.000000
O O20 0.500000 0.752826 0.910928
O O21 0.716033 0.782340 0.000000
O O22 0.787903 0.735094 0.500000
O O23 0.000000 0.748864 0.405581
#
# Coordination Sequence:
#
# PCOD8193799 Si02
#       8
#     8   8   8   8   8   8   8   8
#     4   8  15  28  42  58  79 105 136 170 214 260
#     4  10  18  27  43  67  93 118 148 187 220 250
#     4  10  19  30  44  60  79 106 143 183 214 250
#     4   9  18  31  45  61  83 109 136 170 212 257
#     4  10  18  29  45  63  87 118 148 178 216 263
#     4   8  14  25  41  62  90 124 158 188 217 250
#     4   9  17  29  45  63  85 112 140 176 222 269
#     4   9  17  29  45  65  88 113 142 178 219 261
#
# _framework density 15.695228
#
# number of rings (size 3 to 8) (size 9 to 14) (size 15 to 20)
#    0.000    2.875    1.250    3.000    0.000    1.750 
#    0.000    2.500    0.000    1.875    0.000    7.000 
#    0.000    0.500    0.000   10.125    0.000    7.125 
#
# Total GULP energy -793229.143272 kJ/mol
# GULP energy per Si atom -12394.205364 kJ/mol
# Density = 1.565951 g / cm^3
# Si number density = 15.695228 Si / 1000 Ang^3
#
#
#
# Elastic Constant Matrix: (Units=GPa)
#
#
# Indices 1 2 3 4 5 6 
#
# 1 36.9572 25.7047 32.9049 0.0000 0.0000 0.0000
# 2 25.7047 104.8562 64.3290 0.0000 0.0000 0.0000
# 3 32.9049 64.3290 122.4875 0.0000 0.0000 0.0000
# 4 0.0000 0.0000 0.0000 26.1512 0.0000 0.0000
# 5 0.0000 0.0000 0.0000 0.0000 22.8632 0.0000
# 6 0.0000 0.0000 0.0000 0.0000 0.0000 13.9439
#
#
#
# Elastic Compliance Matrix: (Units=1/GPa)
#
#
# Indices 1 2 3 4 5 6 
#
# 1 0.036874 -0.004370 -0.007611 0.000000 0.000000 0.000000
# 2 -0.004370 0.014588 -0.006488 0.000000 0.000000 0.000000
# 3 -0.007611 -0.006488 0.013616 0.000000 0.000000 0.000000
# 4 0.000000 0.000000 0.000000 0.038239 0.000000 0.000000
# 5 0.000000 0.000000 0.000000 0.000000 0.043738 0.000000
# 6 0.000000 0.000000 0.000000 0.000000 0.000000 0.071716
#
#
# Mechanical properties :
#
#
# Convention : Reuss Voigt Hill
#
# Bulk Modulus (GPa) = 35.53505 56.68644 46.11074
# Shear Modulus (GPa) = 18.86159 22.01582 20.43871
#
# Velocity S-wave (km/s) = 3.47037 3.74934 3.61255
# Velocity P-wave (km/s) = 6.22477 7.41207 6.84422
#
# Compressibility (1/GPa) = 0.02814123
#
# Stress axis : x y z
#
# Youngs Moduli (GPa) = 27.11938 68.54788 73.44419
#
# Poissons Ratio (x) = 0.29958 0.55895
# Poissons Ratio (y) = 0.11852 0.47648
# Poissons Ratio (z) = 0.20639 0.44471
#
# Static dielectric constant tensor:
#      x y z
#    x 2.767750 0.000000 0.000000 
#    y 0.000000 3.076040 0.000000 
#    z 0.000000 0.000000 3.112150 
# 
# 
# High freq. dielectric constant tensor:
#      x y z
#    x 1.585540 0.000000 0.000000 
#    y 0.000000 1.573230 0.000000 
#    z 0.000000 0.000000 1.601410 
# 
# From -- ./inp_files/30151.got.cif
#   From: 2010.03.12/outbox.cif.g09.slc.cpg/sg47_16_cif.got.tgz:30151.got - 2010.04.14 03:12:58.
