data_PCOD8193070
_publ_section_title
;
Structure prediction by ZEFSAII (Michael W. Deem and Ramdas Pophale) SiO2 
 PCOD8193070
Probable space group: I M A 2
;
_chemical_formula_sum "Si O2"
_cell_formula_units_Z 64
_cell_length_a 23.685123
_cell_length_b 11.480713
_cell_length_c 11.299509
_cell_angle_alpha 90.000000
_cell_angle_beta 90.000000
_cell_angle_gamma 90.000000
_cell_volume 3072.586211
_symmetry_space_group_name_H-M "I M A 2"
_symmetry_group_IT_number 46
_symmetry_cell_setting 'orthorhombic'
loop_
_space_group_symop_operation_xyz
x,y,z
-x,-y,z
1/2-x,y,z
1/2+x,-y,z
1/2+x,1/2+y,1/2+z
1/2-x,1/2-y,1/2+z
-x,1/2+y,1/2+z
x,1/2-y,1/2+z
loop_
_atom_site_type_symbol
_atom_site_label
_atom_site_fract_x
_atom_site_fract_y
_atom_site_fract_z
Si Si1 0.515572 0.161727 0.577080
Si Si2 0.597099 0.187853 0.372265
Si Si3 0.685624 0.000947 0.345801
Si Si4 0.816617 0.589391 0.592016
Si Si5 0.314373 0.147208 0.566676
Si Si6 0.463492 0.899565 0.155612
Si Si7 0.394819 0.547077 0.432730
Si Si8 0.586273 0.981390 0.680285
O O1 0.538225 0.162526 0.441845
O O2 0.497942 0.290767 0.617302
O O3 0.459448 0.088161 0.601066
O O4 0.570233 0.115543 0.651598
O O5 0.585365 0.154137 0.236726
O O6 0.617605 0.320174 0.392259
O O7 0.648650 0.102640 0.407482
O O8 0.750000 0.046196 0.336305
O O9 0.662161 0.963399 0.217008
O O10 0.682146 0.887025 0.428715
O O11 0.750000 0.588770 0.584888
O O12 0.838470 0.722358 0.580902
O O13 0.838062 0.512137 0.482266
O O14 0.250000 0.137524 0.613429
O O15 0.351239 0.056731 0.643446
O O16 0.500000 0.000000 0.220720
O O17 0.439535 0.959713 0.037813
O O18 0.418445 0.470292 0.322616
#
# Coordination Sequence:
#
# PCOD8193070 Si02
#       8
#     8   8   8   8   8   8   8   8
#     4  10  24  42  61  93 129 170 212 267 325 384
#     4  11  22  44  67  92 131 171 220 272 325 389
#     4  10  21  41  67  95 130 170 220 275 329 388
#     4  10  23  43  66  98 134 171 219 278 336 394
#     4  10  23  42  68  98 131 174 222 273 333 399
#     4  11  25  41  63  93 129 172 220 267 325 394
#     4  11  25  42  68  93 133 172 216 277 329 396
#     4  11  23  41  65  94 131 170 215 272 324 391
#
# _framework density 20.829357999999999
#
# number of rings (size 3 to 8) (size 9 to 14) (size 15 to 20)
#    0.000    1.500    3.750    0.000    7.000    1.000 
#    0.000    0.000    0.000    0.000    0.000    0.000 
#    0.000    0.000    0.000    0.000    0.000    0.000 
#
# Total GULP energy -396606.096200 kJ/mol
# GULP energy per Si atom -12393.940506 kJ/mol
# Density = 2.078195 g / cm^3
# Si number density = 20.829358 Si / 1000 Ang^3
#
#
#
# Elastic Constant Matrix: (Units=GPa)
#
#
# Indices 1 2 3 4 5 6 
#
# 1 73.4083 49.8752 31.0140 0.0000 0.0000 0.0000
# 2 49.8752 120.2196 29.6733 0.0000 0.0000 0.0000
# 3 31.0140 29.6733 98.5473 0.0000 0.0000 0.0000
# 4 0.0000 0.0000 0.0000 29.5837 0.0000 0.0000
# 5 0.0000 0.0000 0.0000 0.0000 31.1266 0.0000
# 6 0.0000 0.0000 0.0000 0.0000 0.0000 34.4565
#
#
#
# Elastic Compliance Matrix: (Units=1/GPa)
#
#
# Indices 1 2 3 4 5 6 
#
# 1 0.020457 -0.007452 -0.004194 0.000000 0.000000 0.000000
# 2 -0.007452 0.011700 -0.001178 0.000000 0.000000 0.000000
# 3 -0.004194 -0.001178 0.011822 0.000000 0.000000 0.000000
# 4 0.000000 0.000000 0.000000 0.033802 0.000000 0.000000
# 5 0.000000 0.000000 0.000000 0.000000 0.032127 0.000000
# 6 0.000000 0.000000 0.000000 0.000000 0.000000 0.029022
#
#
# Mechanical properties :
#
#
# Convention : Reuss Voigt Hill
#
# Bulk Modulus (GPa) = 54.55038 57.03336 55.79187
# Shear Modulus (GPa) = 29.29286 31.14088 30.21687
#
# Velocity S-wave (km/s) = 3.75417 3.87078 3.81292
# Velocity P-wave (km/s) = 6.71102 6.88607 6.79911
#
# Compressibility (1/GPa) = 0.01833168
#
# Stress axis : x y z
#
# Youngs Moduli (GPa) = 48.88192 85.46734 84.58722
#
# Poissons Ratio (x) = 0.63689 0.35479
# Poissons Ratio (y) = 0.36426 0.09963
# Poissons Ratio (z) = 0.20503 0.10067
#
# Static dielectric constant tensor:
#      x y z
#    x 3.539980 0.000000 0.000000 
#    y 0.000000 4.023670 0.000000 
#    z 0.000000 0.000000 3.788460 
# 
# 
# High freq. dielectric constant tensor:
#      x y z
#    x 1.799800 0.000000 0.000000 
#    y 0.000000 1.823340 0.000000 
#    z 0.000000 0.000000 1.818600 
# 
# From -- ./inp_files/12849.got.cif
#   From: 2010.03.12/outbox.cif.g09.slc.cpg/sg46_7_cif.got.tgz:12849.got - 2010.04.14 02:56:35.
