data_PCOD8193124
_publ_section_title
;
Structure prediction by ZEFSAII (Michael W. Deem and Ramdas Pophale) SiO2 
 PCOD8193124
Probable space group: I M A 2
;
_chemical_formula_sum "Si O2"
_cell_formula_units_Z 64
_cell_length_a 27.754207
_cell_length_b 11.872174
_cell_length_c 8.713650
_cell_angle_alpha 90.000000
_cell_angle_beta 90.000000
_cell_angle_gamma 90.000000
_cell_volume 2871.171853
_symmetry_space_group_name_H-M "I M A 2"
_symmetry_group_IT_number 46
_symmetry_cell_setting 'orthorhombic'
loop_
_space_group_symop_operation_xyz
x,y,z
-x,-y,z
1/2-x,y,z
1/2+x,-y,z
1/2+x,1/2+y,1/2+z
1/2-x,1/2-y,1/2+z
-x,1/2+y,1/2+z
x,1/2-y,1/2+z
loop_
_atom_site_type_symbol
_atom_site_label
_atom_site_fract_x
_atom_site_fract_y
_atom_site_fract_z
Si Si1 0.193553 0.833803 0.589630
Si Si2 0.196828 0.909844 0.172398
Si Si3 0.118662 0.181258 0.959731
Si Si4 0.101022 0.876308 0.403851
Si Si5 0.045627 0.737782 0.644768
Si Si6 0.510828 0.625842 0.384010
Si Si7 0.196131 0.011812 0.847721
Si Si8 0.626146 0.594855 0.798437
O O1 0.250000 0.829488 0.535590
O O2 0.180658 0.720890 0.685559
O O3 0.157805 0.851180 0.443771
O O4 0.183358 0.940634 0.697683
O O5 0.250000 0.926889 0.235851
O O6 0.168120 0.003485 0.268290
O O7 0.192562 0.929348 0.991174
O O8 0.158454 0.111689 0.867840
O O9 0.134053 0.310891 0.928996
O O10 0.067121 0.148790 0.894341
O O11 0.114963 0.158858 0.140948
O O12 0.067612 0.836461 0.541523
O O13 0.089138 0.815001 0.242712
O O14 0.087151 0.008428 0.372209
O O15 0.019043 0.644735 0.540873
O O16 0.005476 0.788429 0.754126
O O17 0.500000 0.500000 0.329914
O O18 0.250000 0.063759 0.834790
#
# Coordination Sequence:
#
# PCOD8193124 Si02
#       8
#     8   8   8   8   8   8   8   8
#     4  10  22  38  67 103 141 182 227 282 351 428
#     4   9  20  39  63  97 138 177 224 277 336 407
#     4  11  25  45  71  95 138 180 242 286 354 416
#     4  11  24  43  67  99 140 177 230 287 360 420
#     4  10  25  44  67 100 133 178 227 293 359 430
#     4  11  24  44  70  97 132 179 234 293 357 422
#     4   9  21  41  65  97 136 180 224 279 341 408
#     4  11  25  42  67  99 132 185 224 290 344 419
#
# _framework density 22.290551000000001
#
# number of rings (size 3 to 8) (size 9 to 14) (size 15 to 20)
#    0.000    1.750    0.000    2.250    7.000    4.000 
#    0.000    2.500    0.000    0.000    0.000    0.000 
#    0.000    0.000    0.000    0.000    0.000    0.000 
#
# Total GULP energy -396553.773825 kJ/mol
# GULP energy per Si atom -12392.305432 kJ/mol
# Density = 2.223982 g / cm^3
# Si number density = 22.290551 Si / 1000 Ang^3
#
#
#
# Elastic Constant Matrix: (Units=GPa)
#
#
# Indices 1 2 3 4 5 6 
#
# 1 118.2187 44.9888 38.3347 0.0000 0.0000 0.0000
# 2 44.9888 159.4019 53.7174 0.0000 0.0000 0.0000
# 3 38.3347 53.7174 96.7339 0.0000 0.0000 0.0000
# 4 0.0000 0.0000 0.0000 43.2372 0.0000 0.0000
# 5 0.0000 0.0000 0.0000 0.0000 6.3343 0.0000
# 6 0.0000 0.0000 0.0000 0.0000 0.0000 29.7722
#
#
#
# Elastic Compliance Matrix: (Units=1/GPa)
#
#
# Indices 1 2 3 4 5 6 
#
# 1 0.010133 -0.001853 -0.002986 0.000000 0.000000 0.000000
# 2 -0.001853 0.008057 -0.003739 0.000000 0.000000 0.000000
# 3 -0.002986 -0.003739 0.013598 0.000000 0.000000 0.000000
# 4 0.000000 0.000000 0.000000 0.023128 0.000000 0.000000
# 5 0.000000 0.000000 0.000000 0.000000 0.157869 0.000000
# 6 0.000000 0.000000 0.000000 0.000000 0.000000 0.033588
#
#
# Mechanical properties :
#
#
# Convention : Reuss Voigt Hill
#
# Bulk Modulus (GPa) = 68.35894 72.04845 70.20370
# Shear Modulus (GPa) = 18.62840 31.68967 25.15903
#
# Velocity S-wave (km/s) = 2.89400 3.77459 3.36324
# Velocity P-wave (km/s) = 6.47308 7.16863 6.82972
#
# Compressibility (1/GPa) = 0.01462867
#
# Stress axis : x y z
#
# Youngs Moduli (GPa) = 98.69164 124.11968 73.54224
#
# Poissons Ratio (x) = 0.23005 0.21961
# Poissons Ratio (y) = 0.18292 0.27501
# Poissons Ratio (z) = 0.29471 0.46415
#
# Static dielectric constant tensor:
#      x y z
#    x 4.126400 0.000000 0.000000 
#    y 0.000000 4.153840 0.000000 
#    z 0.000000 0.000000 4.235430 
# 
# 
# High freq. dielectric constant tensor:
#      x y z
#    x 1.877480 0.000000 0.000000 
#    y 0.000000 1.880040 0.000000 
#    z 0.000000 0.000000 1.894330 
# 
# From -- ./inp_files/8486.got.cif
#   From: 2010.03.12/outbox.cif.g09.slc.cpg/sg46_5_cif.got.tgz:8486.got - 2010.04.14 02:56:35.
