data_PCOD8193369
_publ_section_title
;
Structure prediction by ZEFSAII (Michael W. Deem and Ramdas Pophale) SiO2 
 PCOD8193369
Probable space group: I M A 2
;
_chemical_formula_sum "Si O2"
_cell_formula_units_Z 64
_cell_length_a 13.681295
_cell_length_b 24.499834
_cell_length_c 8.952001
_cell_angle_alpha 90.000000
_cell_angle_beta 90.000000
_cell_angle_gamma 90.000000
_cell_volume 3000.616349
_symmetry_space_group_name_H-M "I M A 2"
_symmetry_group_IT_number 46
_symmetry_cell_setting 'orthorhombic'
loop_
_space_group_symop_operation_xyz
x,y,z
-x,-y,z
1/2-x,y,z
1/2+x,-y,z
1/2+x,1/2+y,1/2+z
1/2-x,1/2-y,1/2+z
-x,1/2+y,1/2+z
x,1/2-y,1/2+z
loop_
_atom_site_type_symbol
_atom_site_label
_atom_site_fract_x
_atom_site_fract_y
_atom_site_fract_z
Si Si1 0.856069 0.396108 0.470150
Si Si2 0.636067 0.713916 0.405451
Si Si3 0.444330 0.314067 0.081717
Si Si4 0.135356 0.510896 0.082619
Si Si5 0.364024 0.409314 0.900489
Si Si6 0.860336 0.981098 0.903080
Si Si7 0.443553 0.116307 0.083590
Si Si8 0.139009 0.630094 0.123349
O O1 0.750000 0.376350 0.531388
O O2 0.861729 0.461293 0.487628
O O3 0.866202 0.378620 0.299369
O O4 0.942070 0.367811 0.565375
O O5 0.750000 0.727893 0.386340
O O6 0.589152 0.700003 0.247505
O O7 0.579642 0.766193 0.467351
O O8 0.624513 0.664165 0.520443
O O9 0.561611 0.323765 0.075035
O O10 0.385141 0.368127 0.035655
O O11 0.250000 0.512091 0.110455
O O12 0.092305 0.487611 0.238237
O O13 0.103770 0.573004 0.045753
O O14 0.103548 0.470478 0.949681
O O15 0.250000 0.408964 0.860209
O O16 0.424619 0.391342 0.757366
O O17 0.750000 0.957647 0.897731
O O18 0.927181 0.939198 0.992814
O O19 0.250000 0.646442 0.074703
#
# Coordination Sequence:
#
# PCOD8193369 Si02
#       8
#     8   8   8   8   8   8   8   8
#     4   9  19  38  63  93 128 169 213 263 309 372
#     4  12  25  42  67  95 126 165 214 270 325 384
#     4  12  25  45  67  94 125 168 218 264 331 383
#     4   8  17  35  62  93 128 171 212 258 310 369
#     4  11  23  39  60  93 138 174 214 267 320 382
#     4   9  17  33  60  91 127 167 216 259 307 373
#     4  12  22  38  61  96 130 177 217 256 321 381
#     4   9  19  42  70  97 128 167 216 265 312 379
#
# _framework density 21.328952000000001
#
# number of rings (size 3 to 8) (size 9 to 14) (size 15 to 20)
#    0.000    1.750    1.250    5.625    0.000    1.500 
#    4.500    1.875    0.000    0.000    0.000    0.000 
#    0.000    0.000    0.000    0.000    0.000    0.000 
#
# Total GULP energy -396797.716778 kJ/mol
# GULP energy per Si atom -12399.928649 kJ/mol
# Density = 2.128041 g / cm^3
# Si number density = 21.328952 Si / 1000 Ang^3
#
#
#
# Elastic Constant Matrix: (Units=GPa)
#
#
# Indices 1 2 3 4 5 6 
#
# 1 143.5015 49.4756 46.1843 -0.0020 -0.0008 -0.0001
# 2 49.4756 92.0317 45.4051 -0.0007 -0.0003 0.0001
# 3 46.1843 45.4051 97.5657 0.0115 0.0004 0.0019
# 4 -0.0020 -0.0007 0.0115 17.0969 0.0031 0.0005
# 5 -0.0008 -0.0003 0.0004 0.0031 23.0991 -0.0001
# 6 -0.0001 0.0001 0.0019 0.0005 -0.0001 31.6643
#
#
#
# Elastic Compliance Matrix: (Units=1/GPa)
#
#
# Indices 1 2 3 4 5 6 
#
# 1 0.009042 -0.003569 -0.002619 0.000003 0.000000 0.000000
# 2 -0.003569 0.015513 -0.005530 0.000004 0.000000 0.000000
# 3 -0.002619 -0.005530 0.014063 -0.000010 0.000000 -0.000001
# 4 0.000003 0.000004 -0.000010 0.058490 -0.000008 -0.000001
# 5 0.000000 0.000000 0.000000 -0.000008 0.043292 0.000000
# 6 0.000000 0.000000 -0.000001 -0.000001 0.000000 0.031581
#
#
# Mechanical properties :
#
#
# Convention : Reuss Voigt Hill
#
# Bulk Modulus (GPa) = 65.86941 68.35877 67.11409
# Shear Modulus (GPa) = 24.94050 27.17431 26.05740
#
# Velocity S-wave (km/s) = 3.42325 3.57327 3.49906
# Velocity P-wave (km/s) = 6.82455 7.01025 6.91803
#
# Compressibility (1/GPa) = 0.01518155
#
# Stress axis : x y z
#
# Youngs Moduli (GPa) = 110.59568 64.46390 71.10864
#
# Poissons Ratio (x) = 0.23004 0.18626
# Poissons Ratio (y) = 0.39467 0.39323
# Poissons Ratio (z) = 0.28970 0.35648
#
# Static dielectric constant tensor:
#      x y z
#    x 4.119550 0.000000 0.000000 
#    y 0.000000 3.937740 -0.000010 
#    z 0.000000 -0.000010 3.582500 
# 
# 
# High freq. dielectric constant tensor:
#      x y z
#    x 1.854090 0.000000 0.000000 
#    y 0.000000 1.820670 0.000000 
#    z 0.000000 0.000000 1.817150 
# 
# From -- ./inp_files/6083.got.cif
#   From: 2010.03.12/outbox.cif.g09.slc.cpg/sg46_4_cif.got.tgz:6083.got - 2010.04.14 02:56:35.
