data_PCOD8193610
_publ_section_title
;
Structure prediction by ZEFSAII (Michael W. Deem and Ramdas Pophale) SiO2 
 PCOD8193610
Probable space group: P M M M
;
_chemical_formula_sum "Si O2"
_cell_formula_units_Z 64
_cell_length_a 9.391733
_cell_length_b 19.774992
_cell_length_c 20.933696
_cell_angle_alpha 90.000000
_cell_angle_beta 90.000000
_cell_angle_gamma 90.000000
_cell_volume 3887.836269
_symmetry_space_group_name_H-M "P M M M"
_symmetry_group_IT_number 47
_symmetry_cell_setting 'orthorhombic'
loop_
_space_group_symop_operation_xyz
x,y,z
-x,-y,z
x,-y,-z
-x,y,-z
-x,-y,-z
x,y,-z
-x,y,z
x,-y,z
loop_
_atom_site_type_symbol
_atom_site_label
_atom_site_fract_x
_atom_site_fract_y
_atom_site_fract_z
Si Si1 0.665334 0.074940 0.363775
Si Si2 0.669722 0.285198 0.693433
Si Si3 0.331544 0.427100 0.738151
Si Si4 0.834117 0.783681 0.190845
Si Si5 0.331695 0.792106 0.430236
Si Si6 0.163458 0.074457 0.763667
Si Si7 0.835836 0.301929 0.929213
Si Si8 0.665320 0.576602 0.882261
O O1 0.500000 0.082824 0.347121
O O2 0.711709 0.130186 0.416058
O O3 0.746227 0.089911 0.298785
O O4 0.699988 0.000000 0.390702
O O5 0.500000 0.276155 0.700885
O O6 0.716053 0.364318 0.694141
O O7 0.742921 0.246544 0.751532
O O8 0.726792 0.256396 0.625875
O O9 0.500000 0.431451 0.741177
O O10 0.272874 0.500000 0.712194
O O11 0.276463 0.415033 0.810040
O O12 0.807245 0.864925 0.186152
O O13 0.782264 0.751785 0.123790
O O14 0.000000 0.768129 0.203829
O O15 0.267564 0.772445 0.500000
O O16 0.500000 0.784602 0.432858
O O17 0.000000 0.075150 0.742080
O O18 0.202852 0.000000 0.792678
O O19 0.751166 0.372097 0.926307
O O20 0.000000 0.319148 0.917468
O O21 0.811939 0.270659 0.000000
O O22 0.500000 0.595716 0.886563
O O23 0.690781 0.500000 0.906320
#
# Coordination Sequence:
#
# PCOD8193610 Si02
#       8
#     8   8   8   8   8   8   8   8
#     4   9  16  26  42  64  89 118 151 182 213 258
#     4  10  17  28  49  69  87 117 153 188 224 265
#     4   8  14  25  43  67  90 112 143 184 225 261
#     4  10  19  31  48  68  90 116 148 188 225 264
#     4   9  17  27  40  64  95 122 149 183 223 264
#     4   9  17  29  46  67  90 115 143 181 229 270
#     4  10  21  34  46  64  93 126 153 182 227 275
#     4   9  17  30  48  69  93 121 154 189 222 262
#
# _framework density 16.461597999999999
#
# number of rings (size 3 to 8) (size 9 to 14) (size 15 to 20)
#    0.000    2.750    2.500    0.750    0.000    1.000 
#    0.000    2.500    0.000    2.625    0.000    7.000 
#    0.000    0.000    0.000    6.500    0.000    7.000 
#
# Total GULP energy -793038.363393 kJ/mol
# GULP energy per Si atom -12391.224428 kJ/mol
# Density = 1.642413 g / cm^3
# Si number density = 16.461598 Si / 1000 Ang^3
#
#
#
# Elastic Constant Matrix: (Units=GPa)
#
#
# Indices 1 2 3 4 5 6 
#
# 1 26.4460 26.1232 25.5523 0.0000 0.0000 0.0000
# 2 26.1232 128.0898 73.9845 0.0000 0.0000 0.0000
# 3 25.5523 73.9845 115.8488 0.0000 0.0000 0.0000
# 4 0.0000 0.0000 0.0000 22.0502 0.0000 0.0000
# 5 0.0000 0.0000 0.0000 0.0000 14.0278 0.0000
# 6 0.0000 0.0000 0.0000 0.0000 0.0000 18.0821
#
#
#
# Elastic Compliance Matrix: (Units=1/GPa)
#
#
# Indices 1 2 3 4 5 6 
#
# 1 0.050966 -0.006181 -0.007294 0.000000 0.000000 0.000000
# 2 -0.006181 0.013120 -0.007015 0.000000 0.000000 0.000000
# 3 -0.007294 -0.007015 0.014721 0.000000 0.000000 0.000000
# 4 0.000000 0.000000 0.000000 0.045351 0.000000 0.000000
# 5 0.000000 0.000000 0.000000 0.000000 0.071287 0.000000
# 6 0.000000 0.000000 0.000000 0.000000 0.000000 0.055303
#
#
# Mechanical properties :
#
#
# Convention : Reuss Voigt Hill
#
# Bulk Modulus (GPa) = 26.43695 57.96718 42.20206
# Shear Modulus (GPa) = 16.42915 20.48033 18.45474
#
# Velocity S-wave (km/s) = 3.16259 3.53105 3.35188
# Velocity P-wave (km/s) = 5.42499 7.20516 6.37750
#
# Compressibility (1/GPa) = 0.03782585
#
# Stress axis : x y z
#
# Youngs Moduli (GPa) = 19.62090 76.22155 67.93101
#
# Poissons Ratio (x) = 0.47115 0.49547
# Poissons Ratio (y) = 0.12128 0.47655
# Poissons Ratio (z) = 0.14311 0.53471
#
# Static dielectric constant tensor:
#      x y z
#    x 2.873490 0.000000 0.000000 
#    y 0.000000 3.597770 0.000000 
#    z 0.000000 0.000000 3.108290 
# 
# 
# High freq. dielectric constant tensor:
#      x y z
#    x 1.606250 0.000000 0.000000 
#    y 0.000000 1.644810 0.000000 
#    z 0.000000 0.000000 1.607390 
# 
# From -- ./inp_files/30116.got.cif
#   From: 2010.03.12/outbox.cif.g09.slc.cpg/sg47_16_cif.got.tgz:30116.got - 2010.04.14 03:12:58.
