data_PCOD8193430
_publ_section_title
;
Structure prediction by ZEFSAII (Michael W. Deem and Ramdas Pophale) SiO2 
 PCOD8193430
Probable space group: I M A 2
;
_chemical_formula_sum "Si O2"
_cell_formula_units_Z 48
_cell_length_a 9.150345
_cell_length_b 31.192084
_cell_length_c 9.447352
_cell_angle_alpha 90.000000
_cell_angle_beta 90.000000
_cell_angle_gamma 90.000000
_cell_volume 2696.447430
_symmetry_space_group_name_H-M "I M A 2"
_symmetry_group_IT_number 46
_symmetry_cell_setting 'orthorhombic'
loop_
_space_group_symop_operation_xyz
x,y,z
-x,-y,z
1/2-x,y,z
1/2+x,-y,z
1/2+x,1/2+y,1/2+z
1/2-x,1/2-y,1/2+z
-x,1/2+y,1/2+z
x,1/2-y,1/2+z
loop_
_atom_site_type_symbol
_atom_site_label
_atom_site_fract_x
_atom_site_fract_y
_atom_site_fract_z
Si Si1 0.415313 0.458311 0.903240
Si Si2 0.084687 0.041689 0.740893
Si Si3 0.914965 0.375457 0.240615
Si Si4 0.919813 0.708618 0.236240
Si Si5 0.919813 0.791382 0.407904
Si Si6 0.914965 0.124543 0.403526
O O1 0.500000 0.500000 0.845825
O O2 0.250000 0.458997 0.845137
O O3 0.496423 0.416178 0.843729
O O4 0.415182 0.458047 0.072067
O O5 0.250000 0.041003 0.798996
O O6 0.003578 0.083821 0.800409
O O7 0.000000 0.000000 0.798308
O O8 0.750000 0.377278 0.298935
O O9 0.990981 0.332031 0.294647
O O10 0.916785 0.376610 0.072070
O O11 0.750000 0.699009 0.262818
O O12 0.973197 0.750000 0.322073
O O13 0.952542 0.717189 0.072072
O O14 0.750000 0.800990 0.381326
O O15 0.009019 0.832030 0.349496
O O16 0.750000 0.122723 0.345206
#
# Coordination Sequence:
#
# PCOD8193430 Si02
#       6
#     8   8   8   8   8   8
#     4   9  15  22  33  50  74 104 136 168 203 245
#     4   9  15  22  33  50  74 104 136 168 203 245
#     4   9  16  25  37  54  77 105 136 169 206 247
#     4   9  17  29  44  61  82 109 140 173 209 248
#     4   9  17  29  44  61  82 109 140 173 209 248
#     4   9  16  25  37  54  77 105 136 169 206 247
#
# _framework density 17.801200999999999
#
# number of rings (size 3 to 8) (size 9 to 14) (size 15 to 20)
#    0.000    3.000    0.000    2.000    0.000    8.667 
#    0.000    0.000    0.000    0.000    0.000    0.000 
#    0.000    1.333    0.000    3.667    0.000    6.667 
#
# Total GULP energy -297579.359821 kJ/mol
# GULP energy per Si atom -12399.139993 kJ/mol
# Density = 1.776068 g / cm^3
# Si number density = 17.801201 Si / 1000 Ang^3
#
#
#
# Elastic Constant Matrix: (Units=GPa)
#
#
# Indices 1 2 3 4 5 6 
#
# 1 155.5626 111.0282 16.6498 -0.0001 -0.0001 -0.0001
# 2 111.0282 207.4070 25.9743 -0.0010 0.0001 0.0001
# 3 16.6498 25.9743 12.8081 -0.0025 0.0004 0.0003
# 4 -0.0001 -0.0010 -0.0025 18.0637 0.0002 0.0002
# 5 -0.0001 0.0001 0.0004 0.0002 7.4622 -0.0002
# 6 -0.0001 0.0001 0.0003 0.0002 -0.0002 42.3344
#
#
#
# Elastic Compliance Matrix: (Units=1/GPa)
#
#
# Indices 1 2 3 4 5 6 
#
# 1 0.010489 -0.005237 -0.003014 -0.000001 0.000000 0.000000
# 2 -0.005237 0.009078 -0.011601 -0.000001 0.000000 0.000000
# 3 -0.003014 -0.011601 0.105521 0.000014 -0.000006 -0.000001
# 4 -0.000001 -0.000001 0.000014 0.055360 -0.000002 0.000000
# 5 0.000000 0.000000 -0.000006 -0.000002 0.134009 0.000001
# 6 0.000000 0.000000 -0.000001 0.000000 0.000001 0.023621
#
#
# Mechanical properties :
#
#
# Convention : Reuss Voigt Hill
#
# Bulk Modulus (GPa) = 11.71199 75.89803 43.80501
# Shear Modulus (GPa) = 12.30787 28.38041 20.34414
#
# Velocity S-wave (km/s) = 2.63231 3.99720 3.38428
# Velocity P-wave (km/s) = 3.97899 8.00203 6.31921
#
# Compressibility (1/GPa) = 0.08538262
#
# Stress axis : x y z
#
# Youngs Moduli (GPa) = 95.33876 110.15610 9.47680
#
# Poissons Ratio (x) = 0.57694 0.02856
# Poissons Ratio (y) = 0.49933 0.10994
# Poissons Ratio (z) = 0.28732 1.27797
#
# Static dielectric constant tensor:
#      x y z
#    x 3.475640 0.000000 0.000000 
#    y 0.000000 3.542610 0.000000 
#    z 0.000000 0.000000 2.544780 
# 
# 
# High freq. dielectric constant tensor:
#      x y z
#    x 1.701010 0.000000 0.000000 
#    y 0.000000 1.708380 0.000000 
#    z 0.000000 0.000000 1.598810 
# 
# From -- ./inp_files/3906.got.cif
#   From: 2010.03.12/outbox.cif.g09.slc.cpg/sg46_2_cif.got.tgz:3906.got - 2010.04.14 02:56:35.
