data_PCOD8193877
_publ_section_title
;
Structure prediction by ZEFSAII (Michael W. Deem and Ramdas Pophale) SiO2 
 PCOD8193877
Probable space group: P M M M
;
_chemical_formula_sum "Si O2"
_cell_formula_units_Z 64
_cell_length_a 31.299648
_cell_length_b 14.265440
_cell_length_c 9.577934
_cell_angle_alpha 90.000000
_cell_angle_beta 90.000000
_cell_angle_gamma 90.000000
_cell_volume 4276.578665
_symmetry_space_group_name_H-M "P M M M"
_symmetry_group_IT_number 47
_symmetry_cell_setting 'orthorhombic'
loop_
_space_group_symop_operation_xyz
x,y,z
-x,-y,z
x,-y,-z
-x,y,-z
-x,-y,-z
x,y,-z
-x,y,z
x,-y,z
loop_
_atom_site_type_symbol
_atom_site_label
_atom_site_fract_x
_atom_site_fract_y
_atom_site_fract_z
Si Si1 0.829687 0.103967 0.840197
Si Si2 0.625135 0.389999 0.662079
Si Si3 0.547120 0.611371 0.843246
Si Si4 0.709610 0.705682 0.663209
Si Si5 0.046877 0.605255 0.834357
Si Si6 0.869639 0.705844 0.836706
Si Si7 0.795762 0.389619 0.338179
Si Si8 0.746705 0.896133 0.338520
O O1 0.865569 0.182363 0.810152
O O2 0.789022 0.126972 0.746677
O O3 0.848182 0.000000 0.805979
O O4 0.814320 0.109271 0.000000
O O5 0.618659 0.366854 0.500000
O O6 0.631653 0.500000 0.687840
O O7 0.583421 0.349449 0.740236
O O8 0.666424 0.337575 0.727892
O O9 0.500000 0.647173 0.795870
O O10 0.547508 0.500000 0.838678
O O11 0.556858 0.646482 0.000000
O O12 0.707827 0.684328 0.500000
O O13 0.752020 0.655327 0.721976
O O14 0.711323 0.817276 0.696700
O O15 0.056991 0.500000 0.780933
O O16 0.083657 0.675416 0.780340
O O17 0.000000 0.637238 0.778222
O O18 0.045961 0.605774 0.000000
O O19 0.834570 0.648807 0.752109
O O20 0.864036 0.681224 0.000000
O O21 0.802931 0.361923 0.500000
O O22 0.792548 0.500000 0.318644
O O23 0.759840 0.889520 0.500000
O O24 0.728659 0.000000 0.301838
#
# Coordination Sequence:
#
# PCOD8193877 Si02
#       8
#     8   8   8   8   8   8   8   8
#     4   9  17  28  41  59  83 106 128 162 210 250
#     4   9  16  25  38  55  76 106 139 164 190 231
#     4   8  14  25  39  54  75 103 133 167 205 237
#     4   9  16  27  40  56  81 109 135 164 197 237
#     4   8  14  25  41  60  80 102 130 165 203 241
#     4  10  18  28  44  63  81 103 135 172 203 236
#     4  10  19  29  41  58  83 114 140 163 197 240
#     4   9  16  27  44  61  76 101 139 175 201 233
#
# _framework density 14.965235
#
# number of rings (size 3 to 8) (size 9 to 14) (size 15 to 20)
#    0.000    3.000    1.250    1.500    0.000    2.500 
#    0.000    2.500    0.000    2.250    0.000    4.375 
#    0.000    0.500    0.000   10.500    0.000    5.875 
#
# Total GULP energy -793138.461241 kJ/mol
# GULP energy per Si atom -12392.788457 kJ/mol
# Density = 1.493117 g / cm^3
# Si number density = 14.965235 Si / 1000 Ang^3
#
#
#
# Elastic Constant Matrix: (Units=GPa)
#
#
# Indices 1 2 3 4 5 6 
#
# 1 140.5832 61.1055 41.5032 0.0000 0.0000 0.0000
# 2 61.1055 83.0031 27.2894 0.0000 0.0000 0.0000
# 3 41.5032 27.2894 35.7973 0.0000 0.0000 0.0000
# 4 0.0000 0.0000 0.0000 14.0747 0.0000 0.0000
# 5 0.0000 0.0000 0.0000 0.0000 14.7795 0.0000
# 6 0.0000 0.0000 0.0000 0.0000 0.0000 11.7799
#
#
#
# Elastic Compliance Matrix: (Units=1/GPa)
#
#
# Indices 1 2 3 4 5 6 
#
# 1 0.012738 -0.006034 -0.010168 0.000000 0.000000 0.000000
# 2 -0.006034 0.018936 -0.007439 0.000000 0.000000 0.000000
# 3 -0.010168 -0.007439 0.045395 0.000000 0.000000 0.000000
# 4 0.000000 0.000000 0.000000 0.071049 0.000000 0.000000
# 5 0.000000 0.000000 0.000000 0.000000 0.067661 0.000000
# 6 0.000000 0.000000 0.000000 0.000000 0.000000 0.084890
#
#
# Mechanical properties :
#
#
# Convention : Reuss Voigt Hill
#
# Bulk Modulus (GPa) = 33.57331 57.68663 45.62997
# Shear Modulus (GPa) = 13.97107 16.75919 15.36513
#
# Velocity S-wave (km/s) = 3.05875 3.35008 3.20773
# Velocity P-wave (km/s) = 5.91249 7.32085 6.65403
#
# Compressibility (1/GPa) = 0.02978556
#
# Stress axis : x y z
#
# Youngs Moduli (GPa) = 78.50526 52.80928 22.02880
#
# Poissons Ratio (x) = 0.31868 0.22399
# Poissons Ratio (y) = 0.47374 0.16388
# Poissons Ratio (z) = 0.79825 0.39286
#
# Static dielectric constant tensor:
#      x y z
#    x 3.111490 0.000000 0.000000 
#    y 0.000000 2.966180 0.000000 
#    z 0.000000 0.000000 2.767040 
# 
# 
# High freq. dielectric constant tensor:
#      x y z
#    x 1.562190 0.000000 0.000000 
#    y 0.000000 1.559310 0.000000 
#    z 0.000000 0.000000 1.551830 
# 
# From -- ./inp_files/14274.got.cif
#   From: 2010.03.12/outbox.cif.g09.slc.cpg/sg47_8_cif.got.tgz:14274.got - 2010.04.14 03:12:58.
