data_PCOD8193413
_publ_section_title
;
Structure prediction by ZEFSAII (Michael W. Deem and Ramdas Pophale) SiO2 
 PCOD8193413
Probable space group: I M A 2
;
_chemical_formula_sum "Si O2"
_cell_formula_units_Z 40
_cell_length_a 10.085212
_cell_length_b 9.965512
_cell_length_c 19.325165
_cell_angle_alpha 90.000000
_cell_angle_beta 90.000000
_cell_angle_gamma 90.000000
_cell_volume 1942.262204
_symmetry_space_group_name_H-M "I M A 2"
_symmetry_group_IT_number 46
_symmetry_cell_setting 'orthorhombic'
loop_
_space_group_symop_operation_xyz
x,y,z
-x,-y,z
1/2-x,y,z
1/2+x,-y,z
1/2+x,1/2+y,1/2+z
1/2-x,1/2-y,1/2+z
-x,1/2+y,1/2+z
x,1/2-y,1/2+z
loop_
_atom_site_type_symbol
_atom_site_label
_atom_site_fract_x
_atom_site_fract_y
_atom_site_fract_z
Si Si1 0.750000 0.766610 0.125000
Si Si2 0.984192 0.156759 0.056558
Si Si3 0.250000 0.717516 0.659078
Si Si4 0.750000 0.527038 0.748308
Si Si5 0.000000 0.500000 0.836912
Si Si6 0.596881 0.236628 0.907166
Si Si7 0.250000 0.489844 0.219775
Si Si8 0.500000 0.000000 0.816377
O O1 0.623012 0.775836 0.075780
O O2 0.750000 0.625279 0.162832
O O3 0.750000 0.889525 0.178027
O O4 0.881891 0.180832 0.118028
O O5 0.930418 0.227387 0.988239
O O6 0.000000 0.000000 0.042259
O O7 0.250000 0.631361 0.729883
O O8 0.250000 0.871964 0.678525
O O9 0.617386 0.562413 0.790416
O O10 0.059090 0.614291 0.885275
O O11 0.750000 0.208248 0.891299
O O12 0.511734 0.129802 0.864582
O O13 0.376265 0.474961 0.267716
#
# Coordination Sequence:
#
# PCOD8193413 Si02
#       8
#     4   8   4   4   4   8   4   4
#     4  12  26  42  69 107 135 177 232 287 339 409
#     4  12  24  46  73  97 135 186 237 282 340 414
#     4  12  24  44  73  97 143 187 220 287 349 407
#     4  12  22  44  70 104 144 178 232 280 340 428
#     4  12  26  44  72 106 140 186 230 286 358 410
#     4  12  26  48  73 102 142 185 235 292 347 412
#     4  12  26  44  68 108 146 176 230 284 356 412
#     4  12  24  46  76 100 142 190 228 282 346 420
#
# _framework density 20.594541
#
# number of rings (size 3 to 8) (size 9 to 14) (size 15 to 20)
#    0.000    0.000    6.000    4.800    0.000    3.200 
#    0.000    0.000    0.000    0.000    0.000    0.000 
#    0.000    0.000    0.000    0.000    0.000    0.000 
#
# Total GULP energy -248194.306550 kJ/mol
# GULP energy per Si atom -12409.715328 kJ/mol
# Density = 2.054767 g / cm^3
# Si number density = 20.594541 Si / 1000 Ang^3
#
#
#
# Elastic Constant Matrix: (Units=GPa)
#
#
# Indices 1 2 3 4 5 6 
#
# 1 144.0519 14.7745 35.3577 0.0000 0.0000 0.0000
# 2 14.7745 105.7214 32.6965 0.0000 0.0000 0.0000
# 3 35.3577 32.6965 86.7361 0.0000 0.0000 0.0000
# 4 0.0000 0.0000 0.0000 -30.8258 0.0000 0.0000
# 5 0.0000 0.0000 0.0000 0.0000 62.2310 0.0000
# 6 0.0000 0.0000 0.0000 0.0000 0.0000 41.4673
#
#
#
# Elastic Compliance Matrix: (Units=1/GPa)
#
#
# Indices 1 2 3 4 5 6 
#
# 1 0.007715 -0.000119 -0.003100 0.000000 0.000000 0.000000
# 2 -0.000119 0.010709 -0.003988 0.000000 0.000000 0.000000
# 3 -0.003100 -0.003988 0.014296 0.000000 0.000000 0.000000
# 4 0.000000 0.000000 0.000000 -0.032440 0.000000 0.000000
# 5 0.000000 0.000000 0.000000 0.000000 0.016069 0.000000
# 6 0.000000 0.000000 0.000000 0.000000 0.000000 0.024115
#
#
# Mechanical properties :
#
#
# Convention : Reuss Voigt Hill
#
# Bulk Modulus (GPa) = 54.62967 55.79632 55.21299
# Shear Modulus (GPa) = 81.99198 31.48656 56.73927
#
# Velocity S-wave (km/s) = 6.31656 3.91433 5.25456
# Velocity P-wave (km/s) = 8.93210 6.89789 7.98008
#
# Compressibility (1/GPa) = 0.01830507
#
# Stress axis : x y z
#
# Youngs Moduli (GPa) = 129.61609 93.37977 69.94790
#
# Poissons Ratio (x) = 0.01115 0.21684
# Poissons Ratio (y) = 0.01548 0.27897
# Poissons Ratio (z) = 0.40181 0.37242
#
# Static dielectric constant tensor:
#      x y z
#    x 3.951290 0.000000 0.000000 
#    y 0.000000 3.836520 0.000000 
#    z 0.000000 0.000000 3.802250 
# 
# 
# High freq. dielectric constant tensor:
#      x y z
#    x 1.827080 0.000000 0.000000 
#    y 0.000000 1.812770 0.000000 
#    z 0.000000 0.000000 1.817810 
# 
# From -- ./inp_files/18013.got.cif
#   From: 2010.03.12/outbox.cif.g09.slc.cpg/sg46_10_cif.got.tgz:18013.got - 2010.04.14 02:56:35.
