data_PCOD8193239
_publ_section_title
;
Structure prediction by ZEFSAII (Michael W. Deem and Ramdas Pophale) SiO2 
 PCOD8193239
Probable space group: I M A 2
;
_chemical_formula_sum "Si O2"
_cell_formula_units_Z 44
_cell_length_a 13.535061
_cell_length_b 9.104799
_cell_length_c 16.444884
_cell_angle_alpha 90.000000
_cell_angle_beta 90.000000
_cell_angle_gamma 90.000000
_cell_volume 2026.568997
_symmetry_space_group_name_H-M "I M A 2"
_symmetry_group_IT_number 46
_symmetry_cell_setting 'orthorhombic'
loop_
_space_group_symop_operation_xyz
x,y,z
-x,-y,z
1/2-x,y,z
1/2+x,-y,z
1/2+x,1/2+y,1/2+z
1/2-x,1/2-y,1/2+z
-x,1/2+y,1/2+z
x,1/2-y,1/2+z
loop_
_atom_site_type_symbol
_atom_site_label
_atom_site_fract_x
_atom_site_fract_y
_atom_site_fract_z
Si Si1 0.250000 0.986961 0.619310
Si Si2 0.750000 0.269202 0.825943
Si Si3 0.750000 0.720479 0.975034
Si Si4 0.250000 0.100679 0.298166
Si Si5 0.082458 0.894034 0.735299
Si Si6 0.558493 0.863025 0.202332
Si Si7 0.750000 0.212247 0.007483
Si Si8 0.103591 0.042920 0.022209
O O1 0.149692 0.989773 0.672877
O O2 0.250000 0.830684 0.577296
O O3 0.250000 0.121143 0.556129
O O4 0.750000 0.425826 0.780136
O O5 0.847540 0.176900 0.803275
O O6 0.750000 0.295580 0.921637
O O7 0.750000 0.622623 0.894915
O O8 0.845350 0.826386 0.972092
O O9 0.347315 0.175764 0.259221
O O10 0.018929 0.768740 0.690305
O O11 0.000000 0.000000 0.776138
O O12 0.599528 0.907017 0.115001
O O13 0.500000 0.000000 0.242488
O O14 0.844037 0.112009 0.018179
O O15 0.000000 0.000000 0.982452
#
# Coordination Sequence:
#
# PCOD8193239 Si02
#       8
#     4   4   4   4   8   8   4   8
#     4  11  22  42  67  94 137 167 212 267 325 386
#     4  11  25  44  64  91 136 171 212 270 326 386
#     4  11  24  42  66 100 132 172 212 261 336 390
#     4  12  24  43  67  96 133 175 214 266 322 397
#     4  11  25  42  66  97 128 170 216 271 325 377
#     4  11  22  42  71  95 125 173 226 264 312 388
#     4  11  23  39  64  93 128 171 204 264 327 373
#     4  10  23  42  66  96 126 167 220 268 312 380
#
# _framework density 21.711572
#
# number of rings (size 3 to 8) (size 9 to 14) (size 15 to 20)
#    0.000    1.091    2.727    4.364    2.545    6.545 
#    0.000    0.909    0.000    0.000    0.000    0.000 
#    0.000    0.000    0.000    0.000    0.000    0.000 
#
# Total GULP energy -272766.530476 kJ/mol
# GULP energy per Si atom -12398.478658 kJ/mol
# Density = 2.166216 g / cm^3
# Si number density = 21.711572 Si / 1000 Ang^3
#
#
#
# Elastic Constant Matrix: (Units=GPa)
#
#
# Indices 1 2 3 4 5 6 
#
# 1 170.4622 48.1618 28.0820 0.0000 0.0000 0.0000
# 2 48.1618 87.9055 -3.8731 0.0000 0.0000 0.0000
# 3 28.0820 -3.8731 61.9242 0.0000 0.0000 0.0000
# 4 0.0000 0.0000 0.0000 30.2447 0.0000 0.0000
# 5 0.0000 0.0000 0.0000 0.0000 33.9204 0.0000
# 6 0.0000 0.0000 0.0000 0.0000 0.0000 -8.4209
#
#
#
# Elastic Compliance Matrix: (Units=1/GPa)
#
#
# Indices 1 2 3 4 5 6 
#
# 1 0.007734 -0.004404 -0.003783 0.000000 0.000000 0.000000
# 2 -0.004404 0.013915 0.002867 0.000000 0.000000 0.000000
# 3 -0.003783 0.002867 0.018043 0.000000 0.000000 0.000000
# 4 0.000000 0.000000 0.000000 0.033064 0.000000 0.000000
# 5 0.000000 0.000000 0.000000 0.000000 0.029481 0.000000
# 6 0.000000 0.000000 0.000000 0.000000 0.000000 -0.118752
#
#
# Mechanical properties :
#
#
# Convention : Reuss Voigt Hill
#
# Bulk Modulus (GPa) = 34.41852 51.67036 43.04444
# Shear Modulus (GPa) = 1313.31698 27.67693 670.49696
#
# Velocity S-wave (km/s) = 24.62125 3.57424 17.59234
# Velocity P-wave (km/s) = 28.70821 6.39405 20.79718
#
# Compressibility (1/GPa) = 0.02905413
#
# Stress axis : x y z
#
# Youngs Moduli (GPa) = 129.30231 71.86496 55.42162
#
# Poissons Ratio (x) = 0.31648 0.20964
# Poissons Ratio (y) = 0.56943 -0.15892
# Poissons Ratio (z) = 0.48910 -0.20607
#
# Static dielectric constant tensor:
#      x y z
#    x 4.228150 0.000000 0.000000 
#    y 0.000000 4.011310 0.000000 
#    z 0.000000 0.000000 3.576720 
# 
# 
# High freq. dielectric constant tensor:
#      x y z
#    x 1.872370 0.000000 0.000000 
#    y 0.000000 1.866390 0.000000 
#    z 0.000000 0.000000 1.832160 
# 
# From -- ./inp_files/19371.got.cif
#   From: 2010.03.12/outbox.cif.g09.slc.cpg/sg46_10_cif.got.tgz:19371.got - 2010.04.14 02:56:35.
