data_PCOD8193579
_publ_section_title
;
Structure prediction by ZEFSAII (Michael W. Deem and Ramdas Pophale) SiO2 
 PCOD8193579
Probable space group: P M M M
;
_chemical_formula_sum "Si O2"
_cell_formula_units_Z 56
_cell_length_a 9.172441
_cell_length_b 18.904539
_cell_length_c 19.223995
_cell_angle_alpha 90.000000
_cell_angle_beta 90.000000
_cell_angle_gamma 90.000000
_cell_volume 3333.455509
_symmetry_space_group_name_H-M "P M M M"
_symmetry_group_IT_number 47
_symmetry_cell_setting 'orthorhombic'
loop_
_space_group_symop_operation_xyz
x,y,z
-x,-y,z
x,-y,-z
-x,y,-z
-x,-y,-z
x,y,-z
-x,y,z
x,-y,z
loop_
_atom_site_type_symbol
_atom_site_label
_atom_site_fract_x
_atom_site_fract_y
_atom_site_fract_z
Si Si1 0.672429 0.157340 0.278951
Si Si2 0.330291 0.358633 0.578650
Si Si3 0.829622 0.079414 0.834844
Si Si4 0.171165 0.789721 0.076213
Si Si5 0.169162 0.421214 0.705226
Si Si6 0.828920 0.713217 0.210636
Si Si7 0.327797 0.800048 0.425227
O O1 0.500000 0.156048 0.266742
O O2 0.745820 0.092953 0.237550
O O3 0.734493 0.232603 0.255188
O O4 0.714211 0.149026 0.360871
O O5 0.301924 0.385822 0.500000
O O6 0.500000 0.361151 0.596826
O O7 0.250177 0.409175 0.632742
O O8 0.266852 0.279145 0.586993
O O9 0.772646 0.135355 0.892248
O O10 0.000000 0.090610 0.820187
O O11 0.796128 0.000000 0.860979
O O12 0.210222 0.725427 0.128834
O O13 0.000000 0.795328 0.066398
O O14 0.243712 0.777109 0.000000
O O15 0.206291 0.500000 0.732730
O O16 0.215127 0.365815 0.765844
O O17 0.000000 0.412686 0.688810
O O18 0.000000 0.729096 0.222780
O O19 0.269228 0.829885 0.500000
O O20 0.500000 0.792450 0.429728
#
# Coordination Sequence:
#
# PCOD8193579 Si02
#       7
#     8   8   8   8   8   8   8
#     4  10  17  27  48  70  88 114 150 189 224 261
#     4   9  17  30  46  63  86 116 151 191 232 271
#     4   9  18  31  46  67  97 127 148 171 210 261
#     4   8  14  26  47  72  91 112 147 185 216 252
#     4  10  20  31  43  61  89 124 155 186 227 274
#     4   9  17  30  46  64  89 117 148 185 224 267
#     4   8  14  25  42  64  87 110 141 186 232 264
#
# _framework density 16.799385000000001
#
# number of rings (size 3 to 8) (size 9 to 14) (size 15 to 20)
#    0.000    3.000    1.429    2.143    0.000    1.429 
#    0.000    2.857    0.000    9.429    0.000   10.000 
#    0.000    0.000    0.000    6.429    0.000    7.143 
#
# Total GULP energy -693868.595884 kJ/mol
# GULP energy per Si atom -12390.510641 kJ/mol
# Density = 1.676115 g / cm^3
# Si number density = 16.799385 Si / 1000 Ang^3
#
#
#
# Elastic Constant Matrix: (Units=GPa)
#
#
# Indices 1 2 3 4 5 6 
#
# 1 31.6912 18.9722 27.5884 0.0000 0.0000 0.0000
# 2 18.9722 82.3913 53.9908 0.0000 0.0000 0.0000
# 3 27.5884 53.9908 140.6210 0.0000 0.0000 0.0000
# 4 0.0000 0.0000 0.0000 19.4363 0.0000 0.0000
# 5 0.0000 0.0000 0.0000 0.0000 15.4077 0.0000
# 6 0.0000 0.0000 0.0000 0.0000 0.0000 16.7759
#
#
#
# Elastic Compliance Matrix: (Units=1/GPa)
#
#
# Indices 1 2 3 4 5 6 
#
# 1 0.039777 -0.005406 -0.005728 0.000000 0.000000 0.000000
# 2 -0.005406 0.016952 -0.005448 0.000000 0.000000 0.000000
# 3 -0.005728 -0.005448 0.010327 0.000000 0.000000 0.000000
# 4 0.000000 0.000000 0.000000 0.051450 0.000000 0.000000
# 5 0.000000 0.000000 0.000000 0.000000 0.064903 0.000000
# 6 0.000000 0.000000 0.000000 0.000000 0.000000 0.059609
#
#
# Mechanical properties :
#
#
# Convention : Reuss Voigt Hill
#
# Bulk Modulus (GPa) = 29.50550 50.64514 40.07532
# Shear Modulus (GPa) = 17.39249 20.60079 18.99664
#
# Velocity S-wave (km/s) = 3.22111 3.50563 3.36638
# Velocity P-wave (km/s) = 5.60675 6.82630 6.24636
#
# Compressibility (1/GPa) = 0.03389198
#
# Stress axis : x y z
#
# Youngs Moduli (GPa) = 25.13988 58.98964 96.83385
#
# Poissons Ratio (x) = 0.31888 0.55471
# Poissons Ratio (y) = 0.13590 0.52757
# Poissons Ratio (z) = 0.14401 0.32138
#
# Static dielectric constant tensor:
#      x y z
#    x 2.893920 0.000000 0.000000 
#    y 0.000000 3.084580 0.000000 
#    z 0.000000 0.000000 3.587160 
# 
# 
# High freq. dielectric constant tensor:
#      x y z
#    x 1.619510 0.000000 0.000000 
#    y 0.000000 1.623400 0.000000 
#    z 0.000000 0.000000 1.649220 
# 
# From -- ./inp_files/9798.got.cif
#   From: 2010.03.12/outbox.cif.g09.slc.cpg/sg47_5_cif.got.tgz:9798.got - 2010.04.14 03:12:58.
