data_PCOD8193412
_publ_section_title
;
Structure prediction by ZEFSAII (Michael W. Deem and Ramdas Pophale) SiO2 
 PCOD8193412
Probable space group: I M A 2
;
_chemical_formula_sum "Si O2"
_cell_formula_units_Z 32
_cell_length_a 11.212279
_cell_length_b 18.660431
_cell_length_c 7.405360
_cell_angle_alpha 90.000000
_cell_angle_beta 90.000000
_cell_angle_gamma 90.000000
_cell_volume 1549.393545
_symmetry_space_group_name_H-M "I M A 2"
_symmetry_group_IT_number 46
_symmetry_cell_setting 'orthorhombic'
loop_
_space_group_symop_operation_xyz
x,y,z
-x,-y,z
1/2-x,y,z
1/2+x,-y,z
1/2+x,1/2+y,1/2+z
1/2-x,1/2-y,1/2+z
-x,1/2+y,1/2+z
x,1/2-y,1/2+z
loop_
_atom_site_type_symbol
_atom_site_label
_atom_site_fract_x
_atom_site_fract_y
_atom_site_fract_z
Si Si1 0.250000 0.351836 0.313260
Si Si2 0.994625 0.177189 0.372100
Si Si3 0.496934 0.416331 0.209871
Si Si4 0.112731 0.675940 0.493529
Si Si5 0.750000 0.692655 0.723872
O O1 0.363056 0.397223 0.257763
O O2 0.250000 0.340427 0.526481
O O3 0.250000 0.278147 0.201393
O O4 0.956595 0.124317 0.531646
O O5 0.972876 0.259469 0.429968
O O6 0.134022 0.166264 0.331302
O O7 0.914037 0.157116 0.200638
O O8 0.500000 0.500000 0.173899
O O9 0.584499 0.393739 0.373199
O O10 0.250000 0.698667 0.471047
#
# Coordination Sequence:
#
# PCOD8193412 Si02
#       5
#     4   8   8   8   4
#     4  12  22  44  72 101 139 171 229 292 338 408
#     4  12  23  44  74 105 135 178 234 287 336 408
#     4  12  28  46  67 102 143 185 224 281 353 406
#     4  12  25  44  72 102 139 181 233 281 336 412
#     4  12  20  42  78 107 127 169 239 296 332 390
#
# _framework density 20.653243
#
# number of rings (size 3 to 8) (size 9 to 14) (size 15 to 20)
#    0.000    0.000    7.500    3.000    1.750    2.000 
#    0.000    0.000    0.000    0.000    0.000    0.000 
#    0.000    0.000    0.000    0.000    0.000    0.000 
#
# Total GULP energy -198545.848628 kJ/mol
# GULP energy per Si atom -12409.115539 kJ/mol
# Density = 2.060624 g / cm^3
# Si number density = 20.653243 Si / 1000 Ang^3
#
#
#
# Elastic Constant Matrix: (Units=GPa)
#
#
# Indices 1 2 3 4 5 6 
#
# 1 102.9152 11.5832 35.3827 0.0001 0.0002 -0.0003
# 2 11.5832 102.0426 36.6504 0.0010 0.0003 0.0005
# 3 35.3827 36.6504 140.2133 0.0004 -0.0007 0.0008
# 4 0.0001 0.0010 0.0004 25.3490 -0.0005 -0.0003
# 5 0.0002 0.0003 -0.0007 -0.0005 26.0895 0.0000
# 6 -0.0003 0.0005 0.0008 -0.0003 0.0000 -1.2459
#
#
#
# Elastic Compliance Matrix: (Units=1/GPa)
#
#
# Indices 1 2 3 4 5 6 
#
# 1 0.010647 -0.000269 -0.002616 0.000000 0.000000 -0.000004
# 2 -0.000269 0.010822 -0.002761 0.000000 0.000000 0.000003
# 3 -0.002616 -0.002761 0.008514 0.000000 0.000000 0.000005
# 4 0.000000 0.000000 0.000000 0.039449 0.000001 -0.000008
# 5 0.000000 0.000000 0.000000 0.000001 0.038330 -0.000001
# 6 -0.000004 0.000003 0.000005 -0.000008 -0.000001 -0.802661
#
#
# Mechanical properties :
#
#
# Convention : Reuss Voigt Hill
#
# Bulk Modulus (GPa) = 53.50401 56.93375 55.21888
# Shear Modulus (GPa) = -7.38141 27.47553 10.04706
#
# Velocity S-wave (km/s) = -1.89255 3.65132 2.20799
# Velocity P-wave (km/s) = 4.60288 6.73814 5.77014
#
# Compressibility (1/GPa) = 0.01869019
#
# Stress axis : x y z
#
# Youngs Moduli (GPa) = 93.92746 92.40454 117.45483
#
# Poissons Ratio (x) = 0.02484 0.30731
# Poissons Ratio (y) = 0.02525 0.32428
# Poissons Ratio (z) = 0.24575 0.25512
#
# Static dielectric constant tensor:
#      x y z
#    x 3.939860 0.000000 0.000000 
#    y 0.000000 3.435400 0.000000 
#    z 0.000000 0.000000 4.056900 
# 
# 
# High freq. dielectric constant tensor:
#      x y z
#    x 1.821670 0.000000 0.000000 
#    y 0.000000 1.775350 0.000000 
#    z 0.000000 0.000000 1.833240 
# 
# From -- ./inp_files/4399.got.cif
#   From: 2010.03.12/outbox.cif.g09.slc.cpg/sg46_3_cif.got.tgz:4399.got - 2010.04.14 02:56:35.
