data_PCOD8193975
_publ_section_title
;
Structure prediction by ZEFSAII (Michael W. Deem and Ramdas Pophale) SiO2 
 PCOD8193975
Probable space group: P M M M
;
_chemical_formula_sum "Si O2"
_cell_formula_units_Z 56
_cell_length_a 14.459965
_cell_length_b 23.224414
_cell_length_c 9.647775
_cell_angle_alpha 90.000000
_cell_angle_beta 90.000000
_cell_angle_gamma 90.000000
_cell_volume 3239.956452
_symmetry_space_group_name_H-M "P M M M"
_symmetry_group_IT_number 47
_symmetry_cell_setting 'orthorhombic'
loop_
_space_group_symop_operation_xyz
x,y,z
-x,-y,z
x,-y,-z
-x,y,-z
-x,-y,-z
x,y,-z
-x,y,z
x,-y,z
loop_
_atom_site_type_symbol
_atom_site_label
_atom_site_fract_x
_atom_site_fract_y
_atom_site_fract_z
Si Si1 0.281784 0.346864 0.663119
Si Si2 0.607647 0.765248 0.657440
Si Si3 0.783111 0.935129 0.839857
Si Si4 0.396282 0.870873 0.841661
Si Si5 0.108794 0.155651 0.657257
Si Si6 0.101806 0.284246 0.664477
Si Si7 0.604957 0.567417 0.159137
O O1 0.288662 0.360203 0.500000
O O2 0.342387 0.292264 0.706448
O O3 0.176301 0.332482 0.709580
O O4 0.319488 0.401500 0.745678
O O5 0.634328 0.780423 0.500000
O O6 0.500000 0.753801 0.676546
O O7 0.641236 0.818012 0.750692
O O8 0.673442 0.923773 0.819237
O O9 0.843083 0.891211 0.752430
O O10 0.803163 0.000000 0.789446
O O11 0.810724 0.927394 0.000000
O O12 0.500000 0.889855 0.796099
O O13 0.396383 0.849842 0.000000
O O14 0.144756 0.148100 0.500000
O O15 0.131887 0.220096 0.713771
O O16 0.000000 0.145120 0.664171
O O17 0.096393 0.281011 0.500000
O O18 0.000000 0.300819 0.724106
O O19 0.500000 0.583525 0.204172
O O20 0.621262 0.500000 0.178590
O O21 0.620751 0.585439 0.000000
#
# Coordination Sequence:
#
# PCOD8193975 Si02
#       7
#     8   8   8   8   8   8   8
#     4  10  18  28  48  75  98 123 157 195 233 273
#     4   9  17  28  43  67  97 122 146 185 239 289
#     4  10  21  34  47  66  92 121 153 192 239 283
#     4   9  18  32  48  65  87 119 159 196 228 272
#     4   9  18  34  55  74  92 119 154 189 229 281
#     4   8  15  29  49  73  99 124 151 188 235 282
#     4   9  19  35  51  68  96 134 168 195 228 270
#
# _framework density 17.284184
#
# number of rings (size 3 to 8) (size 9 to 14) (size 15 to 20)
#    0.000    2.857    0.000    2.571    0.000    4.571 
#    0.000    5.714    0.000    1.714    0.000    6.000 
#    0.000    0.000    0.000    0.000    0.000    0.000 
#
# Total GULP energy -694219.405878 kJ/mol
# GULP energy per Si atom -12396.775105 kJ/mol
# Density = 1.724484 g / cm^3
# Si number density = 17.284184 Si / 1000 Ang^3
#
#
#
# Elastic Constant Matrix: (Units=GPa)
#
#
# Indices 1 2 3 4 5 6 
#
# 1 83.3152 61.7479 39.4930 0.0000 0.0000 0.0000
# 2 61.7479 88.7011 44.4613 0.0000 0.0000 0.0000
# 3 39.4930 44.4613 53.5094 0.0000 0.0000 0.0000
# 4 0.0000 0.0000 0.0000 30.8596 0.0000 0.0000
# 5 0.0000 0.0000 0.0000 0.0000 22.6845 0.0000
# 6 0.0000 0.0000 0.0000 0.0000 0.0000 28.0204
#
#
#
# Elastic Compliance Matrix: (Units=1/GPa)
#
#
# Indices 1 2 3 4 5 6 
#
# 1 0.026320 -0.014713 -0.007201 0.000000 0.000000 0.000000
# 2 -0.014713 0.027545 -0.012028 0.000000 0.000000 0.000000
# 3 -0.007201 -0.012028 0.033997 0.000000 0.000000 0.000000
# 4 0.000000 0.000000 0.000000 0.032405 0.000000 0.000000
# 5 0.000000 0.000000 0.000000 0.000000 0.044083 0.000000
# 6 0.000000 0.000000 0.000000 0.000000 0.000000 0.035688
#
#
# Mechanical properties :
#
#
# Convention : Reuss Voigt Hill
#
# Bulk Modulus (GPa) = 50.05393 57.43670 53.74532
# Shear Modulus (GPa) = 18.20941 21.63448 19.92194
#
# Velocity S-wave (km/s) = 3.24933 3.54176 3.39870
# Velocity P-wave (km/s) = 6.56504 7.07307 6.82379
#
# Compressibility (1/GPa) = 0.01997845
#
# Stress axis : x y z
#
# Youngs Moduli (GPa) = 37.99338 36.30362 29.41409
#
# Poissons Ratio (x) = 0.53414 0.21180
# Poissons Ratio (y) = 0.55900 0.35381
# Poissons Ratio (z) = 0.27358 0.43668
#
# Static dielectric constant tensor:
#      x y z
#    x 3.503760 0.000000 0.000000 
#    y 0.000000 3.085780 0.000000 
#    z 0.000000 0.000000 3.098230 
# 
# 
# High freq. dielectric constant tensor:
#      x y z
#    x 1.675450 0.000000 0.000000 
#    y 0.000000 1.650880 0.000000 
#    z 0.000000 0.000000 1.648620 
# 
# From -- ./inp_files/7289.got.cif
#   From: 2010.03.12/outbox.cif.g09.slc.cpg/sg47_4_cif.got.tgz:7289.got - 2010.04.14 03:12:58.
