data_PCOD8193904
_publ_section_title
;
Structure prediction by ZEFSAII (Michael W. Deem and Ramdas Pophale) SiO2 
 PCOD8193904
Probable space group: P M M M
;
_chemical_formula_sum "Si O2"
_cell_formula_units_Z 64
_cell_length_a 31.446090
_cell_length_b 14.297944
_cell_length_c 9.485171
_cell_angle_alpha 90.000000
_cell_angle_beta 90.000000
_cell_angle_gamma 90.000000
_cell_volume 4264.669789
_symmetry_space_group_name_H-M "P M M M"
_symmetry_group_IT_number 47
_symmetry_cell_setting 'orthorhombic'
loop_
_space_group_symop_operation_xyz
x,y,z
-x,-y,z
x,-y,-z
-x,y,-z
-x,-y,-z
x,y,-z
-x,y,z
x,-y,z
loop_
_atom_site_type_symbol
_atom_site_label
_atom_site_fract_x
_atom_site_fract_y
_atom_site_fract_z
Si Si1 0.831944 0.103518 0.837396
Si Si2 0.636812 0.392598 0.831930
Si Si3 0.544959 0.610936 0.842302
Si Si4 0.708863 0.707343 0.662402
Si Si5 0.046675 0.605180 0.832605
Si Si6 0.870625 0.706591 0.834634
Si Si7 0.796580 0.390679 0.337117
Si Si8 0.749045 0.896120 0.338761
O O1 0.867296 0.182137 0.804157
O O2 0.789938 0.128905 0.752342
O O3 0.849506 0.000000 0.796442
O O4 0.818745 0.106565 0.000000
O O5 0.645478 0.500000 0.788591
O O6 0.590063 0.357974 0.773914
O O7 0.671234 0.327223 0.760445
O O8 0.639029 0.381495 0.000000
O O9 0.500000 0.642074 0.765425
O O10 0.546663 0.500000 0.849917
O O11 0.543275 0.651583 0.000000
O O12 0.698051 0.684599 0.500000
O O13 0.752503 0.657434 0.707485
O O14 0.712812 0.818955 0.689051
O O15 0.056359 0.500000 0.779341
O O16 0.083451 0.673909 0.775579
O O17 0.000000 0.637468 0.776681
O O18 0.046186 0.606748 0.000000
O O19 0.834093 0.649867 0.756801
O O20 0.866074 0.684387 0.000000
O O21 0.806972 0.369666 0.500000
O O22 0.792070 0.500000 0.306973
O O23 0.764256 0.890481 0.500000
O O24 0.731288 0.000000 0.302222
#
# Coordination Sequence:
#
# PCOD8193904 Si02
#       8
#     8   8   8   8   8   8   8   8
#     4   9  17  28  42  62  86 106 126 163 214 251
#     4   9  17  27  40  60  84 112 146 176 200 236
#     4   7  10  19  36  56  77 102 135 175 211 237
#     4  10  19  30  42  57  82 113 139 165 204 250
#     4   8  14  25  41  61  83 105 132 168 205 238
#     4  10  18  28  45  65  82 104 138 173 201 238
#     4  10  20  31  41  57  84 114 139 165 200 241
#     4   9  17  30  47  62  76 101 140 177 203 238
#
# _framework density 15.007023
#
# number of rings (size 3 to 8) (size 9 to 14) (size 15 to 20)
#    0.000    3.000    1.250    2.250    0.000    2.500 
#    0.000    0.000    0.000    1.125    0.000    6.125 
#    0.000    0.500    0.000   10.500    0.000    4.875 
#
# Total GULP energy -792891.428474 kJ/mol
# GULP energy per Si atom -12388.928570 kJ/mol
# Density = 1.497287 g / cm^3
# Si number density = 15.007023 Si / 1000 Ang^3
#
#
#
# Elastic Constant Matrix: (Units=GPa)
#
#
# Indices 1 2 3 4 5 6 
#
# 1 136.3662 64.6062 36.1765 0.0000 0.0000 0.0000
# 2 64.6062 90.5155 27.0580 0.0000 0.0000 0.0000
# 3 36.1765 27.0580 27.7167 0.0000 0.0000 0.0000
# 4 0.0000 0.0000 0.0000 17.4933 0.0000 0.0000
# 5 0.0000 0.0000 0.0000 0.0000 -3.6593 0.0000
# 6 0.0000 0.0000 0.0000 0.0000 0.0000 8.4783
#
#
#
# Elastic Compliance Matrix: (Units=1/GPa)
#
#
# Indices 1 2 3 4 5 6 
#
# 1 0.013199 -0.006031 -0.011340 0.000000 0.000000 0.000000
# 2 -0.006031 0.018356 -0.010048 0.000000 0.000000 0.000000
# 3 -0.011340 -0.010048 0.060690 0.000000 0.000000 0.000000
# 4 0.000000 0.000000 0.000000 0.057165 0.000000 0.000000
# 5 0.000000 0.000000 0.000000 0.000000 -0.273274 0.000000
# 6 0.000000 0.000000 0.000000 0.000000 0.000000 0.117948
#
#
# Mechanical properties :
#
#
# Convention : Reuss Voigt Hill
#
# Bulk Modulus (GPa) = 26.73314 56.69777 41.71545
# Shear Modulus (GPa) = 81.44605 12.91296 47.17951
#
# Velocity S-wave (km/s) = 7.37494 2.93654 5.61307
# Velocity P-wave (km/s) = 9.50643 7.02571 8.35861
#
# Compressibility (1/GPa) = 0.03740676
#
# Stress axis : x y z
#
# Youngs Moduli (GPa) = 75.76460 54.47747 16.47727
#
# Poissons Ratio (x) = 0.32855 0.18685
# Poissons Ratio (y) = 0.45693 0.16557
# Poissons Ratio (z) = 0.85915 0.54741
#
# Static dielectric constant tensor:
#      x y z
#    x 3.152530 0.000000 0.000000 
#    y 0.000000 3.009690 0.000000 
#    z 0.000000 0.000000 2.692270 
# 
# 
# High freq. dielectric constant tensor:
#      x y z
#    x 1.567490 0.000000 0.000000 
#    y 0.000000 1.562030 0.000000 
#    z 0.000000 0.000000 1.550610 
# 
# From -- ./inp_files/14273.got.cif
#   From: 2010.03.12/outbox.cif.g09.slc.cpg/sg47_8_cif.got.tgz:14273.got - 2010.04.14 03:12:58.
