data_PCOD8193498
_publ_section_title
;
Structure prediction by ZEFSAII (Michael W. Deem and Ramdas Pophale) SiO2 
 PCOD8193498
Probable space group: P M M M
;
_chemical_formula_sum "Si O2"
_cell_formula_units_Z 36
_cell_length_a 19.616590
_cell_length_b 12.931814
_cell_length_c 9.182527
_cell_angle_alpha 90.000000
_cell_angle_beta 90.000000
_cell_angle_gamma 90.000000
_cell_volume 2329.405940
_symmetry_space_group_name_H-M "P M M M"
_symmetry_group_IT_number 47
_symmetry_cell_setting 'orthorhombic'
loop_
_space_group_symop_operation_xyz
x,y,z
-x,-y,z
x,-y,-z
-x,y,-z
-x,-y,-z
x,y,-z
-x,y,z
x,-y,z
loop_
_atom_site_type_symbol
_atom_site_label
_atom_site_fract_x
_atom_site_fract_y
_atom_site_fract_z
Si Si1 0.923750 0.000000 0.327290
Si Si2 0.574948 0.122716 0.663421
Si Si3 0.706061 0.121020 0.830069
Si Si4 0.836389 0.194532 0.673296
Si Si5 0.076144 0.614754 0.327128
O O1 0.884138 0.898904 0.272217
O O2 0.928066 0.000000 0.500000
O O3 0.000000 0.000000 0.261005
O O4 0.591555 0.161729 0.500000
O O5 0.500000 0.164034 0.712266
O O6 0.632960 0.162577 0.773479
O O7 0.573641 0.000000 0.665374
O O8 0.763178 0.186212 0.747380
O O9 0.715691 0.000000 0.793873
O O10 0.710876 0.143398 0.000000
O O11 0.826876 0.192297 0.500000
O O12 0.870697 0.300406 0.730850
O O13 0.073929 0.620411 0.500000
O O14 0.099308 0.500000 0.276105
O O15 0.000000 0.638715 0.267537
#
# Coordination Sequence:
#
# PCOD8193498 Si02
#       5
#     4   8   8   8   8
#     4   9  16  24  37  59  80 101 136 175 205 240
#     4   8  14  25  41  59  79 106 141 176 205 238
#     4  10  19  28  38  55  84 117 144 171 205 246
#     4  10  17  26  42  61  82 109 139 173 210 251
#     4   8  14  25  42  64  85 103 131 177 226 260
#
# _framework density 15.454584000000001
#
# number of rings (size 3 to 8) (size 9 to 14) (size 15 to 20)
#    0.000    3.000    1.111    2.667    0.000    4.000 
#    0.000    2.222    0.000    4.000    0.000    1.556 
#    0.000    0.889    0.000   10.222    0.000    3.333 
#
# Total GULP energy -446198.881662 kJ/mol
# GULP energy per Si atom -12394.413379 kJ/mol
# Density = 1.541941 g / cm^3
# Si number density = 15.454584 Si / 1000 Ang^3
#
#
#
# Elastic Constant Matrix: (Units=GPa)
#
#
# Indices 1 2 3 4 5 6 
#
# 1 143.5173 58.7513 44.6094 0.0000 0.0000 0.0000
# 2 58.7513 84.3174 25.7278 0.0000 0.0000 0.0000
# 3 44.6094 25.7278 42.9699 0.0000 0.0000 0.0000
# 4 0.0000 0.0000 0.0000 6.6926 0.0000 0.0000
# 5 0.0000 0.0000 0.0000 0.0000 3.8003 0.0000
# 6 0.0000 0.0000 0.0000 0.0000 0.0000 15.5494
#
#
#
# Elastic Compliance Matrix: (Units=1/GPa)
#
#
# Indices 1 2 3 4 5 6 
#
# 1 0.012150 -0.005649 -0.009231 0.000000 0.000000 0.000000
# 2 -0.005649 0.017138 -0.004396 0.000000 0.000000 0.000000
# 3 -0.009231 -0.004396 0.035487 0.000000 0.000000 0.000000
# 4 0.000000 0.000000 0.000000 0.149418 0.000000 0.000000
# 5 0.000000 0.000000 0.000000 0.000000 0.263138 0.000000
# 6 0.000000 0.000000 0.000000 0.000000 0.000000 0.064311
#
#
# Mechanical properties :
#
#
# Convention : Reuss Voigt Hill
#
# Bulk Modulus (GPa) = 38.13581 58.77572 48.45577
# Shear Modulus (GPa) = 8.48990 14.65620 11.57305
#
# Velocity S-wave (km/s) = 2.34635 3.08285 2.73947
# Velocity P-wave (km/s) = 5.66305 7.12642 6.43646
#
# Compressibility (1/GPa) = 0.02622207
#
# Stress axis : x y z
#
# Youngs Moduli (GPa) = 82.30777 58.35120 28.17904
#
# Poissons Ratio (x) = 0.32963 0.26011
# Poissons Ratio (y) = 0.46496 0.12389
# Poissons Ratio (z) = 0.75976 0.25654
#
# Static dielectric constant tensor:
#      x y z
#    x 3.250830 0.000000 0.000000 
#    y 0.000000 2.814390 0.000000 
#    z 0.000000 0.000000 2.652420 
# 
# 
# High freq. dielectric constant tensor:
#      x y z
#    x 1.602970 0.000000 0.000000 
#    y 0.000000 1.548980 0.000000 
#    z 0.000000 0.000000 1.560550 
# 
# From -- ./inp_files/3936.got.cif
#   From: 2010.03.12/outbox.cif.g09.slc.cpg/sg47_2_cif.got.tgz:3936.got - 2010.04.14 03:12:58.
