data_PCOD8193834
_publ_section_title
;
Structure prediction by ZEFSAII (Michael W. Deem and Ramdas Pophale) SiO2 
 PCOD8193834
Probable space group: P M M M
;
_chemical_formula_sum "Si O2"
_cell_formula_units_Z 48
_cell_length_a 20.640371
_cell_length_b 19.488111
_cell_length_c 9.203292
_cell_angle_alpha 90.000000
_cell_angle_beta 90.000000
_cell_angle_gamma 90.000000
_cell_volume 3701.949119
_symmetry_space_group_name_H-M "P M M M"
_symmetry_group_IT_number 47
_symmetry_cell_setting 'orthorhombic'
loop_
_space_group_symop_operation_xyz
x,y,z
-x,-y,z
x,-y,-z
-x,y,-z
-x,-y,-z
x,y,-z
-x,y,z
x,-y,z
loop_
_atom_site_type_symbol
_atom_site_label
_atom_site_fract_x
_atom_site_fract_y
_atom_site_fract_z
Si Si1 0.748798 0.579018 0.331260
Si Si2 0.875496 0.418387 0.836095
Si Si3 0.621770 0.337042 0.328835
Si Si4 0.423139 0.924591 0.662988
Si Si5 0.000000 0.581893 0.664476
Si Si6 0.424461 0.792640 0.829745
Si Si7 0.500000 0.576359 0.672597
O O1 0.766345 0.586568 0.500000
O O2 0.732188 0.500000 0.294211
O O3 0.809623 0.606637 0.239900
O O4 0.688020 0.625279 0.287294
O O5 0.878013 0.500000 0.835979
O O6 0.936745 0.389357 0.747047
O O7 0.878048 0.389617 0.000000
O O8 0.615841 0.323795 0.500000
O O9 0.618771 0.264887 0.247145
O O10 0.563446 0.384471 0.271360
O O11 0.398687 0.907751 0.500000
O O12 0.500000 0.926202 0.664928
O O13 0.398425 0.866096 0.772756
O O14 0.397082 0.000000 0.711620
O O15 0.000000 0.500000 0.664572
O O16 0.000000 0.609981 0.500000
O O17 0.500000 0.781778 0.789417
O O18 0.412701 0.789326 0.000000
O O19 0.500000 0.500000 0.739445
O O20 0.500000 0.572020 0.500000
#
# Coordination Sequence:
#
# PCOD8193834 Si02
#       7
#     8   8   8   8   4   8   4
#     4   9  17  28  40  54  70  89 118 156 194 228
#     4   9  16  25  37  53  72  93 114 138 174 221
#     4  10  18  28  42  55  68  90 120 156 193 229
#     4   8  14  25  41  58  73  89 110 136 168 210
#     4   9  15  23  37  55  73  91 111 139 172 207
#     4  10  19  28  38  53  74  95 115 143 180 223
#     4   9  16  26  41  57  66  79 114 161 201 232
#
# _framework density 12.966143000000001
#
# number of rings (size 3 to 8) (size 9 to 14) (size 15 to 20)
#    0.000    2.833    0.833    2.250    0.000    6.667 
#    0.000    1.667    0.000    2.000    0.000    0.000 
#    0.000    0.000    0.000    0.000    0.000    0.000 
#
# Total GULP energy -595083.971881 kJ/mol
# GULP energy per Si atom -12397.582748 kJ/mol
# Density = 1.293663 g / cm^3
# Si number density = 12.966143 Si / 1000 Ang^3
#
#
#
# Elastic Constant Matrix: (Units=GPa)
#
#
# Indices 1 2 3 4 5 6 
#
# 1 89.7552 36.1009 49.2677 0.0000 0.0000 0.0000
# 2 36.1009 78.1293 37.7138 0.0000 0.0000 0.0000
# 3 49.2677 37.7138 73.7475 0.0000 0.0000 0.0000
# 4 0.0000 0.0000 0.0000 11.4032 0.0000 0.0000
# 5 0.0000 0.0000 0.0000 0.0000 16.1128 0.0000
# 6 0.0000 0.0000 0.0000 0.0000 0.0000 2.8757
#
#
#
# Elastic Compliance Matrix: (Units=1/GPa)
#
#
# Indices 1 2 3 4 5 6 
#
# 1 0.018241 -0.003381 -0.010457 0.000000 0.000000 0.000000
# 2 -0.003381 0.017621 -0.006753 0.000000 0.000000 0.000000
# 3 -0.010457 -0.006753 0.023999 0.000000 0.000000 0.000000
# 4 0.000000 0.000000 0.000000 0.087695 0.000000 0.000000
# 5 0.000000 0.000000 0.000000 0.000000 0.062062 0.000000
# 6 0.000000 0.000000 0.000000 0.000000 0.000000 0.347738
#
#
# Mechanical properties :
#
#
# Convention : Reuss Voigt Hill
#
# Bulk Modulus (GPa) = 53.53358 54.19963 53.86661
# Shear Modulus (GPa) = 8.26767 13.98166 11.12466
#
# Velocity S-wave (km/s) = 2.52788 3.28734 2.93230
# Velocity P-wave (km/s) = 7.06379 7.50336 7.28689
#
# Compressibility (1/GPa) = 0.01867986
#
# Stress axis : x y z
#
# Youngs Moduli (GPa) = 54.82022 56.75033 41.66807
#
# Poissons Ratio (x) = 0.19186 0.43574
# Poissons Ratio (y) = 0.18534 0.28137
# Poissons Ratio (z) = 0.57328 0.38321
#
# Static dielectric constant tensor:
#      x y z
#    x 2.473850 0.000000 0.000000 
#    y 0.000000 2.539760 0.000000 
#    z 0.000000 0.000000 2.637660 
# 
# 
# High freq. dielectric constant tensor:
#      x y z
#    x 1.464690 0.000000 0.000000 
#    y 0.000000 1.459970 0.000000 
#    z 0.000000 0.000000 1.496280 
# 
# From -- ./inp_files/9718.got.cif
#   From: 2010.03.12/outbox.cif.g09.slc.cpg/sg47_5_cif.got.tgz:9718.got - 2010.04.14 03:12:58.
