data_PCOD8193077
_publ_section_title
;
Structure prediction by ZEFSAII (Michael W. Deem and Ramdas Pophale) SiO2 
 PCOD8193077
Probable space group: I M A 2
;
_chemical_formula_sum "Si O2"
_cell_formula_units_Z 32
_cell_length_a 15.457314
_cell_length_b 9.309750
_cell_length_c 9.678871
_cell_angle_alpha 90.000000
_cell_angle_beta 90.000000
_cell_angle_gamma 90.000000
_cell_volume 1392.825630
_symmetry_space_group_name_H-M "I M A 2"
_symmetry_group_IT_number 46
_symmetry_cell_setting 'orthorhombic'
loop_
_space_group_symop_operation_xyz
x,y,z
-x,-y,z
1/2-x,y,z
1/2+x,-y,z
1/2+x,1/2+y,1/2+z
1/2-x,1/2-y,1/2+z
-x,1/2+y,1/2+z
x,1/2-y,1/2+z
loop_
_atom_site_type_symbol
_atom_site_label
_atom_site_fract_x
_atom_site_fract_y
_atom_site_fract_z
Si Si1 0.907309 0.074522 0.104760
Si Si2 0.352847 0.787833 0.380028
Si Si3 0.653584 0.794123 0.210610
Si Si4 0.353246 0.089624 0.488002
O O1 0.894875 0.191042 0.228487
O O2 0.840362 0.943455 0.124712
O O3 0.890839 0.148085 0.956340
O O4 0.000000 0.000000 0.110691
O O5 0.250000 0.772758 0.362002
O O6 0.377867 0.922989 0.478422
O O7 0.750000 0.740198 0.239628
O O8 0.605900 0.825093 0.356028
O O9 0.606589 0.666431 0.123879
O O10 0.250000 0.107573 0.482901
#
# Coordination Sequence:
#
# PCOD8193077 Si02
#       4
#     8   8   8   8
#     4  11  24  39  60  93 129 166 214 278 335 385
#     4  10  21  42  66  90 125 177 227 267 322 406
#     4   9  17  33  54  81 115 156 204 257 312 376
#     4   8  16  30  54  82 109 145 199 254 300 359
#
# _framework density 22.974879000000001
#
# number of rings (size 3 to 8) (size 9 to 14) (size 15 to 20)
#    0.000    2.500    0.000    3.750    0.000    6.000 
#    0.000    6.250    0.000    0.000    0.000    0.000 
#    0.000    0.000    0.000    0.000    0.000    0.000 
#
# Total GULP energy -198236.164477 kJ/mol
# GULP energy per Si atom -12389.760280 kJ/mol
# Density = 2.292259 g / cm^3
# Si number density = 22.974879 Si / 1000 Ang^3
#
#
#
# Elastic Constant Matrix: (Units=GPa)
#
#
# Indices 1 2 3 4 5 6 
#
# 1 62.9479 15.3840 33.9881 0.0000 0.0000 0.0000
# 2 15.3840 45.9068 23.7737 0.0000 0.0000 0.0000
# 3 33.9881 23.7737 60.7079 0.0000 0.0000 0.0000
# 4 0.0000 0.0000 0.0000 62.8852 0.0000 0.0000
# 5 0.0000 0.0000 0.0000 0.0000 17.0437 0.0000
# 6 0.0000 0.0000 0.0000 0.0000 0.0000 26.7613
#
#
#
# Elastic Compliance Matrix: (Units=1/GPa)
#
#
# Indices 1 2 3 4 5 6 
#
# 1 0.022830 -0.001294 -0.012275 0.000000 0.000000 0.000000
# 2 -0.001294 0.027398 -0.010005 0.000000 0.000000 0.000000
# 3 -0.012275 -0.010005 0.027263 0.000000 0.000000 0.000000
# 4 0.000000 0.000000 0.000000 0.015902 0.000000 0.000000
# 5 0.000000 0.000000 0.000000 0.000000 0.058673 0.000000
# 6 0.000000 0.000000 0.000000 0.000000 0.000000 0.037367
#
#
# Mechanical properties :
#
#
# Convention : Reuss Voigt Hill
#
# Bulk Modulus (GPa) = 32.95628 35.09492 34.02560
# Shear Modulus (GPa) = 20.26793 27.76582 24.01688
#
# Velocity S-wave (km/s) = 2.97337 3.48016 3.23670
# Velocity P-wave (km/s) = 5.11503 5.60867 5.36753
#
# Compressibility (1/GPa) = 0.03034323
#
# Stress axis : x y z
#
# Youngs Moduli (GPa) = 43.80173 36.49891 36.68022
#
# Poissons Ratio (x) = 0.04722 0.45025
# Poissons Ratio (y) = 0.05667 0.36698
# Poissons Ratio (z) = 0.53767 0.36517
#
# Static dielectric constant tensor:
#      x y z
#    x 3.713160 0.000000 0.000000 
#    y 0.000000 4.267750 0.000000 
#    z 0.000000 0.000000 4.376340 
# 
# 
# High freq. dielectric constant tensor:
#      x y z
#    x 1.874220 0.000000 0.000000 
#    y 0.000000 1.900840 0.000000 
#    z 0.000000 0.000000 1.904980 
# 
# From -- ./inp_files/5222.got.cif
#   From: 2010.03.12/outbox.cif.g09.slc.cpg/sg46_3_cif.got.tgz:5222.got - 2010.04.14 02:56:35.
