data_PCOD8193020
_publ_section_title
;
Structure prediction by ZEFSAII (Michael W. Deem and Ramdas Pophale) SiO2 
 PCOD8193020
Probable space group: I M A 2
;
_chemical_formula_sum "Si O2"
_cell_formula_units_Z 48
_cell_length_a 16.535801
_cell_length_b 9.551062
_cell_length_c 13.821199
_cell_angle_alpha 90.000000
_cell_angle_beta 90.000000
_cell_angle_gamma 90.000000
_cell_volume 2182.843609
_symmetry_space_group_name_H-M "I M A 2"
_symmetry_group_IT_number 46
_symmetry_cell_setting 'orthorhombic'
loop_
_space_group_symop_operation_xyz
x,y,z
-x,-y,z
1/2-x,y,z
1/2+x,-y,z
1/2+x,1/2+y,1/2+z
1/2-x,1/2-y,1/2+z
-x,1/2+y,1/2+z
x,1/2-y,1/2+z
loop_
_atom_site_type_symbol
_atom_site_label
_atom_site_fract_x
_atom_site_fract_y
_atom_site_fract_z
Si Si1 0.654922 0.217792 0.014800
Si Si2 0.658731 0.935826 0.721710
Si Si3 0.586936 0.307910 0.318594
Si Si4 0.089750 0.318974 0.818546
Si Si5 0.842374 0.430375 0.709799
Si Si6 0.156883 0.042487 0.506369
O O1 0.750000 0.196607 0.001887
O O2 0.625302 0.138135 0.110814
O O3 0.606498 0.144352 0.927716
O O4 0.631078 0.380939 0.018094
O O5 0.750000 0.996663 0.728274
O O6 0.652077 0.804906 0.793989
O O7 0.641497 0.886864 0.611161
O O8 0.595905 0.057253 0.750330
O O9 0.498841 0.243277 0.307174
O O10 0.652243 0.188593 0.292080
O O11 0.100995 0.440447 0.739219
O O12 0.103224 0.378208 0.926556
O O13 0.750000 0.482043 0.702531
O O14 0.250000 0.055227 0.473477
#
# Coordination Sequence:
#
# PCOD8193020 Si02
#       6
#     8   8   8   8   8   8
#     4  10  21  39  69  99 127 176 234 279 322 398
#     4  11  24  45  71  98 133 183 232 282 337 408
#     4  12  24  42  66 100 136 176 228 278 349 409
#     4  12  26  42  65 104 145 176 219 288 357 400
#     4  11  22  41  68  99 132 178 233 277 325 404
#     4  10  21  41  69  97 129 178 230 274 332 403
#
# _framework density 21.989667000000001
#
# number of rings (size 3 to 8) (size 9 to 14) (size 15 to 20)
#    0.000    1.000    3.333    4.000    0.000    2.667 
#    3.000    3.333    0.000    0.000    0.000    0.000 
#    0.000    0.000    0.000    0.000    0.000    0.000 
#
# Total GULP energy -297675.577482 kJ/mol
# GULP energy per Si atom -12403.149062 kJ/mol
# Density = 2.193962 g / cm^3
# Si number density = 21.989667 Si / 1000 Ang^3
#
#
#
# Elastic Constant Matrix: (Units=GPa)
#
#
# Indices 1 2 3 4 5 6 
#
# 1 78.5778 52.3670 72.3276 0.0000 0.0000 0.0000
# 2 52.3670 130.5646 67.3055 0.0000 0.0000 0.0000
# 3 72.3276 67.3055 151.5791 0.0000 0.0000 0.0000
# 4 0.0000 0.0000 0.0000 43.7488 0.0000 0.0000
# 5 0.0000 0.0000 0.0000 0.0000 19.1888 0.0000
# 6 0.0000 0.0000 0.0000 0.0000 0.0000 35.0506
#
#
#
# Elastic Compliance Matrix: (Units=1/GPa)
#
#
# Indices 1 2 3 4 5 6 
#
# 1 0.025005 -0.005030 -0.009698 0.000000 0.000000 0.000000
# 2 -0.005030 0.010944 -0.002460 0.000000 0.000000 0.000000
# 3 -0.009698 -0.002460 0.012317 0.000000 0.000000 0.000000
# 4 0.000000 0.000000 0.000000 0.022858 0.000000 0.000000
# 5 0.000000 0.000000 0.000000 0.000000 0.052114 0.000000
# 6 0.000000 0.000000 0.000000 0.000000 0.000000 0.028530
#
#
# Mechanical properties :
#
#
# Convention : Reuss Voigt Hill
#
# Bulk Modulus (GPa) = 71.98710 82.74684 77.36697
# Shear Modulus (GPa) = 26.20921 30.84574 28.52748
#
# Velocity S-wave (km/s) = 3.45612 3.74938 3.60573
# Velocity P-wave (km/s) = 6.98099 7.51368 7.25222
#
# Compressibility (1/GPa) = 0.01389138
#
# Stress axis : x y z
#
# Youngs Moduli (GPa) = 39.99235 91.37203 81.18963
#
# Poissons Ratio (x) = 0.45957 0.78738
# Poissons Ratio (y) = 0.20115 0.19969
# Poissons Ratio (z) = 0.38784 0.22474
#
# Static dielectric constant tensor:
#      x y z
#    x 3.715260 0.000000 0.000000 
#    y 0.000000 3.941470 0.000000 
#    z 0.000000 0.000000 4.136570 
# 
# 
# High freq. dielectric constant tensor:
#      x y z
#    x 1.853340 0.000000 0.000000 
#    y 0.000000 1.859530 0.000000 
#    z 0.000000 0.000000 1.876850 
# 
# From -- ./inp_files/16519.got.cif
#   From: 2010.03.12/outbox.cif.g09.slc.cpg/sg46_9_cif.got.tgz:16519.got - 2010.04.14 02:56:35.
