data_PCOD8193473
_publ_section_title
;
Structure prediction by ZEFSAII (Michael W. Deem and Ramdas Pophale) SiO2 
 PCOD8193473
Probable space group: P M M M
;
_chemical_formula_sum "Si O2"
_cell_formula_units_Z 44
_cell_length_a 9.820267
_cell_length_b 24.569205
_cell_length_c 12.934669
_cell_angle_alpha 90.000000
_cell_angle_beta 90.000000
_cell_angle_gamma 90.000000
_cell_volume 3120.827178
_symmetry_space_group_name_H-M "P M M M"
_symmetry_group_IT_number 47
_symmetry_cell_setting 'orthorhombic'
loop_
_space_group_symop_operation_xyz
x,y,z
-x,-y,z
x,-y,-z
-x,y,-z
-x,-y,-z
x,y,-z
-x,y,z
x,-y,z
loop_
_atom_site_type_symbol
_atom_site_label
_atom_site_fract_x
_atom_site_fract_y
_atom_site_fract_z
Si Si1 0.158379 0.225806 0.620536
Si Si2 0.652320 0.439741 0.622963
Si Si3 0.150515 0.348188 0.377051
Si Si4 0.660864 0.060674 0.500000
Si Si5 0.338567 0.939371 0.885322
Si Si6 0.662052 0.868554 0.305197
O O1 0.190888 0.217339 0.500000
O O2 0.194248 0.287341 0.655255
O O3 0.257386 0.187900 0.687276
O O4 0.000000 0.212762 0.642839
O O5 0.653224 0.435797 0.500000
O O6 0.500000 0.429754 0.664642
O O7 0.703212 0.500000 0.656812
O O8 0.748343 0.393118 0.671503
O O9 0.149255 0.351781 0.500000
O O10 0.000000 0.361028 0.334173
O O11 0.500000 0.055683 0.500000
O O12 0.709352 0.092559 0.601509
O O13 0.725173 0.000000 0.500000
O O14 0.500000 0.941982 0.879958
O O15 0.286747 0.896684 0.800453
O O16 0.281392 0.000000 0.861387
O O17 0.291003 0.920654 0.000000
O O18 0.500000 0.857482 0.307410
#
# Coordination Sequence:
#
# PCOD8193473 Si02
#       6
#     8   8   8   4   8   8
#     4   9  17  28  38  49  72 102 126 152 189 228
#     4   8  13  20  29  43  63  85 111 148 191 222
#     4   8  14  23  33  44  59  86 122 152 179 214
#     4   9  16  24  35  55  79  95 112 147 188 219
#     4   8  14  25  41  60  79  97 119 150 188 228
#     4  10  17  25  40  60  76  94 123 155 186 223
#
# _framework density 14.098826000000001
#
# number of rings (size 3 to 8) (size 9 to 14) (size 15 to 20)
#    0.000    3.364    0.909    2.727    0.000    3.273 
#    0.000    3.636    0.000    3.273    0.000    1.273 
#    0.000    0.000    0.000    0.000    0.000    0.909 
#
# Total GULP energy -545251.054616 kJ/mol
# GULP energy per Si atom -12392.069423 kJ/mol
# Density = 1.406674 g / cm^3
# Si number density = 14.098826 Si / 1000 Ang^3
#
#
#
# Elastic Constant Matrix: (Units=GPa)
#
#
# Indices 1 2 3 4 5 6 
#
# 1 54.0131 62.9934 24.3454 0.0000 0.0000 0.0000
# 2 62.9934 134.0592 43.1715 0.0000 0.0000 0.0000
# 3 24.3454 43.1715 59.0349 0.0000 0.0000 0.0000
# 4 0.0000 0.0000 0.0000 9.6612 0.0000 0.0000
# 5 0.0000 0.0000 0.0000 0.0000 6.1043 0.0000
# 6 0.0000 0.0000 0.0000 0.0000 0.0000 16.2020
#
#
#
# Elastic Compliance Matrix: (Units=1/GPa)
#
#
# Indices 1 2 3 4 5 6 
#
# 1 0.041584 -0.018335 -0.003740 0.000000 0.000000 0.000000
# 2 -0.018335 0.017842 -0.005486 0.000000 0.000000 0.000000
# 3 -0.003740 -0.005486 0.022494 0.000000 0.000000 0.000000
# 4 0.000000 0.000000 0.000000 0.103507 0.000000 0.000000
# 5 0.000000 0.000000 0.000000 0.000000 0.163820 0.000000
# 6 0.000000 0.000000 0.000000 0.000000 0.000000 0.061721
#
#
# Mechanical properties :
#
#
# Convention : Reuss Voigt Hill
#
# Bulk Modulus (GPa) = 37.31980 56.45865 46.88922
# Shear Modulus (GPa) = 10.52582 14.16661 12.34621
#
# Velocity S-wave (km/s) = 2.73531 3.17331 2.96242
# Velocity P-wave (km/s) = 6.04182 7.31836 6.71051
#
# Compressibility (1/GPa) = 0.02679543
#
# Stress axis : x y z
#
# Youngs Moduli (GPa) = 24.04785 56.04827 44.45721
#
# Poissons Ratio (x) = 1.02767 0.16628
# Poissons Ratio (y) = 0.44093 0.24390
# Poissons Ratio (z) = 0.08995 0.30749
#
# Static dielectric constant tensor:
#      x y z
#    x 2.682850 0.000000 0.000000 
#    y 0.000000 2.983470 0.000000 
#    z 0.000000 0.000000 2.479050 
# 
# 
# High freq. dielectric constant tensor:
#      x y z
#    x 1.517270 0.000000 0.000000 
#    y 0.000000 1.546300 0.000000 
#    z 0.000000 0.000000 1.480820 
# 
# From -- ./inp_files/4472.got.cif
#   From: 2010.03.12/outbox.cif.g09.slc.cpg/sg47_3_cif.got.tgz:4472.got - 2010.04.14 03:12:58.
