data_PCOD8193223
_publ_section_title
;
Structure prediction by ZEFSAII (Michael W. Deem and Ramdas Pophale) SiO2 
 PCOD8193223
Probable space group: I M A 2
;
_chemical_formula_sum "Si O2"
_cell_formula_units_Z 60
_cell_length_a 22.773028
_cell_length_b 12.815473
_cell_length_c 9.336626
_cell_angle_alpha 90.000000
_cell_angle_beta 90.000000
_cell_angle_gamma 90.000000
_cell_volume 2724.867460
_symmetry_space_group_name_H-M "I M A 2"
_symmetry_group_IT_number 46
_symmetry_cell_setting 'orthorhombic'
loop_
_space_group_symop_operation_xyz
x,y,z
-x,-y,z
1/2-x,y,z
1/2+x,-y,z
1/2+x,1/2+y,1/2+z
1/2-x,1/2-y,1/2+z
-x,1/2+y,1/2+z
x,1/2-y,1/2+z
loop_
_atom_site_type_symbol
_atom_site_label
_atom_site_fract_x
_atom_site_fract_y
_atom_site_fract_z
Si Si1 0.000000 0.000000 0.693521
Si Si2 0.532733 0.186325 0.860610
Si Si3 0.401928 0.883490 0.302113
Si Si4 0.315636 0.498496 0.609429
Si Si5 0.861743 0.671543 0.787138
Si Si6 0.112980 0.043077 0.545007
Si Si7 0.016306 0.154521 0.175091
Si Si8 0.819412 0.904931 0.807399
O O1 0.953937 0.937723 0.595401
O O2 0.041730 0.927972 0.793471
O O3 0.591643 0.259142 0.843211
O O4 0.481593 0.237396 0.764439
O O5 0.506289 0.177396 0.017179
O O6 0.466760 0.921772 0.246566
O O7 0.355416 0.907466 0.174855
O O8 0.382925 0.940814 0.446335
O O9 0.250000 0.543792 0.591925
O O10 0.310603 0.398003 0.715602
O O11 0.339676 0.460467 0.454161
O O12 0.916292 0.620263 0.693543
O O13 0.850591 0.793696 0.779939
O O14 0.869170 0.645325 0.954749
O O15 0.158683 0.025164 0.674679
O O16 0.750000 0.888514 0.805247
#
# Coordination Sequence:
#
# PCOD8193223 Si02
#       8
#     4   8   8   8   8   8   8   8
#     4  12  24  38  70 104 136 172 226 274 348 406
#     4  10  24  40  65  95 139 175 215 272 335 420
#     4   9  23  43  64  93 136 176 223 275 343 406
#     4  10  23  42  63  92 131 182 238 288 339 401
#     4  11  23  37  66  96 143 181 219 283 352 420
#     4  11  24  39  64  96 138 181 223 277 335 412
#     4  10  23  40  63 100 138 176 207 270 345 415
#     4  11  25  41  64 100 137 180 237 289 343 407
#
# _framework density 22.019418000000002
#
# number of rings (size 3 to 8) (size 9 to 14) (size 15 to 20)
#    0.800    0.800    0.000    3.600    9.333    6.400 
#    0.000    0.000    0.000    1.600    0.000    0.000 
#    0.000    0.000    0.000    0.000    0.000    0.000 
#
# Total GULP energy -371644.061003 kJ/mol
# GULP energy per Si atom -12388.135367 kJ/mol
# Density = 2.196930 g / cm^3
# Si number density = 22.019418 Si / 1000 Ang^3
#
#
#
# Elastic Constant Matrix: (Units=GPa)
#
#
# Indices 1 2 3 4 5 6 
#
# 1 97.8568 26.5254 49.6959 0.0000 0.0000 0.0000
# 2 26.5254 77.8426 40.2664 0.0000 0.0000 0.0000
# 3 49.6959 40.2664 172.6958 0.0000 0.0000 0.0000
# 4 0.0000 0.0000 0.0000 17.9662 0.0000 0.0000
# 5 0.0000 0.0000 0.0000 0.0000 31.2297 0.0000
# 6 0.0000 0.0000 0.0000 0.0000 0.0000 30.9878
#
#
#
# Elastic Compliance Matrix: (Units=1/GPa)
#
#
# Indices 1 2 3 4 5 6 
#
# 1 0.012454 -0.002718 -0.002950 0.000000 0.000000 0.000000
# 2 -0.002718 0.015201 -0.002762 0.000000 0.000000 0.000000
# 3 -0.002950 -0.002762 0.007284 0.000000 0.000000 0.000000
# 4 0.000000 0.000000 0.000000 0.055660 0.000000 0.000000
# 5 0.000000 0.000000 0.000000 0.000000 0.032021 0.000000
# 6 0.000000 0.000000 0.000000 0.000000 0.000000 0.032271
#
#
# Mechanical properties :
#
#
# Convention : Reuss Voigt Hill
#
# Bulk Modulus (GPa) = 55.31438 64.59673 59.95556
# Shear Modulus (GPa) = 28.12509 31.49723 29.81116
#
# Velocity S-wave (km/s) = 3.57779 3.78621 3.68347
# Velocity P-wave (km/s) = 6.49944 6.96518 6.73634
#
# Compressibility (1/GPa) = 0.01807848
#
# Stress axis : x y z
#
# Youngs Moduli (GPa) = 80.29628 65.78332 137.29555
#
# Poissons Ratio (x) = 0.17878 0.40504
# Poissons Ratio (y) = 0.21822 0.37926
# Poissons Ratio (z) = 0.23688 0.18172
#
# Static dielectric constant tensor:
#      x y z
#    x 3.787390 0.000000 0.000000 
#    y 0.000000 3.721590 0.000000 
#    z 0.000000 0.000000 4.132220 
# 
# 
# High freq. dielectric constant tensor:
#      x y z
#    x 1.848490 0.000000 0.000000 
#    y 0.000000 1.846920 0.000000 
#    z 0.000000 0.000000 1.885300 
# 
# From -- ./inp_files/7924.got.cif
#   From: 2010.03.12/outbox.cif.g09.slc.cpg/sg46_4_cif.got.tgz:7924.got - 2010.04.14 02:56:35.
