data_PCOD8193347
_publ_section_title
;
Structure prediction by ZEFSAII (Michael W. Deem and Ramdas Pophale) SiO2 
 PCOD8193347
Probable space group: I M A 2
;
_chemical_formula_sum "Si O2"
_cell_formula_units_Z 64
_cell_length_a 8.877976
_cell_length_b 28.148566
_cell_length_c 12.574559
_cell_angle_alpha 90.000000
_cell_angle_beta 90.000000
_cell_angle_gamma 90.000000
_cell_volume 3142.411132
_symmetry_space_group_name_H-M "I M A 2"
_symmetry_group_IT_number 46
_symmetry_cell_setting 'orthorhombic'
loop_
_space_group_symop_operation_xyz
x,y,z
-x,-y,z
1/2-x,y,z
1/2+x,-y,z
1/2+x,1/2+y,1/2+z
1/2-x,1/2-y,1/2+z
-x,1/2+y,1/2+z
x,1/2-y,1/2+z
loop_
_atom_site_type_symbol
_atom_site_label
_atom_site_fract_x
_atom_site_fract_y
_atom_site_fract_z
Si Si1 0.926860 0.099942 0.520930
Si Si2 0.071923 0.705943 0.515778
Si Si3 0.426978 0.303019 0.959141
Si Si4 0.576660 0.954625 0.092421
Si Si5 0.085672 0.570229 0.796067
Si Si6 0.915860 0.320620 0.749129
Si Si7 0.071823 0.551597 0.242099
Si Si8 0.927891 0.618627 0.417481
O O1 0.750000 0.112640 0.516123
O O2 0.971591 0.067683 0.418305
O O3 0.969656 0.069652 0.624157
O O4 0.017616 0.149283 0.518077
O O5 0.250000 0.703442 0.498193
O O6 0.021538 0.689424 0.632448
O O7 0.013633 0.759229 0.510088
O O8 0.993995 0.671812 0.427755
O O9 0.250000 0.297747 0.976215
O O10 0.464089 0.301594 0.833918
O O11 0.750000 0.964065 0.083647
O O12 0.532045 0.953680 0.216657
O O13 0.500000 0.000000 0.036456
O O14 0.530454 0.907710 0.028000
O O15 0.250000 0.545487 0.784280
O O16 0.102761 0.624064 0.762729
O O17 0.750000 0.296707 0.766059
O O18 0.250000 0.547721 0.259090
O O19 0.000000 0.500000 0.261696
O O20 0.004995 0.590592 0.321528
O O21 0.750000 0.621020 0.396776
#
# Coordination Sequence:
#
# PCOD8193347 Si02
#       8
#     8   8   8   8   8   8   8   8
#     4   9  21  42  64  88 121 162 207 256 311 374
#     4  11  22  39  64  89 119 163 210 256 312 377
#     4  11  23  37  59  92 126 162 204 258 314 371
#     4  11  23  36  55  84 118 153 190 239 295 356
#     4   9  17  35  60  85 113 146 190 241 297 357
#     4   9  19  37  60  83 113 155 196 243 301 365
#     4  11  24  43  67  92 125 170 218 268 323 383
#     4  11  24  41  61  89 124 159 205 261 314 375
#
# _framework density 20.366524999999999
#
# number of rings (size 3 to 8) (size 9 to 14) (size 15 to 20)
#    0.000    1.750    1.250    3.750    0.000    8.000 
#    0.000    2.500    0.000    0.000    0.000    0.000 
#    0.000    0.000    0.000    0.000    0.000    0.000 
#
# Total GULP energy -396756.139184 kJ/mol
# GULP energy per Si atom -12398.629350 kJ/mol
# Density = 2.032017 g / cm^3
# Si number density = 20.366525 Si / 1000 Ang^3
#
#
#
# Elastic Constant Matrix: (Units=GPa)
#
#
# Indices 1 2 3 4 5 6 
#
# 1 81.8546 22.0741 32.6653 0.0002 -0.0002 -0.0001
# 2 22.0741 46.1743 16.8882 0.0001 -0.0001 -0.0001
# 3 32.6653 16.8882 88.7207 -0.0021 0.0010 0.0000
# 4 0.0002 0.0001 -0.0021 11.4603 0.0002 0.0001
# 5 -0.0002 -0.0001 0.0010 0.0002 27.2599 -0.0002
# 6 -0.0001 -0.0001 0.0000 0.0001 -0.0002 36.8121
#
#
#
# Elastic Compliance Matrix: (Units=1/GPa)
#
#
# Indices 1 2 3 4 5 6 
#
# 1 0.015631 -0.005769 -0.004657 -0.000001 0.000000 0.000000
# 2 -0.005769 0.025407 -0.002712 -0.000001 0.000000 0.000000
# 3 -0.004657 -0.002712 0.013502 0.000003 -0.000001 0.000000
# 4 -0.000001 -0.000001 0.000003 0.087257 -0.000001 0.000000
# 5 0.000000 0.000000 -0.000001 -0.000001 0.036684 0.000000
# 6 0.000000 0.000000 0.000000 0.000000 0.000000 0.027165
#
#
# Mechanical properties :
#
#
# Convention : Reuss Voigt Hill
#
# Bulk Modulus (GPa) = 35.38114 40.00053 37.69083
# Shear Modulus (GPa) = 20.71728 24.78128 22.74928
#
# Velocity S-wave (km/s) = 3.19285 3.49200 3.34577
# Velocity P-wave (km/s) = 5.56797 5.99514 5.78550
#
# Compressibility (1/GPa) = 0.02826365
#
# Stress axis : x y z
#
# Youngs Moduli (GPa) = 63.97542 39.35901 74.06232
#
# Poissons Ratio (x) = 0.22708 0.34490
# Poissons Ratio (y) = 0.36910 0.20087
# Poissons Ratio (z) = 0.29792 0.10675
#
# Static dielectric constant tensor:
#      x y z
#    x 3.688070 0.000000 0.000000 
#    y 0.000000 3.797710 0.000000 
#    z 0.000000 0.000000 4.083320 
# 
# 
# High freq. dielectric constant tensor:
#      x y z
#    x 1.797490 0.000000 0.000000 
#    y 0.000000 1.795260 0.000000 
#    z 0.000000 0.000000 1.798630 
# 
# From -- ./inp_files/9671.got.cif
#   From: 2010.03.12/outbox.cif.g09.slc.cpg/sg46_5_cif.got.tgz:9671.got - 2010.04.14 02:56:35.
