data_PCOD8193589
_publ_section_title
;
Structure prediction by ZEFSAII (Michael W. Deem and Ramdas Pophale) SiO2 
 PCOD8193589
Probable space group: P M M M
;
_chemical_formula_sum "Si O2"
_cell_formula_units_Z 64
_cell_length_a 20.487224
_cell_length_b 8.662784
_cell_length_c 20.008839
_cell_angle_alpha 90.000000
_cell_angle_beta 90.000000
_cell_angle_gamma 90.000000
_cell_volume 3551.096639
_symmetry_space_group_name_H-M "P M M M"
_symmetry_group_IT_number 47
_symmetry_cell_setting 'orthorhombic'
loop_
_space_group_symop_operation_xyz
x,y,z
-x,-y,z
x,-y,-z
-x,y,-z
-x,-y,-z
x,y,-z
-x,y,z
x,-y,z
loop_
_atom_site_type_symbol
_atom_site_label
_atom_site_fract_x
_atom_site_fract_y
_atom_site_fract_z
Si Si1 0.684900 0.180288 0.661503
Si Si2 0.806988 0.184070 0.424875
Si Si3 0.277907 0.318729 0.796261
Si Si4 0.071864 0.816816 0.341232
Si Si5 0.865386 0.819114 0.205005
Si Si6 0.270889 0.178827 0.927802
Si Si7 0.129818 0.319741 0.072562
Si Si8 0.424963 0.322413 0.423070
O O1 0.745888 0.244628 0.618312
O O2 0.680922 0.266185 0.732240
O O3 0.618332 0.211370 0.622269
O O4 0.693224 0.000000 0.674903
O O5 0.801271 0.249778 0.500000
O O6 0.874037 0.248647 0.392446
O O7 0.807071 0.000000 0.425651
O O8 0.282466 0.500000 0.804041
O O9 0.203294 0.266772 0.787466
O O10 0.310440 0.241292 0.863224
O O11 0.088798 0.766156 0.265743
O O12 0.000000 0.750819 0.359549
O O13 0.071143 0.000000 0.346066
O O14 0.901440 0.772785 0.135184
O O15 0.851467 0.000000 0.207441
O O16 0.205772 0.279589 0.929776
O O17 0.252733 0.000000 0.916965
O O18 0.307509 0.200381 0.000000
O O19 0.120841 0.500000 0.086041
O O20 0.098339 0.275000 0.000000
O O21 0.412337 0.279319 0.500000
O O22 0.500000 0.292648 0.404268
O O23 0.406200 0.500000 0.409876
#
# Coordination Sequence:
#
# PCOD8193589 Si02
#       8
#     8   8   8   8   8   8   8   8
#     4  11  20  32  50  75 105 134 169 211 251 291
#     4   9  17  29  46  70  97 122 152 197 251 299
#     4  11  20  29  45  68  96 131 167 203 249 299
#     4   9  17  29  45  66  92 121 155 199 251 303
#     4  10  17  28  45  65  90 119 154 198 247 295
#     4   9  16  26  41  63  93 127 160 197 244 293
#     4   9  16  25  39  61  87 115 149 189 234 288
#     4   9  19  36  55  76 106 142 175 206 245 297
#
# _framework density 18.022601000000002
#
# number of rings (size 3 to 8) (size 9 to 14) (size 15 to 20)
#    0.000    2.375    1.250    4.875    0.000    2.750 
#    0.000    1.875    0.000    1.875    0.000    2.625 
#    0.000    1.500    0.000    5.250    0.000    2.250 
#
# Total GULP energy -793155.943751 kJ/mol
# GULP energy per Si atom -12393.061621 kJ/mol
# Density = 1.798158 g / cm^3
# Si number density = 18.022601 Si / 1000 Ang^3
#
#
#
# Elastic Constant Matrix: (Units=GPa)
#
#
# Indices 1 2 3 4 5 6 
#
# 1 64.8163 15.4822 43.2745 0.0000 0.0000 0.0000
# 2 15.4822 50.2012 34.1265 0.0000 0.0000 0.0000
# 3 43.2745 34.1265 156.1794 0.0000 0.0000 0.0000
# 4 0.0000 0.0000 0.0000 22.3045 0.0000 0.0000
# 5 0.0000 0.0000 0.0000 0.0000 16.9923 0.0000
# 6 0.0000 0.0000 0.0000 0.0000 0.0000 9.8229
#
#
#
# Elastic Compliance Matrix: (Units=1/GPa)
#
#
# Indices 1 2 3 4 5 6 
#
# 1 0.019240 -0.002713 -0.004738 0.000000 0.000000 0.000000
# 2 -0.002713 0.023777 -0.004444 0.000000 0.000000 0.000000
# 3 -0.004738 -0.004444 0.008687 0.000000 0.000000 0.000000
# 4 0.000000 0.000000 0.000000 0.044834 0.000000 0.000000
# 5 0.000000 0.000000 0.000000 0.000000 0.058850 0.000000
# 6 0.000000 0.000000 0.000000 0.000000 0.000000 0.101803
#
#
# Mechanical properties :
#
#
# Convention : Reuss Voigt Hill
#
# Bulk Modulus (GPa) = 35.82388 50.77371 43.29879
# Shear Modulus (GPa) = 17.22445 21.71152 19.46798
#
# Velocity S-wave (km/s) = 3.09482 3.47462 3.29020
# Velocity P-wave (km/s) = 5.71759 6.65813 6.20571
#
# Compressibility (1/GPa) = 0.02791434
#
# Stress axis : x y z
#
# Youngs Moduli (GPa) = 51.97602 42.05684 115.11688
#
# Poissons Ratio (x) = 0.11408 0.54545
# Poissons Ratio (y) = 0.14099 0.51157
# Poissons Ratio (z) = 0.24628 0.18690
#
# Static dielectric constant tensor:
#      x y z
#    x 2.941200 0.000000 0.000000 
#    y 0.000000 3.124850 0.000000 
#    z 0.000000 0.000000 4.075770 
# 
# 
# High freq. dielectric constant tensor:
#      x y z
#    x 1.639340 0.000000 0.000000 
#    y 0.000000 1.682680 0.000000 
#    z 0.000000 0.000000 1.722070 
# 
# From -- ./inp_files/31502.got.cif
#   From: 2010.03.12/outbox.cif.g09.slc.cpg/sg47_16_cif.got.tgz:31502.got - 2010.04.14 03:12:58.
