data_PCOD8193007
_publ_section_title
;
Structure prediction by ZEFSAII (Michael W. Deem and Ramdas Pophale) SiO2 
 PCOD8193007
Probable space group: I M A 2
;
_chemical_formula_sum "Si O2"
_cell_formula_units_Z 64
_cell_length_a 16.908532
_cell_length_b 8.666205
_cell_length_c 18.402683
_cell_angle_alpha 90.000000
_cell_angle_beta 90.000000
_cell_angle_gamma 90.000000
_cell_volume 2696.596751
_symmetry_space_group_name_H-M "I M A 2"
_symmetry_group_IT_number 46
_symmetry_cell_setting 'orthorhombic'
loop_
_space_group_symop_operation_xyz
x,y,z
-x,-y,z
1/2-x,y,z
1/2+x,-y,z
1/2+x,1/2+y,1/2+z
1/2-x,1/2-y,1/2+z
-x,1/2+y,1/2+z
x,1/2-y,1/2+z
loop_
_atom_site_type_symbol
_atom_site_label
_atom_site_fract_x
_atom_site_fract_y
_atom_site_fract_z
Si Si1 0.339368 0.192148 0.898310
Si Si2 0.338395 0.686990 0.032215
Si Si3 0.572980 0.397097 0.421818
Si Si4 0.433590 0.290278 0.169058
Si Si5 0.160363 0.092897 0.263318
Si Si6 0.927819 0.213104 0.281278
Si Si7 0.662507 0.090281 0.687144
Si Si8 0.427885 0.391998 0.010560
O O1 0.250000 0.214610 0.928039
O O2 0.347268 0.265135 0.818865
O O3 0.404734 0.267282 0.950774
O O4 0.357610 0.009748 0.893155
O O5 0.250000 0.725621 0.004865
O O6 0.347552 0.707461 0.118723
O O7 0.399548 0.796186 0.990450
O O8 0.352776 0.504118 0.020030
O O9 0.500000 0.500000 0.448082
O O10 0.544183 0.280186 0.358479
O O11 0.365356 0.162855 0.185159
O O12 0.508136 0.241681 0.218019
O O13 0.404844 0.461018 0.189698
O O14 0.452470 0.296697 0.083258
O O15 0.250000 0.028751 0.259226
O O16 0.097250 0.965131 0.289798
O O17 0.848456 0.302898 0.257475
O O18 0.750000 0.015052 0.687646
O O19 0.500000 0.500000 0.984791
#
# Coordination Sequence:
#
# PCOD8193007 Si02
#       8
#     8   8   8   8   8   8   8   8
#     4  11  25  43  65  96 133 174 221 271 324 385
#     4  10  22  41  65  93 127 169 217 268 324 387
#     4  12  25  41  66  97 133 175 217 268 328 387
#     4  11  23  42  67  95 128 168 216 270 328 391
#     4  11  25  43  66  97 132 174 221 269 325 387
#     4  12  24  41  65  95 131 172 219 270 324 385
#     4  10  21  39  64  93 127 168 215 268 325 386
#     4  11  23  42  68  96 129 170 216 266 326 390
#
# _framework density 23.733618
#
# number of rings (size 3 to 8) (size 9 to 14) (size 15 to 20)
#    0.000    1.000    0.000    7.500    0.000    7.500 
#    0.000    1.250    0.000    0.000    0.000    0.000 
#    0.000    0.000    0.000    0.000    0.000    0.000 
#
# Total GULP energy -396779.396948 kJ/mol
# GULP energy per Si atom -12399.356155 kJ/mol
# Density = 2.367960 g / cm^3
# Si number density = 23.733618 Si / 1000 Ang^3
#
#
#
# Elastic Constant Matrix: (Units=GPa)
#
#
# Indices 1 2 3 4 5 6 
#
# 1 119.6803 35.5054 48.3390 0.0000 0.0000 0.0000
# 2 35.5054 102.6759 37.8565 0.0000 0.0000 0.0000
# 3 48.3390 37.8565 67.2585 0.0000 0.0000 0.0000
# 4 0.0000 0.0000 0.0000 45.4489 0.0000 0.0000
# 5 0.0000 0.0000 0.0000 0.0000 32.3177 0.0000
# 6 0.0000 0.0000 0.0000 0.0000 0.0000 48.7782
#
#
#
# Elastic Compliance Matrix: (Units=1/GPa)
#
#
# Indices 1 2 3 4 5 6 
#
# 1 0.011892 -0.001213 -0.007864 0.000000 0.000000 0.000000
# 2 -0.001213 0.012413 -0.006115 0.000000 0.000000 0.000000
# 3 -0.007864 -0.006115 0.023962 0.000000 0.000000 0.000000
# 4 0.000000 0.000000 0.000000 0.022003 0.000000 0.000000
# 5 0.000000 0.000000 0.000000 0.000000 0.030943 0.000000
# 6 0.000000 0.000000 0.000000 0.000000 0.000000 0.020501
#
#
# Mechanical properties :
#
#
# Convention : Reuss Voigt Hill
#
# Bulk Modulus (GPa) = 55.91928 59.22406 57.57167
# Shear Modulus (GPa) = 31.63385 36.50323 34.06854
#
# Velocity S-wave (km/s) = 3.65481 3.92604 3.79285
# Velocity P-wave (km/s) = 6.43604 6.74978 6.59477
#
# Compressibility (1/GPa) = 0.01788292
#
# Stress axis : x y z
#
# Youngs Moduli (GPa) = 84.09269 80.55773 41.73289
#
# Poissons Ratio (x) = 0.09769 0.32819
# Poissons Ratio (y) = 0.10198 0.25521
# Poissons Ratio (z) = 0.66131 0.49264
#
# Static dielectric constant tensor:
#      x y z
#    x 4.456290 0.000000 0.000000 
#    y 0.000000 4.266430 0.000000 
#    z 0.000000 0.000000 4.158320 
# 
# 
# High freq. dielectric constant tensor:
#      x y z
#    x 1.956400 0.000000 0.000000 
#    y 0.000000 1.938060 0.000000 
#    z 0.000000 0.000000 1.931180 
# 
# From -- ./inp_files/22205.got.cif
#   From: 2010.03.12/outbox.cif.g09.slc.cpg/sg46_12_cif.got.tgz:22205.got - 2010.04.14 02:56:35.
