data_PCOD8193506
_publ_section_title
;
Structure prediction by ZEFSAII (Michael W. Deem and Ramdas Pophale) SiO2 
 PCOD8193506
Probable space group: P M M M
;
_chemical_formula_sum "Si O2"
_cell_formula_units_Z 48
_cell_length_a 23.556755
_cell_length_b 9.307580
_cell_length_c 13.032815
_cell_angle_alpha 90.000000
_cell_angle_beta 90.000000
_cell_angle_gamma 90.000000
_cell_volume 2857.527860
_symmetry_space_group_name_H-M "P M M M"
_symmetry_group_IT_number 47
_symmetry_cell_setting 'orthorhombic'
loop_
_space_group_symop_operation_xyz
x,y,z
-x,-y,z
x,-y,-z
-x,y,-z
-x,-y,-z
x,y,-z
-x,y,z
x,-y,z
loop_
_atom_site_type_symbol
_atom_site_label
_atom_site_fract_x
_atom_site_fract_y
_atom_site_fract_z
Si Si1 0.436037 0.671477 0.803855
Si Si2 0.760918 0.670478 0.000000
Si Si3 0.064398 0.166275 0.881871
Si Si4 0.761693 0.329396 0.386480
Si Si5 0.365516 0.329126 0.386457
Si Si6 0.367142 0.671318 0.000000
Si Si7 0.832338 0.670793 0.195090
O O1 0.500000 0.731034 0.811835
O O2 0.436262 0.500000 0.803466
O O3 0.408019 0.732752 0.699372
O O4 0.399879 0.729359 0.899933
O O5 0.696960 0.732680 0.000000
O O6 0.793679 0.725613 0.899234
O O7 0.758276 0.500000 0.000000
O O8 0.105276 0.261760 0.811729
O O9 0.000000 0.195924 0.846338
O O10 0.079875 0.000000 0.867576
O O11 0.071962 0.212065 0.000000
O O12 0.781882 0.278964 0.500000
O O13 0.760466 0.500000 0.381112
O O14 0.698121 0.271767 0.364579
O O15 0.804292 0.270406 0.300065
O O16 0.385626 0.278974 0.500000
O O17 0.365151 0.500000 0.381175
O O18 0.366187 0.500000 0.000000
O O19 0.838293 0.500000 0.194242
#
# Coordination Sequence:
#
# PCOD8193506 Si02
#       7
#     8   4   8   8   8   4   8
#     4   9  15  20  26  37  55  87 132 172 200 234
#     4   9  16  23  34  57  81  98 122 169 224 254
#     4   9  18  32  47  63  88 120 144 162 197 252
#     4   8  14  24  38  56  79 107 136 169 213 259
#     4   8  13  21  31  43  62  90 125 166 209 246
#     4   9  15  22  29  38  62  95 122 155 204 254
#     4  10  17  26  43  67  89 106 137 182 214 239
#
# _framework density 16.797734999999999
#
# number of rings (size 3 to 8) (size 9 to 14) (size 15 to 20)
#    0.000    3.167    0.833    2.750    0.000    5.667 
#    0.000    2.500    0.000    1.000    0.000    3.500 
#    0.000    0.000    0.000    0.000    0.000   34.167 
#
# Total GULP energy -594949.664217 kJ/mol
# GULP energy per Si atom -12394.784671 kJ/mol
# Density = 1.675950 g / cm^3
# Si number density = 16.797735 Si / 1000 Ang^3
#
#
#
# Elastic Constant Matrix: (Units=GPa)
#
#
# Indices 1 2 3 4 5 6 
#
# 1 134.2938 20.1502 79.6525 0.0000 0.0000 0.0000
# 2 20.1502 10.1849 15.1185 0.0000 0.0000 0.0000
# 3 79.6525 15.1185 141.0596 0.0000 0.0000 0.0000
# 4 0.0000 0.0000 0.0000 6.4285 0.0000 0.0000
# 5 0.0000 0.0000 0.0000 0.0000 26.2422 0.0000
# 6 0.0000 0.0000 0.0000 0.0000 0.0000 0.4005
#
#
#
# Elastic Compliance Matrix: (Units=1/GPa)
#
#
# Indices 1 2 3 4 5 6 
#
# 1 0.013593 -0.018431 -0.005700 0.000000 0.000000 0.000000
# 2 -0.018431 0.141752 -0.004785 0.000000 0.000000 0.000000
# 3 -0.005700 -0.004785 0.010821 0.000000 0.000000 0.000000
# 4 0.000000 0.000000 0.000000 0.155556 0.000000 0.000000
# 5 0.000000 0.000000 0.000000 0.000000 0.038107 0.000000
# 6 0.000000 0.000000 0.000000 0.000000 0.000000 2.496984
#
#
# Mechanical properties :
#
#
# Convention : Reuss Voigt Hill
#
# Bulk Modulus (GPa) = 9.23080 57.26452 33.24766
# Shear Modulus (GPa) = 1.69448 17.98872 9.84160
#
# Velocity S-wave (km/s) = 1.00546 3.27601 2.42314
# Velocity P-wave (km/s) = 2.61823 6.96235 5.25973
#
# Compressibility (1/GPa) = 0.10833300
#
# Stress axis : x y z
#
# Youngs Moduli (GPa) = 73.56922 7.05456 92.41545
#
# Poissons Ratio (x) = 0.13002 0.52677
# Poissons Ratio (y) = 1.35596 0.44223
# Poissons Ratio (z) = 0.41934 0.03376
#
# Static dielectric constant tensor:
#      x y z
#    x 3.272340 0.000000 0.000000 
#    y 0.000000 2.404220 0.000000 
#    z 0.000000 0.000000 3.411500 
# 
# 
# High freq. dielectric constant tensor:
#      x y z
#    x 1.652440 0.000000 0.000000 
#    y 0.000000 1.566820 0.000000 
#    z 0.000000 0.000000 1.651860 
# 
# From -- ./inp_files/19115.got.cif
#   From: 2010.03.12/outbox.cif.g09.slc.cpg/sg47_10_cif.got.tgz:19115.got - 2010.04.14 03:12:58.
