data_PCOD8193649
_publ_section_title
;
Structure prediction by ZEFSAII (Michael W. Deem and Ramdas Pophale) SiO2 
 PCOD8193649
Probable space group: P M M M
;
_chemical_formula_sum "Si O2"
_cell_formula_units_Z 52
_cell_length_a 9.012441
_cell_length_b 16.202321
_cell_length_c 19.116336
_cell_angle_alpha 90.000000
_cell_angle_beta 90.000000
_cell_angle_gamma 90.000000
_cell_volume 2791.414449
_symmetry_space_group_name_H-M "P M M M"
_symmetry_group_IT_number 47
_symmetry_cell_setting 'orthorhombic'
loop_
_space_group_symop_operation_xyz
x,y,z
-x,-y,z
x,-y,-z
-x,y,-z
-x,-y,-z
x,y,-z
-x,y,z
x,-y,z
loop_
_atom_site_type_symbol
_atom_site_label
_atom_site_fract_x
_atom_site_fract_y
_atom_site_fract_z
Si Si1 0.169377 0.500000 0.667410
Si Si2 0.824107 0.000000 0.578822
Si Si3 0.327666 0.340593 0.165878
Si Si4 0.827937 0.911016 0.798971
Si Si5 0.176051 0.165576 0.341161
Si Si6 0.170195 0.205201 0.919785
Si Si7 0.324273 0.668260 0.327340
Si Si8 0.834369 0.500000 0.166368
O O1 0.252685 0.416334 0.641377
O O2 0.172931 0.500000 0.750399
O O3 0.000000 0.500000 0.639251
O O4 0.769199 0.915177 0.615640
O O5 0.762096 0.000000 0.500000
O O6 0.000000 0.000000 0.580596
O O7 0.500000 0.356936 0.161235
O O8 0.282556 0.269272 0.113333
O O9 0.280857 0.322757 0.245723
O O10 0.246450 0.420563 0.135971
O O11 0.769497 0.849362 0.738947
O O12 0.802649 0.878833 0.877314
O O13 0.000000 0.922888 0.782536
O O14 0.748165 0.000000 0.793174
O O15 0.256775 0.250380 0.365975
O O16 0.000000 0.179233 0.348932
O O17 0.000000 0.235445 0.911096
O O18 0.210981 0.188512 0.000000
O O19 0.500000 0.664319 0.339716
O O20 0.000000 0.500000 0.137488
#
# Coordination Sequence:
#
# PCOD8193649 Si02
#       8
#     4   4   8   8   8   8   8   4
#     4   9  17  29  47  74 105 136 171 212 262 314
#     4   9  18  32  53  85 118 144 177 220 259 296
#     4  10  19  31  47  67  94 127 162 204 255 307
#     4   9  16  28  48  72  95 122 163 209 252 299
#     4  10  17  29  52  77 103 140 178 213 254 303
#     4  10  20  32  47  67  92 123 162 211 260 305
#     4  10  19  30  47  74 106 137 172 217 263 307
#     4   9  17  29  48  70  93 122 158 205 254 305
#
# _framework density 18.628549
#
# number of rings (size 3 to 8) (size 9 to 14) (size 15 to 20)
#    0.000    2.385    2.308    1.385    0.000    3.692 
#    0.000    2.308    0.000    4.615    0.000    1.615 
#    0.000    4.308    0.000    0.000    0.000    0.000 
#
# Total GULP energy -644472.909896 kJ/mol
# GULP energy per Si atom -12393.709806 kJ/mol
# Density = 1.858615 g / cm^3
# Si number density = 18.628549 Si / 1000 Ang^3
#
#
#
# Elastic Constant Matrix: (Units=GPa)
#
#
# Indices 1 2 3 4 5 6 
#
# 1 65.9950 54.6555 17.4699 0.0000 0.0000 0.0000
# 2 54.6555 164.4386 27.4369 0.0000 0.0000 0.0000
# 3 17.4699 27.4369 55.4358 0.0000 0.0000 0.0000
# 4 0.0000 0.0000 0.0000 2.1494 0.0000 0.0000
# 5 0.0000 0.0000 0.0000 0.0000 10.1743 0.0000
# 6 0.0000 0.0000 0.0000 0.0000 0.0000 1.4898
#
#
#
# Elastic Compliance Matrix: (Units=1/GPa)
#
#
# Indices 1 2 3 4 5 6 
#
# 1 0.021525 -0.006565 -0.003534 0.000000 0.000000 0.000000
# 2 -0.006565 0.008631 -0.002203 0.000000 0.000000 0.000000
# 3 -0.003534 -0.002203 0.020243 0.000000 0.000000 0.000000
# 4 0.000000 0.000000 0.000000 0.465249 0.000000 0.000000
# 5 0.000000 0.000000 0.000000 0.000000 0.098287 0.000000
# 6 0.000000 0.000000 0.000000 0.000000 0.000000 0.671240
#
#
# Mechanical properties :
#
#
# Convention : Reuss Voigt Hill
#
# Bulk Modulus (GPa) = 38.76707 53.88820 46.32764
# Shear Modulus (GPa) = 3.79255 15.18317 9.48786
#
# Velocity S-wave (km/s) = 1.42839 2.85800 2.25926
# Velocity P-wave (km/s) = 4.85553 6.31518 5.63283
#
# Compressibility (1/GPa) = 0.02579509
#
# Stress axis : x y z
#
# Youngs Moduli (GPa) = 46.45766 115.86410 49.39994
#
# Poissons Ratio (x) = 0.76061 0.17459
# Poissons Ratio (y) = 0.30498 0.10882
# Poissons Ratio (z) = 0.16419 0.25523
#
# Static dielectric constant tensor:
#      x y z
#    x 3.158970 0.000000 0.000000 
#    y 0.000000 3.791670 0.000000 
#    z 0.000000 0.000000 3.114900 
# 
# 
# High freq. dielectric constant tensor:
#      x y z
#    x 1.698050 0.000000 0.000000 
#    y 0.000000 1.740870 0.000000 
#    z 0.000000 0.000000 1.677560 
# 
# From -- ./inp_files/29651.got.cif
#   From: 2010.03.12/outbox.cif.g09.slc.cpg/sg47_15_cif.got.tgz:29651.got - 2010.04.14 03:12:58.
