data_PCOD8193840
_publ_section_title
;
Structure prediction by ZEFSAII (Michael W. Deem and Ramdas Pophale) SiO2 
 PCOD8193840
Probable space group: P M M M
;
_chemical_formula_sum "Si O2"
_cell_formula_units_Z 60
_cell_length_a 9.152096
_cell_length_b 17.745178
_cell_length_c 23.434648
_cell_angle_alpha 90.000000
_cell_angle_beta 90.000000
_cell_angle_gamma 90.000000
_cell_volume 3805.917427
_symmetry_space_group_name_H-M "P M M M"
_symmetry_group_IT_number 47
_symmetry_cell_setting 'orthorhombic'
loop_
_space_group_symop_operation_xyz
x,y,z
-x,-y,z
x,-y,-z
-x,y,-z
-x,-y,-z
x,y,-z
-x,y,z
x,-y,z
loop_
_atom_site_type_symbol
_atom_site_label
_atom_site_fract_x
_atom_site_fract_y
_atom_site_fract_z
Si Si1 0.337248 0.716223 0.704091
Si Si2 0.171611 0.913693 0.211057
Si Si3 0.339055 0.911749 0.437431
Si Si4 0.667288 0.500000 0.067468
Si Si5 0.827698 0.631674 0.131010
Si Si6 0.829404 0.147458 0.333458
Si Si7 0.333392 0.774699 0.832331
Si Si8 0.835905 0.585520 0.258524
O O1 0.500000 0.713510 0.679957
O O2 0.244289 0.770941 0.664515
O O3 0.330142 0.744132 0.768636
O O4 0.270534 0.632898 0.701071
O O5 0.217518 0.899005 0.276919
O O6 0.257133 0.857323 0.168185
O O7 0.000000 0.898778 0.202988
O O8 0.212701 0.000000 0.195772
O O9 0.294725 0.878609 0.500000
O O10 0.500000 0.880397 0.419637
O O11 0.218419 0.894573 0.390307
O O12 0.349185 0.000000 0.443121
O O13 0.500000 0.500000 0.090800
O O14 0.750233 0.575944 0.086628
O O15 0.667603 0.500000 0.000000
O O16 0.755652 0.715509 0.128028
O O17 0.798087 0.594664 0.192210
O O18 0.000000 0.638203 0.117133
O O19 0.000000 0.159359 0.334541
O O20 0.500000 0.782276 0.854770
O O21 0.815204 0.500000 0.277023
O O22 0.000000 0.614285 0.269077
#
# Coordination Sequence:
#
# PCOD8193840 Si02
#       8
#     8   8   8   4   8   8   8   8
#     4   9  17  27  39  58  82 110 142 174 210 254
#     4   9  17  28  41  60  87 118 150 183 220 263
#     4   9  18  31  44  58  78 105 137 174 215 257
#     4  11  23  35  47  67  95 123 153 191 226 255
#     4  10  18  31  48  65  86 118 154 184 219 261
#     4  10  18  28  42  59  81 111 143 178 218 257
#     4   9  17  28  42  62  86 114 147 183 221 261
#     4   9  16  27  42  62  86 112 143 176 211 250
#
# _framework density 15.764925
#
# number of rings (size 3 to 8) (size 9 to 14) (size 15 to 20)
#    0.000    2.600    0.667    2.600    0.000    6.400 
#    0.000    0.667    0.000    0.000    0.000    0.000 
#    0.000    1.067    0.000   11.200    0.000    4.800 
#
# Total GULP energy -743750.845950 kJ/mol
# GULP energy per Si atom -12395.847432 kJ/mol
# Density = 1.572904 g / cm^3
# Si number density = 15.764925 Si / 1000 Ang^3
#
#
#
# Elastic Constant Matrix: (Units=GPa)
#
#
# Indices 1 2 3 4 5 6 
#
# 1 101.4091 54.0580 29.5039 0.0000 0.0000 0.0000
# 2 54.0580 99.4407 30.5733 0.0000 0.0000 0.0000
# 3 29.5039 30.5733 33.7157 0.0000 0.0000 0.0000
# 4 0.0000 0.0000 0.0000 17.0293 0.0000 0.0000
# 5 0.0000 0.0000 0.0000 0.0000 15.8459 0.0000
# 6 0.0000 0.0000 0.0000 0.0000 0.0000 29.3594
#
#
#
# Elastic Compliance Matrix: (Units=1/GPa)
#
#
# Indices 1 2 3 4 5 6 
#
# 1 0.015338 -0.005840 -0.008127 0.000000 0.000000 0.000000
# 2 -0.005840 0.016167 -0.009550 0.000000 0.000000 0.000000
# 3 -0.008127 -0.009550 0.045431 0.000000 0.000000 0.000000
# 4 0.000000 0.000000 0.000000 0.058722 0.000000 0.000000
# 5 0.000000 0.000000 0.000000 0.000000 0.063108 0.000000
# 6 0.000000 0.000000 0.000000 0.000000 0.000000 0.034061
#
#
# Mechanical properties :
#
#
# Convention : Reuss Voigt Hill
#
# Bulk Modulus (GPa) = 33.44084 51.42622 42.43353
# Shear Modulus (GPa) = 17.25156 20.47560 18.86358
#
# Velocity S-wave (km/s) = 3.31161 3.60781 3.46288
# Velocity P-wave (km/s) = 5.99004 7.07435 6.55466
#
# Compressibility (1/GPa) = 0.02990356
#
# Stress axis : x y z
#
# Youngs Moduli (GPa) = 65.19571 61.85449 22.01119
#
# Poissons Ratio (x) = 0.36121 0.17888
# Poissons Ratio (y) = 0.38072 0.21021
# Poissons Ratio (z) = 0.52984 0.59071
#
# Static dielectric constant tensor:
#      x y z
#    x 3.179560 0.000000 0.000000 
#    y 0.000000 3.072650 0.000000 
#    z 0.000000 0.000000 2.643590 
# 
# 
# High freq. dielectric constant tensor:
#      x y z
#    x 1.619240 0.000000 0.000000 
#    y 0.000000 1.603720 0.000000 
#    z 0.000000 0.000000 1.548410 
# 
# From -- ./inp_files/10219.got.cif
#   From: 2010.03.12/outbox.cif.g09.slc.cpg/sg47_6_cif.got.tgz:10219.got - 2010.04.14 03:12:58.
