data_PCOD8193217
_publ_section_title
;
Structure prediction by ZEFSAII (Michael W. Deem and Ramdas Pophale) SiO2 
 PCOD8193217
Probable space group: I M A 2
;
_chemical_formula_sum "Si O2"
_cell_formula_units_Z 64
_cell_length_a 9.005055
_cell_length_b 24.724469
_cell_length_c 15.142527
_cell_angle_alpha 90.000000
_cell_angle_beta 90.000000
_cell_angle_gamma 90.000000
_cell_volume 3371.411001
_symmetry_space_group_name_H-M "I M A 2"
_symmetry_group_IT_number 46
_symmetry_cell_setting 'orthorhombic'
loop_
_space_group_symop_operation_xyz
x,y,z
-x,-y,z
1/2-x,y,z
1/2+x,-y,z
1/2+x,1/2+y,1/2+z
1/2-x,1/2-y,1/2+z
-x,1/2+y,1/2+z
x,1/2-y,1/2+z
loop_
_atom_site_type_symbol
_atom_site_label
_atom_site_fract_x
_atom_site_fract_y
_atom_site_fract_z
Si Si1 0.573973 0.147956 0.269500
Si Si2 0.573065 0.444177 0.902804
Si Si3 0.925168 0.640479 0.401726
Si Si4 0.581691 0.214675 0.601552
Si Si5 0.924354 0.337554 0.574603
Si Si6 0.424269 0.108438 0.567023
Si Si7 0.924477 0.557522 0.253911
Si Si8 0.079932 0.733888 0.305391
O O1 0.750000 0.151832 0.264440
O O2 0.518611 0.099386 0.330664
O O3 0.516005 0.140460 0.169089
O O4 0.518358 0.204726 0.310441
O O5 0.500000 0.500000 0.872513
O O6 0.750000 0.449323 0.906129
O O7 0.513173 0.428329 0.998533
O O8 0.750000 0.640734 0.407263
O O9 0.982067 0.594241 0.334929
O O10 0.991623 0.629141 0.498608
O O11 0.978862 0.698900 0.369510
O O12 0.750000 0.200510 0.573551
O O13 0.538252 0.273832 0.566213
O O14 0.473176 0.170831 0.557546
O O15 0.565280 0.212036 0.706489
O O16 0.750000 0.347644 0.564709
O O17 0.250000 0.103535 0.548264
O O18 0.469184 0.086791 0.663236
O O19 0.750000 0.548855 0.259077
O O20 0.000000 0.500000 0.261195
O O21 0.250000 0.730196 0.338203
#
# Coordination Sequence:
#
# PCOD8193217 Si02
#       8
#     8   8   8   8   8   8   8   8
#     4   8  18  38  61  82 109 144 191 241 281 327
#     4  11  23  40  60  84 113 148 193 244 289 339
#     4  11  22  36  53  84 121 151 183 235 290 335
#     4   9  18  33  55  83 114 149 191 231 273 332
#     4   9  19  37  59  83 112 151 194 234 277 338
#     4  11  22  37  56  83 118 154 187 230 286 344
#     4  10  23  40  57  78 112 152 192 234 280 334
#     4   9  17  33  57  83 109 147 190 227 272 335
#
# _framework density 18.983150999999999
#
# number of rings (size 3 to 8) (size 9 to 14) (size 15 to 20)
#    0.000    2.250    1.250    3.000    1.750    3.500 
#    0.000    4.375    0.000    3.000    0.000    0.000 
#    0.000    0.000    0.000    0.000    0.000    0.000 
#
# Total GULP energy -396840.541766 kJ/mol
# GULP energy per Si atom -12401.266930 kJ/mol
# Density = 1.893994 g / cm^3
# Si number density = 18.983151 Si / 1000 Ang^3
#
#
#
# Elastic Constant Matrix: (Units=GPa)
#
#
# Indices 1 2 3 4 5 6 
#
# 1 57.3973 43.6404 41.0480 0.0001 0.0000 0.0000
# 2 43.6404 115.5565 57.4339 -0.0001 0.0000 0.0000
# 3 41.0480 57.4339 107.2657 -0.0003 0.0001 0.0000
# 4 0.0001 -0.0001 -0.0003 30.0315 0.0001 0.0000
# 5 0.0000 0.0000 0.0001 0.0001 27.4140 0.0000
# 6 0.0000 0.0000 0.0000 0.0000 0.0000 30.7215
#
#
#
# Elastic Compliance Matrix: (Units=1/GPa)
#
#
# Indices 1 2 3 4 5 6 
#
# 1 0.027658 -0.007065 -0.006801 0.000000 0.000000 0.000000
# 2 -0.007065 0.013596 -0.004577 0.000000 0.000000 0.000000
# 3 -0.006801 -0.004577 0.014376 0.000000 0.000000 0.000000
# 4 0.000000 0.000000 0.000000 0.033298 0.000000 0.000000
# 5 0.000000 0.000000 0.000000 0.000000 0.036478 0.000000
# 6 0.000000 0.000000 0.000000 0.000000 0.000000 0.032551
#
#
# Mechanical properties :
#
#
# Convention : Reuss Voigt Hill
#
# Bulk Modulus (GPa) = 53.34757 62.71822 58.03289
# Shear Modulus (GPa) = 24.86446 26.83986 25.85216
#
# Velocity S-wave (km/s) = 3.62307 3.76424 3.69433
# Velocity P-wave (km/s) = 6.75764 7.21133 6.98817
#
# Compressibility (1/GPa) = 0.01874500
#
# Stress axis : x y z
#
# Youngs Moduli (GPa) = 36.15602 73.54875 69.56151
#
# Poissons Ratio (x) = 0.51960 0.47311
# Poissons Ratio (y) = 0.25543 0.31835
# Poissons Ratio (z) = 0.24591 0.33660
#
# Static dielectric constant tensor:
#      x y z
#    x 3.268960 0.000000 0.000000 
#    y 0.000000 3.486850 0.000000 
#    z 0.000000 0.000000 3.656660 
# 
# 
# High freq. dielectric constant tensor:
#      x y z
#    x 1.720660 0.000000 0.000000 
#    y 0.000000 1.731190 0.000000 
#    z 0.000000 0.000000 1.744700 
# 
# From -- ./inp_files/14453.got.cif
#   From: 2010.03.12/outbox.cif.g09.slc.cpg/sg46_8_cif.got.tgz:14453.got - 2010.04.14 02:56:35.
