data_PCOD8193952
_publ_section_title
;
Structure prediction by ZEFSAII (Michael W. Deem and Ramdas Pophale) SiO2 
 PCOD8193952
Probable space group: P M M M
;
_chemical_formula_sum "Si O2"
_cell_formula_units_Z 52
_cell_length_a 12.441373
_cell_length_b 9.179630
_cell_length_c 24.902630
_cell_angle_alpha 90.000000
_cell_angle_beta 90.000000
_cell_angle_gamma 90.000000
_cell_volume 2844.059666
_symmetry_space_group_name_H-M "P M M M"
_symmetry_group_IT_number 47
_symmetry_cell_setting 'orthorhombic'
loop_
_space_group_symop_operation_xyz
x,y,z
-x,-y,z
x,-y,-z
-x,y,-z
-x,-y,-z
x,y,-z
-x,y,z
x,-y,z
loop_
_atom_site_type_symbol
_atom_site_label
_atom_site_fract_x
_atom_site_fract_y
_atom_site_fract_z
Si Si1 0.500000 0.666049 0.258306
Si Si2 0.880815 0.327138 0.059357
Si Si3 0.265682 0.665026 0.731505
Si Si4 0.121549 0.171794 0.350279
Si Si5 0.500000 0.828103 0.849719
Si Si6 0.290196 0.329098 0.143629
Si Si7 0.500000 0.336183 0.563839
Si Si8 0.289228 0.829750 0.561502
O O1 0.500000 0.500000 0.233481
O O2 0.611338 0.686448 0.291450
O O3 0.500000 0.787369 0.212798
O O4 0.884528 0.500000 0.062384
O O5 0.804530 0.266971 0.106197
O O6 0.000000 0.263991 0.069580
O O7 0.840163 0.278705 0.000000
O O8 0.227844 0.500000 0.721997
O O9 0.182109 0.767715 0.701676
O O10 0.262689 0.704789 0.794426
O O11 0.185554 0.217935 0.404023
O O12 0.000000 0.233986 0.353860
O O13 0.118695 0.000000 0.344218
O O14 0.394740 0.757858 0.876394
O O15 0.500000 0.000000 0.857721
O O16 0.310463 0.500000 0.135160
O O17 0.500000 0.500000 0.587161
O O18 0.500000 0.335938 0.500000
O O19 0.606799 0.254586 0.584179
O O20 0.263962 0.787780 0.500000
O O21 0.314170 0.000000 0.567385
#
# Coordination Sequence:
#
# PCOD8193952 Si02
#       8
#     4   8   8   8   4   8   4   8
#     4   8  16  33  53  73  97 124 158 200 244 289
#     4   8  14  26  47  75 100 121 156 208 252 282
#     4   9  18  32  51  74  99 128 160 195 239 292
#     4  10  22  37  50  69  99 131 164 204 243 279
#     4  10  18  28  46  72 100 129 163 201 238 283
#     4   9  17  31  51  73  99 130 161 195 240 292
#     4   9  17  30  51  80 108 127 149 190 242 292
#     4   9  18  34  55  75  96 126 163 200 240 287
#
# _framework density 18.283722999999998
#
# number of rings (size 3 to 8) (size 9 to 14) (size 15 to 20)
#    0.000    3.000    0.000    2.308    0.000    5.846 
#    0.000    5.000    0.000    3.231    0.000    4.308 
#    0.000    0.000    0.000    0.000    0.000    0.000 
#
# Total GULP energy -644492.283345 kJ/mol
# GULP energy per Si atom -12394.082372 kJ/mol
# Density = 1.824211 g / cm^3
# Si number density = 18.283723 Si / 1000 Ang^3
#
#
#
# Elastic Constant Matrix: (Units=GPa)
#
#
# Indices 1 2 3 4 5 6 
#
# 1 175.9695 48.8273 75.1784 0.0000 0.0000 0.0000
# 2 48.8273 47.3864 30.3288 0.0000 0.0000 0.0000
# 3 75.1784 30.3288 86.6660 0.0000 0.0000 0.0000
# 4 0.0000 0.0000 0.0000 15.8790 0.0000 0.0000
# 5 0.0000 0.0000 0.0000 0.0000 19.2541 0.0000
# 6 0.0000 0.0000 0.0000 0.0000 0.0000 22.6681
#
#
#
# Elastic Compliance Matrix: (Units=1/GPa)
#
#
# Indices 1 2 3 4 5 6 
#
# 1 0.010313 -0.006315 -0.006736 0.000000 0.000000 0.000000
# 2 -0.006315 0.031061 -0.005392 0.000000 0.000000 0.000000
# 3 -0.006736 -0.005392 0.019268 0.000000 0.000000 0.000000
# 4 0.000000 0.000000 0.000000 0.062976 0.000000 0.000000
# 5 0.000000 0.000000 0.000000 0.000000 0.051937 0.000000
# 6 0.000000 0.000000 0.000000 0.000000 0.000000 0.044115
#
#
# Mechanical properties :
#
#
# Convention : Reuss Voigt Hill
#
# Bulk Modulus (GPa) = 42.09316 68.74342 55.41829
# Shear Modulus (GPa) = 18.90538 21.93942 20.42240
#
# Velocity S-wave (km/s) = 3.21908 3.46778 3.34574
# Velocity P-wave (km/s) = 6.07361 7.32897 6.73062
#
# Compressibility (1/GPa) = 0.02375683
#
# Stress axis : x y z
#
# Youngs Moduli (GPa) = 96.96641 32.19442 51.89844
#
# Poissons Ratio (x) = 0.20332 0.34958
# Poissons Ratio (y) = 0.61237 0.27982
# Poissons Ratio (z) = 0.65315 0.17358
#
# Static dielectric constant tensor:
#      x y z
#    x 3.749490 0.000000 0.000000 
#    y 0.000000 3.100890 0.000000 
#    z 0.000000 0.000000 3.255020 
# 
# 
# High freq. dielectric constant tensor:
#      x y z
#    x 1.716670 0.000000 0.000000 
#    y 0.000000 1.681340 0.000000 
#    z 0.000000 0.000000 1.692260 
# 
# From -- ./inp_files/33624.got.cif
#   From: 2010.03.12/outbox.cif.g09.slc.cpg/sg47_17_cif.got.tgz:33624.got - 2010.04.14 03:12:58.
