data_PCOD8193215
_publ_section_title
;
Structure prediction by ZEFSAII (Michael W. Deem and Ramdas Pophale) SiO2 
 PCOD8193215
Probable space group: I M A 2
;
_chemical_formula_sum "Si O2"
_cell_formula_units_Z 56
_cell_length_a 14.021214
_cell_length_b 13.926446
_cell_length_c 13.066816
_cell_angle_alpha 90.000000
_cell_angle_beta 90.000000
_cell_angle_gamma 90.000000
_cell_volume 2551.500707
_symmetry_space_group_name_H-M "I M A 2"
_symmetry_group_IT_number 46
_symmetry_cell_setting 'orthorhombic'
loop_
_space_group_symop_operation_xyz
x,y,z
-x,-y,z
1/2-x,y,z
1/2+x,-y,z
1/2+x,1/2+y,1/2+z
1/2-x,1/2-y,1/2+z
-x,1/2+y,1/2+z
x,1/2-y,1/2+z
loop_
_atom_site_type_symbol
_atom_site_label
_atom_site_fract_x
_atom_site_fract_y
_atom_site_fract_z
Si Si1 0.640081 0.725776 0.814070
Si Si2 0.862398 0.401651 0.900191
Si Si3 0.138826 0.077238 0.724319
Si Si4 0.141350 0.708184 0.510079
Si Si5 0.137392 0.097694 0.498874
Si Si6 0.456584 0.812885 0.213609
Si Si7 0.140468 0.626165 0.294609
O O1 0.750000 0.698696 0.787971
O O2 0.623001 0.840576 0.809862
O O3 0.571192 0.678141 0.728693
O O4 0.608659 0.687842 0.926530
O O5 0.750000 0.402236 0.884837
O O6 0.906854 0.389745 0.787876
O O7 0.892826 0.314013 0.974122
O O8 0.902259 0.499378 0.949403
O O9 0.250000 0.058723 0.708938
O O10 0.095538 0.109846 0.613685
O O11 0.095432 0.976338 0.762390
O O12 0.250000 0.713519 0.551129
O O13 0.072033 0.666207 0.597132
O O14 0.133709 0.634269 0.416618
O O15 0.250000 0.091157 0.503920
O O16 0.423496 0.705069 0.239617
O O17 0.250000 0.640044 0.258819
#
# Coordination Sequence:
#
# PCOD8193215 Si02
#       7
#     8   8   8   8   8   8   8
#     4  10  23  39  53  75 108 149 201 246 271 309
#     4   9  18  33  57  88 114 136 173 227 286 351
#     4   9  18  36  60  82 109 148 189 231 279 327
#     4   9  17  31  54  88 123 146 169 218 292 357
#     4   9  18  36  60  81 107 146 189 233 280 328
#     4  11  20  32  54  82 116 151 183 226 283 339
#     4   9  18  33  56  88 119 144 180 229 283 349
#
# _framework density 21.947869000000001
#
# number of rings (size 3 to 8) (size 9 to 14) (size 15 to 20)
#    0.000    2.571    0.000    3.000    0.000    5.714 
#    0.000    2.857    0.000   10.286    0.000    0.000 
#    0.000    0.000    0.000    0.000    0.000    0.000 
#
# Total GULP energy -347102.652374 kJ/mol
# GULP energy per Si atom -12396.523299 kJ/mol
# Density = 2.189791 g / cm^3
# Si number density = 21.947869 Si / 1000 Ang^3
#
#
#
# Elastic Constant Matrix: (Units=GPa)
#
#
# Indices 1 2 3 4 5 6 
#
# 1 67.4481 5.6292 25.1447 0.0000 0.0000 0.0000
# 2 5.6292 128.8775 71.9610 0.0000 0.0000 0.0000
# 3 25.1447 71.9610 132.8097 0.0000 0.0000 0.0000
# 4 0.0000 0.0000 0.0000 31.9877 0.0000 0.0000
# 5 0.0000 0.0000 0.0000 0.0000 22.5413 0.0000
# 6 0.0000 0.0000 0.0000 0.0000 0.0000 2.4660
#
#
#
# Elastic Compliance Matrix: (Units=1/GPa)
#
#
# Indices 1 2 3 4 5 6 
#
# 1 0.016135 0.001435 -0.003832 0.000000 0.000000 0.000000
# 2 0.001435 0.011253 -0.006369 0.000000 0.000000 0.000000
# 3 -0.003832 -0.006369 0.011706 0.000000 0.000000 0.000000
# 4 0.000000 0.000000 0.000000 0.031262 0.000000 0.000000
# 5 0.000000 0.000000 0.000000 0.000000 0.044363 0.000000
# 6 0.000000 0.000000 0.000000 0.000000 0.000000 0.405522
#
#
# Mechanical properties :
#
#
# Convention : Reuss Voigt Hill
#
# Bulk Modulus (GPa) = 46.37867 59.40059 52.88963
# Shear Modulus (GPa) = 9.17497 26.49236 17.83367
#
# Velocity S-wave (km/s) = 2.04681 3.47804 2.85361
# Velocity P-wave (km/s) = 5.17330 6.57664 5.91672
#
# Compressibility (1/GPa) = 0.02156163
#
# Stress axis : x y z
#
# Youngs Moduli (GPa) = 61.97639 88.86680 85.42590
#
# Poissons Ratio (x) = -0.12754 0.32739
# Poissons Ratio (y) = -0.08895 0.54407
# Poissons Ratio (z) = 0.23752 0.56598
#
# Static dielectric constant tensor:
#      x y z
#    x 3.975420 0.000000 0.000000 
#    y 0.000000 3.944300 0.000000 
#    z 0.000000 0.000000 3.997590 
# 
# 
# High freq. dielectric constant tensor:
#      x y z
#    x 1.868070 0.000000 0.000000 
#    y 0.000000 1.843830 0.000000 
#    z 0.000000 0.000000 1.850610 
# 
# From -- ./inp_files/11131.got.cif
#   From: 2010.03.12/outbox.cif.g09.slc.cpg/sg46_6_cif.got.tgz:11131.got - 2010.04.14 02:56:35.
