data_PCOD8193201
_publ_section_title
;
Structure prediction by ZEFSAII (Michael W. Deem and Ramdas Pophale) SiO2 
 PCOD8193201
Probable space group: I M A 2
;
_chemical_formula_sum "Si O2"
_cell_formula_units_Z 40
_cell_length_a 14.000676
_cell_length_b 8.467584
_cell_length_c 15.155381
_cell_angle_alpha 90.000000
_cell_angle_beta 90.000000
_cell_angle_gamma 90.000000
_cell_volume 1796.699214
_symmetry_space_group_name_H-M "I M A 2"
_symmetry_group_IT_number 46
_symmetry_cell_setting 'orthorhombic'
loop_
_space_group_symop_operation_xyz
x,y,z
-x,-y,z
1/2-x,y,z
1/2+x,-y,z
1/2+x,1/2+y,1/2+z
1/2-x,1/2-y,1/2+z
-x,1/2+y,1/2+z
x,1/2-y,1/2+z
loop_
_atom_site_type_symbol
_atom_site_label
_atom_site_fract_x
_atom_site_fract_y
_atom_site_fract_z
Si Si1 0.946644 0.724800 0.105110
Si Si2 0.141829 0.354851 0.765838
Si Si3 0.468995 0.319867 0.415537
Si Si4 0.145454 0.708145 0.832283
Si Si5 0.140410 0.607117 0.155246
O O1 0.918902 0.857932 0.175537
O O2 0.887054 0.574707 0.140575
O O3 0.061606 0.704962 0.100413
O O4 0.915651 0.777686 0.007096
O O5 0.250000 0.301925 0.747465
O O6 0.100271 0.230227 0.836213
O O7 0.135618 0.533191 0.796191
O O8 0.500000 0.500000 0.409621
O O9 0.567518 0.222171 0.408763
O O10 0.250000 0.732842 0.874371
O O11 0.128499 0.840812 0.757081
O O12 0.250000 0.639570 0.123762
#
# Coordination Sequence:
#
# PCOD8193201 Si02
#       5
#     8   8   8   8   8
#     4  11  25  42  69 100 137 181 224 285 342 413
#     4  11  25  46  71  99 136 179 231 291 347 411
#     4  12  27  43  67 102 139 185 230 283 348 412
#     4  10  23  45  73  99 134 181 229 287 350 413
#     4  10  22  42  69  98 132 178 226 276 342 408
#
# _framework density 22.263048000000001
#
# number of rings (size 3 to 8) (size 9 to 14) (size 15 to 20)
#    0.000    1.200    2.000    2.400    8.400    4.800 
#    0.000    0.000    0.000    0.000    0.000    0.000 
#    0.000    0.000    0.000    0.000    0.000    0.000 
#
# Total GULP energy -247915.855207 kJ/mol
# GULP energy per Si atom -12395.792760 kJ/mol
# Density = 2.221238 g / cm^3
# Si number density = 22.263048 Si / 1000 Ang^3
#
#
#
# Elastic Constant Matrix: (Units=GPa)
#
#
# Indices 1 2 3 4 5 6 
#
# 1 148.3163 40.4544 42.7107 0.0000 0.0000 0.0000
# 2 40.4544 90.2754 35.7514 0.0000 0.0000 0.0000
# 3 42.7107 35.7514 138.6342 0.0000 0.0000 0.0000
# 4 0.0000 0.0000 0.0000 24.0569 0.0000 0.0000
# 5 0.0000 0.0000 0.0000 0.0000 -4.4689 0.0000
# 6 0.0000 0.0000 0.0000 0.0000 0.0000 33.6316
#
#
#
# Elastic Compliance Matrix: (Units=1/GPa)
#
#
# Indices 1 2 3 4 5 6 
#
# 1 0.008034 -0.002918 -0.001723 0.000000 0.000000 0.000000
# 2 -0.002918 0.013397 -0.002556 0.000000 0.000000 0.000000
# 3 -0.001723 -0.002556 0.008403 0.000000 0.000000 0.000000
# 4 0.000000 0.000000 0.000000 0.041568 0.000000 0.000000
# 5 0.000000 0.000000 0.000000 0.000000 -0.223770 0.000000
# 6 0.000000 0.000000 0.000000 0.000000 0.000000 0.029734
#
#
# Mechanical properties :
#
#
# Convention : Reuss Voigt Hill
#
# Bulk Modulus (GPa) = 64.76211 68.33988 66.55100
# Shear Modulus (GPa) = -48.50008 27.86457 -10.31775
#
# Velocity S-wave (km/s) = -4.67251 3.54164 -2.15512
# Velocity P-wave (km/s) = 0.20716 6.89112 4.87496
#
# Compressibility (1/GPa) = 0.01544113
#
# Stress axis : x y z
#
# Youngs Moduli (GPa) = 124.46506 74.64307 119.00414
#
# Poissons Ratio (x) = 0.21782 0.20501
# Poissons Ratio (y) = 0.36321 0.30416
# Poissons Ratio (z) = 0.21442 0.19078
#
# Static dielectric constant tensor:
#      x y z
#    x 4.693320 0.000000 0.000000 
#    y 0.000000 3.976110 0.000000 
#    z 0.000000 0.000000 3.858440 
# 
# 
# High freq. dielectric constant tensor:
#      x y z
#    x 1.891060 0.000000 0.000000 
#    y 0.000000 1.882450 0.000000 
#    z 0.000000 0.000000 1.860860 
# 
# From -- ./inp_files/15672.got.cif
#   From: 2010.03.12/outbox.cif.g09.slc.cpg/sg46_8_cif.got.tgz:15672.got - 2010.04.14 02:56:35.
