data_PCOD8193838
_publ_section_title
;
Structure prediction by ZEFSAII (Michael W. Deem and Ramdas Pophale) SiO2 
 PCOD8193838
Probable space group: P M M M
;
_chemical_formula_sum "Si O2"
_cell_formula_units_Z 40
_cell_length_a 18.275223
_cell_length_b 16.804677
_cell_length_c 9.133510
_cell_angle_alpha 90.000000
_cell_angle_beta 90.000000
_cell_angle_gamma 90.000000
_cell_volume 2804.985128
_symmetry_space_group_name_H-M "P M M M"
_symmetry_group_IT_number 47
_symmetry_cell_setting 'orthorhombic'
loop_
_space_group_symop_operation_xyz
x,y,z
-x,-y,z
x,-y,-z
-x,y,-z
-x,-y,-z
x,y,-z
-x,y,z
x,-y,z
loop_
_atom_site_type_symbol
_atom_site_label
_atom_site_fract_x
_atom_site_fract_y
_atom_site_fract_z
Si Si1 0.278994 0.090384 0.827799
Si Si2 0.138110 0.810815 0.826370
Si Si3 0.000000 0.088423 0.826475
Si Si4 0.914576 0.658154 0.672267
Si Si5 0.420122 0.094515 0.665160
Si Si6 0.913250 0.500000 0.165336
O O1 0.212208 0.145530 0.777548
O O2 0.353833 0.127638 0.763216
O O3 0.265084 0.000000 0.771825
O O4 0.286985 0.090643 0.000000
O O5 0.133733 0.727927 0.741645
O O6 0.071710 0.865892 0.771850
O O7 0.134478 0.795445 0.000000
O O8 0.000000 0.000000 0.758038
O O9 0.000000 0.082464 0.000000
O O10 0.900383 0.652338 0.500000
O O11 0.886015 0.577404 0.747336
O O12 0.000000 0.673260 0.707191
O O13 0.407626 0.124177 0.500000
O O14 0.500000 0.125074 0.721561
O O15 0.419738 0.000000 0.672183
O O16 0.000000 0.500000 0.160469
O O17 0.881350 0.500000 0.000000
#
# Coordination Sequence:
#
# PCOD8193838 Si02
#       6
#     8   8   4   8   8   4
#     4   9  17  27  39  58  81 104 136 177 214 244
#     4  10  18  28  42  58  78 106 141 175 207 244
#     4   9  16  26  41  56  71 100 143 183 210 233
#     4  10  19  30  43  60  82 104 130 166 208 248
#     4   8  14  25  40  56  74  99 131 164 202 252
#     4   9  17  29  47  65  79  97 126 161 202 251
#
# _framework density 14.260325
#
# number of rings (size 3 to 8) (size 9 to 14) (size 15 to 20)
#    0.000    2.800    1.000    2.100    0.000    5.600 
#    0.000    2.000    0.000    2.400    0.000    0.000 
#    0.000    0.000    0.000    0.900    0.000   16.800 
#
# Total GULP energy -495860.639606 kJ/mol
# GULP energy per Si atom -12396.515990 kJ/mol
# Density = 1.422787 g / cm^3
# Si number density = 14.260325 Si / 1000 Ang^3
#
#
#
# Elastic Constant Matrix: (Units=GPa)
#
#
# Indices 1 2 3 4 5 6 
#
# 1 113.1229 49.5017 37.9312 0.0000 0.0000 0.0000
# 2 49.5017 98.4995 40.5639 0.0000 0.0000 0.0000
# 3 37.9312 40.5639 51.4673 0.0000 0.0000 0.0000
# 4 0.0000 0.0000 0.0000 16.0873 0.0000 0.0000
# 5 0.0000 0.0000 0.0000 0.0000 20.4302 0.0000
# 6 0.0000 0.0000 0.0000 0.0000 0.0000 4.9173
#
#
#
# Elastic Compliance Matrix: (Units=1/GPa)
#
#
# Indices 1 2 3 4 5 6 
#
# 1 0.012596 -0.003712 -0.006358 0.000000 0.000000 0.000000
# 2 -0.003712 0.016125 -0.009973 0.000000 0.000000 0.000000
# 3 -0.006358 -0.009973 0.031976 0.000000 0.000000 0.000000
# 4 0.000000 0.000000 0.000000 0.062161 0.000000 0.000000
# 5 0.000000 0.000000 0.000000 0.000000 0.048947 0.000000
# 6 0.000000 0.000000 0.000000 0.000000 0.000000 0.203365
#
#
# Mechanical properties :
#
#
# Convention : Reuss Voigt Hill
#
# Bulk Modulus (GPa) = 48.51744 57.67592 53.09668
# Shear Modulus (GPa) = 11.84482 17.29316 14.56899
#
# Velocity S-wave (km/s) = 2.88516 3.48613 3.19979
# Velocity P-wave (km/s) = 6.72275 7.53239 7.13906
#
# Compressibility (1/GPa) = 0.02061114
#
# Stress axis : x y z
#
# Youngs Moduli (GPa) = 79.38967 62.01560 31.27384
#
# Poissons Ratio (x) = 0.23021 0.19883
# Poissons Ratio (y) = 0.29470 0.31190
# Poissons Ratio (z) = 0.50473 0.61849
#
# Static dielectric constant tensor:
#      x y z
#    x 2.889350 0.000000 0.000000 
#    y 0.000000 2.676810 0.000000 
#    z 0.000000 0.000000 2.744450 
# 
# 
# High freq. dielectric constant tensor:
#      x y z
#    x 1.524780 0.000000 0.000000 
#    y 0.000000 1.517490 0.000000 
#    z 0.000000 0.000000 1.540920 
# 
# From -- ./inp_files/9331.got.cif
#   From: 2010.03.12/outbox.cif.g09.slc.cpg/sg47_5_cif.got.tgz:9331.got - 2010.04.14 03:12:58.
