data_PCOD8193778
_publ_section_title
;
Structure prediction by ZEFSAII (Michael W. Deem and Ramdas Pophale) SiO2 
 PCOD8193778
Probable space group: P M M M
;
_chemical_formula_sum "Si O2"
_cell_formula_units_Z 52
_cell_length_a 7.802179
_cell_length_b 28.369314
_cell_length_c 13.908207
_cell_angle_alpha 90.000000
_cell_angle_beta 90.000000
_cell_angle_gamma 90.000000
_cell_volume 3078.476834
_symmetry_space_group_name_H-M "P M M M"
_symmetry_group_IT_number 47
_symmetry_cell_setting 'orthorhombic'
loop_
_space_group_symop_operation_xyz
x,y,z
-x,-y,z
x,-y,-z
-x,y,-z
-x,-y,-z
x,y,-z
-x,y,z
x,-y,z
loop_
_atom_site_type_symbol
_atom_site_label
_atom_site_fract_x
_atom_site_fract_y
_atom_site_fract_z
Si Si1 0.500000 0.447602 0.386289
Si Si2 0.703557 0.948425 0.108403
Si Si3 0.203627 0.716366 0.291992
Si Si4 0.803157 0.763190 0.105128
Si Si5 0.302039 0.855933 0.793182
Si Si6 0.197719 0.620038 0.613068
Si Si7 0.203387 0.809572 0.393158
O O1 0.500000 0.500000 0.340670
O O2 0.500000 0.451114 0.500000
O O3 0.325089 0.421558 0.353312
O O4 0.500000 0.949092 0.111508
O O5 0.774369 0.907038 0.177520
O O6 0.772429 0.000000 0.142285
O O7 0.766732 0.938274 0.000000
O O8 0.276163 0.726734 0.183942
O O9 0.265526 0.666070 0.330749
O O10 0.270959 0.757855 0.361726
O O11 0.000000 0.717602 0.291272
O O12 0.793357 0.816054 0.145669
O O13 0.000000 0.750371 0.091795
O O14 0.711933 0.758526 0.000000
O O15 0.500000 0.852670 0.820671
O O16 0.274974 0.849065 0.679225
O O17 0.214019 0.630285 0.500000
O O18 0.000000 0.607009 0.639000
O O19 0.272908 0.820451 0.500000
O O20 0.000000 0.810762 0.390421
#
# Coordination Sequence:
#
# PCOD8193778 Si02
#       7
#     4   8   8   8   8   8   8
#     4   9  18  30  42  62  91 119 151 187 223 268
#     4   8  14  25  41  60  81 106 136 170 211 258
#     4   8  14  26  43  62  83 109 144 178 208 249
#     4   9  17  29  44  61  86 120 148 170 206 260
#     4  10  18  27  42  64  87 108 135 176 219 257
#     4   9  16  27  44  63  86 118 151 185 224 264
#     4   9  17  30  46  61  82 114 146 174 208 254
#
# _framework density 16.891469000000001
#
# number of rings (size 3 to 8) (size 9 to 14) (size 15 to 20)
#    0.000    3.154    0.000    2.769    0.000    3.385 
#    5.538    1.538    0.000    2.308    0.000    8.615 
#    0.000    1.231    0.000    6.000    0.000    0.154 
#
# Total GULP energy -644323.657356 kJ/mol
# GULP energy per Si atom -12390.839565 kJ/mol
# Density = 1.685302 g / cm^3
# Si number density = 16.891469 Si / 1000 Ang^3
#
#
#
# Elastic Constant Matrix: (Units=GPa)
#
#
# Indices 1 2 3 4 5 6 
#
# 1 38.6141 28.3482 15.2036 0.0000 0.0000 0.0000
# 2 28.3482 145.6256 65.1871 0.0000 0.0000 0.0000
# 3 15.2036 65.1871 111.3274 0.0000 0.0000 0.0000
# 4 0.0000 0.0000 0.0000 21.6205 0.0000 0.0000
# 5 0.0000 0.0000 0.0000 0.0000 12.4765 0.0000
# 6 0.0000 0.0000 0.0000 0.0000 0.0000 23.5000
#
#
#
# Elastic Compliance Matrix: (Units=1/GPa)
#
#
# Indices 1 2 3 4 5 6 
#
# 1 0.030286 -0.005481 -0.000927 0.000000 0.000000 0.000000
# 2 -0.005481 0.010298 -0.005281 0.000000 0.000000 0.000000
# 3 -0.000927 -0.005281 0.012202 0.000000 0.000000 0.000000
# 4 0.000000 0.000000 0.000000 0.046252 0.000000 0.000000
# 5 0.000000 0.000000 0.000000 0.000000 0.080150 0.000000
# 6 0.000000 0.000000 0.000000 0.000000 0.000000 0.042553
#
#
# Mechanical properties :
#
#
# Convention : Reuss Voigt Hill
#
# Bulk Modulus (GPa) = 34.00497 57.00495 45.50496
# Shear Modulus (GPa) = 19.61384 23.97461 21.79423
#
# Velocity S-wave (km/s) = 3.41129 3.77149 3.59590
# Velocity P-wave (km/s) = 5.97420 7.26544 6.65122
#
# Compressibility (1/GPa) = 0.02940747
#
# Stress axis : x y z
#
# Youngs Moduli (GPa) = 33.01874 97.10642 81.95641
#
# Poissons Ratio (x) = 0.53221 0.07596
# Poissons Ratio (y) = 0.18097 0.43285
# Poissons Ratio (z) = 0.03060 0.51286
#
# Static dielectric constant tensor:
#      x y z
#    x 2.974650 0.000000 0.000000 
#    y 0.000000 3.336430 0.000000 
#    z 0.000000 0.000000 3.390360 
# 
# 
# High freq. dielectric constant tensor:
#      x y z
#    x 1.637520 0.000000 0.000000 
#    y 0.000000 1.631080 0.000000 
#    z 0.000000 0.000000 1.632160 
# 
# From -- ./inp_files/21811.got.cif
#   From: 2010.03.12/outbox.cif.g09.slc.cpg/sg47_11_cif.got.tgz:21811.got - 2010.04.14 03:12:58.
