data_PCOD8193251
_publ_section_title
;
Structure prediction by ZEFSAII (Michael W. Deem and Ramdas Pophale) SiO2 
 PCOD8193251
Probable space group: I M A 2
;
_chemical_formula_sum "Si O2"
_cell_formula_units_Z 48
_cell_length_a 25.435842
_cell_length_b 10.738742
_cell_length_c 8.203746
_cell_angle_alpha 90.000000
_cell_angle_beta 90.000000
_cell_angle_gamma 90.000000
_cell_volume 2240.844563
_symmetry_space_group_name_H-M "I M A 2"
_symmetry_group_IT_number 46
_symmetry_cell_setting 'orthorhombic'
loop_
_space_group_symop_operation_xyz
x,y,z
-x,-y,z
1/2-x,y,z
1/2+x,-y,z
1/2+x,1/2+y,1/2+z
1/2-x,1/2-y,1/2+z
-x,1/2+y,1/2+z
x,1/2-y,1/2+z
loop_
_atom_site_type_symbol
_atom_site_label
_atom_site_fract_x
_atom_site_fract_y
_atom_site_fract_z
Si Si1 0.154928 0.116938 0.066820
Si Si2 0.750000 0.706335 0.781380
Si Si3 0.055662 0.435597 0.072572
Si Si4 0.907583 0.748309 0.817857
Si Si5 0.843317 0.398613 0.014599
Si Si6 0.750000 0.939685 0.614914
Si Si7 0.312464 0.639827 0.642794
O O1 0.201810 0.158498 0.178564
O O2 0.103757 0.147724 0.176732
O O3 0.162834 0.970158 0.030759
O O4 0.146872 0.200582 0.903742
O O5 0.750000 0.858121 0.781828
O O6 0.750000 0.656531 0.964091
O O7 0.064493 0.372816 0.249290
O O8 0.000000 0.500000 0.071100
O O9 0.054906 0.323149 0.943090
O O10 0.100050 0.537453 0.029027
O O11 0.801988 0.478074 0.118273
O O12 0.823128 0.393386 0.829970
O O13 0.844602 0.261807 0.092056
O O14 0.250000 0.656439 0.611802
#
# Coordination Sequence:
#
# PCOD8193251 Si02
#       7
#     8   4   8   8   8   4   8
#     4  11  20  39  64  95 132 173 218 270 335 395
#     4  12  20  33  63  91 129 168 214 265 325 401
#     4  11  25  48  72  98 134 172 233 290 344 402
#     4  10  23  44  68  96 129 172 222 288 338 398
#     4  12  25  43  64  94 139 181 220 282 338 410
#     4  12  22  41  59  97 133 170 220 269 343 401
#     4  12  23  43  63  97 142 182 225 273 341 417
#
# _framework density 21.420496
#
# number of rings (size 3 to 8) (size 9 to 14) (size 15 to 20)
#    0.000    0.667    5.833    3.000    2.333    1.333 
#    0.000    1.667    0.000    0.000    0.000    0.000 
#    0.000    0.000    0.000    0.000    0.000    0.000 
#
# Total GULP energy -297540.368959 kJ/mol
# GULP energy per Si atom -12397.515373 kJ/mol
# Density = 2.137174 g / cm^3
# Si number density = 21.420496 Si / 1000 Ang^3
#
#
#
# Elastic Constant Matrix: (Units=GPa)
#
#
# Indices 1 2 3 4 5 6 
#
# 1 113.1676 47.3986 16.2323 0.0000 0.0000 0.0000
# 2 47.3986 160.3323 37.4756 0.0000 0.0000 0.0000
# 3 16.2323 37.4756 48.5752 0.0000 0.0000 0.0000
# 4 0.0000 0.0000 0.0000 43.4545 0.0000 0.0000
# 5 0.0000 0.0000 0.0000 0.0000 18.1227 0.0000
# 6 0.0000 0.0000 0.0000 0.0000 0.0000 44.1175
#
#
#
# Elastic Compliance Matrix: (Units=1/GPa)
#
#
# Indices 1 2 3 4 5 6 
#
# 1 0.010153 -0.002694 -0.001314 0.000000 0.000000 0.000000
# 2 -0.002694 0.008324 -0.005522 0.000000 0.000000 0.000000
# 3 -0.001314 -0.005522 0.025286 0.000000 0.000000 0.000000
# 4 0.000000 0.000000 0.000000 0.023013 0.000000 0.000000
# 5 0.000000 0.000000 0.000000 0.000000 0.055179 0.000000
# 6 0.000000 0.000000 0.000000 0.000000 0.000000 0.022667
#
#
# Mechanical properties :
#
#
# Convention : Reuss Voigt Hill
#
# Bulk Modulus (GPa) = 40.48137 58.25424 49.36781
# Shear Modulus (GPa) = 29.08376 35.87018 32.47697
#
# Velocity S-wave (km/s) = 3.68877 4.09659 3.89802
# Velocity P-wave (km/s) = 6.08951 7.04491 6.58456
#
# Compressibility (1/GPa) = 0.02470272
#
# Stress axis : x y z
#
# Youngs Moduli (GPa) = 98.48822 120.13123 39.54796
#
# Poissons Ratio (x) = 0.32369 0.05197
# Poissons Ratio (y) = 0.26537 0.21837
# Poissons Ratio (z) = 0.12943 0.66333
#
# Static dielectric constant tensor:
#      x y z
#    x 3.644700 0.000000 0.000000 
#    y 0.000000 4.460300 0.000000 
#    z 0.000000 0.000000 4.101340 
# 
# 
# High freq. dielectric constant tensor:
#      x y z
#    x 1.809310 0.000000 0.000000 
#    y 0.000000 1.858710 0.000000 
#    z 0.000000 0.000000 1.848300 
# 
# From -- ./inp_files/7845.got.cif
#   From: 2010.03.12/outbox.cif.g09.slc.cpg/sg46_4_cif.got.tgz:7845.got - 2010.04.14 02:56:35.
