data_PCOD8193795
_publ_section_title
;
Structure prediction by ZEFSAII (Michael W. Deem and Ramdas Pophale) SiO2 
 PCOD8193795
Probable space group: P M M M
;
_chemical_formula_sum "Si O2"
_cell_formula_units_Z 52
_cell_length_a 17.702656
_cell_length_b 18.823553
_cell_length_c 9.097265
_cell_angle_alpha 90.000000
_cell_angle_beta 90.000000
_cell_angle_gamma 90.000000
_cell_volume 3031.453264
_symmetry_space_group_name_H-M "P M M M"
_symmetry_group_IT_number 47
_symmetry_cell_setting 'orthorhombic'
loop_
_space_group_symop_operation_xyz
x,y,z
-x,-y,z
x,-y,-z
-x,y,-z
-x,-y,-z
x,y,-z
-x,y,z
x,-y,z
loop_
_atom_site_type_symbol
_atom_site_label
_atom_site_fract_x
_atom_site_fract_y
_atom_site_fract_z
Si Si1 0.121187 0.825483 0.675616
Si Si2 0.416457 0.725122 0.826791
Si Si3 0.786960 0.377600 0.335644
Si Si4 0.279836 0.779364 0.662654
Si Si5 0.648740 0.577197 0.169039
Si Si6 0.915343 0.681807 0.833305
Si Si7 0.000000 0.083973 0.831119
O O1 0.110066 0.825654 0.500000
O O2 0.211409 0.831417 0.714886
O O3 0.086430 0.753716 0.739799
O O4 0.075913 0.890120 0.748990
O O5 0.500000 0.746373 0.769518
O O6 0.354270 0.780142 0.764422
O O7 0.402560 0.643095 0.776275
O O8 0.412489 0.731349 0.000000
O O9 0.803751 0.404876 0.500000
O O10 0.755594 0.298223 0.337106
O O11 0.725629 0.428148 0.261114
O O12 0.863497 0.378694 0.240604
O O13 0.306853 0.801044 0.500000
O O14 0.607491 0.500000 0.188280
O O15 0.670436 0.590320 0.000000
O O16 0.000000 0.651728 0.832853
O O17 0.887688 0.697061 0.000000
O O18 0.000000 0.000000 0.824445
O O19 0.000000 0.111318 0.000000
#
# Coordination Sequence:
#
# PCOD8193795 Si02
#       7
#     8   8   8   8   8   8   4
#     4  10  19  31  48  68  93 125 163 198 227 266
#     4   9  17  28  43  66  93 119 149 187 232 281
#     4   9  17  28  42  60  82 108 142 185 229 274
#     4   8  16  29  44  64  87 116 151 188 231 274
#     4   9  17  29  44  60  81 113 149 184 226 278
#     4  10  18  27  43  66  89 111 141 183 231 278
#     4  11  23  35  47  69 103 139 170 197 226 261
#
# _framework density 17.153489
#
# number of rings (size 3 to 8) (size 9 to 14) (size 15 to 20)
#    0.000    2.692    0.769    2.538    0.000    6.769 
#    0.000    1.538    0.000    0.462    0.000    7.538 
#    0.000    0.615    0.000    6.769    0.000    4.923 
#
# Total GULP energy -644384.973020 kJ/mol
# GULP energy per Si atom -12392.018712 kJ/mol
# Density = 1.711445 g / cm^3
# Si number density = 17.153489 Si / 1000 Ang^3
#
#
#
# Elastic Constant Matrix: (Units=GPa)
#
#
# Indices 1 2 3 4 5 6 
#
# 1 137.3950 28.3951 56.2486 0.0000 0.0000 0.0000
# 2 28.3951 33.0562 18.2975 0.0000 0.0000 0.0000
# 3 56.2486 18.2975 92.3787 0.0000 0.0000 0.0000
# 4 0.0000 0.0000 0.0000 13.8627 0.0000 0.0000
# 5 0.0000 0.0000 0.0000 0.0000 26.0711 0.0000
# 6 0.0000 0.0000 0.0000 0.0000 0.0000 14.7682
#
#
#
# Elastic Compliance Matrix: (Units=1/GPa)
#
#
# Indices 1 2 3 4 5 6 
#
# 1 0.010749 -0.006301 -0.005297 0.000000 0.000000 0.000000
# 2 -0.006301 0.037671 -0.003625 0.000000 0.000000 0.000000
# 3 -0.005297 -0.003625 0.014768 0.000000 0.000000 0.000000
# 4 0.000000 0.000000 0.000000 0.072136 0.000000 0.000000
# 5 0.000000 0.000000 0.000000 0.000000 0.038357 0.000000
# 6 0.000000 0.000000 0.000000 0.000000 0.000000 0.067713
#
#
# Mechanical properties :
#
#
# Convention : Reuss Voigt Hill
#
# Bulk Modulus (GPa) = 30.54164 52.07914 41.31039
# Shear Modulus (GPa) = 17.68325 21.59966 19.64145
#
# Velocity S-wave (km/s) = 3.21422 3.55237 3.38752
# Velocity P-wave (km/s) = 5.62303 6.87403 6.27976
#
# Compressibility (1/GPa) = 0.03274218
#
# Stress axis : x y z
#
# Youngs Moduli (GPa) = 93.03091 26.54580 67.71324
#
# Poissons Ratio (x) = 0.16728 0.35867
# Poissons Ratio (y) = 0.58623 0.24543
# Poissons Ratio (z) = 0.49278 0.09622
#
# Static dielectric constant tensor:
#      x y z
#    x 3.471440 0.000000 0.000000 
#    y 0.000000 2.759680 0.000000 
#    z 0.000000 0.000000 3.379800 
# 
# 
# High freq. dielectric constant tensor:
#      x y z
#    x 1.661530 0.000000 0.000000 
#    y 0.000000 1.600860 0.000000 
#    z 0.000000 0.000000 1.671160 
# 
# From -- ./inp_files/9543.got.cif
#   From: 2010.03.12/outbox.cif.g09.slc.cpg/sg47_5_cif.got.tgz:9543.got - 2010.04.14 03:12:58.
