data_PCOD8193354
_publ_section_title
;
Structure prediction by ZEFSAII (Michael W. Deem and Ramdas Pophale) SiO2 
 PCOD8193354
Probable space group: I M A 2
;
_chemical_formula_sum "Si O2"
_cell_formula_units_Z 56
_cell_length_a 20.571157
_cell_length_b 8.036994
_cell_length_c 15.674864
_cell_angle_alpha 90.000000
_cell_angle_beta 90.000000
_cell_angle_gamma 90.000000
_cell_volume 2591.529425
_symmetry_space_group_name_H-M "I M A 2"
_symmetry_group_IT_number 46
_symmetry_cell_setting 'orthorhombic'
loop_
_space_group_symop_operation_xyz
x,y,z
-x,-y,z
1/2-x,y,z
1/2+x,-y,z
1/2+x,1/2+y,1/2+z
1/2-x,1/2-y,1/2+z
-x,1/2+y,1/2+z
x,1/2-y,1/2+z
loop_
_atom_site_type_symbol
_atom_site_label
_atom_site_fract_x
_atom_site_fract_y
_atom_site_fract_z
Si Si1 0.325679 0.563149 0.329810
Si Si2 0.679674 0.431023 0.862502
Si Si3 0.441647 0.119846 0.748225
Si Si4 0.821286 0.130237 0.560529
Si Si5 0.444251 0.134765 0.393746
Si Si6 0.896165 0.798675 0.576954
Si Si7 0.173499 0.980653 0.022006
O O1 0.250000 0.511975 0.316532
O O2 0.335161 0.760368 0.311942
O O3 0.372021 0.469053 0.263453
O O4 0.351098 0.512549 0.424269
O O5 0.750000 0.505275 0.831767
O O6 0.623214 0.566712 0.853210
O O7 0.687056 0.382472 0.959984
O O8 0.465393 0.218747 0.831448
O O9 0.436483 0.235661 0.663320
O O10 0.500000 0.000000 0.725986
O O11 0.750000 0.116343 0.604679
O O12 0.852888 0.315872 0.573277
O O13 0.865471 0.980811 0.593500
O O14 0.438666 0.199910 0.490748
O O15 0.500000 0.000000 0.392808
O O16 0.844482 0.650002 0.570105
O O17 0.250000 0.960783 0.020240
#
# Coordination Sequence:
#
# PCOD8193354 Si02
#       7
#     8   8   8   8   8   8   8
#     4   9  18  37  65  95 128 167 212 266 327 387
#     4   8  16  34  63  93 122 160 208 259 316 381
#     4  12  26  43  62  93 133 168 217 272 328 395
#     4   8  16  32  59  93 128 164 203 260 320 376
#     4  11  23  43  66  88 124 170 216 265 326 382
#     4  11  22  40  65  91 124 172 219 265 321 392
#     4   9  17  35  64  97 130 166 214 263 320 390
#
# _framework density 21.608862999999999
#
# number of rings (size 3 to 8) (size 9 to 14) (size 15 to 20)
#    0.000    2.286    1.429    3.429    0.000    2.286 
#    5.143    0.714    0.000    0.000    0.000    0.000 
#    0.000    0.000    0.000    0.000    0.000    0.000 
#
# Total GULP energy -346978.662391 kJ/mol
# GULP energy per Si atom -12392.095085 kJ/mol
# Density = 2.155968 g / cm^3
# Si number density = 21.608863 Si / 1000 Ang^3
#
#
#
# Elastic Constant Matrix: (Units=GPa)
#
#
# Indices 1 2 3 4 5 6 
#
# 1 57.2107 8.1805 14.3308 0.0000 0.0000 0.0000
# 2 8.1805 85.8183 26.7705 0.0000 0.0000 0.0000
# 3 14.3308 26.7705 101.8378 0.0000 0.0000 0.0000
# 4 0.0000 0.0000 0.0000 15.3251 0.0000 0.0000
# 5 0.0000 0.0000 0.0000 0.0000 12.0142 0.0000
# 6 0.0000 0.0000 0.0000 0.0000 0.0000 26.6791
#
#
#
# Elastic Compliance Matrix: (Units=1/GPa)
#
#
# Indices 1 2 3 4 5 6 
#
# 1 0.018199 -0.001020 -0.002293 0.000000 0.000000 0.000000
# 2 -0.001020 0.012751 -0.003208 0.000000 0.000000 0.000000
# 3 -0.002293 -0.003208 0.010986 0.000000 0.000000 0.000000
# 4 0.000000 0.000000 0.000000 0.065252 0.000000 0.000000
# 5 0.000000 0.000000 0.000000 0.000000 0.083235 0.000000
# 6 0.000000 0.000000 0.000000 0.000000 0.000000 0.037483
#
#
# Mechanical properties :
#
#
# Convention : Reuss Voigt Hill
#
# Bulk Modulus (GPa) = 34.60954 38.15894 36.38424
# Shear Modulus (GPa) = 19.95386 23.84269 21.89827
#
# Velocity S-wave (km/s) = 3.04206 3.32531 3.18684
# Velocity P-wave (km/s) = 5.32823 5.69569 5.51502
#
# Compressibility (1/GPa) = 0.02889377
#
# Stress axis : x y z
#
# Youngs Moduli (GPa) = 54.94684 78.42813 91.02827
#
# Poissons Ratio (x) = 0.07996 0.20873
# Poissons Ratio (y) = 0.05602 0.29205
# Poissons Ratio (z) = 0.12600 0.25162
#
# Static dielectric constant tensor:
#      x y z
#    x 3.972900 0.000000 0.000000 
#    y 0.000000 4.281660 0.000000 
#    z 0.000000 0.000000 3.793450 
# 
# 
# High freq. dielectric constant tensor:
#      x y z
#    x 1.832330 0.000000 0.000000 
#    y 0.000000 1.848840 0.000000 
#    z 0.000000 0.000000 1.834830 
# 
# From -- ./inp_files/17100.got.cif
#   From: 2010.03.12/outbox.cif.g09.slc.cpg/sg46_9_cif.got.tgz:17100.got - 2010.04.14 02:56:35.
