data_PCOD8193338
_publ_section_title
;
Structure prediction by ZEFSAII (Michael W. Deem and Ramdas Pophale) SiO2 
 PCOD8193338
Probable space group: I M A 2
;
_chemical_formula_sum "Si O2"
_cell_formula_units_Z 40
_cell_length_a 12.445162
_cell_length_b 18.333910
_cell_length_c 8.837587
_cell_angle_alpha 90.000000
_cell_angle_beta 90.000000
_cell_angle_gamma 90.000000
_cell_volume 2016.458793
_symmetry_space_group_name_H-M "I M A 2"
_symmetry_group_IT_number 46
_symmetry_cell_setting 'orthorhombic'
loop_
_space_group_symop_operation_xyz
x,y,z
-x,-y,z
1/2-x,y,z
1/2+x,-y,z
1/2+x,1/2+y,1/2+z
1/2-x,1/2-y,1/2+z
-x,1/2+y,1/2+z
x,1/2-y,1/2+z
loop_
_atom_site_type_symbol
_atom_site_label
_atom_site_fract_x
_atom_site_fract_y
_atom_site_fract_z
Si Si1 0.873678 0.310864 0.588530
Si Si2 0.525277 0.418171 0.825247
Si Si3 0.122931 0.378774 0.069336
Si Si4 0.948611 0.176978 0.763911
Si Si5 0.871541 0.039499 0.620261
O O1 0.750000 0.329694 0.547620
O O2 0.926189 0.374899 0.685927
O O3 0.874328 0.234859 0.677350
O O4 0.948291 0.302411 0.440011
O O5 0.500000 0.500000 0.767468
O O6 0.420666 0.374816 0.895359
O O7 0.612751 0.420473 0.959385
O O8 0.250000 0.367195 0.072874
O O9 0.073591 0.458416 0.124242
O O10 0.067889 0.321651 0.186087
O O11 0.899919 0.095571 0.753478
O O12 0.750000 0.015475 0.637825
#
# Coordination Sequence:
#
# PCOD8193338 Si02
#       5
#     8   8   8   8   8
#     4  12  24  38  57  82 112 145 180 229 283 327
#     4   9  19  35  57  84 112 141 180 224 270 329
#     4   9  19  37  60  82 111 149 185 221 267 322
#     4  11  22  36  54  82 113 146 186 228 271 326
#     4   9  16  32  58  84 110 145 183 224 273 324
#
# _framework density 19.836756999999999
#
# number of rings (size 3 to 8) (size 9 to 14) (size 15 to 20)
#    0.000    2.000    0.000    6.600    0.000    2.400 
#    0.000    5.000    0.000    0.000    0.000    0.000 
#    0.000    0.000    0.000    0.000    0.000    0.000 
#
# Total GULP energy -247858.188163 kJ/mol
# GULP energy per Si atom -12392.909408 kJ/mol
# Density = 1.979161 g / cm^3
# Si number density = 19.836757 Si / 1000 Ang^3
#
#
#
# Elastic Constant Matrix: (Units=GPa)
#
#
# Indices 1 2 3 4 5 6 
#
# 1 104.6060 23.9233 40.2129 0.0000 0.0000 0.0000
# 2 23.9233 62.7932 35.7824 0.0000 0.0000 0.0000
# 3 40.2129 35.7824 117.1524 0.0001 0.0000 0.0000
# 4 0.0000 0.0000 0.0001 35.1757 0.0000 0.0000
# 5 0.0000 0.0000 0.0000 0.0000 23.7566 0.0000
# 6 0.0000 0.0000 0.0000 0.0000 0.0000 27.8828
#
#
#
# Elastic Compliance Matrix: (Units=1/GPa)
#
#
# Indices 1 2 3 4 5 6 
#
# 1 0.011339 -0.002545 -0.003115 0.000000 0.000000 0.000000
# 2 -0.002545 0.019852 -0.005190 0.000000 0.000000 0.000000
# 3 -0.003115 -0.005190 0.011190 0.000000 0.000000 0.000000
# 4 0.000000 0.000000 0.000000 0.028429 0.000000 0.000000
# 5 0.000000 0.000000 0.000000 0.000000 0.042094 0.000000
# 6 0.000000 0.000000 0.000000 0.000000 0.000000 0.035864
#
#
# Mechanical properties :
#
#
# Convention : Reuss Voigt Hill
#
# Bulk Modulus (GPa) = 48.35124 53.82097 51.08611
# Shear Modulus (GPa) = 28.19087 29.67188 28.93137
#
# Velocity S-wave (km/s) = 3.77389 3.87176 3.82314
# Velocity P-wave (km/s) = 6.58917 6.86864 6.73036
#
# Compressibility (1/GPa) = 0.02068199
#
# Stress axis : x y z
#
# Youngs Moduli (GPa) = 88.18996 50.37171 89.36337
#
# Poissons Ratio (x) = 0.12820 0.27835
# Poissons Ratio (y) = 0.22445 0.46380
# Poissons Ratio (z) = 0.27470 0.26143
#
# Static dielectric constant tensor:
#      x y z
#    x 3.668280 0.000000 0.000000 
#    y 0.000000 3.625040 0.000000 
#    z 0.000000 0.000000 3.344490 
# 
# 
# High freq. dielectric constant tensor:
#      x y z
#    x 1.778650 0.000000 0.000000 
#    y 0.000000 1.776790 0.000000 
#    z 0.000000 0.000000 1.748020 
# 
# From -- ./inp_files/5563.got.cif
#   From: 2010.03.12/outbox.cif.g09.slc.cpg/sg46_3_cif.got.tgz:5563.got - 2010.04.14 02:56:35.
