data_PCOD8193804
_publ_section_title
;
Structure prediction by ZEFSAII (Michael W. Deem and Ramdas Pophale) SiO2 
 PCOD8193804
Probable space group: P M M M
;
_chemical_formula_sum "Si O2"
_cell_formula_units_Z 64
_cell_length_a 14.484923
_cell_length_b 27.961603
_cell_length_c 9.061668
_cell_angle_alpha 90.000000
_cell_angle_beta 90.000000
_cell_angle_gamma 90.000000
_cell_volume 3670.171874
_symmetry_space_group_name_H-M "P M M M"
_symmetry_group_IT_number 47
_symmetry_cell_setting 'orthorhombic'
loop_
_space_group_symop_operation_xyz
x,y,z
-x,-y,z
x,-y,-z
-x,y,-z
-x,-y,-z
x,y,-z
-x,y,z
x,-y,z
loop_
_atom_site_type_symbol
_atom_site_label
_atom_site_fract_x
_atom_site_fract_y
_atom_site_fract_z
Si Si1 0.894709 0.167565 0.328213
Si Si2 0.895796 0.447272 0.824614
Si Si3 0.602814 0.687799 0.830558
Si Si4 0.721485 0.133190 0.174595
Si Si5 0.394346 0.944424 0.330877
Si Si6 0.607107 0.785296 0.330398
Si Si7 0.785238 0.358469 0.828621
Si Si8 0.894755 0.722419 0.670242
O O1 0.882183 0.155719 0.500000
O O2 0.826470 0.134354 0.233861
O O3 0.869062 0.222722 0.297214
O O4 0.000000 0.157055 0.279498
O O5 0.867956 0.500000 0.763908
O O6 0.826750 0.407135 0.757346
O O7 0.000000 0.434635 0.774496
O O8 0.889931 0.448279 0.000000
O O9 0.500000 0.668159 0.796733
O O10 0.626956 0.732135 0.726366
O O11 0.675123 0.644875 0.798901
O O12 0.610738 0.705136 0.000000
O O13 0.674127 0.084213 0.225616
O O14 0.665235 0.177859 0.236083
O O15 0.722460 0.135306 0.000000
O O16 0.378929 0.928345 0.500000
O O17 0.500000 0.933908 0.285116
O O18 0.371481 0.000000 0.311595
O O19 0.638909 0.788143 0.500000
O O20 0.500000 0.798623 0.312520
O O21 0.830182 0.310847 0.766047
O O22 0.808734 0.359193 0.000000
O O23 0.878836 0.710273 0.500000
O O24 0.000000 0.712588 0.715516
#
# Coordination Sequence:
#
# PCOD8193804 Si02
#       8
#     8   8   8   8   8   8   8   8
#     4   9  19  36  54  70  94 132 173 207 238 278
#     4   8  14  25  41  62  87 112 142 185 232 276
#     4   9  18  31  44  62  92 123 150 189 241 285
#     4  12  23  32  49  77 106 134 162 197 245 294
#     4   9  19  37  59  80 102 130 165 203 241 285
#     4  10  20  33  49  69  95 129 168 203 232 274
#     4  10  18  27  44  67  87 115 155 191 226 275
#     4   9  18  31  46  67  95 123 150 186 234 280
#
# _framework density 17.437875999999999
#
# number of rings (size 3 to 8) (size 9 to 14) (size 15 to 20)
#    0.000    2.500    0.000    4.500    0.000    6.750 
#    0.000    1.875    0.000    1.125    0.000    7.000 
#    0.000    0.000    0.000    4.250    0.000    4.625 
#
# Total GULP energy -793493.529014 kJ/mol
# GULP energy per Si atom -12398.336391 kJ/mol
# Density = 1.739819 g / cm^3
# Si number density = 17.437876 Si / 1000 Ang^3
#
#
#
# Elastic Constant Matrix: (Units=GPa)
#
#
# Indices 1 2 3 4 5 6 
#
# 1 109.0895 71.4600 51.2061 0.0000 0.0000 0.0000
# 2 71.4600 84.6050 42.1395 0.0000 0.0000 0.0000
# 3 51.2061 42.1395 75.3841 0.0000 0.0000 0.0000
# 4 0.0000 0.0000 0.0000 15.4549 0.0000 0.0000
# 5 0.0000 0.0000 0.0000 0.0000 21.5024 0.0000
# 6 0.0000 0.0000 0.0000 0.0000 0.0000 30.0925
#
#
#
# Elastic Compliance Matrix: (Units=1/GPa)
#
#
# Indices 1 2 3 4 5 6 
#
# 1 0.022599 -0.015857 -0.006487 0.000000 0.000000 0.000000
# 2 -0.015857 0.027506 -0.004605 0.000000 0.000000 0.000000
# 3 -0.006487 -0.004605 0.020246 0.000000 0.000000 0.000000
# 4 0.000000 0.000000 0.000000 0.064704 0.000000 0.000000
# 5 0.000000 0.000000 0.000000 0.000000 0.046506 0.000000
# 6 0.000000 0.000000 0.000000 0.000000 0.000000 0.033231
#
#
# Mechanical properties :
#
#
# Convention : Reuss Voigt Hill
#
# Bulk Modulus (GPa) = 60.77562 66.52108 63.64835
# Shear Modulus (GPa) = 18.23660 20.36149 19.29904
#
# Velocity S-wave (km/s) = 3.23740 3.42081 3.33037
# Velocity P-wave (km/s) = 6.99304 7.33709 7.16713
#
# Compressibility (1/GPa) = 0.01645397
#
# Stress axis : x y z
#
# Youngs Moduli (GPa) = 44.25042 36.35535 49.39289
#
# Poissons Ratio (x) = 0.57647 0.32040
# Poissons Ratio (y) = 0.70166 0.22745
# Poissons Ratio (z) = 0.28704 0.16742
#
# Static dielectric constant tensor:
#      x y z
#    x 3.456050 0.000000 0.000000 
#    y 0.000000 3.254300 0.000000 
#    z 0.000000 0.000000 3.077000 
# 
# 
# High freq. dielectric constant tensor:
#      x y z
#    x 1.680060 0.000000 0.000000 
#    y 0.000000 1.654160 0.000000 
#    z 0.000000 0.000000 1.657250 
# 
# From -- ./inp_files/8199.got.cif
#   From: 2010.03.12/outbox.cif.g09.slc.cpg/sg47_5_cif.got.tgz:8199.got - 2010.04.14 03:12:58.
