data_PCOD8193158
_publ_section_title
;
Structure prediction by ZEFSAII (Michael W. Deem and Ramdas Pophale) SiO2 
 PCOD8193158
Probable space group: I M A 2
;
_chemical_formula_sum "Si O2"
_cell_formula_units_Z 48
_cell_length_a 20.637015
_cell_length_b 11.249969
_cell_length_c 9.340720
_cell_angle_alpha 90.000000
_cell_angle_beta 90.000000
_cell_angle_gamma 90.000000
_cell_volume 2168.595535
_symmetry_space_group_name_H-M "I M A 2"
_symmetry_group_IT_number 46
_symmetry_cell_setting 'orthorhombic'
loop_
_space_group_symop_operation_xyz
x,y,z
-x,-y,z
1/2-x,y,z
1/2+x,-y,z
1/2+x,1/2+y,1/2+z
1/2-x,1/2-y,1/2+z
-x,1/2+y,1/2+z
x,1/2-y,1/2+z
loop_
_atom_site_type_symbol
_atom_site_label
_atom_site_fract_x
_atom_site_fract_y
_atom_site_fract_z
Si Si1 0.675178 0.613413 0.477550
Si Si2 0.678410 0.135446 0.859860
Si Si3 0.486276 0.137406 0.709392
Si Si4 0.080049 0.299106 0.928701
Si Si5 0.074180 0.488486 0.698199
Si Si6 0.112594 0.737883 0.626178
O O1 0.750000 0.622437 0.532000
O O2 0.667929 0.507139 0.361737
O O3 0.651711 0.738889 0.410689
O O4 0.621748 0.589095 0.599484
O O5 0.750000 0.165455 0.914861
O O6 0.668950 0.183611 0.699566
O O7 0.628601 0.202697 0.963820
O O8 0.471478 0.205547 0.858474
O O9 0.430219 0.168775 0.595542
O O10 0.548753 0.184839 0.627299
O O11 0.500000 0.000000 0.745227
O O12 0.074413 0.425357 0.851295
O O13 0.104119 0.618302 0.718980
O O14 0.000000 0.500000 0.638438
#
# Coordination Sequence:
#
# PCOD8193158 Si02
#       6
#     8   8   8   8   8   8
#     4  10  23  44  68  94 135 185 228 273 344 419
#     4  10  22  40  63  91 126 171 224 272 329 404
#     4  12  26  40  67 100 135 172 224 283 352 408
#     4  12  23  44  64  98 137 171 222 286 338 417
#     4  11  22  42  68  97 132 177 227 279 342 407
#     4  11  22  39  65  93 127 170 213 278 338 397
#
# _framework density 22.134141
#
# number of rings (size 3 to 8) (size 9 to 14) (size 15 to 20)
#    0.000    1.000    3.333    3.000    2.333    4.667 
#    0.000    0.000    0.000    0.000    0.000    0.000 
#    0.000    0.000    0.000    0.000    0.000    0.000 
#
# Total GULP energy -297472.819077 kJ/mol
# GULP energy per Si atom -12394.700795 kJ/mol
# Density = 2.208376 g / cm^3
# Si number density = 22.134141 Si / 1000 Ang^3
#
#
#
# Elastic Constant Matrix: (Units=GPa)
#
#
# Indices 1 2 3 4 5 6 
#
# 1 106.0950 1.1111 0.1221 0.0000 0.0000 0.0000
# 2 1.1111 70.1944 5.7133 0.0000 0.0000 0.0000
# 3 0.1221 5.7133 41.7368 0.0000 0.0000 0.0000
# 4 0.0000 0.0000 0.0000 23.1921 0.0000 0.0000
# 5 0.0000 0.0000 0.0000 0.0000 16.2812 0.0000
# 6 0.0000 0.0000 0.0000 0.0000 0.0000 35.5041
#
#
#
# Elastic Compliance Matrix: (Units=1/GPa)
#
#
# Indices 1 2 3 4 5 6 
#
# 1 0.009427 -0.000149 -0.000007 0.000000 0.000000 0.000000
# 2 -0.000149 0.014409 -0.001972 0.000000 0.000000 0.000000
# 3 -0.000007 -0.001972 0.024230 0.000000 0.000000 0.000000
# 4 0.000000 0.000000 0.000000 0.043118 0.000000 0.000000
# 5 0.000000 0.000000 0.000000 0.000000 0.061421 0.000000
# 6 0.000000 0.000000 0.000000 0.000000 0.000000 0.028166
#
#
# Mechanical properties :
#
#
# Convention : Reuss Voigt Hill
#
# Bulk Modulus (GPa) = 22.82584 25.76881 24.29732
# Shear Modulus (GPa) = 25.04644 29.06747 27.05695
#
# Velocity S-wave (km/s) = 3.36754 3.62780 3.50009
# Velocity P-wave (km/s) = 5.04533 5.40512 5.22832
#
# Compressibility (1/GPa) = 0.04381000
#
# Stress axis : x y z
#
# Youngs Moduli (GPa) = 106.07743 69.40098 41.27174
#
# Poissons Ratio (x) = 0.01032 0.00030
# Poissons Ratio (y) = 0.01577 0.08139
# Poissons Ratio (z) = 0.00077 0.13686
#
# Static dielectric constant tensor:
#      x y z
#    x 4.068430 0.000000 0.000000 
#    y 0.000000 4.265120 0.000000 
#    z 0.000000 0.000000 3.757200 
# 
# 
# High freq. dielectric constant tensor:
#      x y z
#    x 1.867370 0.000000 0.000000 
#    y 0.000000 1.886760 0.000000 
#    z 0.000000 0.000000 1.850150 
# 
# From -- ./inp_files/7834.got.cif
#   From: 2010.03.12/outbox.cif.g09.slc.cpg/sg46_4_cif.got.tgz:7834.got - 2010.04.14 02:56:35.
