data_PCOD8193687
_publ_section_title
;
Structure prediction by ZEFSAII (Michael W. Deem and Ramdas Pophale) SiO2 
 PCOD8193687
Probable space group: P M M M
;
_chemical_formula_sum "Si O2"
_cell_formula_units_Z 40
_cell_length_a 8.667056
_cell_length_b 20.707499
_cell_length_c 11.990548
_cell_angle_alpha 90.000000
_cell_angle_beta 90.000000
_cell_angle_gamma 90.000000
_cell_volume 2151.980262
_symmetry_space_group_name_H-M "P M M M"
_symmetry_group_IT_number 47
_symmetry_cell_setting 'orthorhombic'
loop_
_space_group_symop_operation_xyz
x,y,z
-x,-y,z
x,-y,-z
-x,y,-z
-x,-y,-z
x,y,-z
-x,y,z
x,-y,z
loop_
_atom_site_type_symbol
_atom_site_label
_atom_site_fract_x
_atom_site_fract_y
_atom_site_fract_z
Si Si1 0.183859 0.810679 0.374685
Si Si2 0.318274 0.273363 0.000000
Si Si3 0.183294 0.428402 0.375244
Si Si4 0.816284 0.310409 0.770015
Si Si5 0.182333 0.867972 0.000000
Si Si6 0.816760 0.928578 0.230922
O O1 0.249664 0.804566 0.500000
O O2 0.243474 0.751112 0.300502
O O3 0.247034 0.877307 0.320957
O O4 0.000000 0.810654 0.376681
O O5 0.253817 0.310146 0.107465
O O6 0.266311 0.199845 0.000000
O O7 0.500000 0.277432 0.000000
O O8 0.245361 0.413841 0.500000
O O9 0.237518 0.500000 0.336918
O O10 0.247342 0.374813 0.290428
O O11 0.000000 0.424962 0.377304
O O12 0.000000 0.309488 0.778799
O O13 0.235801 0.908137 0.892565
O O14 0.000000 0.854375 0.000000
O O15 0.000000 0.929934 0.235815
O O16 0.750318 0.000000 0.257806
#
# Coordination Sequence:
#
# PCOD8193687 Si02
#       6
#     8   4   8   8   4   8
#     4   9  16  25  42  71 101 127 159 198 240 287
#     4  12  24  35  50  72  98 128 166 214 257 289
#     4   8  14  26  49  83 114 133 156 198 246 287
#     4  10  18  32  53  75 100 132 166 200 242 294
#     4  10  17  32  52  71  93 125 168 209 248 296
#     4   9  16  25  42  70 101 128 157 199 246 291
#
# _framework density 18.587530999999998
#
# number of rings (size 3 to 8) (size 9 to 14) (size 15 to 20)
#    0.000    2.600    2.000    2.400    0.000    4.000 
#    0.000    2.500    0.000    7.200    0.000    1.400 
#    0.000    1.600    0.000    0.000    0.000    0.000 
#
# Total GULP energy -495867.819977 kJ/mol
# GULP energy per Si atom -12396.695499 kJ/mol
# Density = 1.854522 g / cm^3
# Si number density = 18.587531 Si / 1000 Ang^3
#
#
#
# Elastic Constant Matrix: (Units=GPa)
#
#
# Indices 1 2 3 4 5 6 
#
# 1 20.3994 19.5599 19.7402 0.0000 0.0000 0.0000
# 2 19.5599 183.0937 99.5666 0.0000 0.0000 0.0000
# 3 19.7402 99.5666 171.7874 0.0000 0.0000 0.0000
# 4 0.0000 0.0000 0.0000 42.6873 0.0000 0.0000
# 5 0.0000 0.0000 0.0000 0.0000 -0.0404 0.0000
# 6 0.0000 0.0000 0.0000 0.0000 0.0000 2.5922
#
#
#
# Elastic Compliance Matrix: (Units=1/GPa)
#
#
# Indices 1 2 3 4 5 6 
#
# 1 0.056801 -0.003678 -0.004395 0.000000 0.000000 0.000000
# 2 -0.003678 0.008214 -0.004338 0.000000 0.000000 0.000000
# 3 -0.004395 -0.004338 0.008840 0.000000 0.000000 0.000000
# 4 0.000000 0.000000 0.000000 0.023426 0.000000 0.000000
# 5 0.000000 0.000000 0.000000 0.000000-24.725803 0.000000
# 6 0.000000 0.000000 0.000000 0.000000 0.000000 0.385771
#
#
# Mechanical properties :
#
#
# Convention : Reuss Voigt Hill
#
# Bulk Modulus (GPa) = 20.39454 72.55710 46.47582
# Shear Modulus (GPa) = -0.20660 24.80873 12.30107
#
# Velocity S-wave (km/s) = -0.33375 3.65731 2.57532
# Velocity P-wave (km/s) = 3.29355 7.54683 5.82246
#
# Compressibility (1/GPa) = 0.04903274
#
# Stress axis : x y z
#
# Youngs Moduli (GPa) = 17.60533 121.75038 113.11675
#
# Poissons Ratio (x) = 0.44777 0.49720
# Poissons Ratio (y) = 0.06475 0.49069
# Poissons Ratio (z) = 0.07738 0.52814
#
# Static dielectric constant tensor:
#      x y z
#    x 2.701140 0.000000 0.000000 
#    y 0.000000 3.779070 0.000000 
#    z 0.000000 0.000000 3.685840 
# 
# 
# High freq. dielectric constant tensor:
#      x y z
#    x 1.647800 0.000000 0.000000 
#    y 0.000000 1.732020 0.000000 
#    z 0.000000 0.000000 1.729070 
# 
# From -- ./inp_files/15129.got.cif
#   From: 2010.03.12/outbox.cif.g09.slc.cpg/sg47_8_cif.got.tgz:15129.got - 2010.04.14 03:12:58.
