data_PCOD8193725
_publ_section_title
;
Structure prediction by ZEFSAII (Michael W. Deem and Ramdas Pophale) SiO2 
 PCOD8193725
Probable space group: P M M M
;
_chemical_formula_sum "Si O2"
_cell_formula_units_Z 56
_cell_length_a 15.620604
_cell_length_b 18.056386
_cell_length_c 13.884520
_cell_angle_alpha 90.000000
_cell_angle_beta 90.000000
_cell_angle_gamma 90.000000
_cell_volume 3916.151850
_symmetry_space_group_name_H-M "P M M M"
_symmetry_group_IT_number 47
_symmetry_cell_setting 'orthorhombic'
loop_
_space_group_symop_operation_xyz
x,y,z
-x,-y,z
x,-y,-z
-x,y,-z
-x,-y,-z
x,y,-z
-x,y,z
x,-y,z
loop_
_atom_site_type_symbol
_atom_site_label
_atom_site_fract_x
_atom_site_fract_y
_atom_site_fract_z
Si Si1 0.359152 0.306657 0.386444
Si Si2 0.401184 0.847090 0.300092
Si Si3 0.904713 0.806370 0.385399
Si Si4 0.902333 0.500000 0.385477
Si Si5 0.168387 0.345912 0.386228
Si Si6 0.601071 0.082780 0.894944
Si Si7 0.500000 0.419536 0.613339
Si Si8 0.239063 0.082216 0.386778
O O1 0.367104 0.287378 0.500000
O O2 0.393260 0.238806 0.324031
O O3 0.264276 0.327302 0.355496
O O4 0.415340 0.376456 0.355283
O O5 0.500000 0.873180 0.317262
O O6 0.371575 0.860814 0.189455
O O7 0.336215 0.892601 0.366936
O O8 0.896984 0.806503 0.500000
O O9 0.889374 0.722320 0.347892
O O10 0.832517 0.861953 0.342238
O O11 0.000000 0.831645 0.352794
O O12 0.893203 0.500000 0.500000
O O13 0.859329 0.574701 0.341836
O O14 0.000000 0.500000 0.352638
O O15 0.159475 0.352027 0.500000
O O16 0.500000 0.079860 0.901026
O O17 0.635659 0.000000 0.871134
O O18 0.637065 0.108778 0.000000
O O19 0.500000 0.500000 0.663748
O O20 0.500000 0.429408 0.500000
O O21 0.226655 0.080637 0.500000
O O22 0.223896 0.000000 0.343877
#
# Coordination Sequence:
#
# PCOD8193725 Si02
#       8
#     8   8   8   4   8   8   4   8
#     4  10  18  27  38  55  80 112 143 171 200 235
#     4  11  19  28  43  60  81 109 138 165 205 248
#     4   9  16  27  41  52  68 101 139 171 204 237
#     4   9  16  24  36  55  73  93 132 178 211 247
#     4   9  16  25  37  52  73 100 131 169 211 242
#     4   8  15  28  44  61  80 101 128 166 210 252
#     4   9  18  28  38  52  74 109 150 178 194 221
#     4  10  20  30  38  54  80 108 141 176 201 230
#
# _framework density 14.299752
#
# number of rings (size 3 to 8) (size 9 to 14) (size 15 to 20)
#    0.000    2.571    2.143    1.714    1.000    3.714 
#    0.000    2.143    0.000    0.000    0.000    0.000 
#    0.000    1.714    0.000    3.000    0.000    1.000 
#
# Total GULP energy -693913.537376 kJ/mol
# GULP energy per Si atom -12391.313167 kJ/mol
# Density = 1.426720 g / cm^3
# Si number density = 14.299752 Si / 1000 Ang^3
#
#
#
# Elastic Constant Matrix: (Units=GPa)
#
#
# Indices 1 2 3 4 5 6 
#
# 1 93.2795 48.0946 9.1195 0.0000 0.0000 0.0000
# 2 48.0946 115.0574 21.6278 0.0000 0.0000 0.0000
# 3 9.1195 21.6278 26.5140 0.0000 0.0000 0.0000
# 4 0.0000 0.0000 0.0000 7.0607 0.0000 0.0000
# 5 0.0000 0.0000 0.0000 0.0000 3.6092 0.0000
# 6 0.0000 0.0000 0.0000 0.0000 0.0000 19.0590
#
#
#
# Elastic Compliance Matrix: (Units=1/GPa)
#
#
# Indices 1 2 3 4 5 6 
#
# 1 0.013666 -0.005703 -0.000048 0.000000 0.000000 0.000000
# 2 -0.005703 0.012646 -0.008353 0.000000 0.000000 0.000000
# 3 -0.000048 -0.008353 0.044546 0.000000 0.000000 0.000000
# 4 0.000000 0.000000 0.000000 0.141629 0.000000 0.000000
# 5 0.000000 0.000000 0.000000 0.000000 0.277070 0.000000
# 6 0.000000 0.000000 0.000000 0.000000 0.000000 0.052469
#
#
# Mechanical properties :
#
#
# Convention : Reuss Voigt Hill
#
# Bulk Modulus (GPa) = 23.44774 43.61496 33.53135
# Shear Modulus (GPa) = 8.55503 16.34638 12.45071
#
# Velocity S-wave (km/s) = 2.44860 3.38468 2.95395
# Velocity P-wave (km/s) = 4.94238 6.77063 5.92742
#
# Compressibility (1/GPa) = 0.04264804
#
# Stress axis : x y z
#
# Youngs Moduli (GPa) = 73.17548 79.07913 22.44849
#
# Poissons Ratio (x) = 0.45101 0.00108
# Poissons Ratio (y) = 0.41734 0.18752
# Poissons Ratio (z) = 0.00352 0.66058
#
# Static dielectric constant tensor:
#      x y z
#    x 2.872590 0.000000 0.000000 
#    y 0.000000 3.152440 0.000000 
#    z 0.000000 0.000000 2.466530 
# 
# 
# High freq. dielectric constant tensor:
#      x y z
#    x 1.548100 0.000000 0.000000 
#    y 0.000000 1.558400 0.000000 
#    z 0.000000 0.000000 1.468180 
# 
# From -- ./inp_files/24034.got.cif
#   From: 2010.03.12/outbox.cif.g09.slc.cpg/sg47_13_cif.got.tgz:24034.got - 2010.04.14 03:12:58.
