data_PCOD8193659
_publ_section_title
;
Structure prediction by ZEFSAII (Michael W. Deem and Ramdas Pophale) SiO2 
 PCOD8193659
Probable space group: P M M M
;
_chemical_formula_sum "Si O2"
_cell_formula_units_Z 52
_cell_length_a 28.490886
_cell_length_b 8.872333
_cell_length_c 11.951721
_cell_angle_alpha 90.000000
_cell_angle_beta 90.000000
_cell_angle_gamma 90.000000
_cell_volume 3021.163541
_symmetry_space_group_name_H-M "P M M M"
_symmetry_group_IT_number 47
_symmetry_cell_setting 'orthorhombic'
loop_
_space_group_symop_operation_xyz
x,y,z
-x,-y,z
x,-y,-z
-x,y,-z
-x,-y,-z
x,y,-z
-x,y,z
x,-y,z
loop_
_atom_site_type_symbol
_atom_site_label
_atom_site_fract_x
_atom_site_fract_y
_atom_site_fract_z
Si Si1 0.418477 0.171671 0.000000
Si Si2 0.640630 0.820721 0.374057
Si Si3 0.449404 0.824972 0.755609
Si Si4 0.000000 0.330093 0.866391
Si Si5 0.324386 0.324274 0.000000
Si Si6 0.092776 0.831207 0.867276
Si Si7 0.811486 0.677567 0.129687
Si Si8 0.721733 0.178423 0.787779
O O1 0.448719 0.198266 0.889099
O O2 0.379613 0.301009 0.000000
O O3 0.397492 0.000000 0.000000
O O4 0.639573 0.757183 0.500000
O O5 0.595702 0.751012 0.306786
O O6 0.690165 0.771806 0.318597
O O7 0.637523 0.000000 0.371939
O O8 0.500000 0.757757 0.714371
O O9 0.448387 0.000000 0.725811
O O10 0.046133 0.247225 0.818562
O O11 0.000000 0.500000 0.821026
O O12 0.000000 0.328099 0.000000
O O13 0.304572 0.241438 0.893719
O O14 0.310443 0.500000 0.000000
O O15 0.138218 0.737579 0.829983
O O16 0.096290 0.000000 0.818762
O O17 0.089485 0.834878 0.000000
O O18 0.810949 0.500000 0.143192
O O19 0.773469 0.749114 0.214138
O O20 0.800974 0.723451 0.000000
O O21 0.726846 0.000000 0.795622
#
# Coordination Sequence:
#
# PCOD8193659 Si02
#       8
#     4   8   8   4   4   8   8   8
#     4  10  17  30  48  72  98 124 151 185 229 280
#     4   9  18  31  47  70  96 121 154 194 233 276
#     4   9  16  26  45  73 100 123 149 187 232 277
#     4   9  15  23  35  51  77 117 162 205 242 275
#     4  12  22  31  47  71  94 119 151 190 231 280
#     4   9  16  25  37  55  81 117 160 200 236 281
#     4  10  19  29  42  64  92 119 150 194 240 285
#     4  11  20  32  50  69  92 122 153 190 238 288
#
# _framework density 17.211912000000002
#
# number of rings (size 3 to 8) (size 9 to 14) (size 15 to 20)
#    0.000    2.231    2.308    2.538    0.000    4.615 
#    0.000    1.538    0.000    2.769    0.000    0.000 
#    0.000    1.231    0.000    0.692    0.000   14.385 
#
# Total GULP energy -644478.070415 kJ/mol
# GULP energy per Si atom -12393.809046 kJ/mol
# Density = 1.717274 g / cm^3
# Si number density = 17.211912 Si / 1000 Ang^3
#
#
#
# Elastic Constant Matrix: (Units=GPa)
#
#
# Indices 1 2 3 4 5 6 
#
# 1 172.2580 50.1221 48.6103 0.0000 0.0000 0.0000
# 2 50.1221 69.8098 19.0723 0.0000 0.0000 0.0000
# 3 48.6103 19.0723 79.0556 0.0000 0.0000 0.0000
# 4 0.0000 0.0000 0.0000 6.9200 0.0000 0.0000
# 5 0.0000 0.0000 0.0000 0.0000 9.8774 0.0000
# 6 0.0000 0.0000 0.0000 0.0000 0.0000 12.9319
#
#
#
# Elastic Compliance Matrix: (Units=1/GPa)
#
#
# Indices 1 2 3 4 5 6 
#
# 1 0.008350 -0.004916 -0.003948 0.000000 0.000000 0.000000
# 2 -0.004916 0.018230 -0.001375 0.000000 0.000000 0.000000
# 3 -0.003948 -0.001375 0.015409 0.000000 0.000000 0.000000
# 4 0.000000 0.000000 0.000000 0.144508 0.000000 0.000000
# 5 0.000000 0.000000 0.000000 0.000000 0.101241 0.000000
# 6 0.000000 0.000000 0.000000 0.000000 0.000000 0.077328
#
#
# Mechanical properties :
#
#
# Convention : Reuss Voigt Hill
#
# Bulk Modulus (GPa) = 46.49082 61.85919 54.17500
# Shear Modulus (GPa) = 12.73187 19.50045 16.11616
#
# Velocity S-wave (km/s) = 2.72272 3.36960 3.06328
# Velocity P-wave (km/s) = 6.07896 7.15239 6.63741
#
# Compressibility (1/GPa) = 0.02150962
#
# Stress axis : x y z
#
# Youngs Moduli (GPa) = 119.76132 54.85404 64.89826
#
# Poissons Ratio (x) = 0.26969 0.25623
# Poissons Ratio (y) = 0.58880 0.08924
# Poissons Ratio (z) = 0.47284 0.07542
#
# Static dielectric constant tensor:
#      x y z
#    x 3.574100 0.000000 0.000000 
#    y 0.000000 3.089020 0.000000 
#    z 0.000000 0.000000 2.872760 
# 
# 
# High freq. dielectric constant tensor:
#      x y z
#    x 1.683050 0.000000 0.000000 
#    y 0.000000 1.643240 0.000000 
#    z 0.000000 0.000000 1.604940 
# 
# From -- ./inp_files/20066.got.cif
#   From: 2010.03.12/outbox.cif.g09.slc.cpg/sg47_11_cif.got.tgz:20066.got - 2010.04.14 03:12:58.
