data_PCOD8193601
_publ_section_title
;
Structure prediction by ZEFSAII (Michael W. Deem and Ramdas Pophale) SiO2 
 PCOD8193601
Probable space group: P M M M
;
_chemical_formula_sum "Si O2"
_cell_formula_units_Z 52
_cell_length_a 13.471318
_cell_length_b 9.667884
_cell_length_c 24.519185
_cell_angle_alpha 90.000000
_cell_angle_beta 90.000000
_cell_angle_gamma 90.000000
_cell_volume 3193.357562
_symmetry_space_group_name_H-M "P M M M"
_symmetry_group_IT_number 47
_symmetry_cell_setting 'orthorhombic'
loop_
_space_group_symop_operation_xyz
x,y,z
-x,-y,z
x,-y,-z
-x,y,-z
-x,-y,-z
x,y,-z
-x,y,z
x,-y,z
loop_
_atom_site_type_symbol
_atom_site_label
_atom_site_fract_x
_atom_site_fract_y
_atom_site_fract_z
Si Si1 0.500000 0.164494 0.438905
Si Si2 0.615214 0.344880 0.731931
Si Si3 0.114078 0.844474 0.219383
Si Si4 0.610815 0.664112 0.939363
Si Si5 0.736142 0.659231 0.839125
Si Si6 0.680914 0.163151 0.365068
Si Si7 0.892502 0.836790 0.341907
O O1 0.500000 0.225659 0.500000
O O2 0.600703 0.218477 0.409240
O O3 0.500000 0.000000 0.440617
O O4 0.500000 0.315195 0.733487
O O5 0.638563 0.500000 0.710595
O O6 0.654214 0.323576 0.792497
O O7 0.664046 0.233451 0.692633
O O8 0.167992 0.748310 0.175584
O O9 0.126672 0.781287 0.280522
O O10 0.000000 0.845395 0.202386
O O11 0.158002 0.000000 0.216819
O O12 0.500000 0.723281 0.928456
O O13 0.606091 0.500000 0.934237
O O14 0.688382 0.720447 0.894660
O O15 0.646611 0.708187 0.000000
O O16 0.769015 0.500000 0.845886
O O17 0.796867 0.199428 0.380557
O O18 0.666850 0.000000 0.357670
O O19 0.000000 0.778805 0.364251
O O20 0.902948 0.000000 0.337108
#
# Coordination Sequence:
#
# PCOD8193601 Si02
#       7
#     4   8   8   8   8   8   8
#     4   9  18  30  45  69  95 119 152 193 228 254
#     4  10  19  28  39  62  97 123 136 170 226 272
#     4   9  17  29  44  62  88 119 147 179 222 272
#     4   8  14  26  44  64  86 115 151 184 216 265
#     4  10  18  27  43  67  91 115 144 182 227 266
#     4  10  17  28  48  66  85 118 154 184 215 263
#     4   8  14  25  42  64  87 113 147 183 218 260
#
# _framework density 16.283799999999999
#
# number of rings (size 3 to 8) (size 9 to 14) (size 15 to 20)
#    0.000    2.846    2.308    1.846    0.000    2.154 
#    0.000    0.000    0.000    4.154    0.000    7.538 
#    0.000    0.000    0.000    1.385    0.000    1.538 
#
# Total GULP energy -644257.472917 kJ/mol
# GULP energy per Si atom -12389.566787 kJ/mol
# Density = 1.624674 g / cm^3
# Si number density = 16.283800 Si / 1000 Ang^3
#
#
#
# Elastic Constant Matrix: (Units=GPa)
#
#
# Indices 1 2 3 4 5 6 
#
# 1 130.2504 25.7397 58.0909 0.0000 0.0000 0.0000
# 2 25.7397 27.4141 12.1398 0.0000 0.0000 0.0000
# 3 58.0909 12.1398 64.6648 0.0000 0.0000 0.0000
# 4 0.0000 0.0000 0.0000 10.6605 0.0000 0.0000
# 5 0.0000 0.0000 0.0000 0.0000 16.6981 0.0000
# 6 0.0000 0.0000 0.0000 0.0000 0.0000 19.5899
#
#
#
# Elastic Compliance Matrix: (Units=1/GPa)
#
#
# Indices 1 2 3 4 5 6 
#
# 1 0.014428 -0.008515 -0.011363 0.000000 0.000000 0.000000
# 2 -0.008515 0.044810 -0.000763 0.000000 0.000000 0.000000
# 3 -0.011363 -0.000763 0.025815 0.000000 0.000000 0.000000
# 4 0.000000 0.000000 0.000000 0.093804 0.000000 0.000000
# 5 0.000000 0.000000 0.000000 0.000000 0.059887 0.000000
# 6 0.000000 0.000000 0.000000 0.000000 0.000000 0.051047
#
#
# Mechanical properties :
#
#
# Convention : Reuss Voigt Hill
#
# Bulk Modulus (GPa) = 22.84563 46.03002 34.43783
# Shear Modulus (GPa) = 14.46496 17.81364 16.13930
#
# Velocity S-wave (km/s) = 2.98368 3.31108 3.15163
# Velocity P-wave (km/s) = 5.09214 6.55335 5.86840
#
# Compressibility (1/GPa) = 0.04377205
#
# Stress axis : x y z
#
# Youngs Moduli (GPa) = 69.31037 22.31621 38.73705
#
# Poissons Ratio (x) = 0.19002 0.44015
# Poissons Ratio (y) = 0.59018 0.02956
# Poissons Ratio (z) = 0.78754 0.01703
#
# Static dielectric constant tensor:
#      x y z
#    x 3.427740 0.000000 0.000000 
#    y 0.000000 2.783930 0.000000 
#    z 0.000000 0.000000 3.008280 
# 
# 
# High freq. dielectric constant tensor:
#      x y z
#    x 1.638820 0.000000 0.000000 
#    y 0.000000 1.585760 0.000000 
#    z 0.000000 0.000000 1.597800 
# 
# From -- ./inp_files/12539.got.cif
#   From: 2010.03.12/outbox.cif.g09.slc.cpg/sg47_7_cif.got.tgz:12539.got - 2010.04.14 03:12:58.
