data_PCOD8193010
_publ_section_title
;
Structure prediction by ZEFSAII (Michael W. Deem and Ramdas Pophale) SiO2 
 PCOD8193010
Probable space group: I M A 2
;
_chemical_formula_sum "Si O2"
_cell_formula_units_Z 64
_cell_length_a 22.200017
_cell_length_b 9.993265
_cell_length_c 14.090148
_cell_angle_alpha 90.000000
_cell_angle_beta 90.000000
_cell_angle_gamma 90.000000
_cell_volume 3125.908533
_symmetry_space_group_name_H-M "I M A 2"
_symmetry_group_IT_number 46
_symmetry_cell_setting 'orthorhombic'
loop_
_space_group_symop_operation_xyz
x,y,z
-x,-y,z
1/2-x,y,z
1/2+x,-y,z
1/2+x,1/2+y,1/2+z
1/2-x,1/2-y,1/2+z
-x,1/2+y,1/2+z
x,1/2-y,1/2+z
loop_
_atom_site_type_symbol
_atom_site_label
_atom_site_fract_x
_atom_site_fract_y
_atom_site_fract_z
Si Si1 0.868300 0.867511 0.873220
Si Si2 0.492390 0.150643 0.951227
Si Si3 0.987838 0.855352 0.611682
Si Si4 0.366272 0.054389 0.671643
Si Si5 0.319799 0.866635 0.339164
Si Si6 0.886650 0.246858 0.665979
Si Si7 0.180622 0.391743 0.966477
Si Si8 0.626064 0.149834 0.958134
O O1 0.941109 0.841953 0.869827
O O2 0.838467 0.888395 0.769154
O O3 0.831360 0.749362 0.919472
O O4 0.857778 0.996648 0.938968
O O5 0.559608 0.191834 0.916039
O O6 0.500000 0.000000 0.992880
O O7 0.467910 0.249699 0.032359
O O8 0.934769 0.894099 0.683572
O O9 0.042525 0.790351 0.671890
O O10 0.000000 0.000000 0.560625
O O11 0.342485 0.114140 0.573936
O O12 0.353231 0.895871 0.670833
O O13 0.250000 0.886966 0.307763
O O14 0.363021 0.844378 0.248469
O O15 0.323699 0.738037 0.406760
O O16 0.346920 0.991927 0.399098
O O17 0.871875 0.324143 0.569759
O O18 0.250000 0.424213 0.972762
#
# Coordination Sequence:
#
# PCOD8193010 Si02
#       8
#     8   8   8   8   8   8   8   8
#     4  11  23  39  65  97 127 166 211 257 327 393
#     4   9  19  35  60  90 132 163 199 260 318 379
#     4   9  19  35  62  93 124 164 211 257 319 390
#     4  11  21  39  67  95 125 166 213 267 327 384
#     4  11  24  42  64  90 126 171 219 265 317 378
#     4  10  21  39  66  97 126 164 215 270 320 382
#     4  11  26  46  63  89 134 173 214 268 320 384
#     4  10  21  39  65  95 124 163 212 266 315 378
#
# _framework density 20.474048
#
# number of rings (size 3 to 8) (size 9 to 14) (size 15 to 20)
#    0.000    1.750    3.750    0.000    1.750    4.500 
#    2.250    1.250    0.000    0.000    0.000    0.000 
#    0.000    0.000    0.000    0.000    0.000    0.000 
#
# Total GULP energy -396507.245359 kJ/mol
# GULP energy per Si atom -12390.851417 kJ/mol
# Density = 2.042745 g / cm^3
# Si number density = 20.474048 Si / 1000 Ang^3
#
#
#
# Elastic Constant Matrix: (Units=GPa)
#
#
# Indices 1 2 3 4 5 6 
#
# 1 46.9240 18.8745 38.3953 0.0000 0.0000 0.0000
# 2 18.8745 101.7885 63.9737 0.0000 0.0000 0.0000
# 3 38.3953 63.9737 154.9082 0.0000 0.0000 0.0000
# 4 0.0000 0.0000 0.0000 32.1963 0.0000 0.0000
# 5 0.0000 0.0000 0.0000 0.0000 19.8520 0.0000
# 6 0.0000 0.0000 0.0000 0.0000 0.0000 25.1546
#
#
#
# Elastic Compliance Matrix: (Units=1/GPa)
#
#
# Indices 1 2 3 4 5 6 
#
# 1 0.026819 -0.001074 -0.006204 0.000000 0.000000 0.000000
# 2 -0.001074 0.013311 -0.005231 0.000000 0.000000 0.000000
# 3 -0.006204 -0.005231 0.010153 0.000000 0.000000 0.000000
# 4 0.000000 0.000000 0.000000 0.031059 0.000000 0.000000
# 5 0.000000 0.000000 0.000000 0.000000 0.050373 0.000000
# 6 0.000000 0.000000 0.000000 0.000000 0.000000 0.039754
#
#
# Mechanical properties :
#
#
# Convention : Reuss Voigt Hill
#
# Bulk Modulus (GPa) = 39.57863 60.67865 50.12864
# Shear Modulus (GPa) = 24.40097 27.59906 26.00002
#
# Velocity S-wave (km/s) = 3.45599 3.67550 3.56743
# Velocity P-wave (km/s) = 5.94123 6.90750 6.44251
#
# Compressibility (1/GPa) = 0.02526616
#
# Stress axis : x y z
#
# Youngs Moduli (GPa) = 37.28654 75.12522 98.48913
#
# Poissons Ratio (x) = 0.08068 0.61101
# Poissons Ratio (y) = 0.04004 0.51520
# Poissons Ratio (z) = 0.23132 0.39298
#
# Static dielectric constant tensor:
#      x y z
#    x 3.709560 0.000000 0.000000 
#    y 0.000000 3.811010 0.000000 
#    z 0.000000 0.000000 3.616320 
# 
# 
# High freq. dielectric constant tensor:
#      x y z
#    x 1.788400 0.000000 0.000000 
#    y 0.000000 1.804440 0.000000 
#    z 0.000000 0.000000 1.793040 
# 
# From -- ./inp_files/17402.got.cif
#   From: 2010.03.12/outbox.cif.g09.slc.cpg/sg46_9_cif.got.tgz:17402.got - 2010.04.14 02:56:35.
