data_PCOD8193447
_publ_section_title
;
Structure prediction by ZEFSAII (Michael W. Deem and Ramdas Pophale) SiO2 
 PCOD8193447
Probable space group: P M M M
;
_chemical_formula_sum "Si O2"
_cell_formula_units_Z 52
_cell_length_a 16.496591
_cell_length_b 9.484092
_cell_length_c 21.079880
_cell_angle_alpha 90.000000
_cell_angle_beta 90.000000
_cell_angle_gamma 90.000000
_cell_volume 3298.056562
_symmetry_space_group_name_H-M "P M M M"
_symmetry_group_IT_number 47
_symmetry_cell_setting 'orthorhombic'
loop_
_space_group_symop_operation_xyz
x,y,z
-x,-y,z
x,-y,-z
-x,y,-z
-x,-y,-z
x,y,-z
-x,y,z
x,-y,z
loop_
_atom_site_type_symbol
_atom_site_label
_atom_site_fract_x
_atom_site_fract_y
_atom_site_fract_z
Si Si1 0.500000 0.833189 0.211602
Si Si2 0.909045 0.836908 0.680200
Si Si3 0.500000 0.659721 0.336787
Si Si4 0.406174 0.168505 0.000000
Si Si5 0.323824 0.661199 0.353016
Si Si6 0.245306 0.834750 0.755112
Si Si7 0.347831 0.833908 0.132371
Si Si8 0.169362 0.335125 0.571761
O O1 0.500000 0.767439 0.280077
O O2 0.422356 0.777967 0.173677
O O3 0.500000 0.000000 0.219503
O O4 0.847578 0.795442 0.737367
O O5 0.891815 0.747667 0.617199
O O6 0.000000 0.804543 0.704080
O O7 0.898344 0.000000 0.661819
O O8 0.500000 0.500000 0.310391
O O9 0.416882 0.685048 0.376871
O O10 0.356707 0.228967 0.938766
O O11 0.500000 0.221216 0.000000
O O12 0.406989 0.000000 0.000000
O O13 0.309578 0.500000 0.332097
O O14 0.306824 0.756427 0.291768
O O15 0.262505 0.700086 0.409827
O O16 0.265657 0.791619 0.828539
O O17 0.262011 0.000000 0.745857
O O18 0.353336 0.000000 0.125091
O O19 0.155292 0.283795 0.500000
O O20 0.150505 0.500000 0.578695
#
# Coordination Sequence:
#
# PCOD8193447 Si02
#       8
#     4   8   4   4   8   8   8   8
#     4  10  16  23  38  59  81 105 137 174 206 236
#     4   9  18  31  46  65  86 105 128 163 207 251
#     4  10  18  26  38  59  83 108 137 170 206 238
#     4   9  14  20  30  52  87 115 133 166 208 234
#     4   9  17  28  41  59  82 107 136 169 203 237
#     4   9  16  27  43  61  80 104 136 170 203 242
#     4   9  15  22  35  57  83 110 138 167 202 238
#     4   9  18  32  47  62  83 110 136 163 198 242
#
# _framework density 15.766862
#
# number of rings (size 3 to 8) (size 9 to 14) (size 15 to 20)
#    0.000    2.846    2.308    0.000    0.000    0.923 
#    0.000    1.923    0.000    2.308    0.000    3.231 
#    0.000    9.846    0.000    0.000    0.000   13.615 
#
# Total GULP energy -644240.225012 kJ/mol
# GULP energy per Si atom -12389.235096 kJ/mol
# Density = 1.573098 g / cm^3
# Si number density = 15.766862 Si / 1000 Ang^3
#
#
#
# Elastic Constant Matrix: (Units=GPa)
#
#
# Indices 1 2 3 4 5 6 
#
# 1 114.8455 20.1656 49.8577 0.0000 0.0000 0.0000
# 2 20.1656 22.6825 18.9253 0.0000 0.0000 0.0000
# 3 49.8577 18.9253 99.5457 0.0000 0.0000 0.0000
# 4 0.0000 0.0000 0.0000 4.8723 0.0000 0.0000
# 5 0.0000 0.0000 0.0000 0.0000 17.7686 0.0000
# 6 0.0000 0.0000 0.0000 0.0000 0.0000 16.2368
#
#
#
# Elastic Compliance Matrix: (Units=1/GPa)
#
#
# Indices 1 2 3 4 5 6 
#
# 1 0.011920 -0.006675 -0.004701 0.000000 0.000000 0.000000
# 2 -0.006675 0.056136 -0.007329 0.000000 0.000000 0.000000
# 3 -0.004701 -0.007329 0.013794 0.000000 0.000000 0.000000
# 4 0.000000 0.000000 0.000000 0.205244 0.000000 0.000000
# 5 0.000000 0.000000 0.000000 0.000000 0.056279 0.000000
# 6 0.000000 0.000000 0.000000 0.000000 0.000000 0.061588
#
#
# Mechanical properties :
#
#
# Convention : Reuss Voigt Hill
#
# Bulk Modulus (GPa) = 22.50264 46.10788 34.30526
# Shear Modulus (GPa) = 10.93646 17.65053 14.29350
#
# Velocity S-wave (km/s) = 2.63655 3.34948 3.01417
# Velocity P-wave (km/s) = 4.85506 6.65325 5.82397
#
# Compressibility (1/GPa) = 0.04443923
#
# Stress axis : x y z
#
# Youngs Moduli (GPa) = 83.88974 17.81375 72.49680
#
# Poissons Ratio (x) = 0.11891 0.34083
# Poissons Ratio (y) = 0.55997 0.53134
# Poissons Ratio (z) = 0.39439 0.13056
#
# Static dielectric constant tensor:
#      x y z
#    x 3.185180 0.000000 0.000000 
#    y 0.000000 2.818670 0.000000 
#    z 0.000000 0.000000 3.089930 
# 
# 
# High freq. dielectric constant tensor:
#      x y z
#    x 1.602250 0.000000 0.000000 
#    y 0.000000 1.581920 0.000000 
#    z 0.000000 0.000000 1.584200 
# 
# From -- ./inp_files/31153.got.cif
#   From: 2010.03.12/outbox.cif.g09.slc.cpg/sg47_16_cif.got.tgz:31153.got - 2010.04.14 03:12:58.
