data_PCOD8193851
_publ_section_title
;
Structure prediction by ZEFSAII (Michael W. Deem and Ramdas Pophale) SiO2 
 PCOD8193851
Probable space group: P M M M
;
_chemical_formula_sum "Si O2"
_cell_formula_units_Z 48
_cell_length_a 16.768100
_cell_length_b 9.202386
_cell_length_c 23.392994
_cell_angle_alpha 90.000000
_cell_angle_beta 90.000000
_cell_angle_gamma 90.000000
_cell_volume 3609.691700
_symmetry_space_group_name_H-M "P M M M"
_symmetry_group_IT_number 47
_symmetry_cell_setting 'orthorhombic'
loop_
_space_group_symop_operation_xyz
x,y,z
-x,-y,z
x,-y,-z
-x,y,-z
-x,-y,-z
x,y,-z
-x,y,z
x,-y,z
loop_
_atom_site_type_symbol
_atom_site_label
_atom_site_fract_x
_atom_site_fract_y
_atom_site_fract_z
Si Si1 0.809452 0.828702 0.892818
Si Si2 0.911549 0.172188 0.000000
Si Si3 0.500000 0.835724 0.067747
Si Si4 0.342371 0.329129 0.066852
Si Si5 0.908862 0.169176 0.781338
Si Si6 0.904998 0.337232 0.329847
Si Si7 0.094829 0.836737 0.562908
O O1 0.865760 0.773873 0.943939
O O2 0.728086 0.738976 0.895621
O O3 0.853591 0.788667 0.834348
O O4 0.791099 0.000000 0.897919
O O5 0.000000 0.240856 0.000000
O O6 0.918012 0.000000 0.000000
O O7 0.577399 0.748310 0.088894
O O8 0.500000 0.000000 0.092747
O O9 0.500000 0.841427 0.000000
O O10 0.349402 0.500000 0.078542
O O11 0.326978 0.296566 0.000000
O O12 0.875263 0.252744 0.726184
O O13 0.000000 0.213879 0.795725
O O14 0.904111 0.000000 0.767188
O O15 0.871708 0.500000 0.326871
O O16 0.869153 0.264164 0.387214
O O17 0.000000 0.333952 0.332136
O O18 0.121733 0.779724 0.500000
O O19 0.000000 0.836355 0.566397
O O20 0.126609 0.000000 0.572358
#
# Coordination Sequence:
#
# PCOD8193851 Si02
#       7
#     8   4   4   8   8   8   8
#     4  10  18  28  43  59  74  94 124 159 192 227
#     4   9  16  26  41  58  73  90 119 161 200 229
#     4   9  17  29  47  65  79  95 117 141 170 213
#     4  10  19  30  43  60  82 101 116 139 180 229
#     4   9  17  28  40  53  69  93 127 163 196 227
#     4   9  16  24  34  48  66  89 116 148 186 225
#     4   8  13  21  33  48  65  85 109 140 180 222
#
# _framework density 13.297534000000001
#
# number of rings (size 3 to 8) (size 9 to 14) (size 15 to 20)
#    0.000    2.833    0.833    2.250    0.000    6.667 
#    0.000    1.667    0.000    2.000    0.000    0.000 
#    0.000    0.000    0.000    0.000    0.000    0.000 
#
# Total GULP energy -595069.241772 kJ/mol
# GULP energy per Si atom -12397.275870 kJ/mol
# Density = 1.326727 g / cm^3
# Si number density = 13.297534 Si / 1000 Ang^3
#
#
#
# Elastic Constant Matrix: (Units=GPa)
#
#
# Indices 1 2 3 4 5 6 
#
# 1 71.6564 37.8816 36.8666 0.0000 0.0000 0.0000
# 2 37.8816 76.1422 53.6907 0.0000 0.0000 0.0000
# 3 36.8666 53.6907 108.8082 0.0000 0.0000 0.0000
# 4 0.0000 0.0000 0.0000 14.7126 0.0000 0.0000
# 5 0.0000 0.0000 0.0000 0.0000 1.8304 0.0000
# 6 0.0000 0.0000 0.0000 0.0000 0.0000 13.2474
#
#
#
# Elastic Compliance Matrix: (Units=1/GPa)
#
#
# Indices 1 2 3 4 5 6 
#
# 1 0.019472 -0.007722 -0.002787 0.000000 0.000000 0.000000
# 2 -0.007722 0.023204 -0.008833 0.000000 0.000000 0.000000
# 3 -0.002787 -0.008833 0.014494 0.000000 0.000000 0.000000
# 4 0.000000 0.000000 0.000000 0.067969 0.000000 0.000000
# 5 0.000000 0.000000 0.000000 0.000000 0.546329 0.000000
# 6 0.000000 0.000000 0.000000 0.000000 0.000000 0.075487
#
#
# Mechanical properties :
#
#
# Convention : Reuss Voigt Hill
#
# Bulk Modulus (GPa) = 54.10054 57.05384 55.57719
# Shear Modulus (GPa) = 6.31472 14.50258 10.40865
#
# Velocity S-wave (km/s) = 2.18154 3.30604 2.80080
# Velocity P-wave (km/s) = 6.86429 7.58762 7.23500
#
# Compressibility (1/GPa) = 0.01848410
#
# Stress axis : x y z
#
# Youngs Moduli (GPa) = 51.35634 43.09603 68.99617
#
# Poissons Ratio (x) = 0.33280 0.19229
# Poissons Ratio (y) = 0.39659 0.60947
# Poissons Ratio (z) = 0.14313 0.38068
#
# Static dielectric constant tensor:
#      x y z
#    x 2.381940 0.000000 0.000000 
#    y 0.000000 2.706210 0.000000 
#    z 0.000000 0.000000 2.676100 
# 
# 
# High freq. dielectric constant tensor:
#      x y z
#    x 1.457890 0.000000 0.000000 
#    y 0.000000 1.509240 0.000000 
#    z 0.000000 0.000000 1.493520 
# 
# From -- ./inp_files/31254.got.cif
#   From: 2010.03.12/outbox.cif.g09.slc.cpg/sg47_16_cif.got.tgz:31254.got - 2010.04.14 03:12:58.
