data_PCOD8193038
_publ_section_title
;
Structure prediction by ZEFSAII (Michael W. Deem and Ramdas Pophale) SiO2 
 PCOD8193038
Probable space group: I M A 2
;
_chemical_formula_sum "Si O2"
_cell_formula_units_Z 60
_cell_length_a 21.313898
_cell_length_b 5.525608
_cell_length_c 22.352706
_cell_angle_alpha 90.000000
_cell_angle_beta 90.000000
_cell_angle_gamma 90.000000
_cell_volume 2632.528374
_symmetry_space_group_name_H-M "I M A 2"
_symmetry_group_IT_number 46
_symmetry_cell_setting 'orthorhombic'
loop_
_space_group_symop_operation_xyz
x,y,z
-x,-y,z
1/2-x,y,z
1/2+x,-y,z
1/2+x,1/2+y,1/2+z
1/2-x,1/2-y,1/2+z
-x,1/2+y,1/2+z
x,1/2-y,1/2+z
loop_
_atom_site_type_symbol
_atom_site_label
_atom_site_fract_x
_atom_site_fract_y
_atom_site_fract_z
Si Si1 0.181238 0.147814 0.200980
Si Si2 0.433110 0.459218 0.545783
Si Si3 0.322295 0.605285 0.866060
Si Si4 0.857941 0.576098 0.096461
Si Si5 0.318733 0.758112 0.997027
Si Si6 0.421295 0.796414 0.172193
Si Si7 0.500000 0.500000 0.255835
Si Si8 0.869263 0.890281 0.809064
O O1 0.250000 0.038309 0.214661
O O2 0.181740 0.214597 0.129774
O O3 0.168078 0.370452 0.246272
O O4 0.126974 0.951044 0.212573
O O5 0.500000 0.500000 0.512231
O O6 0.415600 0.179254 0.556264
O O7 0.376455 0.560288 0.505649
O O8 0.441834 0.581031 0.610525
O O9 0.250000 0.580711 0.846783
O O10 0.330292 0.604243 0.937537
O O11 0.357816 0.361662 0.844931
O O12 0.347749 0.863970 0.842117
O O13 0.885940 0.446501 0.154275
O O14 0.814234 0.416108 0.054574
O O15 0.250000 0.889477 0.993027
O O16 0.480699 0.727655 0.213341
O O17 0.443530 0.412549 0.297662
#
# Coordination Sequence:
#
# PCOD8193038 Si02
#       8
#     8   8   8   8   8   8   4   8
#     4  11  23  39  64 100 142 177 229 297 363 431
#     4  10  22  39  67  99 138 181 232 284 355 436
#     4  11  26  51  76 103 140 189 249 301 364 423
#     4  10  21  40  65 102 136 180 229 283 364 427
#     4  10  24  44  71  99 137 185 237 297 358 428
#     4  10  22  39  63  97 138 187 223 280 357 436
#     4  12  24  46  70  96 144 186 244 282 360 438
#     4  12  27  46  73 106 137 193 241 302 354 426
#
# _framework density 22.791778000000001
#
# number of rings (size 3 to 8) (size 9 to 14) (size 15 to 20)
#    0.000    1.333    1.333    3.200    3.733    9.067 
#    1.200    1.333    0.000    0.000    0.000    0.000 
#    0.000    0.000    0.000    0.000    0.000    0.000 
#
# Total GULP energy -371730.472497 kJ/mol
# GULP energy per Si atom -12391.015750 kJ/mol
# Density = 2.273990 g / cm^3
# Si number density = 22.791778 Si / 1000 Ang^3
#
#
#
# Elastic Constant Matrix: (Units=GPa)
#
#
# Indices 1 2 3 4 5 6 
#
# 1 167.2134 32.4570 33.8596 0.0000 0.0000 0.0000
# 2 32.4570 96.5068 20.7642 0.0000 0.0000 0.0000
# 3 33.8596 20.7642 76.1830 0.0000 0.0000 0.0000
# 4 0.0000 0.0000 0.0000 16.6700 0.0000 0.0000
# 5 0.0000 0.0000 0.0000 0.0000 31.6215 0.0000
# 6 0.0000 0.0000 0.0000 0.0000 0.0000 35.5616
#
#
#
# Elastic Compliance Matrix: (Units=1/GPa)
#
#
# Indices 1 2 3 4 5 6 
#
# 1 0.006839 -0.001749 -0.002563 0.000000 0.000000 0.000000
# 2 -0.001749 0.011455 -0.002345 0.000000 0.000000 0.000000
# 3 -0.002563 -0.002345 0.014904 0.000000 0.000000 0.000000
# 4 0.000000 0.000000 0.000000 0.059988 0.000000 0.000000
# 5 0.000000 0.000000 0.000000 0.000000 0.031624 0.000000
# 6 0.000000 0.000000 0.000000 0.000000 0.000000 0.028120
#
#
# Mechanical properties :
#
#
# Convention : Reuss Voigt Hill
#
# Bulk Modulus (GPa) = 50.28888 57.11832 53.70360
# Shear Modulus (GPa) = 28.92332 33.62547 31.27440
#
# Velocity S-wave (km/s) = 3.56620 3.84517 3.70831
# Velocity P-wave (km/s) = 6.25056 6.69546 6.47683
#
# Compressibility (1/GPa) = 0.01988511
#
# Stress axis : x y z
#
# Youngs Moduli (GPa) = 146.22535 87.30153 67.09395
#
# Poissons Ratio (x) = 0.15265 0.17196
# Poissons Ratio (y) = 0.25569 0.15733
# Poissons Ratio (z) = 0.37476 0.20471
#
# Static dielectric constant tensor:
#      x y z
#    x 3.097100 0.000000 0.000000 
#    y 0.000000 4.131080 0.000000 
#    z 0.000000 0.000000 4.014980 
# 
# 
# High freq. dielectric constant tensor:
#      x y z
#    x 1.905530 0.000000 0.000000 
#    y 0.000000 1.895790 0.000000 
#    z 0.000000 0.000000 1.892170 
# 
# From -- ./inp_files/23884.got.cif
#   From: 2010.03.12/outbox.cif.g09.slc.cpg/sg46_12_cif.got.tgz:23884.got - 2010.04.14 02:56:35.
