data_PCOD8193722
_publ_section_title
;
Structure prediction by ZEFSAII (Michael W. Deem and Ramdas Pophale) SiO2 
 PCOD8193722
Probable space group: P M M M
;
_chemical_formula_sum "Si O2"
_cell_formula_units_Z 52
_cell_length_a 18.354695
_cell_length_b 14.144592
_cell_length_c 13.193774
_cell_angle_alpha 90.000000
_cell_angle_beta 90.000000
_cell_angle_gamma 90.000000
_cell_volume 3425.363279
_symmetry_space_group_name_H-M "P M M M"
_symmetry_group_IT_number 47
_symmetry_cell_setting 'orthorhombic'
loop_
_space_group_symop_operation_xyz
x,y,z
-x,-y,z
x,-y,-z
-x,y,-z
-x,-y,-z
x,y,-z
-x,y,z
x,-y,z
loop_
_atom_site_type_symbol
_atom_site_label
_atom_site_fract_x
_atom_site_fract_y
_atom_site_fract_z
Si Si1 0.414312 0.818704 0.756184
Si Si2 0.303138 0.890822 0.387212
Si Si3 0.585600 0.000000 0.887225
Si Si4 0.212310 0.890722 0.805447
Si Si5 0.693383 0.727728 0.115039
Si Si6 0.824967 0.395772 0.119979
Si Si7 0.916546 0.780008 0.120120
O O1 0.500000 0.804755 0.741169
O O2 0.375081 0.832825 0.648181
O O3 0.379001 0.729014 0.814541
O O4 0.390715 0.908087 0.824989
O O5 0.281348 0.856155 0.500000
O O6 0.235242 0.872729 0.311826
O O7 0.325455 0.000000 0.388785
O O8 0.500000 0.000000 0.898951
O O9 0.620818 0.000000 0.000000
O O10 0.261538 0.825771 0.878032
O O11 0.128050 0.861559 0.821017
O O12 0.223895 0.000000 0.836047
O O13 0.745534 0.642921 0.153152
O O14 0.667904 0.712490 0.000000
O O15 0.837810 0.500000 0.168047
O O16 0.887911 0.323428 0.155391
O O17 0.826999 0.402812 0.000000
O O18 0.000000 0.789524 0.153072
O O19 0.906199 0.793461 0.000000
#
# Coordination Sequence:
#
# PCOD8193722 Si02
#       7
#     8   8   4   8   8   8   8
#     4  10  18  27  37  55  81 107 138 173 211 249
#     4   9  17  29  43  56  73 103 145 186 217 243
#     4   9  16  24  33  49  77 111 139 160 188 233
#     4   9  17  28  40  56  81 112 143 170 200 235
#     4   9  17  26  38  57  80 110 144 174 201 238
#     4   8  14  26  42  58  79 109 143 174 201 232
#     4   9  17  27  40  63  91 114 137 163 195 239
#
# _framework density 15.180872000000001
#
# number of rings (size 3 to 8) (size 9 to 14) (size 15 to 20)
#    0.000    3.000    0.769    1.846    1.077    3.077 
#    0.000    3.077    0.000    0.923    0.000    4.308 
#    0.000   49.846    0.000   24.923    0.000    1.385 
#
# Total GULP energy -644445.158029 kJ/mol
# GULP energy per Si atom -12393.176116 kJ/mol
# Density = 1.514632 g / cm^3
# Si number density = 15.180872 Si / 1000 Ang^3
#
#
#
# Elastic Constant Matrix: (Units=GPa)
#
#
# Indices 1 2 3 4 5 6 
#
# 1 92.3172 19.9182 25.6249 0.0000 0.0000 0.0000
# 2 19.9182 48.6735 6.4050 0.0000 0.0000 0.0000
# 3 25.6249 6.4050 61.7139 0.0000 0.0000 0.0000
# 4 0.0000 0.0000 0.0000 7.3286 0.0000 0.0000
# 5 0.0000 0.0000 0.0000 0.0000 16.1930 0.0000
# 6 0.0000 0.0000 0.0000 0.0000 0.0000 16.0650
#
#
#
# Elastic Compliance Matrix: (Units=1/GPa)
#
#
# Indices 1 2 3 4 5 6 
#
# 1 0.013250 -0.004763 -0.005007 0.000000 0.000000 0.000000
# 2 -0.004763 0.022542 -0.000362 0.000000 0.000000 0.000000
# 3 -0.005007 -0.000362 0.018320 0.000000 0.000000 0.000000
# 4 0.000000 0.000000 0.000000 0.136452 0.000000 0.000000
# 5 0.000000 0.000000 0.000000 0.000000 0.061755 0.000000
# 6 0.000000 0.000000 0.000000 0.000000 0.000000 0.062247
#
#
# Mechanical properties :
#
#
# Convention : Reuss Voigt Hill
#
# Bulk Modulus (GPa) = 29.54407 34.06677 31.80542
# Shear Modulus (GPa) = 14.44614 17.96775 16.20695
#
# Velocity S-wave (km/s) = 3.08815 3.44405 3.27094
# Velocity P-wave (km/s) = 5.67620 6.18907 5.93817
#
# Compressibility (1/GPa) = 0.03384774
#
# Stress axis : x y z
#
# Youngs Moduli (GPa) = 75.47290 44.36197 54.58381
#
# Poissons Ratio (x) = 0.21130 0.27331
# Poissons Ratio (y) = 0.35949 0.01975
# Poissons Ratio (z) = 0.37791 0.01605
#
# Static dielectric constant tensor:
#      x y z
#    x 2.942730 0.000000 0.000000 
#    y 0.000000 3.057120 0.000000 
#    z 0.000000 0.000000 2.778750 
# 
# 
# High freq. dielectric constant tensor:
#      x y z
#    x 1.580400 0.000000 0.000000 
#    y 0.000000 1.555220 0.000000 
#    z 0.000000 0.000000 1.547240 
# 
# From -- ./inp_files/18594.got.cif
#   From: 2010.03.12/outbox.cif.g09.slc.cpg/sg47_10_cif.got.tgz:18594.got - 2010.04.14 03:12:58.
