data_PCOD8193200
_publ_section_title
;
Structure prediction by ZEFSAII (Michael W. Deem and Ramdas Pophale) SiO2 
 PCOD8193200
Probable space group: I M A 2
;
_chemical_formula_sum "Si O2"
_cell_formula_units_Z 48
_cell_length_a 17.487959
_cell_length_b 14.354487
_cell_length_c 8.810319
_cell_angle_alpha 90.000000
_cell_angle_beta 90.000000
_cell_angle_gamma 90.000000
_cell_volume 2211.660371
_symmetry_space_group_name_H-M "I M A 2"
_symmetry_group_IT_number 46
_symmetry_cell_setting 'orthorhombic'
loop_
_space_group_symop_operation_xyz
x,y,z
-x,-y,z
1/2-x,y,z
1/2+x,-y,z
1/2+x,1/2+y,1/2+z
1/2-x,1/2-y,1/2+z
-x,1/2+y,1/2+z
x,1/2-y,1/2+z
loop_
_atom_site_type_symbol
_atom_site_label
_atom_site_fract_x
_atom_site_fract_y
_atom_site_fract_z
Si Si1 0.161545 0.357497 0.060400
Si Si2 0.337330 0.851716 0.014426
Si Si3 0.084021 0.288055 0.362253
Si Si4 0.587336 0.282334 0.808966
Si Si5 0.084584 0.985741 0.405567
Si Si6 0.082596 0.466955 0.559099
O O1 0.250000 0.343092 0.095030
O O2 0.113563 0.330199 0.206621
O O3 0.135653 0.297997 0.914623
O O4 0.144833 0.465176 0.017956
O O5 0.250000 0.840412 0.067640
O O6 0.397069 0.806541 0.133713
O O7 0.354734 0.961280 0.991656
O O8 0.352304 0.796603 0.858622
O O9 0.094039 0.363731 0.495848
O O10 0.998048 0.254047 0.333603
O O11 0.603483 0.376457 0.903546
O O12 0.088821 0.034689 0.240694
O O13 0.000000 0.000000 0.473110
O O14 0.000000 0.500000 0.503724
#
# Coordination Sequence:
#
# PCOD8193200 Si02
#       6
#     8   8   8   8   8   8
#     4  12  27  43  67 103 138 175 224 287 345 395
#     4  11  24  41  65  99 136 171 217 277 338 394
#     4  12  24  44  72  96 136 179 229 276 333 412
#     4  11  23  42  69  96 129 178 224 269 329 406
#     4  10  22  42  70  96 130 175 226 271 331 401
#     4  10  22  42  69  98 129 176 226 274 332 402
#
# _framework density 21.703150999999998
#
# number of rings (size 3 to 8) (size 9 to 14) (size 15 to 20)
#    0.000    1.000    3.333    3.000    2.333    6.667 
#    0.000    0.000    0.000    0.000    0.000    0.000 
#    0.000    0.000    0.000    0.000    0.000    0.000 
#
# Total GULP energy -297683.823345 kJ/mol
# GULP energy per Si atom -12403.492639 kJ/mol
# Density = 2.165375 g / cm^3
# Si number density = 21.703151 Si / 1000 Ang^3
#
#
#
# Elastic Constant Matrix: (Units=GPa)
#
#
# Indices 1 2 3 4 5 6 
#
# 1 115.8098 60.1224 35.5025 0.0000 0.0000 0.0000
# 2 60.1224 106.8889 31.3211 0.0000 0.0000 0.0000
# 3 35.5025 31.3211 56.1060 0.0000 0.0000 0.0000
# 4 0.0000 0.0000 0.0000 41.7925 0.0000 0.0000
# 5 0.0000 0.0000 0.0000 0.0000 19.7066 0.0000
# 6 0.0000 0.0000 0.0000 0.0000 0.0000 31.6756
#
#
#
# Elastic Compliance Matrix: (Units=1/GPa)
#
#
# Indices 1 2 3 4 5 6 
#
# 1 0.013302 -0.005997 -0.005070 0.000000 0.000000 0.000000
# 2 -0.005997 0.013888 -0.003959 0.000000 0.000000 0.000000
# 3 -0.005070 -0.003959 0.023241 0.000000 0.000000 0.000000
# 4 0.000000 0.000000 0.000000 0.023928 0.000000 0.000000
# 5 0.000000 0.000000 0.000000 0.000000 0.050744 0.000000
# 6 0.000000 0.000000 0.000000 0.000000 0.000000 0.031570
#
#
# Mechanical properties :
#
#
# Convention : Reuss Voigt Hill
#
# Bulk Modulus (GPa) = 49.06306 59.18855 54.12580
# Shear Modulus (GPa) = 25.83740 28.75885 27.29813
#
# Velocity S-wave (km/s) = 3.45409 3.64414 3.55039
# Velocity P-wave (km/s) = 6.20993 6.71099 6.46532
#
# Compressibility (1/GPa) = 0.02038193
#
# Stress axis : x y z
#
# Youngs Moduli (GPa) = 75.17606 72.00235 43.02681
#
# Poissons Ratio (x) = 0.43177 0.21813
# Poissons Ratio (y) = 0.45080 0.17033
# Poissons Ratio (z) = 0.38112 0.28504
#
# Static dielectric constant tensor:
#      x y z
#    x 3.767570 0.000000 0.000000 
#    y 0.000000 4.181240 0.000000 
#    z 0.000000 0.000000 3.729280 
# 
# 
# High freq. dielectric constant tensor:
#      x y z
#    x 1.845360 0.000000 0.000000 
#    y 0.000000 1.869520 0.000000 
#    z 0.000000 0.000000 1.841900 
# 
# From -- ./inp_files/6599.got.cif
#   From: 2010.03.12/outbox.cif.g09.slc.cpg/sg46_4_cif.got.tgz:6599.got - 2010.04.14 02:56:35.
