data_PCOD8193357
_publ_section_title
;
Structure prediction by ZEFSAII (Michael W. Deem and Ramdas Pophale) SiO2 
 PCOD8193357
Probable space group: I M A 2
;
_chemical_formula_sum "Si O2"
_cell_formula_units_Z 32
_cell_length_a 17.973208
_cell_length_b 10.018417
_cell_length_c 8.258178
_cell_angle_alpha 90.000000
_cell_angle_beta 90.000000
_cell_angle_gamma 90.000000
_cell_volume 1486.993070
_symmetry_space_group_name_H-M "I M A 2"
_symmetry_group_IT_number 46
_symmetry_cell_setting 'orthorhombic'
loop_
_space_group_symop_operation_xyz
x,y,z
-x,-y,z
1/2-x,y,z
1/2+x,-y,z
1/2+x,1/2+y,1/2+z
1/2-x,1/2-y,1/2+z
-x,1/2+y,1/2+z
x,1/2-y,1/2+z
loop_
_atom_site_type_symbol
_atom_site_label
_atom_site_fract_x
_atom_site_fract_y
_atom_site_fract_z
Si Si1 0.426135 0.070888 0.895260
Si Si2 0.899334 0.110632 0.390868
Si Si3 0.834830 0.142154 0.047646
Si Si4 0.437141 0.152992 0.526433
O O1 0.442251 0.117973 0.714026
O O2 0.500000 0.000000 0.964306
O O3 0.403979 0.199368 0.003545
O O4 0.358977 0.964483 0.909346
O O5 0.889625 0.122953 0.199037
O O6 0.841344 0.208497 0.478784
O O7 0.982286 0.151910 0.441969
O O8 0.884117 0.957427 0.442241
O O9 0.750000 0.116083 0.098556
#
# Coordination Sequence:
#
# PCOD8193357 Si02
#       4
#     8   8   8   8
#     4  12  23  42  69 101 134 174 228 286 331 396
#     4  11  22  41  67  99 138 170 227 279 330 400
#     4  12  26  43  67 102 142 185 220 273 346 413
#     4  11  23  41  69 105 127 173 230 286 336 377
#
# _framework density 21.519936999999999
#
# number of rings (size 3 to 8) (size 9 to 14) (size 15 to 20)
#    0.000    0.500    5.000    5.250    3.500    0.000 
#    0.000    7.500    0.000    0.000    0.000    0.000 
#    0.000    0.000    0.000    0.000    0.000    0.000 
#
# Total GULP energy -198448.094162 kJ/mol
# GULP energy per Si atom -12403.005885 kJ/mol
# Density = 2.147096 g / cm^3
# Si number density = 21.519937 Si / 1000 Ang^3
#
#
#
# Elastic Constant Matrix: (Units=GPa)
#
#
# Indices 1 2 3 4 5 6 
#
# 1 87.1550 38.0559 41.0215 0.0000 0.0000 0.0000
# 2 38.0559 181.5471 43.6275 0.0000 0.0000 0.0000
# 3 41.0215 43.6275 111.8361 0.0000 0.0000 0.0000
# 4 0.0000 0.0000 0.0000 40.2912 0.0000 0.0000
# 5 0.0000 0.0000 0.0000 0.0000 16.3249 0.0000
# 6 0.0000 0.0000 0.0000 0.0000 0.0000 23.3109
#
#
#
# Elastic Compliance Matrix: (Units=1/GPa)
#
#
# Indices 1 2 3 4 5 6 
#
# 1 0.014461 -0.001938 -0.004548 0.000000 0.000000 0.000000
# 2 -0.001938 0.006338 -0.001761 0.000000 0.000000 0.000000
# 3 -0.004548 -0.001761 0.011297 0.000000 0.000000 0.000000
# 4 0.000000 0.000000 0.000000 0.024819 0.000000 0.000000
# 5 0.000000 0.000000 0.000000 0.000000 0.061256 0.000000
# 6 0.000000 0.000000 0.000000 0.000000 0.000000 0.042898
#
#
# Mechanical properties :
#
#
# Convention : Reuss Voigt Hill
#
# Bulk Modulus (GPa) = 64.10254 69.54978 66.82616
# Shear Modulus (GPa) = 27.35751 33.17428 30.26590
#
# Velocity S-wave (km/s) = 3.56935 3.93053 3.75428
# Velocity P-wave (km/s) = 6.84391 7.27926 7.06494
#
# Compressibility (1/GPa) = 0.01560001
#
# Stress axis : x y z
#
# Youngs Moduli (GPa) = 69.15225 157.78324 88.51882
#
# Poissons Ratio (x) = 0.30584 0.40259
# Poissons Ratio (y) = 0.13404 0.15592
# Poissons Ratio (z) = 0.31451 0.27792
#
# Static dielectric constant tensor:
#      x y z
#    x 3.440480 0.000000 0.000000 
#    y 0.000000 4.614720 0.000000 
#    z 0.000000 0.000000 3.849330 
# 
# 
# High freq. dielectric constant tensor:
#      x y z
#    x 1.798880 0.000000 0.000000 
#    y 0.000000 1.870720 0.000000 
#    z 0.000000 0.000000 1.854520 
# 
# From -- ./inp_files/5218.got.cif
#   From: 2010.03.12/outbox.cif.g09.slc.cpg/sg46_3_cif.got.tgz:5218.got - 2010.04.14 02:56:35.
