data_PCOD8193229
_publ_section_title
;
Structure prediction by ZEFSAII (Michael W. Deem and Ramdas Pophale) SiO2 
 PCOD8193229
Probable space group: I M A 2
;
_chemical_formula_sum "Si O2"
_cell_formula_units_Z 48
_cell_length_a 24.715223
_cell_length_b 9.569889
_cell_length_c 9.509333
_cell_angle_alpha 90.000000
_cell_angle_beta 90.000000
_cell_angle_gamma 90.000000
_cell_volume 2249.165896
_symmetry_space_group_name_H-M "I M A 2"
_symmetry_group_IT_number 46
_symmetry_cell_setting 'orthorhombic'
loop_
_space_group_symop_operation_xyz
x,y,z
-x,-y,z
1/2-x,y,z
1/2+x,-y,z
1/2+x,1/2+y,1/2+z
1/2-x,1/2-y,1/2+z
-x,1/2+y,1/2+z
x,1/2-y,1/2+z
loop_
_atom_site_type_symbol
_atom_site_label
_atom_site_fract_x
_atom_site_fract_y
_atom_site_fract_z
Si Si1 0.688173 0.111014 0.313010
Si Si2 0.641723 0.611152 0.216782
Si Si3 0.357964 0.813594 0.595445
Si Si4 0.812183 0.685147 0.928838
Si Si5 0.479977 0.656725 0.059897
Si Si6 0.976628 0.855594 0.843590
O O1 0.750000 0.125358 0.263936
O O2 0.681996 0.189863 0.462364
O O3 0.650809 0.176203 0.190216
O O4 0.671303 0.948769 0.333626
O O5 0.654455 0.447731 0.194259
O O6 0.680281 0.675013 0.337060
O O7 0.581208 0.628930 0.271331
O O8 0.650895 0.691380 0.068769
O O9 0.417269 0.820618 0.522967
O O10 0.750000 0.672654 0.977329
O O11 0.500000 0.500000 0.039035
O O12 0.521952 0.746645 0.969307
O O13 0.483678 0.701183 0.222438
O O14 0.000000 0.000000 0.904453
#
# Coordination Sequence:
#
# PCOD8193229 Si02
#       6
#     8   8   8   8   8   8
#     4  10  23  41  64  94 128 167 215 262 316 379
#     4  11  22  41  66  92 128 170 208 262 319 374
#     4  11  22  41  66  92 128 169 209 263 319 373
#     4  10  23  42  64  95 130 166 215 263 316 381
#     4  11  23  43  64  93 128 166 211 262 314 378
#     4  11  23  42  62  94 128 164 214 260 312 381
#
# _framework density 21.341245000000001
#
# number of rings (size 3 to 8) (size 9 to 14) (size 15 to 20)
#    0.000    1.333    3.333    3.000    2.333    4.000 
#    3.000    0.000    0.000    0.000    0.000    0.000 
#    0.000    0.000    0.000    0.000    0.000    0.000 
#
# Total GULP energy -297598.079343 kJ/mol
# GULP energy per Si atom -12399.919973 kJ/mol
# Density = 2.129267 g / cm^3
# Si number density = 21.341245 Si / 1000 Ang^3
#
#
#
# Elastic Constant Matrix: (Units=GPa)
#
#
# Indices 1 2 3 4 5 6 
#
# 1 93.1382 32.6460 21.2837 0.0000 0.0000 0.0000
# 2 32.6460 64.8919 47.7038 0.0000 0.0000 0.0000
# 3 21.2837 47.7038 67.6319 0.0000 0.0000 0.0000
# 4 0.0000 0.0000 0.0000 35.1833 0.0000 0.0000
# 5 0.0000 0.0000 0.0000 0.0000 32.9221 0.0000
# 6 0.0000 0.0000 0.0000 0.0000 0.0000 29.2937
#
#
#
# Elastic Compliance Matrix: (Units=1/GPa)
#
#
# Indices 1 2 3 4 5 6 
#
# 1 0.013074 -0.007379 0.001090 0.000000 0.000000 0.000000
# 2 -0.007379 0.036170 -0.023190 0.000000 0.000000 0.000000
# 3 0.001090 -0.023190 0.030800 0.000000 0.000000 0.000000
# 4 0.000000 0.000000 0.000000 0.028423 0.000000 0.000000
# 5 0.000000 0.000000 0.000000 0.000000 0.030375 0.000000
# 6 0.000000 0.000000 0.000000 0.000000 0.000000 0.034137
#
#
# Mechanical properties :
#
#
# Convention : Reuss Voigt Hill
#
# Bulk Modulus (GPa) = 47.42396 47.65875 47.54135
# Shear Modulus (GPa) = 20.92355 27.74838 24.33597
#
# Velocity S-wave (km/s) = 3.13458 3.60977 3.38053
# Velocity P-wave (km/s) = 5.94733 6.30509 6.12882
#
# Compressibility (1/GPa) = 0.02108639
#
# Stress axis : x y z
#
# Youngs Moduli (GPa) = 76.48822 27.64707 32.46748
#
# Poissons Ratio (x) = 0.20400 -0.03539
# Poissons Ratio (y) = 0.56438 0.75293
# Poissons Ratio (z) = -0.08338 0.64115
#
# Static dielectric constant tensor:
#      x y z
#    x 4.155750 0.000000 0.000000 
#    y 0.000000 3.910920 0.000000 
#    z 0.000000 0.000000 3.848920 
# 
# 
# High freq. dielectric constant tensor:
#      x y z
#    x 1.843580 0.000000 0.000000 
#    y 0.000000 1.827100 0.000000 
#    z 0.000000 0.000000 1.836480 
# 
# From -- ./inp_files/12731.got.cif
#   From: 2010.03.12/outbox.cif.g09.slc.cpg/sg46_7_cif.got.tgz:12731.got - 2010.04.14 02:56:35.
