data_PCOD8193561
_publ_section_title
;
Structure prediction by ZEFSAII (Michael W. Deem and Ramdas Pophale) SiO2 
 PCOD8193561
Probable space group: P M M M
;
_chemical_formula_sum "Si O2"
_cell_formula_units_Z 64
_cell_length_a 14.171929
_cell_length_b 31.108280
_cell_length_c 9.129318
_cell_angle_alpha 90.000000
_cell_angle_beta 90.000000
_cell_angle_gamma 90.000000
_cell_volume 4024.790713
_symmetry_space_group_name_H-M "P M M M"
_symmetry_group_IT_number 47
_symmetry_cell_setting 'orthorhombic'
loop_
_space_group_symop_operation_xyz
x,y,z
-x,-y,z
x,-y,-z
-x,y,-z
-x,-y,-z
x,y,-z
-x,y,z
x,-y,z
loop_
_atom_site_type_symbol
_atom_site_label
_atom_site_fract_x
_atom_site_fract_y
_atom_site_fract_z
Si Si1 0.892751 0.261646 0.170573
Si Si2 0.388065 0.452702 0.664093
Si Si3 0.106985 0.162985 0.830530
Si Si4 0.278350 0.127833 0.325982
Si Si5 0.394145 0.209799 0.674015
Si Si6 0.394273 0.047556 0.674065
Si Si7 0.388695 0.630276 0.830770
Si Si8 0.282794 0.293573 0.326031
O O1 0.879292 0.212241 0.219299
O O2 0.823701 0.291501 0.265319
O O3 0.000000 0.276274 0.202243
O O4 0.868859 0.267093 0.000000
O O5 0.351542 0.442077 0.500000
O O6 0.500000 0.453466 0.663563
O O7 0.350607 0.500000 0.713131
O O8 0.352617 0.416472 0.776875
O O9 0.173342 0.131877 0.736734
O O10 0.000000 0.148324 0.800881
O O11 0.132860 0.158136 0.000000
O O12 0.272604 0.127846 0.500000
O O13 0.341677 0.167345 0.267689
O O14 0.323515 0.083688 0.264384
O O15 0.397592 0.209378 0.500000
O O16 0.500000 0.210558 0.738698
O O17 0.339054 0.251688 0.730399
O O18 0.395987 0.049921 0.500000
O O19 0.500000 0.056653 0.732943
O O20 0.360699 0.000000 0.725237
O O21 0.500000 0.635925 0.804309
O O22 0.334915 0.665144 0.735643
O O23 0.361873 0.635435 0.000000
O O24 0.280088 0.296499 0.500000
#
# Coordination Sequence:
#
# PCOD8193561 Si02
#       8
#     8   8   8   8   8   8   8   8
#     4   9  18  33  50  65  85 115 149 187 231 276
#     4   8  14  26  44  64  86 115 154 199 242 279
#     4   9  18  32  48  65  88 117 145 178 225 276
#     4  10  17  27  46  70  90 111 147 190 223 258
#     4   9  17  27  39  60  89 118 146 178 217 259
#     4   8  14  25  43  68  95 120 145 177 221 270
#     4  10  20  31  43  62  91 128 165 196 228 271
#     4  11  20  30  45  65  91 122 153 188 228 272
#
# _framework density 15.901448
#
# number of rings (size 3 to 8) (size 9 to 14) (size 15 to 20)
#    0.000    2.750    1.250    3.000    0.000    3.500 
#    0.000    2.500    0.000    3.000    0.000    3.500 
#    0.000    0.500    0.000    5.250    0.000    2.500 
#
# Total GULP energy -793417.389415 kJ/mol
# GULP energy per Si atom -12397.146710 kJ/mol
# Density = 1.586526 g / cm^3
# Si number density = 15.901448 Si / 1000 Ang^3
#
#
#
# Elastic Constant Matrix: (Units=GPa)
#
#
# Indices 1 2 3 4 5 6 
#
# 1 86.1080 50.9417 36.5891 0.0000 0.0000 0.0000
# 2 50.9417 116.6590 39.7051 0.0000 0.0000 0.0000
# 3 36.5891 39.7051 50.6793 0.0000 0.0000 0.0000
# 4 0.0000 0.0000 0.0000 16.6667 0.0000 0.0000
# 5 0.0000 0.0000 0.0000 0.0000 21.5537 0.0000
# 6 0.0000 0.0000 0.0000 0.0000 0.0000 10.7087
#
#
#
# Elastic Compliance Matrix: (Units=1/GPa)
#
#
# Indices 1 2 3 4 5 6 
#
# 1 0.018556 -0.004831 -0.009612 0.000000 0.000000 0.000000
# 2 -0.004831 0.012947 -0.006655 0.000000 0.000000 0.000000
# 3 -0.009612 -0.006655 0.031885 0.000000 0.000000 0.000000
# 4 0.000000 0.000000 0.000000 0.060000 0.000000 0.000000
# 5 0.000000 0.000000 0.000000 0.000000 0.046396 0.000000
# 6 0.000000 0.000000 0.000000 0.000000 0.000000 0.093382
#
#
# Mechanical properties :
#
#
# Convention : Reuss Voigt Hill
#
# Bulk Modulus (GPa) = 47.18851 56.43533 51.81192
# Shear Modulus (GPa) = 16.00383 18.19985 17.10184
#
# Velocity S-wave (km/s) = 3.17588 3.38678 3.28302
# Velocity P-wave (km/s) = 6.57178 7.13172 6.85747
#
# Compressibility (1/GPa) = 0.02119160
#
# Stress axis : x y z
#
# Youngs Moduli (GPa) = 53.89155 77.23892 31.36249
#
# Poissons Ratio (x) = 0.37318 0.30144
# Poissons Ratio (y) = 0.26038 0.20872
# Poissons Ratio (z) = 0.51798 0.51403
#
# Static dielectric constant tensor:
#      x y z
#    x 2.918310 0.000000 0.000000 
#    y 0.000000 3.177730 0.000000 
#    z 0.000000 0.000000 2.793310 
# 
# 
# High freq. dielectric constant tensor:
#      x y z
#    x 1.591410 0.000000 0.000000 
#    y 0.000000 1.603810 0.000000 
#    z 0.000000 0.000000 1.591000 
# 
# From -- ./inp_files/8218.got.cif
#   From: 2010.03.12/outbox.cif.g09.slc.cpg/sg47_5_cif.got.tgz:8218.got - 2010.04.14 03:12:58.
