data_PCOD8193364
_publ_section_title
;
Structure prediction by ZEFSAII (Michael W. Deem and Ramdas Pophale) SiO2 
 PCOD8193364
Probable space group: I M A 2
;
_chemical_formula_sum "Si O2"
_cell_formula_units_Z 40
_cell_length_a 14.483181
_cell_length_b 15.606708
_cell_length_c 7.866865
_cell_angle_alpha 90.000000
_cell_angle_beta 90.000000
_cell_angle_gamma 90.000000
_cell_volume 1778.185074
_symmetry_space_group_name_H-M "I M A 2"
_symmetry_group_IT_number 46
_symmetry_cell_setting 'orthorhombic'
loop_
_space_group_symop_operation_xyz
x,y,z
-x,-y,z
1/2-x,y,z
1/2+x,-y,z
1/2+x,1/2+y,1/2+z
1/2-x,1/2-y,1/2+z
-x,1/2+y,1/2+z
x,1/2-y,1/2+z
loop_
_atom_site_type_symbol
_atom_site_label
_atom_site_fract_x
_atom_site_fract_y
_atom_site_fract_z
Si Si1 0.562868 0.579915 0.935000
Si Si2 0.102599 0.470101 0.309912
Si Si3 0.647754 0.344613 0.356477
Si Si4 0.525052 0.263411 0.075243
Si Si5 0.646719 0.650508 0.618402
O O1 0.500000 0.500000 0.888211
O O2 0.498336 0.665506 0.931483
O O3 0.636367 0.587992 0.781826
O O4 0.613479 0.565644 0.117199
O O5 0.164509 0.553639 0.346518
O O6 0.132325 0.397097 0.439969
O O7 0.000000 0.500000 0.349076
O O8 0.750000 0.302568 0.336722
O O9 0.599192 0.310150 0.527838
O O10 0.572169 0.318980 0.219704
O O11 0.426866 0.226547 0.134913
O O12 0.750000 0.689245 0.620549
#
# Coordination Sequence:
#
# PCOD8193364 Si02
#       5
#     8   8   8   8   8
#     4  11  24  46  72  97 140 187 227 284 350 404
#     4  11  22  48  74  97 141 187 228 287 348 410
#     4  12  25  44  73 103 134 183 233 286 353 412
#     4  12  23  47  69  98 147 176 227 297 340 410
#     4  12  27  44  72 107 140 185 233 281 352 421
#
# _framework density 22.494844000000001
#
# number of rings (size 3 to 8) (size 9 to 14) (size 15 to 20)
#    0.000    0.400    8.000    1.800    0.000    2.400 
#    0.000    0.000    0.000    0.000    0.000    0.000 
#    0.000    0.000    0.000    0.000    0.000    0.000 
#
# Total GULP energy -247908.886088 kJ/mol
# GULP energy per Si atom -12395.444304 kJ/mol
# Density = 2.244365 g / cm^3
# Si number density = 22.494844 Si / 1000 Ang^3
#
#
#
# Elastic Constant Matrix: (Units=GPa)
#
#
# Indices 1 2 3 4 5 6 
#
# 1 165.5616 31.1130 30.3679 0.0000 0.0000 0.0000
# 2 31.1130 90.4054 11.8995 0.0000 0.0000 0.0000
# 3 30.3679 11.8995 81.7119 0.0000 0.0000 0.0000
# 4 0.0000 0.0000 0.0000 2.3168 0.0000 0.0000
# 5 0.0000 0.0000 0.0000 0.0000 2.1248 0.0000
# 6 0.0000 0.0000 0.0000 0.0000 0.0000 25.1737
#
#
#
# Elastic Compliance Matrix: (Units=1/GPa)
#
#
# Indices 1 2 3 4 5 6 
#
# 1 0.006838 -0.002058 -0.002242 0.000000 0.000000 0.000000
# 2 -0.002058 0.011897 -0.000968 0.000000 0.000000 0.000000
# 3 -0.002242 -0.000968 0.013212 0.000000 0.000000 0.000000
# 4 0.000000 0.000000 0.000000 0.431634 0.000000 0.000000
# 5 0.000000 0.000000 0.000000 0.000000 0.470628 0.000000
# 6 0.000000 0.000000 0.000000 0.000000 0.000000 0.039724
#
#
# Mechanical properties :
#
#
# Convention : Reuss Voigt Hill
#
# Bulk Modulus (GPa) = 46.70221 53.82663 50.26442
# Shear Modulus (GPa) = 5.04233 23.54296 14.29265
#
# Velocity S-wave (km/s) = 1.49880 3.23862 2.52340
# Velocity P-wave (km/s) = 4.87869 6.16160 5.55729
#
# Compressibility (1/GPa) = 0.02141226
#
# Stress axis : x y z
#
# Youngs Moduli (GPa) = 146.24154 84.05486 75.68821
#
# Poissons Ratio (x) = 0.17301 0.16966
# Poissons Ratio (y) = 0.30100 0.07323
# Poissons Ratio (z) = 0.32781 0.08133
#
# Static dielectric constant tensor:
#      x y z
#    x 4.063240 0.000000 0.000000 
#    y 0.000000 4.384090 0.000000 
#    z 0.000000 0.000000 4.203480 
# 
# 
# High freq. dielectric constant tensor:
#      x y z
#    x 1.883580 0.000000 0.000000 
#    y 0.000000 1.890150 0.000000 
#    z 0.000000 0.000000 1.890430 
# 
# From -- ./inp_files/5402.got.cif
#   From: 2010.03.12/outbox.cif.g09.slc.cpg/sg46_3_cif.got.tgz:5402.got - 2010.04.14 02:56:35.
