data_PCOD8193410
_publ_section_title
;
Structure prediction by ZEFSAII (Michael W. Deem and Ramdas Pophale) SiO2 
 PCOD8193410
Probable space group: I M A 2
;
_chemical_formula_sum "Si O2"
_cell_formula_units_Z 40
_cell_length_a 18.449295
_cell_length_b 20.052961
_cell_length_c 5.016412
_cell_angle_alpha 90.000000
_cell_angle_beta 90.000000
_cell_angle_gamma 90.000000
_cell_volume 1855.886798
_symmetry_space_group_name_H-M "I M A 2"
_symmetry_group_IT_number 46
_symmetry_cell_setting 'orthorhombic'
loop_
_space_group_symop_operation_xyz
x,y,z
-x,-y,z
1/2-x,y,z
1/2+x,-y,z
1/2+x,1/2+y,1/2+z
1/2-x,1/2-y,1/2+z
-x,1/2+y,1/2+z
x,1/2-y,1/2+z
loop_
_atom_site_type_symbol
_atom_site_label
_atom_site_fract_x
_atom_site_fract_y
_atom_site_fract_z
Si Si1 0.379444 0.392261 0.856240
Si Si2 0.375681 0.598900 0.500148
Si Si3 0.971039 0.423428 0.007200
Si Si4 0.329256 0.040681 0.858476
Si Si5 0.750000 0.204639 0.033560
Si Si6 0.250000 0.292589 0.828333
O O1 0.461876 0.374113 0.933373
O O2 0.382773 0.419951 0.555436
O O3 0.324224 0.331526 0.890442
O O4 0.353612 0.451295 0.053922
O O5 0.408250 0.586134 0.791270
O O6 0.325732 0.536995 0.419670
O O7 0.323899 0.662933 0.495448
O O8 0.441426 0.602977 0.289113
O O9 0.000000 0.500000 0.022806
O O10 0.250000 0.071962 0.906576
O O11 0.750000 0.265891 0.829790
O O12 0.250000 0.271207 0.520796
#
# Coordination Sequence:
#
# PCOD8193410 Si02
#       6
#     8   8   8   8   4   4
#     4  12  24  40  66  96 135 166 210 273 331 398
#     4  12  24  42  68 102 138 170 217 279 337 408
#     4  12  23  40  67 109 140 163 202 274 367 414
#     4  12  20  37  65 102 129 160 212 276 343 388
#     4  12  28  50  70  94 134 194 246 278 314 390
#     4  12  26  46  62  86 122 178 228 258 294 370
#
# _framework density 21.553037
#
# number of rings (size 3 to 8) (size 9 to 14) (size 15 to 20)
#    0.000    0.000    7.000    4.200    0.000    0.000 
#    0.000    6.000    0.000    0.000    0.000    0.000 
#    0.000    0.000    0.000    0.000    0.000    0.000 
#
# Total GULP energy -248020.373766 kJ/mol
# GULP energy per Si atom -12401.018688 kJ/mol
# Density = 2.150398 g / cm^3
# Si number density = 21.553037 Si / 1000 Ang^3
#
#
#
# Elastic Constant Matrix: (Units=GPa)
#
#
# Indices 1 2 3 4 5 6 
#
# 1 115.4086 32.8690 6.2522 0.0000 0.0000 0.0000
# 2 32.8690 77.4080 12.4873 0.0000 0.0000 0.0000
# 3 6.2522 12.4873 74.8248 0.0000 0.0000 0.0000
# 4 0.0000 0.0000 0.0000 31.5170 0.0000 0.0000
# 5 0.0000 0.0000 0.0000 0.0000 34.5501 0.0000
# 6 0.0000 0.0000 0.0000 0.0000 0.0000 19.5644
#
#
#
# Elastic Compliance Matrix: (Units=1/GPa)
#
#
# Indices 1 2 3 4 5 6 
#
# 1 0.009858 -0.004165 -0.000129 0.000000 0.000000 0.000000
# 2 -0.004165 0.015036 -0.002161 0.000000 0.000000 0.000000
# 3 -0.000129 -0.002161 0.013736 0.000000 0.000000 0.000000
# 4 0.000000 0.000000 0.000000 0.031729 0.000000 0.000000
# 5 0.000000 0.000000 0.000000 0.000000 0.028943 0.000000
# 6 0.000000 0.000000 0.000000 0.000000 0.000000 0.051113
#
#
# Mechanical properties :
#
#
# Convention : Reuss Voigt Hill
#
# Bulk Modulus (GPa) = 38.88053 41.20648 40.04350
# Shear Modulus (GPa) = 29.08687 31.52850 30.30769
#
# Velocity S-wave (km/s) = 3.67761 3.82885 3.75399
# Velocity P-wave (km/s) = 6.00930 6.22149 6.11631
#
# Compressibility (1/GPa) = 0.02571981
#
# Stress axis : x y z
#
# Youngs Moduli (GPa) = 101.43934 66.50775 72.80146
#
# Poissons Ratio (x) = 0.27702 0.00936
# Poissons Ratio (y) = 0.42252 0.15734
# Poissons Ratio (z) = 0.01304 0.14374
#
# Static dielectric constant tensor:
#      x y z
#    x 4.221090 0.000000 0.000000 
#    y 0.000000 3.568010 0.000000 
#    z 0.000000 0.000000 4.034270 
# 
# 
# High freq. dielectric constant tensor:
#      x y z
#    x 1.863430 0.000000 0.000000 
#    y 0.000000 1.811640 0.000000 
#    z 0.000000 0.000000 1.867030 
# 
# From -- ./inp_files/1602.got.cif
#   From: 2010.03.12/outbox.cif.g09.slc.cpg/sg46_1_cif.got.tgz:1602.got - 2010.04.14 02:56:35.
