data_PCOD8193277
_publ_section_title
;
Structure prediction by ZEFSAII (Michael W. Deem and Ramdas Pophale) SiO2 
 PCOD8193277
Probable space group: I M A 2
;
_chemical_formula_sum "Si O2"
_cell_formula_units_Z 48
_cell_length_a 21.912652
_cell_length_b 11.283698
_cell_length_c 8.126437
_cell_angle_alpha 90.000000
_cell_angle_beta 90.000000
_cell_angle_gamma 90.000000
_cell_volume 2009.308255
_symmetry_space_group_name_H-M "I M A 2"
_symmetry_group_IT_number 46
_symmetry_cell_setting 'orthorhombic'
loop_
_space_group_symop_operation_xyz
x,y,z
-x,-y,z
1/2-x,y,z
1/2+x,-y,z
1/2+x,1/2+y,1/2+z
1/2-x,1/2-y,1/2+z
-x,1/2+y,1/2+z
x,1/2-y,1/2+z
loop_
_atom_site_type_symbol
_atom_site_label
_atom_site_fract_x
_atom_site_fract_y
_atom_site_fract_z
Si Si1 0.129244 0.381751 0.025380
Si Si2 0.481732 0.623025 0.442200
Si Si3 0.680262 0.118636 0.459573
Si Si4 0.750000 0.789462 0.366424
Si Si5 0.848852 0.368129 0.591723
Si Si6 0.250000 0.438728 0.530546
Si Si7 0.446467 0.212754 0.237947
O O1 0.102976 0.312953 0.184055
O O2 0.142982 0.520417 0.066014
O O3 0.191483 0.322387 0.972001
O O4 0.081780 0.373666 0.873891
O O5 0.500000 0.500000 0.355480
O O6 0.413593 0.627765 0.505116
O O7 0.492396 0.725412 0.308729
O O8 0.532333 0.633936 0.586165
O O9 0.750000 0.075695 0.427278
O O10 0.682812 0.242980 0.552311
O O11 0.645178 0.126319 0.287122
O O12 0.750000 0.643862 0.365914
O O13 0.750000 0.850856 0.188548
O O14 0.809515 0.478408 0.526208
#
# Coordination Sequence:
#
# PCOD8193277 Si02
#       7
#     8   8   8   4   8   4   8
#     4  11  22  43  71 101 141 179 236 291 355 418
#     4  11  25  45  68  97 136 184 239 288 348 413
#     4  12  23  45  69 105 144 186 231 290 359 430
#     4  12  24  43  75 105 141 180 224 293 357 419
#     4  12  25  47  70 100 146 184 237 293 353 425
#     4  12  26  47  73 111 139 186 230 291 361 427
#     4  10  25  43  67 102 137 186 240 295 347 417
#
# _framework density 23.888819000000002
#
# number of rings (size 3 to 8) (size 9 to 14) (size 15 to 20)
#    0.000    0.667    4.167    3.000    4.667    2.667 
#    3.000    3.333    0.000    0.000    0.000    0.000 
#    0.000    0.000    0.000    0.000    0.000    0.000 
#
# Total GULP energy -297641.887223 kJ/mol
# GULP energy per Si atom -12401.745301 kJ/mol
# Density = 2.383445 g / cm^3
# Si number density = 23.888819 Si / 1000 Ang^3
#
#
#
# Elastic Constant Matrix: (Units=GPa)
#
#
# Indices 1 2 3 4 5 6 
#
# 1 119.9798 36.4647 10.8287 0.0000 0.0000 0.0000
# 2 36.4647 163.6222 21.3789 0.0000 0.0000 0.0000
# 3 10.8287 21.3789 35.1039 0.0000 0.0000 0.0000
# 4 0.0000 0.0000 0.0000 34.9544 0.0000 0.0000
# 5 0.0000 0.0000 0.0000 0.0000 33.4163 0.0000
# 6 0.0000 0.0000 0.0000 0.0000 0.0000 19.6570
#
#
#
# Elastic Compliance Matrix: (Units=1/GPa)
#
#
# Indices 1 2 3 4 5 6 
#
# 1 0.009032 -0.001791 -0.001695 0.000000 0.000000 0.000000
# 2 -0.001791 0.006995 -0.003708 0.000000 0.000000 0.000000
# 3 -0.001695 -0.003708 0.031268 0.000000 0.000000 0.000000
# 4 0.000000 0.000000 0.000000 0.028609 0.000000 0.000000
# 5 0.000000 0.000000 0.000000 0.000000 0.029926 0.000000
# 6 0.000000 0.000000 0.000000 0.000000 0.000000 0.050873
#
#
# Mechanical properties :
#
#
# Convention : Reuss Voigt Hill
#
# Bulk Modulus (GPa) = 30.38892 50.67227 40.53060
# Shear Modulus (GPa) = 27.46355 34.27445 30.86900
#
# Velocity S-wave (km/s) = 3.39431 3.79192 3.59861
# Velocity P-wave (km/s) = 5.30193 6.35840 5.85404
#
# Compressibility (1/GPa) = 0.03290673
#
# Stress axis : x y z
#
# Youngs Moduli (GPa) = 110.71513 142.95280 31.98180
#
# Poissons Ratio (x) = 0.25609 0.05422
# Poissons Ratio (y) = 0.19834 0.11858
# Poissons Ratio (z) = 0.18769 0.53002
#
# Static dielectric constant tensor:
#      x y z
#    x 4.344600 0.000000 0.000000 
#    y 0.000000 4.670280 0.000000 
#    z 0.000000 0.000000 4.155810 
# 
# 
# High freq. dielectric constant tensor:
#      x y z
#    x 1.958320 0.000000 0.000000 
#    y 0.000000 1.962580 0.000000 
#    z 0.000000 0.000000 1.931990 
# 
# From -- ./inp_files/7844.got.cif
#   From: 2010.03.12/outbox.cif.g09.slc.cpg/sg46_4_cif.got.tgz:7844.got - 2010.04.14 02:56:35.
