data_PCOD8193900
_publ_section_title
;
Structure prediction by ZEFSAII (Michael W. Deem and Ramdas Pophale) SiO2 
 PCOD8193900
Probable space group: P M M M
;
_chemical_formula_sum "Si O2"
_cell_formula_units_Z 40
_cell_length_a 19.176418
_cell_length_b 11.687029
_cell_length_c 10.550525
_cell_angle_alpha 90.000000
_cell_angle_beta 90.000000
_cell_angle_gamma 90.000000
_cell_volume 2364.534638
_symmetry_space_group_name_H-M "P M M M"
_symmetry_group_IT_number 47
_symmetry_cell_setting 'orthorhombic'
loop_
_space_group_symop_operation_xyz
x,y,z
-x,-y,z
x,-y,-z
-x,y,-z
-x,-y,-z
x,y,-z
-x,y,z
x,-y,z
loop_
_atom_site_type_symbol
_atom_site_label
_atom_site_fract_x
_atom_site_fract_y
_atom_site_fract_z
Si Si1 0.421010 0.753824 0.361771
Si Si2 0.922033 0.628625 0.849054
Si Si3 0.662267 0.367627 0.142737
Si Si4 0.577673 0.000000 0.267034
Si Si5 0.203533 0.227922 0.144465
Si Si6 0.273530 0.000000 0.850656
O O1 0.390452 0.716598 0.500000
O O2 0.500000 0.710819 0.351651
O O3 0.381675 0.700877 0.243946
O O4 0.416320 0.890404 0.356511
O O5 0.906263 0.500000 0.798232
O O6 0.867516 0.722272 0.791729
O O7 0.000000 0.665838 0.808160
O O8 0.915044 0.626787 0.000000
O O9 0.656103 0.500000 0.174374
O O10 0.742178 0.331455 0.154346
O O11 0.634803 0.340482 0.000000
O O12 0.643130 0.000000 0.171034
O O13 0.500000 0.000000 0.199103
O O14 0.235269 0.112583 0.209199
O O15 0.187314 0.195994 0.000000
O O16 0.264732 0.000000 0.000000
#
# Coordination Sequence:
#
# PCOD8193900 Si02
#       6
#     8   8   8   4   8   4
#     4  10  21  36  53  72  95 124 159 203 252 298
#     4   8  13  22  38  60  87 123 164 198 230 279
#     4  10  20  33  50  71  96 129 165 200 243 294
#     4  10  19  33  52  70  89 119 161 204 246 295
#     4   9  16  27  42  63  93 124 157 198 243 288
#     4  10  18  28  44  68  94 124 158 199 251 301
#
# _framework density 16.916647999999999
#
# number of rings (size 3 to 8) (size 9 to 14) (size 15 to 20)
#    0.000    2.600    2.000    1.500    0.000    5.000 
#    0.000    4.500    0.000    3.000    0.000    0.000 
#    0.000    0.800    0.000    6.000    0.000    4.800 
#
# Total GULP energy -495530.052088 kJ/mol
# GULP energy per Si atom -12388.251302 kJ/mol
# Density = 1.687815 g / cm^3
# Si number density = 16.916648 Si / 1000 Ang^3
#
#
#
# Elastic Constant Matrix: (Units=GPa)
#
#
# Indices 1 2 3 4 5 6 
#
# 1 120.5850 61.8965 32.4074 0.0000 0.0000 0.0000
# 2 61.8965 95.0571 32.8243 0.0000 0.0000 0.0000
# 3 32.4074 32.8243 54.2153 0.0000 0.0000 0.0000
# 4 0.0000 0.0000 0.0000 9.9696 0.0000 0.0000
# 5 0.0000 0.0000 0.0000 0.0000 -1.2828 0.0000
# 6 0.0000 0.0000 0.0000 0.0000 0.0000 59.5278
#
#
#
# Elastic Compliance Matrix: (Units=1/GPa)
#
#
# Indices 1 2 3 4 5 6 
#
# 1 0.012913 -0.007261 -0.003323 0.000000 0.000000 0.000000
# 2 -0.007261 0.017384 -0.006185 0.000000 0.000000 0.000000
# 3 -0.003323 -0.006185 0.024175 0.000000 0.000000 0.000000
# 4 0.000000 0.000000 0.000000 0.100305 0.000000 0.000000
# 5 0.000000 0.000000 0.000000 0.000000 -0.779533 0.000000
# 6 0.000000 0.000000 0.000000 0.000000 0.000000 0.016799
#
#
# Mechanical properties :
#
#
# Convention : Reuss Voigt Hill
#
# Bulk Modulus (GPa) = 47.76519 58.23485 53.00002
# Shear Modulus (GPa) = -8.81146 23.15820 7.17337
#
# Velocity S-wave (km/s) = -2.28474 3.70396 2.06146
# Velocity P-wave (km/s) = 4.61918 7.26579 6.08804
#
# Compressibility (1/GPa) = 0.02093575
#
# Stress axis : x y z
#
# Youngs Moduli (GPa) = 77.44194 57.52577 41.36426
#
# Poissons Ratio (x) = 0.41769 0.13744
# Poissons Ratio (y) = 0.56230 0.25582
# Poissons Ratio (z) = 0.25731 0.35577
#
# Static dielectric constant tensor:
#      x y z
#    x 3.356250 0.000000 0.000000 
#    y 0.000000 3.472350 0.000000 
#    z 0.000000 0.000000 2.724590 
# 
# 
# High freq. dielectric constant tensor:
#      x y z
#    x 1.651660 0.000000 0.000000 
#    y 0.000000 1.660860 0.000000 
#    z 0.000000 0.000000 1.592080 
# 
# From -- ./inp_files/10719.got.cif
#   From: 2010.03.12/outbox.cif.g09.slc.cpg/sg47_6_cif.got.tgz:10719.got - 2010.04.14 03:12:58.
