data_PCOD8193377
_publ_section_title
;
Structure prediction by ZEFSAII (Michael W. Deem and Ramdas Pophale) SiO2 
 PCOD8193377
Probable space group: I M A 2
;
_chemical_formula_sum "Si O2"
_cell_formula_units_Z 40
_cell_length_a 10.036540
_cell_length_b 8.902637
_cell_length_c 22.107159
_cell_angle_alpha 90.000000
_cell_angle_beta 90.000000
_cell_angle_gamma 90.000000
_cell_volume 1975.311628
_symmetry_space_group_name_H-M "I M A 2"
_symmetry_group_IT_number 46
_symmetry_cell_setting 'orthorhombic'
loop_
_space_group_symop_operation_xyz
x,y,z
-x,-y,z
1/2-x,y,z
1/2+x,-y,z
1/2+x,1/2+y,1/2+z
1/2-x,1/2-y,1/2+z
-x,1/2+y,1/2+z
x,1/2-y,1/2+z
loop_
_atom_site_type_symbol
_atom_site_label
_atom_site_fract_x
_atom_site_fract_y
_atom_site_fract_z
Si Si1 0.909751 0.855447 0.795370
Si Si2 0.990293 0.675126 0.161259
Si Si3 0.250000 0.826500 0.110032
Si Si4 0.250000 0.334463 0.468551
Si Si5 0.750000 0.660312 0.606026
Si Si6 0.750000 0.171320 0.963596
Si Si7 0.490374 0.322013 0.909908
O O1 0.750000 0.890929 0.797578
O O2 0.951415 0.790768 0.730385
O O3 0.949229 0.727171 0.842588
O O4 0.000000 0.000000 0.810593
O O5 0.878395 0.743325 0.119419
O O6 0.000000 0.500000 0.148955
O O7 0.126251 0.748334 0.141229
O O8 0.250000 0.996097 0.136154
O O9 0.250000 0.811440 0.036833
O O10 0.250000 0.380350 0.536933
O O11 0.250000 0.499806 0.437673
O O12 0.122096 0.235871 0.454812
O O13 0.625212 0.251838 0.933978
O O14 0.500000 0.500000 0.911610
#
# Coordination Sequence:
#
# PCOD8193377 Si02
#       7
#     8   8   4   4   4   4   8
#     4  11  25  46  71  98 133 179 226 268 333 410
#     4  11  24  42  68  97 131 174 221 273 329 394
#     4  11  25  42  67 100 135 172 224 267 332 397
#     4  11  23  44  67  92 133 180 222 263 328 411
#     4  11  23  42  67  96 133 176 218 273 330 393
#     4  11  25  44  67  98 131 182 220 263 330 409
#     4  12  26  42  67 100 134 167 221 284 336 382
#
# _framework density 20.249969
#
# number of rings (size 3 to 8) (size 9 to 14) (size 15 to 20)
#    0.000    0.800    2.000    4.800    5.600    9.600 
#    0.000    0.000    0.000    0.000    0.000    0.000 
#    0.000    0.000    0.000    0.000    0.000    0.000 
#
# Total GULP energy -247973.619887 kJ/mol
# GULP energy per Si atom -12398.680994 kJ/mol
# Density = 2.020388 g / cm^3
# Si number density = 20.249969 Si / 1000 Ang^3
#
#
#
# Elastic Constant Matrix: (Units=GPa)
#
#
# Indices 1 2 3 4 5 6 
#
# 1 210.3850 82.9978 57.2061 0.0000 0.0000 0.0000
# 2 82.9978 165.4184 54.6136 0.0000 0.0000 0.0000
# 3 57.2061 54.6136 84.3931 0.0000 0.0000 0.0000
# 4 0.0000 0.0000 0.0000 32.7845 0.0000 0.0000
# 5 0.0000 0.0000 0.0000 0.0000 47.6346 0.0000
# 6 0.0000 0.0000 0.0000 0.0000 0.0000 51.7445
#
#
#
# Elastic Compliance Matrix: (Units=1/GPa)
#
#
# Indices 1 2 3 4 5 6 
#
# 1 0.006437 -0.002275 -0.002891 0.000000 0.000000 0.000000
# 2 -0.002275 0.008492 -0.003953 0.000000 0.000000 0.000000
# 3 -0.002891 -0.003953 0.016367 0.000000 0.000000 0.000000
# 4 0.000000 0.000000 0.000000 0.030502 0.000000 0.000000
# 5 0.000000 0.000000 0.000000 0.000000 0.020993 0.000000
# 6 0.000000 0.000000 0.000000 0.000000 0.000000 0.019326
#
#
# Mechanical properties :
#
#
# Convention : Reuss Voigt Hill
#
# Bulk Modulus (GPa) = 76.58476 94.42574 85.50525
# Shear Modulus (GPa) = 40.09361 44.12464 42.10912
#
# Velocity S-wave (km/s) = 4.45447 4.67304 4.56506
# Velocity P-wave (km/s) = 8.02236 8.70906 8.37275
#
# Compressibility (1/GPa) = 0.01305743
#
# Stress axis : x y z
#
# Youngs Moduli (GPa) = 155.35598 117.75752 61.09800
#
# Poissons Ratio (x) = 0.26792 0.17663
# Poissons Ratio (y) = 0.35347 0.24153
# Poissons Ratio (z) = 0.44911 0.46552
#
# Static dielectric constant tensor:
#      x y z
#    x 3.806680 0.000000 0.000000 
#    y 0.000000 3.814660 0.000000 
#    z 0.000000 0.000000 3.879620 
# 
# 
# High freq. dielectric constant tensor:
#      x y z
#    x 1.814700 0.000000 0.000000 
#    y 0.000000 1.802160 0.000000 
#    z 0.000000 0.000000 1.802960 
# 
# From -- ./inp_files/22788.got.cif
#   From: 2010.03.12/outbox.cif.g09.slc.cpg/sg46_12_cif.got.tgz:22788.got - 2010.04.14 02:56:35.
