data_PCOD8193885
_publ_section_title
;
Structure prediction by ZEFSAII (Michael W. Deem and Ramdas Pophale) SiO2 
 PCOD8193885
Probable space group: P M M M
;
_chemical_formula_sum "Si O2"
_cell_formula_units_Z 40
_cell_length_a 9.226689
_cell_length_b 20.716497
_cell_length_c 14.163565
_cell_angle_alpha 90.000000
_cell_angle_beta 90.000000
_cell_angle_gamma 90.000000
_cell_volume 2707.290029
_symmetry_space_group_name_H-M "P M M M"
_symmetry_group_IT_number 47
_symmetry_cell_setting 'orthorhombic'
loop_
_space_group_symop_operation_xyz
x,y,z
-x,-y,z
x,-y,-z
-x,y,-z
-x,-y,-z
x,y,-z
-x,y,z
x,-y,z
loop_
_atom_site_type_symbol
_atom_site_label
_atom_site_fract_x
_atom_site_fract_y
_atom_site_fract_z
Si Si1 0.831185 0.426105 0.392925
Si Si2 0.668566 0.250027 0.890697
Si Si3 0.664238 0.000000 0.112666
Si Si4 0.672473 0.500000 0.894256
Si Si5 0.836296 0.876051 0.112311
Si Si6 0.671132 0.623134 0.221093
O O1 0.797406 0.404822 0.500000
O O2 0.781441 0.500000 0.377400
O O3 0.742462 0.379148 0.324255
O O4 0.000000 0.418971 0.370740
O O5 0.500000 0.234042 0.876348
O O6 0.759569 0.189295 0.852899
O O7 0.718524 0.311385 0.830335
O O8 0.701629 0.265155 0.000000
O O9 0.747197 0.937079 0.152030
O O10 0.500000 0.000000 0.151340
O O11 0.663754 0.000000 0.000000
O O12 0.500000 0.500000 0.898146
O O13 0.729900 0.436585 0.840864
O O14 0.736483 0.500000 0.000000
O O15 0.000000 0.878515 0.151798
O O16 0.836446 0.878388 0.000000
O O17 0.500000 0.619270 0.233212
#
# Coordination Sequence:
#
# PCOD8193885 Si02
#       6
#     8   8   4   4   8   8
#     4   9  18  32  47  61  79 103 129 163 213 266
#     4   9  17  28  40  56  81 112 142 170 204 247
#     4   9  15  23  37  55  75 101 134 173 212 245
#     4   9  16  26  40  59  82 106 135 171 208 243
#     4   9  16  25  37  54  76 104 139 175 206 238
#     4  10  18  28  44  64  81 103 137 175 210 245
#
# _framework density 14.774922999999999
#
# number of rings (size 3 to 8) (size 9 to 14) (size 15 to 20)
#    0.000    2.800    1.000    2.100    0.000    7.200 
#    0.000    1.000    0.000    2.400    0.000    0.000 
#    0.000    0.000    0.000    0.900    0.000   16.900 
#
# Total GULP energy -495980.600779 kJ/mol
# GULP energy per Si atom -12399.515019 kJ/mol
# Density = 1.474129 g / cm^3
# Si number density = 14.774923 Si / 1000 Ang^3
#
#
#
# Elastic Constant Matrix: (Units=GPa)
#
#
# Indices 1 2 3 4 5 6 
#
# 1 71.1748 61.9007 30.8390 0.0000 0.0000 0.0000
# 2 61.9007 135.9357 45.3388 0.0000 0.0000 0.0000
# 3 30.8390 45.3388 65.3878 0.0000 0.0000 0.0000
# 4 0.0000 0.0000 0.0000 5.6887 0.0000 0.0000
# 5 0.0000 0.0000 0.0000 0.0000 17.0923 0.0000
# 6 0.0000 0.0000 0.0000 0.0000 0.0000 22.6233
#
#
#
# Elastic Compliance Matrix: (Units=1/GPa)
#
#
# Indices 1 2 3 4 5 6 
#
# 1 0.024438 -0.009475 -0.004956 0.000000 0.000000 0.000000
# 2 -0.009475 0.013243 -0.004714 0.000000 0.000000 0.000000
# 3 -0.004956 -0.004714 0.020899 0.000000 0.000000 0.000000
# 4 0.000000 0.000000 0.000000 0.175787 0.000000 0.000000
# 5 0.000000 0.000000 0.000000 0.000000 0.058506 0.000000
# 6 0.000000 0.000000 0.000000 0.000000 0.000000 0.044202
#
#
# Mechanical properties :
#
#
# Convention : Reuss Voigt Hill
#
# Bulk Modulus (GPa) = 49.28376 60.96171 55.12273
# Shear Modulus (GPa) = 13.08460 18.04219 15.56339
#
# Velocity S-wave (km/s) = 2.97912 3.49827 3.24908
# Velocity P-wave (km/s) = 6.72773 7.59388 7.17389
#
# Compressibility (1/GPa) = 0.02029066
#
# Stress axis : x y z
#
# Youngs Moduli (GPa) = 40.92023 75.50937 47.84889
#
# Poissons Ratio (x) = 0.71547 0.23712
# Poissons Ratio (y) = 0.38773 0.22555
# Poissons Ratio (z) = 0.20279 0.35594
#
# Static dielectric constant tensor:
#      x y z
#    x 2.819740 0.000000 0.000000 
#    y 0.000000 2.912150 0.000000 
#    z 0.000000 0.000000 2.542950 
# 
# 
# High freq. dielectric constant tensor:
#      x y z
#    x 1.563490 0.000000 0.000000 
#    y 0.000000 1.563050 0.000000 
#    z 0.000000 0.000000 1.517580 
# 
# From -- ./inp_files/6625.got.cif
#   From: 2010.03.12/outbox.cif.g09.slc.cpg/sg47_4_cif.got.tgz:6625.got - 2010.04.14 03:12:58.
