data_PCOD8193875
_publ_section_title
;
Structure prediction by ZEFSAII (Michael W. Deem and Ramdas Pophale) SiO2 
 PCOD8193875
Probable space group: P M M M
;
_chemical_formula_sum "Si O2"
_cell_formula_units_Z 60
_cell_length_a 19.141590
_cell_length_b 14.379812
_cell_length_c 13.409145
_cell_angle_alpha 90.000000
_cell_angle_beta 90.000000
_cell_angle_gamma 90.000000
_cell_volume 3690.900223
_symmetry_space_group_name_H-M "P M M M"
_symmetry_group_IT_number 47
_symmetry_cell_setting 'orthorhombic'
loop_
_space_group_symop_operation_xyz
x,y,z
-x,-y,z
x,-y,-z
-x,y,-z
-x,-y,-z
x,y,-z
-x,y,z
x,-y,z
loop_
_atom_site_type_symbol
_atom_site_label
_atom_site_fract_x
_atom_site_fract_y
_atom_site_fract_z
Si Si1 0.421403 0.889594 0.500000
Si Si2 0.339186 0.889343 0.303853
Si Si3 0.919110 0.108293 0.697212
Si Si4 0.578681 0.110369 0.889283
Si Si5 0.157195 0.397542 0.611053
Si Si6 0.210283 0.796355 0.612036
Si Si7 0.918514 0.600376 0.807055
Si Si8 0.082553 0.210790 0.108115
O O1 0.500000 0.849645 0.500000
O O2 0.383716 0.854214 0.399174
O O3 0.422691 0.000000 0.500000
O O4 0.373014 0.851585 0.200623
O O5 0.261979 0.845843 0.310413
O O6 0.332572 0.000000 0.303468
O O7 0.869051 0.166749 0.625094
O O8 0.897689 0.133132 0.810969
O O9 0.000000 0.134980 0.675577
O O10 0.906176 0.000000 0.679567
O O11 0.500000 0.147937 0.872889
O O12 0.577685 0.000000 0.883711
O O13 0.605716 0.141678 0.000000
O O14 0.125359 0.386075 0.500000
O O15 0.193221 0.500000 0.622232
O O16 0.213234 0.315132 0.629689
O O17 0.094418 0.387177 0.689217
O O18 0.234048 0.821538 0.500000
O O19 0.887619 0.500000 0.843907
O O20 0.884432 0.687828 0.864792
O O21 0.000000 0.600226 0.825794
O O22 0.000000 0.221844 0.103818
O O23 0.111932 0.179752 0.000000
#
# Coordination Sequence:
#
# PCOD8193875 Si02
#       8
#     4   8   8   8   8   8   8   8
#     4   9  16  26  42  66  96 128 156 183 220 268
#     4  10  18  28  43  67  98 129 159 190 225 269
#     4  10  21  35  48  63  85 119 165 206 237 274
#     4   8  14  26  45  68  96 131 163 188 219 262
#     4   9  18  31  47  66  86 111 145 184 229 287
#     4  11  21  33  49  67  92 122 153 194 243 285
#     4   9  16  27  45  68  90 108 132 177 239 297
#     4   9  17  30  46  63  83 107 142 188 236 284
#
# _framework density 16.256197
#
# number of rings (size 3 to 8) (size 9 to 14) (size 15 to 20)
#    0.000    2.600    2.000    1.200    0.000    3.467 
#    0.000    6.667    0.000    1.600    0.000    0.000 
#    0.000    2.667    0.000    1.467    0.000    0.133 
#
# Total GULP energy -743391.865864 kJ/mol
# GULP energy per Si atom -12389.864431 kJ/mol
# Density = 1.621920 g / cm^3
# Si number density = 16.256197 Si / 1000 Ang^3
#
#
#
# Elastic Constant Matrix: (Units=GPa)
#
#
# Indices 1 2 3 4 5 6 
#
# 1 60.3616 23.4931 30.4802 0.0000 0.0000 0.0000
# 2 23.4931 59.2538 20.0548 0.0000 0.0000 0.0000
# 3 30.4802 20.0548 92.8734 0.0000 0.0000 0.0000
# 4 0.0000 0.0000 0.0000 18.0043 0.0000 0.0000
# 5 0.0000 0.0000 0.0000 0.0000 22.5635 0.0000
# 6 0.0000 0.0000 0.0000 0.0000 0.0000 8.4743
#
#
#
# Elastic Compliance Matrix: (Units=1/GPa)
#
#
# Indices 1 2 3 4 5 6 
#
# 1 0.022148 -0.006819 -0.005796 0.000000 0.000000 0.000000
# 2 -0.006819 0.020307 -0.002147 0.000000 0.000000 0.000000
# 3 -0.005796 -0.002147 0.013133 0.000000 0.000000 0.000000
# 4 0.000000 0.000000 0.000000 0.055542 0.000000 0.000000
# 5 0.000000 0.000000 0.000000 0.000000 0.044319 0.000000
# 6 0.000000 0.000000 0.000000 0.000000 0.000000 0.118004
#
#
# Mechanical properties :
#
#
# Convention : Reuss Voigt Hill
#
# Bulk Modulus (GPa) = 38.36874 40.06057 39.21466
# Shear Modulus (GPa) = 16.04282 19.03913 17.54098
#
# Velocity S-wave (km/s) = 3.14486 3.42598 3.28843
# Velocity P-wave (km/s) = 6.06965 6.35189 6.21238
#
# Compressibility (1/GPa) = 0.02606288
#
# Stress axis : x y z
#
# Youngs Moduli (GPa) = 45.15113 49.24408 76.14289
#
# Poissons Ratio (x) = 0.33582 0.44134
# Poissons Ratio (y) = 0.30791 0.16347
# Poissons Ratio (z) = 0.26170 0.10572
#
# Static dielectric constant tensor:
#      x y z
#    x 2.778070 0.000000 0.000000 
#    y 0.000000 3.100210 0.000000 
#    z 0.000000 0.000000 3.378630 
# 
# 
# High freq. dielectric constant tensor:
#      x y z
#    x 1.579850 0.000000 0.000000 
#    y 0.000000 1.603200 0.000000 
#    z 0.000000 0.000000 1.636010 
# 
# From -- ./inp_files/19330.got.cif
#   From: 2010.03.12/outbox.cif.g09.slc.cpg/sg47_10_cif.got.tgz:19330.got - 2010.04.14 03:12:58.
