data_PCOD8193934
_publ_section_title
;
Structure prediction by ZEFSAII (Michael W. Deem and Ramdas Pophale) SiO2 
 PCOD8193934
Probable space group: P M M M
;
_chemical_formula_sum "Si O2"
_cell_formula_units_Z 64
_cell_length_a 9.363200
_cell_length_b 13.241656
_cell_length_c 29.080463
_cell_angle_alpha 90.000000
_cell_angle_beta 90.000000
_cell_angle_gamma 90.000000
_cell_volume 3605.520077
_symmetry_space_group_name_H-M "P M M M"
_symmetry_group_IT_number 47
_symmetry_cell_setting 'orthorhombic'
loop_
_space_group_symop_operation_xyz
x,y,z
-x,-y,z
x,-y,-z
-x,y,-z
-x,-y,-z
x,y,-z
-x,y,z
x,-y,z
loop_
_atom_site_type_symbol
_atom_site_label
_atom_site_fract_x
_atom_site_fract_y
_atom_site_fract_z
Si Si1 0.168813 0.613270 0.050380
Si Si2 0.843055 0.615738 0.704562
Si Si3 0.331422 0.290295 0.630343
Si Si4 0.665524 0.885240 0.699268
Si Si5 0.165724 0.114344 0.790412
Si Si6 0.167034 0.709831 0.857879
Si Si7 0.656731 0.384041 0.215132
Si Si8 0.836000 0.383925 0.446543
O O1 0.224852 0.500000 0.062981
O O2 0.212795 0.697638 0.088512
O O3 0.000000 0.608841 0.047696
O O4 0.229444 0.645642 0.000000
O O5 0.866873 0.500000 0.716882
O O6 0.749801 0.622778 0.658604
O O7 0.753304 0.669359 0.745493
O O8 0.000000 0.667442 0.699949
O O9 0.500000 0.309961 0.628778
O O10 0.294001 0.183690 0.655055
O O11 0.265216 0.302520 0.579449
O O12 0.500000 0.873241 0.711247
O O13 0.750191 0.851499 0.744825
O O14 0.704417 0.000000 0.685478
O O15 0.206653 0.182009 0.835155
O O16 0.000000 0.125396 0.778573
O O17 0.206133 0.000000 0.804067
O O18 0.260031 0.625074 0.832591
O O19 0.000000 0.685562 0.851395
O O20 0.500000 0.331832 0.213491
O O21 0.635088 0.500000 0.227475
O O22 0.818776 0.359189 0.500000
O O23 0.789660 0.500000 0.436743
O O24 0.000000 0.368736 0.430953
#
# Coordination Sequence:
#
# PCOD8193934 Si02
#       8
#     8   8   8   8   8   8   8   8
#     4   8  14  25  42  65  90 115 150 196 236 273
#     4  10  20  32  45  63  92 129 161 186 220 275
#     4  11  21  31  49  75  98 122 156 200 244 281
#     4   9  19  35  51  68  94 127 160 193 232 282
#     4   9  18  31  46  67  94 121 152 193 238 280
#     4  10  18  28  46  67  87 117 155 192 231 279
#     4  10  20  31  42  61  92 123 149 184 229 274
#     4   9  19  36  55  74  99 132 166 197 232 279
#
# _framework density 17.750558999999999
#
# number of rings (size 3 to 8) (size 9 to 14) (size 15 to 20)
#    0.000    2.500    0.000    3.375    0.000    7.500 
#    0.000    0.625    0.000    1.125    0.000    7.000 
#    0.000    0.000    0.000    4.250    0.000    4.625 
#
# Total GULP energy -793047.576076 kJ/mol
# GULP energy per Si atom -12391.368376 kJ/mol
# Density = 1.771016 g / cm^3
# Si number density = 17.750559 Si / 1000 Ang^3
#
#
#
# Elastic Constant Matrix: (Units=GPa)
#
#
# Indices 1 2 3 4 5 6 
#
# 1 90.1767 36.3503 54.8787 0.0000 0.0000 0.0000
# 2 36.3503 79.2713 52.8948 0.0000 0.0000 0.0000
# 3 54.8787 52.8948 127.7904 0.0000 0.0000 0.0000
# 4 0.0000 0.0000 0.0000 28.4672 0.0000 0.0000
# 5 0.0000 0.0000 0.0000 0.0000 7.3247 0.0000
# 6 0.0000 0.0000 0.0000 0.0000 0.0000 16.7986
#
#
#
# Elastic Compliance Matrix: (Units=1/GPa)
#
#
# Indices 1 2 3 4 5 6 
#
# 1 0.015781 -0.003750 -0.005225 0.000000 0.000000 0.000000
# 2 -0.003750 0.018320 -0.005972 0.000000 0.000000 0.000000
# 3 -0.005225 -0.005972 0.012541 0.000000 0.000000 0.000000
# 4 0.000000 0.000000 0.000000 0.035128 0.000000 0.000000
# 5 0.000000 0.000000 0.000000 0.000000 0.136524 0.000000
# 6 0.000000 0.000000 0.000000 0.000000 0.000000 0.059529
#
#
# Mechanical properties :
#
#
# Convention : Reuss Voigt Hill
#
# Bulk Modulus (GPa) = 59.71179 65.05401 62.38290
# Shear Modulus (GPa) = 15.95919 20.72573 18.34246
#
# Velocity S-wave (km/s) = 3.00172 3.42074 3.21806
# Velocity P-wave (km/s) = 6.76211 7.23398 7.00202
#
# Compressibility (1/GPa) = 0.01674711
#
# Stress axis : x y z
#
# Youngs Moduli (GPa) = 63.36918 54.58609 79.73785
#
# Poissons Ratio (x) = 0.20470 0.41660
# Poissons Ratio (y) = 0.23764 0.47623
# Poissons Ratio (z) = 0.33108 0.32601
#
# Static dielectric constant tensor:
#      x y z
#    x 3.397610 0.000000 0.000000 
#    y 0.000000 3.202150 0.000000 
#    z 0.000000 0.000000 3.438860 
# 
# 
# High freq. dielectric constant tensor:
#      x y z
#    x 1.681550 0.000000 0.000000 
#    y 0.000000 1.667140 0.000000 
#    z 0.000000 0.000000 1.675810 
# 
# From -- ./inp_files/34476.got.cif
#   From: 2010.03.12/outbox.cif.g09.slc.cpg/sg47_18_cif.got.tgz:34476.got - 2010.04.14 03:12:58.
