data_PCOD8193395
_publ_section_title
;
Structure prediction by ZEFSAII (Michael W. Deem and Ramdas Pophale) SiO2 
 PCOD8193395
Probable space group: I M A 2
;
_chemical_formula_sum "Si O2"
_cell_formula_units_Z 48
_cell_length_a 9.240514
_cell_length_b 22.868464
_cell_length_c 11.602634
_cell_angle_alpha 90.000000
_cell_angle_beta 90.000000
_cell_angle_gamma 90.000000
_cell_volume 2451.826404
_symmetry_space_group_name_H-M "I M A 2"
_symmetry_group_IT_number 46
_symmetry_cell_setting 'orthorhombic'
loop_
_space_group_symop_operation_xyz
x,y,z
-x,-y,z
1/2-x,y,z
1/2+x,-y,z
1/2+x,1/2+y,1/2+z
1/2-x,1/2-y,1/2+z
-x,1/2+y,1/2+z
x,1/2-y,1/2+z
loop_
_atom_site_type_symbol
_atom_site_label
_atom_site_fract_x
_atom_site_fract_y
_atom_site_fract_z
Si Si1 0.420352 0.437155 0.752560
Si Si2 0.093549 0.947113 0.841316
Si Si3 0.090374 0.656287 0.174676
Si Si4 0.582143 0.846520 0.445604
Si Si5 0.579493 0.267873 0.388892
Si Si6 0.421398 0.871274 0.052552
O O1 0.500000 0.500000 0.746966
O O2 0.250000 0.446549 0.726815
O O3 0.444521 0.407363 0.877414
O O4 0.486507 0.389885 0.663414
O O5 0.250000 0.971391 0.876786
O O6 0.107944 0.905969 0.732453
O O7 0.027956 0.915448 0.952734
O O8 0.000000 0.000000 0.798477
O O9 0.250000 0.676095 0.127904
O O10 0.030988 0.700825 0.270845
O O11 0.975733 0.648452 0.074318
O O12 0.750000 0.831038 0.449417
O O13 0.500845 0.793379 0.384537
O O14 0.750000 0.257721 0.385751
O O15 0.540852 0.306101 0.503901
O O16 0.250000 0.875499 0.078799
#
# Coordination Sequence:
#
# PCOD8193395 Si02
#       6
#     8   8   8   8   8   8
#     4  11  25  42  59  85 121 162 205 248 297 354
#     4   9  18  33  55  84 115 145 185 235 285 339
#     4   9  20  39  59  82 112 149 194 237 283 350
#     4  11  25  40  57  85 120 154 193 246 301 352
#     4   9  20  39  63  89 116 151 197 242 293 358
#     4   9  19  37  61  89 118 151 193 242 292 350
#
# _framework density 19.577242999999999
#
# number of rings (size 3 to 8) (size 9 to 14) (size 15 to 20)
#    0.000    2.333    0.000    3.500    2.333    7.333 
#    0.000    6.667    0.000    0.000    0.000    0.000 
#    0.000    0.000    0.000    0.000    0.000    0.000 
#
# Total GULP energy -297459.976823 kJ/mol
# GULP energy per Si atom -12394.165701 kJ/mol
# Density = 1.953268 g / cm^3
# Si number density = 19.577243 Si / 1000 Ang^3
#
#
#
# Elastic Constant Matrix: (Units=GPa)
#
#
# Indices 1 2 3 4 5 6 
#
# 1 78.7998 40.4154 43.5185 -0.0001 -0.0001 0.0000
# 2 40.4154 81.0143 25.4404 -0.0002 -0.0002 -0.0001
# 3 43.5185 25.4404 102.6532 0.0004 -0.0006 -0.0003
# 4 -0.0001 -0.0002 0.0004 13.5074 0.0000 0.0000
# 5 -0.0001 -0.0002 -0.0006 0.0000 34.1064 0.0001
# 6 0.0000 -0.0001 -0.0003 0.0000 0.0001 32.3846
#
#
#
# Elastic Compliance Matrix: (Units=1/GPa)
#
#
# Indices 1 2 3 4 5 6 
#
# 1 0.020576 -0.008161 -0.006701 0.000000 0.000000 0.000000
# 2 -0.008161 0.016622 -0.000660 0.000000 0.000000 0.000000
# 3 -0.006701 -0.000660 0.012746 0.000000 0.000000 0.000000
# 4 0.000000 0.000000 0.000000 0.074033 0.000000 0.000000
# 5 0.000000 0.000000 0.000000 0.000000 0.029320 0.000000
# 6 0.000000 0.000000 0.000000 0.000000 0.000000 0.030879
#
#
# Mechanical properties :
#
#
# Convention : Reuss Voigt Hill
#
# Bulk Modulus (GPa) = 52.90530 53.46844 53.18687
# Shear Modulus (GPa) = 22.57143 26.20590 24.38867
#
# Velocity S-wave (km/s) = 3.39918 3.66264 3.53337
# Velocity P-wave (km/s) = 6.51832 6.72736 6.62367
#
# Compressibility (1/GPa) = 0.01890170
#
# Stress axis : x y z
#
# Youngs Moduli (GPa) = 48.59914 60.16195 78.45787
#
# Poissons Ratio (x) = 0.49097 0.52572
# Poissons Ratio (y) = 0.39661 0.05176
# Poissons Ratio (z) = 0.32565 0.03969
#
# Static dielectric constant tensor:
#      x y z
#    x 2.927950 0.000000 -0.000010 
#    y 0.000000 3.566300 0.000000 
#    z -0.000010 0.000000 3.562820 
# 
# 
# High freq. dielectric constant tensor:
#      x y z
#    x 1.756580 0.000000 0.000000 
#    y 0.000000 1.765660 0.000000 
#    z 0.000000 0.000000 1.764140 
# 
# From -- ./inp_files/9310.got.cif
#   From: 2010.03.12/outbox.cif.g09.slc.cpg/sg46_5_cif.got.tgz:9310.got - 2010.04.14 02:56:35.
