data_PCOD8193872
_publ_section_title
;
Structure prediction by ZEFSAII (Michael W. Deem and Ramdas Pophale) SiO2 
 PCOD8193872
Probable space group: P M M M
;
_chemical_formula_sum "Si O2"
_cell_formula_units_Z 44
_cell_length_a 18.942348
_cell_length_b 13.359983
_cell_length_c 10.247316
_cell_angle_alpha 90.000000
_cell_angle_beta 90.000000
_cell_angle_gamma 90.000000
_cell_volume 2593.282596
_symmetry_space_group_name_H-M "P M M M"
_symmetry_group_IT_number 47
_symmetry_cell_setting 'orthorhombic'
loop_
_space_group_symop_operation_xyz
x,y,z
-x,-y,z
x,-y,-z
-x,y,-z
-x,-y,-z
x,y,-z
-x,y,z
x,-y,z
loop_
_atom_site_type_symbol
_atom_site_label
_atom_site_fract_x
_atom_site_fract_y
_atom_site_fract_z
Si Si1 0.581616 0.201457 0.855096
Si Si2 0.421793 0.618910 0.500000
Si Si3 0.349033 0.614410 0.237740
Si Si4 0.922945 0.612659 0.345520
Si Si5 0.780471 0.703019 0.348293
Si Si6 0.314478 0.113386 0.648040
O O1 0.500000 0.208626 0.813009
O O2 0.615763 0.312994 0.868165
O O3 0.622746 0.134944 0.749524
O O4 0.588362 0.153566 0.000000
O O5 0.423645 0.500000 0.500000
O O6 0.500000 0.664482 0.500000
O O7 0.381434 0.656731 0.373001
O O8 0.367835 0.500000 0.203532
O O9 0.265296 0.628469 0.256490
O O10 0.926871 0.612408 0.500000
O O11 0.905652 0.500000 0.296436
O O12 0.861391 0.689370 0.299947
O O13 0.000000 0.646876 0.290286
O O14 0.773488 0.670580 0.500000
O O15 0.753774 0.816453 0.325693
O O16 0.342719 0.129841 0.500000
O O17 0.288448 0.000000 0.668153
#
# Coordination Sequence:
#
# PCOD8193872 Si02
#       6
#     8   4   8   8   8   8
#     4  10  22  36  48  66  92 122 154 188 232 285
#     4   9  16  24  36  58  84 112 150 191 226 260
#     4  10  18  28  43  64  90 122 157 191 227 268
#     4   8  13  20  33  58  93 130 160 182 210 258
#     4   9  15  25  42  63  90 121 154 192 231 273
#     4   9  19  35  53  71  88 111 149 197 245 285
#
# _framework density 16.966912000000001
#
# number of rings (size 3 to 8) (size 9 to 14) (size 15 to 20)
#    0.000    2.818    0.909    1.636    1.273    3.273 
#    0.000    2.727    0.000    0.545    0.000    3.818 
#    0.000   11.636    0.000   46.545    0.000   19.273 
#
# Total GULP energy -545222.597628 kJ/mol
# GULP energy per Si atom -12391.422673 kJ/mol
# Density = 1.692829 g / cm^3
# Si number density = 16.966912 Si / 1000 Ang^3
#
#
#
# Elastic Constant Matrix: (Units=GPa)
#
#
# Indices 1 2 3 4 5 6 
#
# 1 150.0919 42.9358 32.3160 0.0000 0.0000 0.0000
# 2 42.9358 80.3936 22.4561 0.0000 0.0000 0.0000
# 3 32.3160 22.4561 48.5946 0.0000 0.0000 0.0000
# 4 0.0000 0.0000 0.0000 11.9932 0.0000 0.0000
# 5 0.0000 0.0000 0.0000 0.0000 8.9762 0.0000
# 6 0.0000 0.0000 0.0000 0.0000 0.0000 18.2384
#
#
#
# Elastic Compliance Matrix: (Units=1/GPa)
#
#
# Indices 1 2 3 4 5 6 
#
# 1 0.008518 -0.003407 -0.004090 0.000000 0.000000 0.000000
# 2 -0.003407 0.015645 -0.004964 0.000000 0.000000 0.000000
# 3 -0.004090 -0.004964 0.025592 0.000000 0.000000 0.000000
# 4 0.000000 0.000000 0.000000 0.083381 0.000000 0.000000
# 5 0.000000 0.000000 0.000000 0.000000 0.111406 0.000000
# 6 0.000000 0.000000 0.000000 0.000000 0.000000 0.054829
#
#
# Mechanical properties :
#
#
# Convention : Reuss Voigt Hill
#
# Bulk Modulus (GPa) = 40.26892 52.72175 46.49533
# Shear Modulus (GPa) = 15.03440 19.93303 17.48371
#
# Velocity S-wave (km/s) = 2.97997 3.43128 3.21356
# Velocity P-wave (km/s) = 5.96872 6.84390 6.42124
#
# Compressibility (1/GPa) = 0.02483305
#
# Stress axis : x y z
#
# Youngs Moduli (GPa) = 117.40221 63.91910 39.07399
#
# Poissons Ratio (x) = 0.21774 0.15982
# Poissons Ratio (y) = 0.39994 0.19397
# Poissons Ratio (z) = 0.48020 0.31731
#
# Static dielectric constant tensor:
#      x y z
#    x 3.413390 0.000000 0.000000 
#    y 0.000000 3.063240 0.000000 
#    z 0.000000 0.000000 2.896040 
# 
# 
# High freq. dielectric constant tensor:
#      x y z
#    x 1.647620 0.000000 0.000000 
#    y 0.000000 1.639850 0.000000 
#    z 0.000000 0.000000 1.617990 
# 
# From -- ./inp_files/18502.got.cif
#   From: 2010.03.12/outbox.cif.g09.slc.cpg/sg47_10_cif.got.tgz:18502.got - 2010.04.14 03:12:58.
