data_PCOD8193368
_publ_section_title
;
Structure prediction by ZEFSAII (Michael W. Deem and Ramdas Pophale) SiO2 
 PCOD8193368
Probable space group: I M A 2
;
_chemical_formula_sum "Si O2"
_cell_formula_units_Z 52
_cell_length_a 27.689382
_cell_length_b 9.302966
_cell_length_c 10.753345
_cell_angle_alpha 90.000000
_cell_angle_beta 90.000000
_cell_angle_gamma 90.000000
_cell_volume 2769.990477
_symmetry_space_group_name_H-M "I M A 2"
_symmetry_group_IT_number 46
_symmetry_cell_setting 'orthorhombic'
loop_
_space_group_symop_operation_xyz
x,y,z
-x,-y,z
1/2-x,y,z
1/2+x,-y,z
1/2+x,1/2+y,1/2+z
1/2-x,1/2-y,1/2+z
-x,1/2+y,1/2+z
x,1/2-y,1/2+z
loop_
_atom_site_type_symbol
_atom_site_label
_atom_site_fract_x
_atom_site_fract_y
_atom_site_fract_z
Si Si1 0.599542 0.467647 0.752210
Si Si2 0.955692 0.191978 0.820552
Si Si3 0.803908 0.652462 0.482649
Si Si4 0.304177 0.120781 0.264063
Si Si5 0.000000 0.000000 0.619844
Si Si6 0.450374 0.179054 0.431173
Si Si7 0.400565 0.468403 0.477539
O O1 0.584869 0.313386 0.805381
O O2 0.656783 0.492290 0.773438
O O3 0.569175 0.599214 0.809225
O O4 0.585366 0.462904 0.608265
O O5 0.997171 0.251996 0.909376
O O6 0.980132 0.136832 0.694841
O O7 0.929761 0.051473 0.873538
O O8 0.750000 0.590068 0.463355
O O9 0.813118 0.778270 0.383044
O O10 0.810494 0.701657 0.628955
O O11 0.842579 0.525846 0.455405
O O12 0.250000 0.055628 0.271820
O O13 0.955560 0.940645 0.538044
O O14 0.413236 0.299737 0.474866
#
# Coordination Sequence:
#
# PCOD8193368 Si02
#       7
#     8   8   8   8   4   8   8
#     4  11  23  39  60  87 118 157 194 244 304 354
#     4  12  24  40  56  85 118 159 198 244 296 349
#     4   9  18  34  60  89 118 151 198 250 296 353
#     4   9  18  36  61  91 120 153 198 248 300 356
#     4  12  24  38  60  82 120 156 200 246 288 346
#     4  12  22  39  59  85 114 155 201 241 288 353
#     4  11  23  39  60  85 118 155 196 242 299 354
#
# _framework density 18.772628000000001
#
# number of rings (size 3 to 8) (size 9 to 14) (size 15 to 20)
#    0.000    1.231    4.615    1.846    0.000    1.231 
#    0.000    0.769    0.000    0.000    0.000    1.077 
#    0.000    0.000    0.000    0.000    0.000    0.000 
#
# Total GULP energy -322308.260493 kJ/mol
# GULP energy per Si atom -12396.471557 kJ/mol
# Density = 1.872990 g / cm^3
# Si number density = 18.772628 Si / 1000 Ang^3
#
#
#
# Elastic Constant Matrix: (Units=GPa)
#
#
# Indices 1 2 3 4 5 6 
#
# 1 107.5241 31.6265 33.6709 0.0000 0.0000 0.0000
# 2 31.6265 65.0647 14.4038 0.0000 0.0000 0.0000
# 3 33.6709 14.4038 74.4306 0.0000 0.0000 0.0000
# 4 0.0000 0.0000 0.0000 25.4635 0.0000 0.0000
# 5 0.0000 0.0000 0.0000 0.0000 26.3943 0.0000
# 6 0.0000 0.0000 0.0000 0.0000 0.0000 20.1989
#
#
#
# Elastic Compliance Matrix: (Units=1/GPa)
#
#
# Indices 1 2 3 4 5 6 
#
# 1 0.012170 -0.004907 -0.004556 0.000000 0.000000 0.000000
# 2 -0.004907 0.018036 -0.001270 0.000000 0.000000 0.000000
# 3 -0.004556 -0.001270 0.015742 0.000000 0.000000 0.000000
# 4 0.000000 0.000000 0.000000 0.039272 0.000000 0.000000
# 5 0.000000 0.000000 0.000000 0.000000 0.037887 0.000000
# 6 0.000000 0.000000 0.000000 0.000000 0.000000 0.049508
#
#
# Mechanical properties :
#
#
# Convention : Reuss Voigt Hill
#
# Bulk Modulus (GPa) = 40.84749 45.15799 43.00274
# Shear Modulus (GPa) = 24.72282 25.56587 25.14435
#
# Velocity S-wave (km/s) = 3.63293 3.69436 3.66377
# Velocity P-wave (km/s) = 6.27725 6.50424 6.39175
#
# Compressibility (1/GPa) = 0.02448131
#
# Stress axis : x y z
#
# Youngs Moduli (GPa) = 82.16733 55.44526 63.52352
#
# Poissons Ratio (x) = 0.27208 0.28941
# Poissons Ratio (y) = 0.40321 0.08070
# Poissons Ratio (z) = 0.37435 0.07044
#
# Static dielectric constant tensor:
#      x y z
#    x 3.674840 0.000000 0.000000 
#    y 0.000000 3.149630 0.000000 
#    z 0.000000 0.000000 3.601360 
# 
# 
# High freq. dielectric constant tensor:
#      x y z
#    x 1.742010 0.000000 0.000000 
#    y 0.000000 1.697780 0.000000 
#    z 0.000000 0.000000 1.744140 
# 
# From -- ./inp_files/13016.got.cif
#   From: 2010.03.12/outbox.cif.g09.slc.cpg/sg46_7_cif.got.tgz:13016.got - 2010.04.14 02:56:35.
