data_PCOD8193115
_publ_section_title
;
Structure prediction by ZEFSAII (Michael W. Deem and Ramdas Pophale) SiO2 
 PCOD8193115
Probable space group: I M A 2
;
_chemical_formula_sum "Si O2"
_cell_formula_units_Z 64
_cell_length_a 30.353479
_cell_length_b 10.422773
_cell_length_c 8.974018
_cell_angle_alpha 90.000000
_cell_angle_beta 90.000000
_cell_angle_gamma 90.000000
_cell_volume 2839.086934
_symmetry_space_group_name_H-M "I M A 2"
_symmetry_group_IT_number 46
_symmetry_cell_setting 'orthorhombic'
loop_
_space_group_symop_operation_xyz
x,y,z
-x,-y,z
1/2-x,y,z
1/2+x,-y,z
1/2+x,1/2+y,1/2+z
1/2-x,1/2-y,1/2+z
-x,1/2+y,1/2+z
x,1/2-y,1/2+z
loop_
_atom_site_type_symbol
_atom_site_label
_atom_site_fract_x
_atom_site_fract_y
_atom_site_fract_z
Si Si1 0.150874 0.825377 0.612130
Si Si2 0.201340 0.933609 0.099762
Si Si3 0.115781 0.173671 0.851105
Si Si4 0.097632 0.824889 0.320499
Si Si5 0.000817 0.641186 0.871311
Si Si6 0.531460 0.884704 0.699385
Si Si7 0.200503 0.031200 0.778131
Si Si8 0.620870 0.580646 0.679123
O O1 0.180991 0.702068 0.640642
O O2 0.134866 0.843551 0.444544
O O3 0.109199 0.803304 0.724495
O O4 0.180639 0.948759 0.643468
O O5 0.250000 0.944963 0.168724
O O6 0.172903 0.049965 0.168057
O O7 0.202391 0.940493 0.921535
O O8 0.082048 0.088287 0.749577
O O9 0.166487 0.146383 0.807345
O O10 0.110047 0.324527 0.815649
O O11 0.104984 0.144677 0.023652
O O12 0.050634 0.810656 0.401244
O O13 0.095394 0.947532 0.209436
O O14 0.000000 0.500000 0.794071
O O15 0.978926 0.745442 0.766264
O O16 0.972885 0.628545 0.022583
O O17 0.500000 0.000000 0.758297
O O18 0.250000 0.082124 0.739138
#
# Coordination Sequence:
#
# PCOD8193115 Si02
#       8
#     8   8   8   8   8   8   8   8
#     4  11  21  38  65  96 129 177 217 279 339 408
#     4   9  19  39  61  94 134 167 220 278 336 402
#     4  11  24  44  69  90 139 174 233 277 345 398
#     4  11  24  40  67  97 135 173 228 274 349 405
#     4  11  25  43  64  97 136 172 230 283 338 414
#     4  11  26  42  67  99 131 180 224 283 345 410
#     4  10  22  38  63  94 129 175 220 273 332 396
#     4  10  24  42  67  99 125 186 220 282 340 409
#
# _framework density 22.542459999999998
#
# number of rings (size 3 to 8) (size 9 to 14) (size 15 to 20)
#    0.000    1.500    1.250    2.625    7.000    2.000 
#    0.000    0.625    0.000    0.000    0.000    0.000 
#    0.000    0.000    0.000    0.000    0.000    0.000 
#
# Total GULP energy -396730.534899 kJ/mol
# GULP energy per Si atom -12397.829216 kJ/mol
# Density = 2.249115 g / cm^3
# Si number density = 22.542460 Si / 1000 Ang^3
#
#
#
# Elastic Constant Matrix: (Units=GPa)
#
#
# Indices 1 2 3 4 5 6 
#
# 1 117.8070 7.4631 17.2657 0.0000 0.0000 0.0000
# 2 7.4631 79.5719 18.9844 0.0000 0.0000 0.0000
# 3 17.2657 18.9844 86.7350 0.0000 0.0000 0.0000
# 4 0.0000 0.0000 0.0000 34.8063 0.0000 0.0000
# 5 0.0000 0.0000 0.0000 0.0000 26.8576 0.0000
# 6 0.0000 0.0000 0.0000 0.0000 0.0000 24.5718
#
#
#
# Elastic Compliance Matrix: (Units=1/GPa)
#
#
# Indices 1 2 3 4 5 6 
#
# 1 0.008757 -0.000428 -0.001650 0.000000 0.000000 0.000000
# 2 -0.000428 0.013281 -0.002822 0.000000 0.000000 0.000000
# 3 -0.001650 -0.002822 0.012475 0.000000 0.000000 0.000000
# 4 0.000000 0.000000 0.000000 0.028730 0.000000 0.000000
# 5 0.000000 0.000000 0.000000 0.000000 0.037233 0.000000
# 6 0.000000 0.000000 0.000000 0.000000 0.000000 0.040697
#
#
# Mechanical properties :
#
#
# Convention : Reuss Voigt Hill
#
# Bulk Modulus (GPa) = 40.46112 41.28227 40.87169
# Shear Modulus (GPa) = 31.40493 33.27386 32.33940
#
# Velocity S-wave (km/s) = 3.73654 3.84611 3.79172
# Velocity P-wave (km/s) = 6.05008 6.17060 6.11063
#
# Compressibility (1/GPa) = 0.02471508
#
# Stress axis : x y z
#
# Youngs Moduli (GPa) = 114.19012 75.29794 80.15805
#
# Poissons Ratio (x) = 0.03221 0.13223
# Poissons Ratio (y) = 0.04885 0.22618
# Poissons Ratio (z) = 0.18837 0.21247
#
# Static dielectric constant tensor:
#      x y z
#    x 4.513710 0.000000 0.000000 
#    y 0.000000 4.015490 0.000000 
#    z 0.000000 0.000000 3.869500 
# 
# 
# High freq. dielectric constant tensor:
#      x y z
#    x 1.901190 0.000000 0.000000 
#    y 0.000000 1.880900 0.000000 
#    z 0.000000 0.000000 1.876130 
# 
# From -- ./inp_files/8487.got.cif
#   From: 2010.03.12/outbox.cif.g09.slc.cpg/sg46_5_cif.got.tgz:8487.got - 2010.04.14 02:56:35.
