data_PCOD8193703
_publ_section_title
;
Structure prediction by ZEFSAII (Michael W. Deem and Ramdas Pophale) SiO2 
 PCOD8193703
Probable space group: P M M M
;
_chemical_formula_sum "Si O2"
_cell_formula_units_Z 56
_cell_length_a 9.239415
_cell_length_b 13.763510
_cell_length_c 29.359526
_cell_angle_alpha 90.000000
_cell_angle_beta 90.000000
_cell_angle_gamma 90.000000
_cell_volume 3733.556406
_symmetry_space_group_name_H-M "P M M M"
_symmetry_group_IT_number 47
_symmetry_cell_setting 'orthorhombic'
loop_
_space_group_symop_operation_xyz
x,y,z
-x,-y,z
x,-y,-z
-x,y,-z
-x,-y,-z
x,y,-z
-x,y,z
x,-y,z
loop_
_atom_site_type_symbol
_atom_site_label
_atom_site_fract_x
_atom_site_fract_y
_atom_site_fract_z
Si Si1 0.837815 0.615443 0.048209
Si Si2 0.172022 0.282650 0.765022
Si Si3 0.333606 0.389787 0.312797
Si Si4 0.170399 0.890551 0.551418
Si Si5 0.330863 0.111133 0.722646
Si Si6 0.334422 0.209873 0.370670
Si Si7 0.827316 0.390981 0.145567
O O1 0.843616 0.500000 0.050446
O O2 0.765131 0.648691 0.096378
O O3 0.000000 0.657375 0.046171
O O4 0.759398 0.647580 0.000000
O O5 0.230670 0.359732 0.728531
O O6 0.239597 0.176267 0.757639
O O7 0.223059 0.318638 0.814727
O O8 0.000000 0.277141 0.760512
O O9 0.500000 0.376457 0.296875
O O10 0.299664 0.500000 0.327274
O O11 0.304128 0.321450 0.356436
O O12 0.216062 0.863169 0.500000
O O13 0.240481 0.813651 0.585351
O O14 0.000000 0.884010 0.557068
O O15 0.223281 0.000000 0.562745
O O16 0.500000 0.130502 0.731170
O O17 0.289970 0.139820 0.671078
O O18 0.287927 0.000000 0.731178
O O19 0.500000 0.192850 0.384107
O O20 0.769386 0.500000 0.156011
O O21 0.000000 0.394215 0.142555
#
# Coordination Sequence:
#
# PCOD8193703 Si02
#       7
#     8   8   8   8   8   8   8
#     4   7   9  14  25  41  64  98 135 162 187 227
#     4  10  18  26  39  61  86 108 133 167 205 243
#     4   9  18  32  46  59  81 113 144 172 200 232
#     4   9  18  31  45  63  88 113 132 154 192 242
#     4   9  18  32  46  59  80 109 137 166 200 239
#     4   9  17  29  46  66  82 100 132 169 200 229
#     4   8  13  20  30  48  77 108 133 161 197 233
#
# _framework density 14.999103
#
# number of rings (size 3 to 8) (size 9 to 14) (size 15 to 20)
#    0.000    3.286    0.000    3.857    0.000    4.571 
#    0.000    0.714    0.000    0.429    0.000    3.000 
#    0.000    2.857    0.000   23.286    0.000   14.571 
#
# Total GULP energy -693814.629658 kJ/mol
# GULP energy per Si atom -12389.546958 kJ/mol
# Density = 1.496496 g / cm^3
# Si number density = 14.999103 Si / 1000 Ang^3
#
#
#
# Elastic Constant Matrix: (Units=GPa)
#
#
# Indices 1 2 3 4 5 6 
#
# 1 35.7093 30.7428 39.9536 0.0000 0.0000 0.0000
# 2 30.7428 102.6015 63.2874 0.0000 0.0000 0.0000
# 3 39.9536 63.2874 134.5248 0.0000 0.0000 0.0000
# 4 0.0000 0.0000 0.0000 19.4705 0.0000 0.0000
# 5 0.0000 0.0000 0.0000 0.0000 0.8663 0.0000
# 6 0.0000 0.0000 0.0000 0.0000 0.0000 20.0182
#
#
#
# Elastic Compliance Matrix: (Units=1/GPa)
#
#
# Indices 1 2 3 4 5 6 
#
# 1 0.045697 -0.007496 -0.010045 0.000000 0.000000 0.000000
# 2 -0.007496 0.014961 -0.004812 0.000000 0.000000 0.000000
# 3 -0.010045 -0.004812 0.012681 0.000000 0.000000 0.000000
# 4 0.000000 0.000000 0.000000 0.051360 0.000000 0.000000
# 5 0.000000 0.000000 0.000000 0.000000 1.154268 0.000000
# 6 0.000000 0.000000 0.000000 0.000000 0.000000 0.049955
#
#
# Mechanical properties :
#
#
# Convention : Reuss Voigt Hill
#
# Bulk Modulus (GPa) = 34.92651 60.08921 47.50786
# Shear Modulus (GPa) = 3.61488 17.32780 10.47134
#
# Velocity S-wave (km/s) = 1.55412 3.40259 2.64508
# Velocity P-wave (km/s) = 5.15332 7.45558 6.40868
#
# Compressibility (1/GPa) = 0.02863155
#
# Stress axis : x y z
#
# Youngs Moduli (GPa) = 21.88346 66.84203 78.85943
#
# Poissons Ratio (x) = 0.50105 0.79216
# Poissons Ratio (y) = 0.16404 0.37947
# Poissons Ratio (z) = 0.21983 0.32164
#
# Static dielectric constant tensor:
#      x y z
#    x 2.640890 0.000000 0.000000 
#    y 0.000000 2.811220 0.000000 
#    z 0.000000 0.000000 3.152580 
# 
# 
# High freq. dielectric constant tensor:
#      x y z
#    x 1.549050 0.000000 0.000000 
#    y 0.000000 1.548450 0.000000 
#    z 0.000000 0.000000 1.575930 
# 
# From -- ./inp_files/22083.got.cif
#   From: 2010.03.12/outbox.cif.g09.slc.cpg/sg47_12_cif.got.tgz:22083.got - 2010.04.14 03:12:58.
