data_PCOD8193080
_publ_section_title
;
Structure prediction by ZEFSAII (Michael W. Deem and Ramdas Pophale) SiO2 
 PCOD8193080
Probable space group: I M A 2
;
_chemical_formula_sum "Si O2"
_cell_formula_units_Z 64
_cell_length_a 16.143862
_cell_length_b 20.019190
_cell_length_c 8.721374
_cell_angle_alpha 90.000000
_cell_angle_beta 90.000000
_cell_angle_gamma 90.000000
_cell_volume 2818.635054
_symmetry_space_group_name_H-M "I M A 2"
_symmetry_group_IT_number 46
_symmetry_cell_setting 'orthorhombic'
loop_
_space_group_symop_operation_xyz
x,y,z
-x,-y,z
1/2-x,y,z
1/2+x,-y,z
1/2+x,1/2+y,1/2+z
1/2-x,1/2-y,1/2+z
-x,1/2+y,1/2+z
x,1/2-y,1/2+z
loop_
_atom_site_type_symbol
_atom_site_label
_atom_site_fract_x
_atom_site_fract_y
_atom_site_fract_z
Si Si1 0.343734 0.710515 0.859860
Si Si2 0.413078 0.177430 0.484669
Si Si3 0.843052 0.581878 0.433701
Si Si4 0.844776 0.786573 0.787382
Si Si5 0.597038 0.566947 0.753505
Si Si6 0.586740 0.178393 0.664002
Si Si7 0.090826 0.917812 0.197581
Si Si8 0.848251 0.435949 0.366644
O O1 0.250000 0.726727 0.808418
O O2 0.407075 0.767996 0.802182
O O3 0.373912 0.638552 0.805723
O O4 0.345443 0.705249 0.043773
O O5 0.345036 0.204156 0.604166
O O6 0.406434 0.227339 0.339323
O O7 0.389757 0.104423 0.415903
O O8 0.500258 0.176821 0.572610
O O9 0.750000 0.582091 0.372846
O O10 0.886282 0.646148 0.358385
O O11 0.841599 0.589774 0.618066
O O12 0.883311 0.512355 0.373299
O O13 0.750000 0.773400 0.839906
O O14 0.613179 0.488363 0.778229
O O15 0.507702 0.585499 0.684224
O O16 0.606472 0.104806 0.731452
O O17 0.130809 0.905047 0.031899
O O18 0.750000 0.432732 0.340851
#
# Coordination Sequence:
#
# PCOD8193080 Si02
#       8
#     8   8   8   8   8   8   8   8
#     4  12  24  41  63  93 133 180 225 275 332 401
#     4  12  25  43  68  97 135 176 223 282 342 405
#     4   9  21  41  69  98 129 169 220 274 338 406
#     4  11  25  44  66  97 132 174 223 280 340 402
#     4  10  22  42  65  95 130 169 218 279 337 401
#     4  12  26  42  65  99 137 178 223 279 335 401
#     4  10  22  41  65  93 131 170 222 274 333 403
#     4  10  21  42  67  97 132 175 223 275 331 403
#
# _framework density 22.706025
#
# number of rings (size 3 to 8) (size 9 to 14) (size 15 to 20)
#    0.000    1.250    1.250    4.125    3.500    3.500 
#    0.000    1.250    0.000    0.000    0.000    0.000 
#    0.000    0.000    0.000    0.000    0.000    0.000 
#
# Total GULP energy -396684.700256 kJ/mol
# GULP energy per Si atom -12396.396883 kJ/mol
# Density = 2.265435 g / cm^3
# Si number density = 22.706025 Si / 1000 Ang^3
#
#
#
# Elastic Constant Matrix: (Units=GPa)
#
#
# Indices 1 2 3 4 5 6 
#
# 1 70.8384 26.3553 19.0689 0.0000 0.0000 0.0000
# 2 26.3553 113.4046 54.6381 0.0000 0.0000 0.0000
# 3 19.0689 54.6381 99.5004 0.0000 0.0000 0.0000
# 4 0.0000 0.0000 0.0000 53.3985 0.0000 0.0000
# 5 0.0000 0.0000 0.0000 0.0000 35.7629 0.0000
# 6 0.0000 0.0000 0.0000 0.0000 0.0000 29.4992
#
#
#
# Elastic Compliance Matrix: (Units=1/GPa)
#
#
# Indices 1 2 3 4 5 6 
#
# 1 0.015586 -0.002968 -0.001357 0.000000 0.000000 0.000000
# 2 -0.002968 0.012556 -0.006326 0.000000 0.000000 0.000000
# 3 -0.001357 -0.006326 0.013784 0.000000 0.000000 0.000000
# 4 0.000000 0.000000 0.000000 0.018727 0.000000 0.000000
# 5 0.000000 0.000000 0.000000 0.000000 0.027962 0.000000
# 6 0.000000 0.000000 0.000000 0.000000 0.000000 0.033899
#
#
# Mechanical properties :
#
#
# Convention : Reuss Voigt Hill
#
# Bulk Modulus (GPa) = 48.48846 53.76312 51.12579
# Shear Modulus (GPa) = 33.18052 35.97751 34.57902
#
# Velocity S-wave (km/s) = 3.82685 3.98489 3.90667
# Velocity P-wave (km/s) = 6.39747 6.70088 6.55093
#
# Compressibility (1/GPa) = 0.02062346
#
# Stress axis : x y z
#
# Youngs Moduli (GPa) = 64.15869 79.64608 72.54872
#
# Poissons Ratio (x) = 0.23643 0.09845
# Poissons Ratio (y) = 0.19045 0.45892
# Poissons Ratio (z) = 0.08706 0.50381
#
# Static dielectric constant tensor:
#      x y z
#    x 3.935040 0.000000 0.000000 
#    y 0.000000 4.341520 0.000000 
#    z 0.000000 0.000000 4.130010 
# 
# 
# High freq. dielectric constant tensor:
#      x y z
#    x 1.887560 0.000000 0.000000 
#    y 0.000000 1.906850 0.000000 
#    z 0.000000 0.000000 1.893440 
# 
# From -- ./inp_files/6912.got.cif
#   From: 2010.03.12/outbox.cif.g09.slc.cpg/sg46_4_cif.got.tgz:6912.got - 2010.04.14 02:56:35.
