data_PCOD8193917
_publ_section_title
;
Structure prediction by ZEFSAII (Michael W. Deem and Ramdas Pophale) SiO2 
 PCOD8193917
Probable space group: P M M M
;
_chemical_formula_sum "Si O2"
_cell_formula_units_Z 64
_cell_length_a 14.239008
_cell_length_b 28.109302
_cell_length_c 9.047073
_cell_angle_alpha 90.000000
_cell_angle_beta 90.000000
_cell_angle_gamma 90.000000
_cell_volume 3621.078086
_symmetry_space_group_name_H-M "P M M M"
_symmetry_group_IT_number 47
_symmetry_cell_setting 'orthorhombic'
loop_
_space_group_symop_operation_xyz
x,y,z
-x,-y,z
x,-y,-z
-x,y,-z
-x,-y,-z
x,y,-z
-x,y,z
x,-y,z
loop_
_atom_site_type_symbol
_atom_site_label
_atom_site_fract_x
_atom_site_fract_y
_atom_site_fract_z
Si Si1 0.758854 0.272593 0.326742
Si Si2 0.604992 0.552492 0.175738
Si Si3 0.735958 0.126871 0.830319
Si Si4 0.392575 0.783505 0.831443
Si Si5 0.103182 0.448656 0.824526
Si Si6 0.605690 0.944141 0.329953
Si Si7 0.753848 0.627269 0.175601
Si Si8 0.890625 0.814018 0.325527
O O1 0.757825 0.280301 0.500000
O O2 0.657805 0.253531 0.275900
O O3 0.772582 0.322518 0.248845
O O4 0.842531 0.236274 0.279802
O O5 0.500000 0.560241 0.233959
O O6 0.641326 0.500000 0.229745
O O7 0.662973 0.598110 0.233613
O O8 0.609642 0.552442 0.000000
O O9 0.655120 0.165739 0.812624
O O10 0.690230 0.079902 0.760543
O O11 0.832761 0.143078 0.750888
O O12 0.761449 0.116900 0.000000
O O13 0.500000 0.787938 0.781249
O O14 0.384100 0.765232 0.000000
O O15 0.146303 0.500000 0.777783
O O16 0.162160 0.405093 0.763853
O O17 0.000000 0.443610 0.756676
O O18 0.100259 0.446066 0.000000
O O19 0.615554 0.928685 0.500000
O O20 0.500000 0.930323 0.273917
O O21 0.620319 0.000000 0.311323
O O22 0.751675 0.634265 0.000000
O O23 0.883358 0.821733 0.500000
O O24 0.000000 0.814235 0.273977
#
# Coordination Sequence:
#
# PCOD8193917 Si02
#       8
#     8   8   8   8   8   8   8   8
#     4  10  21  34  47  68  96 124 157 196 239 289
#     4   8  14  25  42  64  86 109 144 187 223 261
#     4  10  19  31  51  80 108 132 164 210 262 307
#     4   9  18  33  51  70  95 127 161 197 237 284
#     4   8  14  25  42  65  89 110 138 180 226 271
#     4   9  18  32  50  75 110 151 188 215 241 283
#     4  10  18  28  45  67  89 115 146 182 229 282
#     4   9  19  37  57  72  91 127 173 214 251 297
#
# _framework density 17.674295000000001
#
# number of rings (size 3 to 8) (size 9 to 14) (size 15 to 20)
#    0.000    2.875    0.000    2.625    0.000    5.000 
#    0.000    1.875    0.000    1.875    0.000    4.375 
#    0.000    0.000    0.000    0.000    0.000    0.000 
#
# Total GULP energy -793073.538591 kJ/mol
# GULP energy per Si atom -12391.774040 kJ/mol
# Density = 1.763407 g / cm^3
# Si number density = 17.674295 Si / 1000 Ang^3
#
#
#
# Elastic Constant Matrix: (Units=GPa)
#
#
# Indices 1 2 3 4 5 6 
#
# 1 133.8028 54.5658 37.9107 0.0000 0.0000 0.0000
# 2 54.5658 92.4718 37.1968 0.0000 0.0000 0.0000
# 3 37.9107 37.1968 48.7661 0.0000 0.0000 0.0000
# 4 0.0000 0.0000 0.0000 20.4739 0.0000 0.0000
# 5 0.0000 0.0000 0.0000 0.0000 19.2728 0.0000
# 6 0.0000 0.0000 0.0000 0.0000 0.0000 28.6949
#
#
#
# Elastic Compliance Matrix: (Units=1/GPa)
#
#
# Indices 1 2 3 4 5 6 
#
# 1 0.010631 -0.004254 -0.005020 0.000000 0.000000 0.000000
# 2 -0.004254 0.017303 -0.009891 0.000000 0.000000 0.000000
# 3 -0.005020 -0.009891 0.031953 0.000000 0.000000 0.000000
# 4 0.000000 0.000000 0.000000 0.048843 0.000000 0.000000
# 5 0.000000 0.000000 0.000000 0.000000 0.051887 0.000000
# 6 0.000000 0.000000 0.000000 0.000000 0.000000 0.034849
#
#
# Mechanical properties :
#
#
# Convention : Reuss Voigt Hill
#
# Bulk Modulus (GPa) = 46.38782 59.37639 52.88210
# Shear Modulus (GPa) = 20.74862 23.37946 22.06404
#
# Velocity S-wave (km/s) = 3.43000 3.64097 3.53706
# Velocity P-wave (km/s) = 6.47993 7.16542 6.83128
#
# Compressibility (1/GPa) = 0.02155738
#
# Stress axis : x y z
#
# Youngs Moduli (GPa) = 94.06774 57.79388 31.29613
#
# Poissons Ratio (x) = 0.24584 0.15710
# Poissons Ratio (y) = 0.40014 0.30955
# Poissons Ratio (z) = 0.47219 0.57164
#
# Static dielectric constant tensor:
#      x y z
#    x 3.562320 0.000000 0.000000 
#    y 0.000000 3.318930 0.000000 
#    z 0.000000 0.000000 3.002750 
# 
# 
# High freq. dielectric constant tensor:
#      x y z
#    x 1.685170 0.000000 0.000000 
#    y 0.000000 1.680630 0.000000 
#    z 0.000000 0.000000 1.651930 
# 
# From -- ./inp_files/7893.got.cif
#   From: 2010.03.12/outbox.cif.g09.slc.cpg/sg47_4_cif.got.tgz:7893.got - 2010.04.14 03:12:58.
