data_PCOD8193986
_publ_section_title
;
Structure prediction by ZEFSAII (Michael W. Deem and Ramdas Pophale) SiO2 
 PCOD8193986
Probable space group: P M M M
;
_chemical_formula_sum "Si O2"
_cell_formula_units_Z 48
_cell_length_a 19.025970
_cell_length_b 15.738113
_cell_length_c 11.709995
_cell_angle_alpha 90.000000
_cell_angle_beta 90.000000
_cell_angle_gamma 90.000000
_cell_volume 3506.357361
_symmetry_space_group_name_H-M "P M M M"
_symmetry_group_IT_number 47
_symmetry_cell_setting 'orthorhombic'
loop_
_space_group_symop_operation_xyz
x,y,z
-x,-y,z
x,-y,-z
-x,y,-z
-x,-y,-z
x,y,-z
-x,y,z
x,-y,z
loop_
_atom_site_type_symbol
_atom_site_label
_atom_site_fract_x
_atom_site_fract_y
_atom_site_fract_z
Si Si1 0.079974 0.755093 0.245333
Si Si2 0.225450 0.899395 0.000000
Si Si3 0.158531 0.096685 0.631466
Si Si4 0.920868 0.812438 0.000000
Si Si5 0.578526 0.101166 0.371639
Si Si6 0.705691 0.097171 0.770528
Si Si7 0.916536 0.407097 0.629592
O O1 0.112843 0.841466 0.291733
O O2 0.087130 0.751647 0.109156
O O3 0.116078 0.669102 0.294153
O O4 0.000000 0.757201 0.286670
O O5 0.264220 0.860190 0.887448
O O6 0.141994 0.880558 0.000000
O O7 0.230415 0.000000 0.000000
O O8 0.151475 0.122901 0.500000
O O9 0.239136 0.105339 0.667927
O O10 0.132214 0.000000 0.651953
O O11 0.000000 0.854987 0.000000
O O12 0.594176 0.135286 0.500000
O O13 0.500000 0.128532 0.333962
O O14 0.633824 0.139445 0.278783
O O15 0.585534 0.000000 0.373622
O O16 0.690301 0.000000 0.801220
O O17 0.893143 0.390019 0.500000
O O18 0.887918 0.500000 0.669695
O O19 0.000000 0.408159 0.640028
#
# Coordination Sequence:
#
# PCOD8193986 Si02
#       7
#     8   4   8   4   8   8   8
#     4  10  19  30  42  56  75  98 128 166 202 239
#     4  10  18  29  41  51  67 101 139 172 204 233
#     4  10  19  28  39  55  75 100 129 164 204 240
#     4  10  20  31  41  53  71  99 135 170 201 234
#     4   8  13  22  37  55  73  93 118 153 198 241
#     4   9  16  26  38  52  71  95 128 163 194 232
#     4   8  14  26  44  62  77  94 117 149 195 247
#
# _framework density 13.68942
#
# number of rings (size 3 to 8) (size 9 to 14) (size 15 to 20)
#    0.000    2.833    1.667    2.000    0.000    3.500 
#    0.000    3.333    0.000    5.000    0.000    0.000 
#    0.000    0.000    0.000    0.000    0.000    0.833 
#
# Total GULP energy -594692.085962 kJ/mol
# GULP energy per Si atom -12389.418458 kJ/mol
# Density = 1.365826 g / cm^3
# Si number density = 13.689420 Si / 1000 Ang^3
#
#
#
# Elastic Constant Matrix: (Units=GPa)
#
#
# Indices 1 2 3 4 5 6 
#
# 1 71.9371 21.3578 42.1430 0.0000 0.0000 0.0000
# 2 21.3578 57.1228 36.2296 0.0000 0.0000 0.0000
# 3 42.1430 36.2296 96.5261 0.0000 0.0000 0.0000
# 4 0.0000 0.0000 0.0000 12.4802 0.0000 0.0000
# 5 0.0000 0.0000 0.0000 0.0000 22.3272 0.0000
# 6 0.0000 0.0000 0.0000 0.0000 0.0000 0.4447
#
#
#
# Elastic Compliance Matrix: (Units=1/GPa)
#
#
# Indices 1 2 3 4 5 6 
#
# 1 0.018928 -0.002409 -0.007360 0.000000 0.000000 0.000000
# 2 -0.002409 0.023282 -0.007687 0.000000 0.000000 0.000000
# 3 -0.007360 -0.007687 0.016458 0.000000 0.000000 0.000000
# 4 0.000000 0.000000 0.000000 0.080127 0.000000 0.000000
# 5 0.000000 0.000000 0.000000 0.000000 0.044788 0.000000
# 6 0.000000 0.000000 0.000000 0.000000 0.000000 2.248767
#
#
# Mechanical properties :
#
#
# Convention : Reuss Voigt Hill
#
# Bulk Modulus (GPa) = 42.09275 47.22742 44.66009
# Shear Modulus (GPa) = 2.02005 15.44080 8.73043
#
# Velocity S-wave (km/s) = 1.21607 3.36212 2.52811
# Velocity P-wave (km/s) = 5.72599 7.04599 6.42000
#
# Compressibility (1/GPa) = 0.02375706
#
# Stress axis : x y z
#
# Youngs Moduli (GPa) = 52.83246 42.95135 60.76020
#
# Poissons Ratio (x) = 0.10348 0.44717
# Poissons Ratio (y) = 0.12729 0.46705
# Poissons Ratio (z) = 0.38882 0.33016
#
# Static dielectric constant tensor:
#      x y z
#    x 2.688180 0.000000 0.000000 
#    y 0.000000 2.569060 0.000000 
#    z 0.000000 0.000000 3.000690 
# 
# 
# High freq. dielectric constant tensor:
#      x y z
#    x 1.498990 0.000000 0.000000 
#    y 0.000000 1.470240 0.000000 
#    z 0.000000 0.000000 1.534290 
# 
# From -- ./inp_files/19108.got.cif
#   From: 2010.03.12/outbox.cif.g09.slc.cpg/sg47_10_cif.got.tgz:19108.got - 2010.04.14 03:12:58.
