data_PCOD8193095
_publ_section_title
;
Structure prediction by ZEFSAII (Michael W. Deem and Ramdas Pophale) SiO2 
 PCOD8193095
Probable space group: I M A 2
;
_chemical_formula_sum "Si O2"
_cell_formula_units_Z 44
_cell_length_a 12.333771
_cell_length_b 22.140157
_cell_length_c 8.856963
_cell_angle_alpha 90.000000
_cell_angle_beta 90.000000
_cell_angle_gamma 90.000000
_cell_volume 2418.585291
_symmetry_space_group_name_H-M "I M A 2"
_symmetry_group_IT_number 46
_symmetry_cell_setting 'orthorhombic'
loop_
_space_group_symop_operation_xyz
x,y,z
-x,-y,z
1/2-x,y,z
1/2+x,-y,z
1/2+x,1/2+y,1/2+z
1/2-x,1/2-y,1/2+z
-x,1/2+y,1/2+z
x,1/2-y,1/2+z
loop_
_atom_site_type_symbol
_atom_site_label
_atom_site_fract_x
_atom_site_fract_y
_atom_site_fract_z
Si Si1 0.961460 0.432117 0.848100
Si Si2 0.871496 0.833090 0.431317
Si Si3 0.750000 0.108037 0.496324
Si Si4 0.423982 0.852580 0.072160
Si Si5 0.250000 0.788024 0.264396
Si Si6 0.372682 0.218435 0.106914
Si Si7 0.250000 0.647933 0.332204
O O1 0.853203 0.430271 0.945862
O O2 0.941007 0.411418 0.675985
O O3 0.000000 0.500000 0.842864
O O4 0.048831 0.389632 0.931015
O O5 0.750000 0.859310 0.439839
O O6 0.886647 0.790798 0.284995
O O7 0.896696 0.788867 0.571946
O O8 0.750000 0.174055 0.419743
O O9 0.750000 0.113102 0.675777
O O10 0.357024 0.802764 0.167747
O O11 0.539793 0.824462 0.023165
O O12 0.357516 0.871855 0.923914
O O13 0.250000 0.719289 0.311204
O O14 0.250000 0.201497 0.053254
#
# Coordination Sequence:
#
# PCOD8193095 Si02
#       7
#     8   8   4   8   4   8   4
#     4  10  22  39  58  78 108 149 194 230 262 334
#     4   9  19  33  54  82 107 140 176 222 279 324
#     4  10  22  36  56  88 110 142 189 229 281 325
#     4   9  20  34  54  83 112 151 186 219 286 332
#     4   9  19  33  53  85 119 147 175 219 283 344
#     4   9  18  32  50  79 114 138 176 224 272 334
#     4  11  21  33  57  85 119 143 174 238 286 337
#
# _framework density 18.192454000000001
#
# number of rings (size 3 to 8) (size 9 to 14) (size 15 to 20)
#    0.000    2.545    0.000    1.636   11.455    0.000 
#    0.000    0.909    0.000    0.000    0.000    0.000 
#    0.000    0.000    0.000    0.000    0.000    0.000 
#
# Total GULP energy -272794.211316 kJ/mol
# GULP energy per Si atom -12399.736878 kJ/mol
# Density = 1.815105 g / cm^3
# Si number density = 18.192454 Si / 1000 Ang^3
#
#
#
# Elastic Constant Matrix: (Units=GPa)
#
#
# Indices 1 2 3 4 5 6 
#
# 1 146.7109 72.5461 52.6340 -0.0005 0.0001 0.0000
# 2 72.5461 125.8181 45.5862 -0.0006 0.0000 0.0000
# 3 52.6340 45.5862 76.8863 -0.0015 0.0006 0.0002
# 4 -0.0005 -0.0006 -0.0015 15.1523 -0.0001 0.0000
# 5 0.0001 0.0000 0.0006 -0.0001 13.2969 0.0000
# 6 0.0000 0.0000 0.0002 0.0000 0.0000 23.4149
#
#
#
# Elastic Compliance Matrix: (Units=1/GPa)
#
#
# Indices 1 2 3 4 5 6 
#
# 1 0.010709 -0.004481 -0.004674 0.000000 0.000000 0.000000
# 2 -0.004481 0.011998 -0.004046 0.000000 0.000000 0.000000
# 3 -0.004674 -0.004046 0.018605 0.000002 -0.000001 0.000000
# 4 0.000000 0.000000 0.000002 0.065997 0.000001 0.000000
# 5 0.000000 0.000000 -0.000001 0.000001 0.075205 0.000000
# 6 0.000000 0.000000 0.000000 0.000000 0.000000 0.042708
#
#
# Mechanical properties :
#
#
# Convention : Reuss Voigt Hill
#
# Bulk Modulus (GPa) = 67.07271 76.77197 71.92234
# Shear Modulus (GPa) = 19.48612 22.28276 20.88444
#
# Velocity S-wave (km/s) = 3.27633 3.50356 3.39185
# Velocity P-wave (km/s) = 7.15967 7.65886 7.41347
#
# Compressibility (1/GPa) = 0.01490919
#
# Stress axis : x y z
#
# Youngs Moduli (GPa) = 93.38065 83.34952 53.74987
#
# Poissons Ratio (x) = 0.37350 0.25123
# Poissons Ratio (y) = 0.41846 0.21746
# Poissons Ratio (z) = 0.43647 0.33721
#
# Static dielectric constant tensor:
#      x y z
#    x 3.734220 0.000000 0.000000 
#    y 0.000000 2.976950 0.000000 
#    z 0.000000 0.000000 3.303950 
# 
# 
# High freq. dielectric constant tensor:
#      x y z
#    x 1.727810 0.000000 0.000000 
#    y 0.000000 1.668050 0.000000 
#    z 0.000000 0.000000 1.694070 
# 
# From -- ./inp_files/4683.got.cif
#   From: 2010.03.12/outbox.cif.g09.slc.cpg/sg46_3_cif.got.tgz:4683.got - 2010.04.14 02:56:35.
