data_PCOD8193133
_publ_section_title
;
Structure prediction by ZEFSAII (Michael W. Deem and Ramdas Pophale) SiO2 
 PCOD8193133
Probable space group: I M A 2
;
_chemical_formula_sum "Si O2"
_cell_formula_units_Z 64
_cell_length_a 8.620153
_cell_length_b 30.773301
_cell_length_c 11.835173
_cell_angle_alpha 90.000000
_cell_angle_beta 90.000000
_cell_angle_gamma 90.000000
_cell_volume 3139.523004
_symmetry_space_group_name_H-M "I M A 2"
_symmetry_group_IT_number 46
_symmetry_cell_setting 'orthorhombic'
loop_
_space_group_symop_operation_xyz
x,y,z
-x,-y,z
1/2-x,y,z
1/2+x,-y,z
1/2+x,1/2+y,1/2+z
1/2-x,1/2-y,1/2+z
-x,1/2+y,1/2+z
x,1/2-y,1/2+z
loop_
_atom_site_type_symbol
_atom_site_label
_atom_site_fract_x
_atom_site_fract_y
_atom_site_fract_z
Si Si1 0.428595 0.336910 0.290500
Si Si2 0.431430 0.455873 0.525669
Si Si3 0.930101 0.202944 0.002907
Si Si4 0.932238 0.870313 0.153489
Si Si5 0.930460 0.374907 0.896362
Si Si6 0.927837 0.300505 0.072195
Si Si7 0.431241 0.570778 0.296812
Si Si8 0.433299 0.954757 0.549834
O O1 0.250000 0.351495 0.298474
O O2 0.467480 0.304380 0.391939
O O3 0.458204 0.313378 0.172613
O O4 0.539060 0.378119 0.304260
O O5 0.500000 0.500000 0.579733
O O6 0.250000 0.458234 0.538899
O O7 0.495429 0.413923 0.592430
O O8 0.476828 0.453983 0.394306
O O9 0.750000 0.196925 0.973425
O O10 0.966721 0.251420 0.041806
O O11 0.976631 0.170523 0.103160
O O12 0.750000 0.864182 0.131747
O O13 0.965478 0.873507 0.285553
O O14 0.750000 0.379923 0.863976
O O15 0.960190 0.330664 0.964371
O O16 0.990134 0.415610 0.970396
O O17 0.750000 0.306252 0.112432
O O18 0.250000 0.561776 0.312552
O O19 0.494566 0.553369 0.176892
O O20 0.250000 0.956411 0.550118
O O21 0.500000 0.000000 0.502715
#
# Coordination Sequence:
#
# PCOD8193133 Si02
#       8
#     8   8   8   8   8   8   8   8
#     4  12  24  39  64  97 132 165 201 258 319 371
#     4  11  24  41  62  91 126 164 209 261 314 375
#     4  11  24  42  68  94 123 168 213 257 307 369
#     4  11  25  43  62  91 128 163 206 261 317 372
#     4  10  22  43  65  88 121 165 212 257 306 369
#     4  10  23  44  67  92 123 164 216 258 301 372
#     4  11  21  39  65  92 126 167 208 255 309 371
#     4  10  22  39  62  91 123 159 203 255 307 365
#
# _framework density 20.385262000000001
#
# number of rings (size 3 to 8) (size 9 to 14) (size 15 to 20)
#    0.000    1.250    2.500    3.000    1.750    6.000 
#    0.000    2.500    0.000    0.000    0.000    0.000 
#    0.000    0.000    0.000    0.000    0.000    0.000 
#
# Total GULP energy -397003.207318 kJ/mol
# GULP energy per Si atom -12406.350229 kJ/mol
# Density = 2.033886 g / cm^3
# Si number density = 20.385262 Si / 1000 Ang^3
#
#
#
# Elastic Constant Matrix: (Units=GPa)
#
#
# Indices 1 2 3 4 5 6 
#
# 1 39.8872 27.3907 18.9755 -0.0037 -0.0002 0.0000
# 2 27.3907 156.4483 39.9315 -0.0084 -0.0002 0.0000
# 3 18.9755 39.9315 99.6396 -0.0167 0.0000 0.0001
# 4 -0.0037 -0.0084 -0.0167 52.6031 -0.0010 -0.0001
# 5 -0.0002 -0.0002 0.0000 -0.0010 30.4029 -0.0001
# 6 0.0000 0.0000 0.0001 -0.0001 -0.0001 28.3192
#
#
#
# Elastic Compliance Matrix: (Units=1/GPa)
#
#
# Indices 1 2 3 4 5 6 
#
# 1 0.029863 -0.004207 -0.004001 0.000000 0.000000 0.000000
# 2 -0.004207 0.007713 -0.002290 0.000000 0.000000 0.000000
# 3 -0.004001 -0.002290 0.011716 0.000003 0.000000 0.000000
# 4 0.000000 0.000000 0.000003 0.019010 0.000001 0.000000
# 5 0.000000 0.000000 0.000000 0.000001 0.032892 0.000000
# 6 0.000000 0.000000 0.000000 0.000000 0.000000 0.035312
#
#
# Mechanical properties :
#
#
# Convention : Reuss Voigt Hill
#
# Bulk Modulus (GPa) = 35.34096 52.06338 43.70217
# Shear Modulus (GPa) = 29.95200 36.24352 33.09776
#
# Velocity S-wave (km/s) = 3.83730 4.22112 4.03378
# Velocity P-wave (km/s) = 6.08336 7.02512 6.57113
#
# Compressibility (1/GPa) = 0.02829578
#
# Stress axis : x y z
#
# Youngs Moduli (GPa) = 33.48596 129.65260 85.35469
#
# Poissons Ratio (x) = 0.54547 0.34152
# Poissons Ratio (y) = 0.14088 0.19545
# Poissons Ratio (z) = 0.13398 0.29688
#
# Static dielectric constant tensor:
#      x y z
#    x 3.607520 0.000010 0.000000 
#    y 0.000010 3.945690 0.000010 
#    z 0.000000 0.000010 3.707210 
# 
# 
# High freq. dielectric constant tensor:
#      x y z
#    x 1.792290 0.000000 0.000000 
#    y 0.000000 1.811900 0.000000 
#    z 0.000000 0.000000 1.797890 
# 
# From -- ./inp_files/9728.got.cif
#   From: 2010.03.12/outbox.cif.g09.slc.cpg/sg46_5_cif.got.tgz:9728.got - 2010.04.14 02:56:35.
