data_PCOD8193012
_publ_section_title
;
Structure prediction by ZEFSAII (Michael W. Deem and Ramdas Pophale) SiO2 
 PCOD8193012
Probable space group: I M A 2
;
_chemical_formula_sum "Si O2"
_cell_formula_units_Z 64
_cell_length_a 16.627783
_cell_length_b 13.254731
_cell_length_c 12.984806
_cell_angle_alpha 90.000000
_cell_angle_beta 90.000000
_cell_angle_gamma 90.000000
_cell_volume 2861.809571
_symmetry_space_group_name_H-M "I M A 2"
_symmetry_group_IT_number 46
_symmetry_cell_setting 'orthorhombic'
loop_
_space_group_symop_operation_xyz
x,y,z
-x,-y,z
1/2-x,y,z
1/2+x,-y,z
1/2+x,1/2+y,1/2+z
1/2-x,1/2-y,1/2+z
-x,1/2+y,1/2+z
x,1/2-y,1/2+z
loop_
_atom_site_type_symbol
_atom_site_label
_atom_site_fract_x
_atom_site_fract_y
_atom_site_fract_z
Si Si1 0.337789 0.409698 0.105540
Si Si2 0.156414 0.535021 0.636265
Si Si3 0.011901 0.111873 0.487245
Si Si4 0.338976 0.204213 0.816602
Si Si5 0.060934 0.118057 0.265998
Si Si6 0.435189 0.765390 0.137048
Si Si7 0.091676 0.028779 0.929124
Si Si8 0.156587 0.596714 0.241538
O O1 0.250000 0.410915 0.053922
O O2 0.339835 0.336589 0.201853
O O3 0.359289 0.522029 0.145780
O O4 0.396490 0.364216 0.019567
O O5 0.250000 0.530264 0.670579
O O6 0.096197 0.488278 0.723421
O O7 0.130819 0.649710 0.610978
O O8 0.144081 0.471830 0.532544
O O9 0.000974 0.104893 0.363607
O O10 0.953743 0.197387 0.535850
O O11 0.000000 0.000000 0.534745
O O12 0.250000 0.193386 0.864718
O O13 0.363406 0.320247 0.809468
O O14 0.403076 0.142612 0.885803
O O15 0.015996 0.180937 0.177097
O O16 0.398083 0.695031 0.225793
O O17 0.130558 0.952188 0.848611
O O18 0.000000 0.000000 0.953454
O O19 0.250000 0.626865 0.248478
#
# Coordination Sequence:
#
# PCOD8193012 Si02
#       8
#     8   8   8   8   8   8   8   8
#     4   9  19  38  64  97 133 169 222 286 351 416
#     4  12  28  50  69  98 147 196 241 299 375 453
#     4  12  25  44  69 104 137 181 236 298 357 436
#     4  10  21  39  66 101 134 174 227 289 361 427
#     4  12  27  45  68 102 143 188 236 298 361 440
#     4  12  25  44  73 101 137 188 244 300 365 436
#     4  11  23  40  72 106 138 178 238 304 367 439
#     4  10  21  40  68 104 140 176 231 298 361 432
#
# _framework density 22.363472999999999
#
# number of rings (size 3 to 8) (size 9 to 14) (size 15 to 20)
#    0.000    1.000    2.500    5.250    7.000    1.000 
#    0.000    0.000    0.000    0.000    0.000    0.000 
#    0.000    0.000    0.000    0.000    0.000    0.000 
#
# Total GULP energy -396745.828075 kJ/mol
# GULP energy per Si atom -12398.307127 kJ/mol
# Density = 2.231257 g / cm^3
# Si number density = 22.363473 Si / 1000 Ang^3
#
#
#
# Elastic Constant Matrix: (Units=GPa)
#
#
# Indices 1 2 3 4 5 6 
#
# 1 94.0498 27.2426 21.4563 0.0000 0.0000 0.0000
# 2 27.2426 116.6803 26.0273 0.0000 0.0000 0.0000
# 3 21.4563 26.0273 91.9261 0.0000 0.0000 0.0000
# 4 0.0000 0.0000 0.0000 19.1906 0.0000 0.0000
# 5 0.0000 0.0000 0.0000 0.0000 32.1612 0.0000
# 6 0.0000 0.0000 0.0000 0.0000 0.0000 35.4922
#
#
#
# Elastic Compliance Matrix: (Units=1/GPa)
#
#
# Indices 1 2 3 4 5 6 
#
# 1 0.011773 -0.002280 -0.002102 0.000000 0.000000 0.000000
# 2 -0.002280 0.009590 -0.002183 0.000000 0.000000 0.000000
# 3 -0.002102 -0.002183 0.011987 0.000000 0.000000 0.000000
# 4 0.000000 0.000000 0.000000 0.052109 0.000000 0.000000
# 5 0.000000 0.000000 0.000000 0.000000 0.031093 0.000000
# 6 0.000000 0.000000 0.000000 0.000000 0.000000 0.028175
#
#
# Mechanical properties :
#
#
# Convention : Reuss Voigt Hill
#
# Bulk Modulus (GPa) = 49.45805 50.23427 49.84616
# Shear Modulus (GPa) = 30.37725 32.56414 31.47069
#
# Velocity S-wave (km/s) = 3.68957 3.82007 3.75538
# Velocity P-wave (km/s) = 6.34934 6.47832 6.41415
#
# Compressibility (1/GPa) = 0.02021915
#
# Stress axis : x y z
#
# Youngs Moduli (GPa) = 84.94274 104.27900 83.42296
#
# Poissons Ratio (x) = 0.23773 0.17539
# Poissons Ratio (y) = 0.19365 0.18212
# Poissons Ratio (z) = 0.17858 0.22765
#
# Static dielectric constant tensor:
#      x y z
#    x 4.155870 0.000000 0.000000 
#    y 0.000000 4.159550 0.000000 
#    z 0.000000 0.000000 3.781260 
# 
# 
# High freq. dielectric constant tensor:
#      x y z
#    x 1.882290 0.000000 0.000000 
#    y 0.000000 1.887070 0.000000 
#    z 0.000000 0.000000 1.869960 
# 
# From -- ./inp_files/11979.got.cif
#   From: 2010.03.12/outbox.cif.g09.slc.cpg/sg46_6_cif.got.tgz:11979.got - 2010.04.14 02:56:35.
