data_PCOD8193209
_publ_section_title
;
Structure prediction by ZEFSAII (Michael W. Deem and Ramdas Pophale) SiO2 
 PCOD8193209
Probable space group: I M A 2
;
_chemical_formula_sum "Si O2"
_cell_formula_units_Z 48
_cell_length_a 21.859830
_cell_length_b 9.186491
_cell_length_c 11.734035
_cell_angle_alpha 90.000000
_cell_angle_beta 90.000000
_cell_angle_gamma 90.000000
_cell_volume 2356.371782
_symmetry_space_group_name_H-M "I M A 2"
_symmetry_group_IT_number 46
_symmetry_cell_setting 'orthorhombic'
loop_
_space_group_symop_operation_xyz
x,y,z
-x,-y,z
1/2-x,y,z
1/2+x,-y,z
1/2+x,1/2+y,1/2+z
1/2-x,1/2-y,1/2+z
-x,1/2+y,1/2+z
x,1/2-y,1/2+z
loop_
_atom_site_type_symbol
_atom_site_label
_atom_site_fract_x
_atom_site_fract_y
_atom_site_fract_z
Si Si1 0.819728 0.517487 0.630230
Si Si2 0.627302 0.685758 0.078273
Si Si3 0.178129 0.523891 0.889867
Si Si4 0.515886 0.834640 0.988882
Si Si5 0.386098 0.813926 0.950290
Si Si6 0.933400 0.537416 0.274224
O O1 0.750000 0.465778 0.617969
O O2 0.822991 0.688202 0.597694
O O3 0.842827 0.496886 0.759623
O O4 0.860823 0.422611 0.546261
O O5 0.560205 0.758219 0.077046
O O6 0.620145 0.581712 0.187165
O O7 0.643627 0.594606 0.966549
O O8 0.250000 0.500024 0.905301
O O9 0.161928 0.686305 0.929563
O O10 0.500000 0.000000 0.025058
O O11 0.451655 0.746389 0.989271
O O12 0.551705 0.837425 0.867644
O O13 0.401153 0.900014 0.834648
O O14 0.000000 0.500000 0.218138
#
# Coordination Sequence:
#
# PCOD8193209 Si02
#       6
#     8   8   8   8   8   8
#     4  11  24  43  65  89 128 172 214 266 314 376
#     4  12  22  41  67  95 129 166 213 269 321 383
#     4  11  27  43  63  96 127 168 226 263 313 387
#     4   9  19  40  62  97 126 160 206 257 322 384
#     4  10  22  44  65  92 130 170 210 267 325 381
#     4   9  21  39  63  94 130 162 204 263 324 388
#
# _framework density 20.3703
#
# number of rings (size 3 to 8) (size 9 to 14) (size 15 to 20)
#    0.000    2.000    3.333    2.000    4.667    1.333 
#    0.000    1.667    0.000    0.000    0.000    0.000 
#    0.000    0.000    0.000    0.000    0.000    0.000 
#
# Total GULP energy -297474.103442 kJ/mol
# GULP energy per Si atom -12394.754310 kJ/mol
# Density = 2.032394 g / cm^3
# Si number density = 20.370300 Si / 1000 Ang^3
#
#
#
# Elastic Constant Matrix: (Units=GPa)
#
#
# Indices 1 2 3 4 5 6 
#
# 1 82.3968 31.2082 37.1908 0.0000 0.0000 0.0000
# 2 31.2082 93.2266 55.7955 0.0000 0.0000 0.0000
# 3 37.1908 55.7955 82.7122 0.0000 0.0000 0.0000
# 4 0.0000 0.0000 0.0000 30.0039 0.0000 0.0000
# 5 0.0000 0.0000 0.0000 0.0000 30.5168 0.0000
# 6 0.0000 0.0000 0.0000 0.0000 0.0000 37.8959
#
#
#
# Elastic Compliance Matrix: (Units=1/GPa)
#
#
# Indices 1 2 3 4 5 6 
#
# 1 0.015385 -0.001694 -0.005775 0.000000 0.000000 0.000000
# 2 -0.001694 0.018176 -0.011499 0.000000 0.000000 0.000000
# 3 -0.005775 -0.011499 0.022444 0.000000 0.000000 0.000000
# 4 0.000000 0.000000 0.000000 0.033329 0.000000 0.000000
# 5 0.000000 0.000000 0.000000 0.000000 0.032769 0.000000
# 6 0.000000 0.000000 0.000000 0.000000 0.000000 0.026388
#
#
# Mechanical properties :
#
#
# Convention : Reuss Voigt Hill
#
# Bulk Modulus (GPa) = 55.34607 56.30274 55.82440
# Shear Modulus (GPa) = 25.98090 28.62605 27.30348
#
# Velocity S-wave (km/s) = 3.57519 3.75278 3.66506
# Velocity P-wave (km/s) = 6.65369 6.81743 6.73606
#
# Compressibility (1/GPa) = 0.01806813
#
# Stress axis : x y z
#
# Youngs Moduli (GPa) = 65.00043 55.01807 44.55554
#
# Poissons Ratio (x) = 0.09319 0.25730
# Poissons Ratio (y) = 0.11010 0.51236
# Poissons Ratio (z) = 0.37537 0.63267
#
# Static dielectric constant tensor:
#      x y z
#    x 3.797790 0.000000 0.000000 
#    y 0.000000 3.543600 0.000000 
#    z 0.000000 0.000000 3.606670 
# 
# 
# High freq. dielectric constant tensor:
#      x y z
#    x 1.803460 0.000000 0.000000 
#    y 0.000000 1.786300 0.000000 
#    z 0.000000 0.000000 1.792840 
# 
# From -- ./inp_files/12727.got.cif
#   From: 2010.03.12/outbox.cif.g09.slc.cpg/sg46_7_cif.got.tgz:12727.got - 2010.04.14 02:56:35.
