data_PCOD8193642
_publ_section_title
;
Structure prediction by ZEFSAII (Michael W. Deem and Ramdas Pophale) SiO2 
 PCOD8193642
Probable space group: P M M M
;
_chemical_formula_sum "Si O2"
_cell_formula_units_Z 64
_cell_length_a 9.070495
_cell_length_b 20.779252
_cell_length_c 19.999662
_cell_angle_alpha 90.000000
_cell_angle_beta 90.000000
_cell_angle_gamma 90.000000
_cell_volume 3769.498322
_symmetry_space_group_name_H-M "P M M M"
_symmetry_group_IT_number 47
_symmetry_cell_setting 'orthorhombic'
loop_
_space_group_symop_operation_xyz
x,y,z
-x,-y,z
x,-y,-z
-x,y,-z
-x,-y,-z
x,y,-z
-x,y,z
x,-y,z
loop_
_atom_site_type_symbol
_atom_site_label
_atom_site_fract_x
_atom_site_fract_y
_atom_site_fract_z
Si Si1 0.331103 0.572696 0.298128
Si Si2 0.174959 0.724792 0.072870
Si Si3 0.174919 0.680402 0.786608
Si Si4 0.175555 0.808792 0.710870
Si Si5 0.824094 0.929023 0.792833
Si Si6 0.828486 0.384314 0.575503
Si Si7 0.825057 0.237197 0.572211
Si Si8 0.824841 0.869521 0.072773
O O1 0.500000 0.594633 0.301271
O O2 0.315830 0.500000 0.271086
O O3 0.245790 0.618837 0.247626
O O4 0.265079 0.574134 0.372779
O O5 0.227631 0.681454 0.135511
O O6 0.235827 0.797142 0.082670
O O7 0.000000 0.727720 0.073754
O O8 0.228602 0.697595 0.000000
O O9 0.229937 0.746342 0.751716
O O10 0.000000 0.673962 0.779828
O O11 0.239160 0.874642 0.742662
O O12 0.234988 0.804981 0.634275
O O13 0.000000 0.810197 0.712595
O O14 0.764409 0.914377 0.867695
O O15 0.000000 0.927208 0.792013
O O16 0.767304 0.000000 0.771404
O O17 0.798285 0.408714 0.500000
O O18 0.777004 0.310644 0.583337
O O19 0.000000 0.391618 0.593483
O O20 0.763701 0.212162 0.500000
O O21 0.000000 0.234356 0.570442
O O22 0.000000 0.867821 0.076104
O O23 0.773664 0.896299 0.000000
#
# Coordination Sequence:
#
# PCOD8193642 Si02
#       8
#     8   8   8   8   8   8   8   8
#     4  11  24  37  47  65  97 130 154 184 233 284
#     4   8  13  22  40  67  92 110 138 189 245 282
#     4  10  17  29  51  71  87 116 158 198 231 271
#     4   9  14  22  38  59  80 108 149 192 228 262
#     4   9  15  20  27  46  81 121 153 180 217 269
#     4   9  17  31  52  75  95 120 158 195 224 266
#     4   8  13  22  39  62  83 103 136 186 231 258
#     4   8  12  18  28  46  77 115 148 175 212 268
#
# _framework density 16.978387000000001
#
# number of rings (size 3 to 8) (size 9 to 14) (size 15 to 20)
#    0.000    3.000    2.500    1.875    0.000    1.750 
#    0.000    2.500    0.000    1.125    0.000    5.250 
#    0.000    0.500    0.000    0.000    0.000    8.000 
#
# Total GULP energy -792910.702630 kJ/mol
# GULP energy per Si atom -12389.229729 kJ/mol
# Density = 1.693974 g / cm^3
# Si number density = 16.978387 Si / 1000 Ang^3
#
#
#
# Elastic Constant Matrix: (Units=GPa)
#
#
# Indices 1 2 3 4 5 6 
#
# 1 22.5063 21.2640 22.5346 0.0000 0.0000 0.0000
# 2 21.2640 98.1638 68.3611 0.0000 0.0000 0.0000
# 3 22.5346 68.3611 149.8525 0.0000 0.0000 0.0000
# 4 0.0000 0.0000 0.0000 23.3107 0.0000 0.0000
# 5 0.0000 0.0000 0.0000 0.0000 3.9030 0.0000
# 6 0.0000 0.0000 0.0000 0.0000 0.0000 -1.2118
#
#
#
# Elastic Compliance Matrix: (Units=1/GPa)
#
#
# Indices 1 2 3 4 5 6 
#
# 1 0.057749 -0.009470 -0.004364 0.000000 0.000000 0.000000
# 2 -0.009470 0.016483 -0.006095 0.000000 0.000000 0.000000
# 3 -0.004364 -0.006095 0.010110 0.000000 0.000000 0.000000
# 4 0.000000 0.000000 0.000000 0.042899 0.000000 0.000000
# 5 0.000000 0.000000 0.000000 0.000000 0.256211 0.000000
# 6 0.000000 0.000000 0.000000 0.000000 0.000000 -0.825240
#
#
# Mechanical properties :
#
#
# Convention : Reuss Voigt Hill
#
# Bulk Modulus (GPa) = 22.48045 54.98243 38.73144
# Shear Modulus (GPa) = -12.91654 15.75791 1.42069
#
# Velocity S-wave (km/s) = -2.76119 3.04980 0.91574
# Velocity P-wave (km/s) = 1.76177 6.69745 4.89692
#
# Compressibility (1/GPa) = 0.04448309
#
# Stress axis : x y z
#
# Youngs Moduli (GPa) = 17.31628 60.66734 98.91095
#
# Poissons Ratio (x) = 0.57455 0.43164
# Poissons Ratio (y) = 0.16399 0.60290
# Poissons Ratio (z) = 0.07557 0.36979
#
# Static dielectric constant tensor:
#      x y z
#    x 2.533200 0.000000 0.000000 
#    y 0.000000 3.105050 0.000000 
#    z 0.000000 0.000000 3.748480 
# 
# 
# High freq. dielectric constant tensor:
#      x y z
#    x 1.583150 0.000000 0.000000 
#    y 0.000000 1.631210 0.000000 
#    z 0.000000 0.000000 1.671280 
# 
# From -- ./inp_files/30122.got.cif
#   From: 2010.03.12/outbox.cif.g09.slc.cpg/sg47_16_cif.got.tgz:30122.got - 2010.04.14 03:12:58.
