data_PCOD8193624
_publ_section_title
;
Structure prediction by ZEFSAII (Michael W. Deem and Ramdas Pophale) SiO2 
 PCOD8193624
Probable space group: P M M M
;
_chemical_formula_sum "Si O2"
_cell_formula_units_Z 52
_cell_length_a 20.445815
_cell_length_b 14.270383
_cell_length_c 11.963155
_cell_angle_alpha 90.000000
_cell_angle_beta 90.000000
_cell_angle_gamma 90.000000
_cell_volume 3490.485078
_symmetry_space_group_name_H-M "P M M M"
_symmetry_group_IT_number 47
_symmetry_cell_setting 'orthorhombic'
loop_
_space_group_symop_operation_xyz
x,y,z
-x,-y,z
x,-y,-z
-x,y,-z
-x,-y,-z
x,y,-z
-x,y,z
x,-y,z
loop_
_atom_site_type_symbol
_atom_site_label
_atom_site_fract_x
_atom_site_fract_y
_atom_site_fract_z
Si Si1 0.923125 0.398709 0.500000
Si Si2 0.576628 0.730133 0.871292
Si Si3 0.804922 0.388380 0.874809
Si Si4 0.679354 0.392289 0.254643
Si Si5 0.576081 0.796212 0.500000
Si Si6 0.927045 0.612381 0.260444
Si Si7 0.641555 0.605386 0.500000
Si Si8 0.422975 0.896043 0.719157
O O1 0.887204 0.500000 0.500000
O O2 0.905841 0.346388 0.616773
O O3 0.000000 0.415845 0.500000
O O4 0.500000 0.707647 0.855671
O O5 0.615509 0.657363 0.794916
O O6 0.593025 0.835251 0.829351
O O7 0.598108 0.721593 0.000000
O O8 0.805861 0.500000 0.872865
O O9 0.745218 0.349807 0.799740
O O10 0.874104 0.350029 0.828034
O O11 0.796140 0.349749 0.000000
O O12 0.671852 0.500000 0.220213
O O13 0.685287 0.380690 0.388768
O O14 0.500000 0.815229 0.500000
O O15 0.585801 0.684227 0.500000
O O16 0.607489 0.844449 0.389954
O O17 0.926801 0.500000 0.267653
O O18 0.000000 0.646930 0.225678
O O19 0.610501 0.500000 0.500000
O O20 0.500000 0.904668 0.703098
O O21 0.392206 0.000000 0.732501
#
# Coordination Sequence:
#
# PCOD8193624 Si02
#       8
#     4   8   8   8   4   8   4   8
#     4   7  10  17  29  46  67  89 113 147 193 234
#     4  10  20  32  46  63  82 108 140 173 209 248
#     4   9  17  27  38  52  72 101 133 166 206 246
#     4  10  20  33  45  58  79 106 140 180 217 254
#     4  10  17  29  47  66  87 107 131 168 214 262
#     4   8  13  21  34  52  72  94 124 163 203 241
#     4  10  20  31  45  63  80 104 138 177 217 247
#     4   9  17  29  46  67  87 106 129 162 207 257
#
# _framework density 14.897643
#
# number of rings (size 3 to 8) (size 9 to 14) (size 15 to 20)
#    0.000    2.846    1.538    1.615    0.000    3.538 
#    0.000    8.462    0.000    0.000    0.000    0.000 
#    0.000    0.000    0.000    0.000    0.000    0.769 
#
# Total GULP energy -644280.465955 kJ/mol
# GULP energy per Si atom -12390.008961 kJ/mol
# Density = 1.486374 g / cm^3
# Si number density = 14.897643 Si / 1000 Ang^3
#
#
#
# Elastic Constant Matrix: (Units=GPa)
#
#
# Indices 1 2 3 4 5 6 
#
# 1 62.6794 22.1438 46.2932 0.0000 0.0000 0.0000
# 2 22.1438 54.9273 28.6535 0.0000 0.0000 0.0000
# 3 46.2932 28.6535 125.2182 0.0000 0.0000 0.0000
# 4 0.0000 0.0000 0.0000 15.1156 0.0000 0.0000
# 5 0.0000 0.0000 0.0000 0.0000 22.3699 0.0000
# 6 0.0000 0.0000 0.0000 0.0000 0.0000 1.1667
#
#
#
# Elastic Compliance Matrix: (Units=1/GPa)
#
#
# Indices 1 2 3 4 5 6 
#
# 1 0.023361 -0.005578 -0.007360 0.000000 0.000000 0.000000
# 2 -0.005578 0.022006 -0.002973 0.000000 0.000000 0.000000
# 3 -0.007360 -0.002973 0.011387 0.000000 0.000000 0.000000
# 4 0.000000 0.000000 0.000000 0.066157 0.000000 0.000000
# 5 0.000000 0.000000 0.000000 0.000000 0.044703 0.000000
# 6 0.000000 0.000000 0.000000 0.000000 0.000000 0.857144
#
#
# Mechanical properties :
#
#
# Convention : Reuss Voigt Hill
#
# Bulk Modulus (GPa) = 40.11107 48.55624 44.33365
# Shear Modulus (GPa) = 4.69532 17.44606 11.07069
#
# Velocity S-wave (km/s) = 1.77723 3.42579 2.72897
# Velocity P-wave (km/s) = 5.58519 6.95069 6.30501
#
# Compressibility (1/GPa) = 0.02493078
#
# Stress axis : x y z
#
# Youngs Moduli (GPa) = 42.80657 45.44250 87.81618
#
# Poissons Ratio (x) = 0.25350 0.64633
# Poissons Ratio (y) = 0.23879 0.26110
# Poissons Ratio (z) = 0.31506 0.13511
#
# Static dielectric constant tensor:
#      x y z
#    x 2.719620 0.000000 0.000000 
#    y 0.000000 2.579060 0.000000 
#    z 0.000000 0.000000 3.256430 
# 
# 
# High freq. dielectric constant tensor:
#      x y z
#    x 1.539670 0.000000 0.000000 
#    y 0.000000 1.511730 0.000000 
#    z 0.000000 0.000000 1.592930 
# 
# From -- ./inp_files/19710.got.cif
#   From: 2010.03.12/outbox.cif.g09.slc.cpg/sg47_10_cif.got.tgz:19710.got - 2010.04.14 03:12:58.
