data_PCOD8193207
_publ_section_title
;
Structure prediction by ZEFSAII (Michael W. Deem and Ramdas Pophale) SiO2 
 PCOD8193207
Probable space group: I M A 2
;
_chemical_formula_sum "Si O2"
_cell_formula_units_Z 64
_cell_length_a 29.543740
_cell_length_b 11.225231
_cell_length_c 8.902477
_cell_angle_alpha 90.000000
_cell_angle_beta 90.000000
_cell_angle_gamma 90.000000
_cell_volume 2952.375685
_symmetry_space_group_name_H-M "I M A 2"
_symmetry_group_IT_number 46
_symmetry_cell_setting 'orthorhombic'
loop_
_space_group_symop_operation_xyz
x,y,z
-x,-y,z
1/2-x,y,z
1/2+x,-y,z
1/2+x,1/2+y,1/2+z
1/2-x,1/2-y,1/2+z
-x,1/2+y,1/2+z
x,1/2-y,1/2+z
loop_
_atom_site_type_symbol
_atom_site_label
_atom_site_fract_x
_atom_site_fract_y
_atom_site_fract_z
Si Si1 0.523781 0.778617 0.299630
Si Si2 0.066200 0.990844 0.219948
Si Si3 0.611334 0.454237 0.030909
Si Si4 0.697393 0.350702 0.170160
Si Si5 0.538578 0.256691 0.069201
Si Si6 0.360652 0.109690 0.046076
Si Si7 0.115933 0.325461 0.234023
Si Si8 0.301441 0.605064 0.511423
O O1 0.507967 0.705418 0.151941
O O2 0.479825 0.748842 0.401133
O O3 0.574150 0.731022 0.331027
O O4 0.525766 0.923148 0.280540
O O5 0.102501 0.970133 0.354046
O O6 0.050707 0.869448 0.143880
O O7 0.089080 0.064438 0.084568
O O8 0.664390 0.428996 0.064221
O O9 0.580399 0.345600 0.090225
O O10 0.598032 0.573216 0.121531
O O11 0.750000 0.389887 0.145927
O O12 0.681233 0.362528 0.343276
O O13 0.690861 0.214262 0.123412
O O14 0.352663 0.126228 0.867604
O O15 0.325919 0.006037 0.090207
O O16 0.353761 0.230823 0.141014
O O17 0.250000 0.567670 0.498514
#
# Coordination Sequence:
#
# PCOD8193207 Si02
#       8
#     8   8   8   8   8   8   8   8
#     4  11  24  44  63  90 131 181 229 283 344 406
#     4  11  25  44  65  93 139 179 231 293 347 412
#     4  12  25  42  67 102 135 183 230 293 343 424
#     4  10  23  43  72 104 139 175 221 287 359 422
#     4  12  25  40  66  96 131 175 233 286 349 405
#     4  11  23  45  67  96 133 184 227 279 341 420
#     4  11  24  43  69  93 134 185 234 279 345 405
#     4  10  22  43  71 104 140 176 222 286 351 419
#
# _framework density 21.677458000000001
#
# number of rings (size 3 to 8) (size 9 to 14) (size 15 to 20)
#    0.000    1.000    2.500    4.875    5.250    1.500 
#    0.000    1.250    0.000    0.000    0.000    0.000 
#    0.000    0.000    0.000    0.000    0.000    0.000 
#
# Total GULP energy -396518.146919 kJ/mol
# GULP energy per Si atom -12391.192091 kJ/mol
# Density = 2.162812 g / cm^3
# Si number density = 21.677458 Si / 1000 Ang^3
#
#
#
# Elastic Constant Matrix: (Units=GPa)
#
#
# Indices 1 2 3 4 5 6 
#
# 1 74.4916 48.7588 30.0001 0.0000 0.0000 0.0000
# 2 48.7588 129.9208 65.4466 0.0000 0.0000 0.0000
# 3 30.0001 65.4466 94.5965 0.0001 0.0000 0.0000
# 4 0.0000 0.0000 0.0001 39.5803 0.0000 0.0000
# 5 0.0000 0.0000 0.0000 0.0000 33.8985 0.0000
# 6 0.0000 0.0000 0.0000 0.0000 0.0000 28.4701
#
#
#
# Elastic Compliance Matrix: (Units=1/GPa)
#
#
# Indices 1 2 3 4 5 6 
#
# 1 0.017949 -0.005938 -0.001584 0.000000 0.000000 0.000000
# 2 -0.005938 0.013779 -0.007650 0.000000 0.000000 0.000000
# 3 -0.001584 -0.007650 0.016366 0.000000 0.000000 0.000000
# 4 0.000000 0.000000 0.000000 0.025265 0.000000 0.000000
# 5 0.000000 0.000000 0.000000 0.000000 0.029500 0.000000
# 6 0.000000 0.000000 0.000000 0.000000 0.000000 0.035125
#
#
# Mechanical properties :
#
#
# Convention : Reuss Voigt Hill
#
# Bulk Modulus (GPa) = 56.33731 65.26884 60.80308
# Shear Modulus (GPa) = 28.69522 30.71001 29.70262
#
# Velocity S-wave (km/s) = 3.64226 3.76796 3.70565
# Velocity P-wave (km/s) = 6.61313 7.00746 6.81315
#
# Compressibility (1/GPa) = 0.01775023
#
# Stress axis : x y z
#
# Youngs Moduli (GPa) = 55.71271 72.57309 61.10203
#
# Poissons Ratio (x) = 0.43097 0.09678
# Poissons Ratio (y) = 0.33084 0.46742
# Poissons Ratio (z) = 0.08824 0.55517
#
# Static dielectric constant tensor:
#      x y z
#    x 3.803510 0.000000 0.000000 
#    y 0.000000 3.984140 0.000000 
#    z 0.000000 0.000000 4.042100 
# 
# 
# High freq. dielectric constant tensor:
#      x y z
#    x 1.838780 0.000000 0.000000 
#    y 0.000000 1.857650 0.000000 
#    z 0.000000 0.000000 1.862090 
# 
# From -- ./inp_files/8510.got.cif
#   From: 2010.03.12/outbox.cif.g09.slc.cpg/sg46_5_cif.got.tgz:8510.got - 2010.04.14 02:56:35.
