data_PCOD8193524
_publ_section_title
;
Structure prediction by ZEFSAII (Michael W. Deem and Ramdas Pophale) SiO2 
 PCOD8193524
Probable space group: P M M M
;
_chemical_formula_sum "Si O2"
_cell_formula_units_Z 60
_cell_length_a 21.045874
_cell_length_b 12.291022
_cell_length_c 14.674601
_cell_angle_alpha 90.000000
_cell_angle_beta 90.000000
_cell_angle_gamma 90.000000
_cell_volume 3795.956821
_symmetry_space_group_name_H-M "P M M M"
_symmetry_group_IT_number 47
_symmetry_cell_setting 'orthorhombic'
loop_
_space_group_symop_operation_xyz
x,y,z
-x,-y,z
x,-y,-z
-x,y,-z
-x,-y,-z
x,y,-z
-x,y,z
x,-y,z
loop_
_atom_site_type_symbol
_atom_site_label
_atom_site_fract_x
_atom_site_fract_y
_atom_site_fract_z
Si Si1 0.569307 0.628434 0.285945
Si Si2 0.072570 0.708463 0.781069
Si Si3 0.926098 0.500000 0.099233
Si Si4 0.627470 0.625432 0.899939
Si Si5 0.810286 0.621935 0.287491
Si Si6 0.764720 0.694496 0.898615
Si Si7 0.689380 0.629777 0.603540
Si Si8 0.861757 0.123136 0.104138
O O1 0.500000 0.675407 0.315513
O O2 0.568864 0.500000 0.299629
O O3 0.578611 0.657956 0.179319
O O4 0.626297 0.677782 0.347152
O O5 0.091995 0.608824 0.846938
O O6 0.124917 0.694521 0.699775
O O7 0.083194 0.820653 0.835159
O O8 0.000000 0.702348 0.744881
O O9 0.000000 0.500000 0.083430
O O10 0.892328 0.500000 0.000000
O O11 0.649756 0.500000 0.887512
O O12 0.688779 0.702642 0.891046
O O13 0.595593 0.641309 0.000000
O O14 0.824701 0.500000 0.321401
O O15 0.790080 0.616613 0.181066
O O16 0.753031 0.674034 0.346871
O O17 0.794757 0.814533 0.883959
O O18 0.783170 0.649878 0.000000
O O19 0.689299 0.671253 0.500000
O O20 0.688983 0.500000 0.609904
O O21 0.852253 0.000000 0.138317
O O22 0.885313 0.126064 0.000000
#
# Coordination Sequence:
#
# PCOD8193524 Si02
#       8
#     8   8   4   8   8   8   8   8
#     4   9  16  25  37  55  83 117 150 180 207 242
#     4  10  19  29  41  59  81 110 143 177 219 262
#     4   9  16  26  38  56  83 109 138 175 211 251
#     4   9  15  23  36  56  84 116 148 178 210 250
#     4  10  17  27  41  58  81 109 140 178 218 256
#     4   9  16  25  39  58  79 107 142 178 211 248
#     4   9  17  28  41  56  77 109 149 184 215 255
#     4   9  18  30  41  56  82 116 152 185 215 252
#
# _framework density 15.806293
#
# number of rings (size 3 to 8) (size 9 to 14) (size 15 to 20)
#    0.000    2.733    2.000    0.800    0.000    2.933 
#    0.000    3.333    0.000    0.400    0.000    1.867 
#    0.000    9.067    0.000   10.000    0.000    6.533 
#
# Total GULP energy -743354.836645 kJ/mol
# GULP energy per Si atom -12389.247277 kJ/mol
# Density = 1.577032 g / cm^3
# Si number density = 15.806293 Si / 1000 Ang^3
#
#
#
# Elastic Constant Matrix: (Units=GPa)
#
#
# Indices 1 2 3 4 5 6 
#
# 1 133.0481 18.3038 55.1256 0.0000 0.0000 0.0000
# 2 18.3038 49.5750 9.9347 0.0000 0.0000 0.0000
# 3 55.1256 9.9347 80.8658 0.0000 0.0000 0.0000
# 4 0.0000 0.0000 0.0000 6.8296 0.0000 0.0000
# 5 0.0000 0.0000 0.0000 0.0000 12.9185 0.0000
# 6 0.0000 0.0000 0.0000 0.0000 0.0000 8.3519
#
#
#
# Elastic Compliance Matrix: (Units=1/GPa)
#
#
# Indices 1 2 3 4 5 6 
#
# 1 0.010785 -0.002572 -0.007036 0.000000 0.000000 0.000000
# 2 -0.002572 0.021294 -0.000863 0.000000 0.000000 0.000000
# 3 -0.007036 -0.000863 0.017269 0.000000 0.000000 0.000000
# 4 0.000000 0.000000 0.000000 0.146421 0.000000 0.000000
# 5 0.000000 0.000000 0.000000 0.000000 0.077409 0.000000
# 6 0.000000 0.000000 0.000000 0.000000 0.000000 0.119733
#
#
# Mechanical properties :
#
#
# Convention : Reuss Voigt Hill
#
# Bulk Modulus (GPa) = 35.20390 47.80189 41.50290
# Shear Modulus (GPa) = 11.81139 17.62833 14.71986
#
# Velocity S-wave (km/s) = 2.73657 3.34319 3.05498
# Velocity P-wave (km/s) = 5.68379 6.72388 6.22560
#
# Compressibility (1/GPa) = 0.02840594
#
# Stress axis : x y z
#
# Youngs Moduli (GPa) = 92.71952 46.96168 57.90830
#
# Poissons Ratio (x) = 0.12079 0.40745
# Poissons Ratio (y) = 0.23848 0.04996
# Poissons Ratio (z) = 0.65239 0.04052
#
# Static dielectric constant tensor:
#      x y z
#    x 3.207460 0.000000 0.000000 
#    y 0.000000 2.561240 0.000000 
#    z 0.000000 0.000000 2.944870 
# 
# 
# High freq. dielectric constant tensor:
#      x y z
#    x 1.617670 0.000000 0.000000 
#    y 0.000000 1.539410 0.000000 
#    z 0.000000 0.000000 1.582410 
# 
# From -- ./inp_files/25346.got.cif
#   From: 2010.03.12/outbox.cif.g09.slc.cpg/sg47_13_cif.got.tgz:25346.got - 2010.04.14 03:12:58.
