data_PCOD8193219
_publ_section_title
;
Structure prediction by ZEFSAII (Michael W. Deem and Ramdas Pophale) SiO2 
 PCOD8193219
Probable space group: I M A 2
;
_chemical_formula_sum "Si O2"
_cell_formula_units_Z 52
_cell_length_a 15.540184
_cell_length_b 7.867694
_cell_length_c 21.573504
_cell_angle_alpha 90.000000
_cell_angle_beta 90.000000
_cell_angle_gamma 90.000000
_cell_volume 2637.693364
_symmetry_space_group_name_H-M "I M A 2"
_symmetry_group_IT_number 46
_symmetry_cell_setting 'orthorhombic'
loop_
_space_group_symop_operation_xyz
x,y,z
-x,-y,z
1/2-x,y,z
1/2+x,-y,z
1/2+x,1/2+y,1/2+z
1/2-x,1/2-y,1/2+z
-x,1/2+y,1/2+z
x,1/2-y,1/2+z
loop_
_atom_site_type_symbol
_atom_site_label
_atom_site_fract_x
_atom_site_fract_y
_atom_site_fract_z
Si Si1 0.905258 0.500000 0.884920
Si Si2 0.750000 0.000001 0.479017
Si Si3 0.250000 0.186868 0.597915
Si Si4 0.596080 0.306563 0.674372
Si Si5 0.750000 0.313129 0.097914
Si Si6 0.349716 0.809004 0.803908
Si Si7 0.903920 0.806562 0.174373
Si Si8 0.349716 0.309005 0.303908
O O1 0.835145 0.499999 0.938414
O O2 0.899608 0.329668 0.844005
O O3 0.899607 0.670334 0.844006
O O4 0.000000 0.500000 0.915456
O O5 0.750000 0.168448 0.522869
O O6 0.750000 0.831554 0.522869
O O7 0.336611 0.282097 0.618556
O O8 0.250000 0.999998 0.629313
O O9 0.663389 0.282100 0.618555
O O10 0.619209 0.191610 0.733031
O O11 0.500000 0.260569 0.650344
O O12 0.600769 0.500000 0.697070
O O13 0.250000 0.760417 0.806599
O O14 0.366338 0.999999 0.829736
O O15 0.880791 0.691611 0.233032
O O16 0.250000 0.260420 0.306599
#
# Coordination Sequence:
#
# PCOD8193219 Si02
#       8
#     8   4   4   8   4   8   8   8
#     4  12  24  44  70  96 130 170 217 272 320 383
#     4  10  26  46  64  88 124 178 228 260 314 370
#     4  10  23  40  61  87 116 169 221 253 313 372
#     4  11  22  37  61  96 134 166 204 263 325 387
#     4  10  23  40  61  87 116 169 221 253 313 372
#     4  11  22  38  65  99 134 168 206 260 332 393
#     4  11  22  37  61  96 134 166 204 263 325 387
#     4  11  22  38  65  99 134 168 206 260 332 393
#
# _framework density 19.714193999999999
#
# number of rings (size 3 to 8) (size 9 to 14) (size 15 to 20)
#    0.462    0.615    4.615    2.308    0.000    5.538 
#    0.000    3.077    0.000    0.000    0.000    0.000 
#    0.000    0.000    0.000    0.000    0.000    0.000 
#
# Total GULP energy -322375.058115 kJ/mol
# GULP energy per Si atom -12399.040697 kJ/mol
# Density = 1.966932 g / cm^3
# Si number density = 19.714194 Si / 1000 Ang^3
#
#
#
# Elastic Constant Matrix: (Units=GPa)
#
#
# Indices 1 2 3 4 5 6 
#
# 1 175.9126 42.3439 55.3537 0.0000 0.0000 0.0000
# 2 42.3439 97.4761 26.6465 0.0000 0.0000 0.0000
# 3 55.3537 26.6465 107.5129 0.0000 0.0000 0.0000
# 4 0.0000 0.0000 0.0000 27.4605 0.0000 0.0000
# 5 0.0000 0.0000 0.0000 0.0000 5.7445 0.0000
# 6 0.0000 0.0000 0.0000 0.0000 0.0000 9.6359
#
#
#
# Elastic Compliance Matrix: (Units=1/GPa)
#
#
# Indices 1 2 3 4 5 6 
#
# 1 0.007226 -0.002276 -0.003156 0.000000 0.000000 0.000000
# 2 -0.002276 0.011721 -0.001733 0.000000 0.000000 0.000000
# 3 -0.003156 -0.001733 0.011356 0.000000 0.000000 0.000000
# 4 0.000000 0.000000 0.000000 0.036416 0.000000 0.000000
# 5 0.000000 0.000000 0.000000 0.000000 0.174078 0.000000
# 6 0.000000 0.000000 0.000000 0.000000 0.000000 0.103779
#
#
# Mechanical properties :
#
#
# Convention : Reuss Voigt Hill
#
# Bulk Modulus (GPa) = 62.60940 69.95442 66.28191
# Shear Modulus (GPa) = 13.72756 25.67201 19.69979
#
# Velocity S-wave (km/s) = 2.64167 3.61253 3.16455
# Velocity P-wave (km/s) = 6.41343 7.27749 6.85908
#
# Compressibility (1/GPa) = 0.01597204
#
# Stress axis : x y z
#
# Youngs Moduli (GPa) = 138.39649 85.31356 88.06152
#
# Poissons Ratio (x) = 0.19418 0.27793
# Poissons Ratio (y) = 0.31500 0.15263
# Poissons Ratio (z) = 0.43679 0.14787
#
# Static dielectric constant tensor:
#      x y z
#    x 3.766740 0.000000 0.000000 
#    y 0.000000 3.649670 0.000000 
#    z 0.000000 0.000000 3.206310 
# 
# 
# High freq. dielectric constant tensor:
#      x y z
#    x 1.787170 0.000000 0.000000 
#    y 0.000000 1.775730 0.000000 
#    z 0.000000 0.000000 1.730000 
# 
# From -- ./inp_files/21990.got.cif
#   From: 2010.03.12/outbox.cif.g09.slc.cpg/sg46_11_cif.got.tgz:21990.got - 2010.04.14 02:56:35.
