data_PCOD8193210
_publ_section_title
;
Structure prediction by ZEFSAII (Michael W. Deem and Ramdas Pophale) SiO2 
 PCOD8193210
Probable space group: I M A 2
;
_chemical_formula_sum "Si O2"
_cell_formula_units_Z 44
_cell_length_a 24.410892
_cell_length_b 6.149663
_cell_length_c 13.902336
_cell_angle_alpha 90.000000
_cell_angle_beta 90.000000
_cell_angle_gamma 90.000000
_cell_volume 2087.001432
_symmetry_space_group_name_H-M "I M A 2"
_symmetry_group_IT_number 46
_symmetry_cell_setting 'orthorhombic'
loop_
_space_group_symop_operation_xyz
x,y,z
-x,-y,z
1/2-x,y,z
1/2+x,-y,z
1/2+x,1/2+y,1/2+z
1/2-x,1/2-y,1/2+z
-x,1/2+y,1/2+z
x,1/2-y,1/2+z
loop_
_atom_site_type_symbol
_atom_site_label
_atom_site_fract_x
_atom_site_fract_y
_atom_site_fract_z
Si Si1 0.111655 0.320117 0.269240
Si Si2 0.541159 0.170703 0.036766
Si Si3 0.365625 0.152006 0.069816
Si Si4 0.610315 0.022849 0.424704
Si Si5 0.687689 0.408738 0.411319
Si Si6 0.500000 0.000000 0.688985
O O1 0.146520 0.254259 0.174239
O O2 0.149955 0.476883 0.331641
O O3 0.054125 0.442537 0.250704
O O4 0.099952 0.094338 0.323848
O O5 0.511231 0.292056 0.123218
O O6 0.500000 0.000000 0.988342
O O7 0.592209 0.045210 0.082788
O O8 0.559189 0.321170 0.947926
O O9 0.390438 0.349047 0.009613
O O10 0.314435 0.046987 0.011548
O O11 0.666687 0.161659 0.424496
O O12 0.750000 0.400689 0.375565
#
# Coordination Sequence:
#
# PCOD8193210 Si02
#       6
#     8   8   8   8   8   4
#     4  11  24  44  68 106 137 182 231 277 347 419
#     4  11  20  40  65  93 135 185 222 270 332 405
#     4  10  22  44  68  94 132 177 230 279 338 410
#     4  10  23  44  62  97 137 178 229 279 340 400
#     4  10  25  46  70 100 136 179 236 296 345 400
#     4  12  24  42  68 100 144 182 220 280 334 412
#
# _framework density 21.082878000000001
#
# number of rings (size 3 to 8) (size 9 to 14) (size 15 to 20)
#    0.000    1.455    3.636    0.000    2.545    3.636 
#   27.818    1.818    0.000    0.000    0.000    0.000 
#    0.000    0.000    0.000    0.000    0.000    0.000 
#
# Total GULP energy -272730.508684 kJ/mol
# GULP energy per Si atom -12396.841304 kJ/mol
# Density = 2.103489 g / cm^3
# Si number density = 21.082878 Si / 1000 Ang^3
#
#
#
# Elastic Constant Matrix: (Units=GPa)
#
#
# Indices 1 2 3 4 5 6 
#
# 1 131.1797 46.2030 42.0095 0.0000 0.0000 0.0000
# 2 46.2030 117.8443 45.8972 0.0000 0.0000 0.0000
# 3 42.0095 45.8972 127.9550 0.0000 0.0000 0.0000
# 4 0.0000 0.0000 0.0000 28.1997 0.0000 0.0000
# 5 0.0000 0.0000 0.0000 0.0000 26.6766 0.0000
# 6 0.0000 0.0000 0.0000 0.0000 0.0000 20.9656
#
#
#
# Elastic Compliance Matrix: (Units=1/GPa)
#
#
# Indices 1 2 3 4 5 6 
#
# 1 0.009274 -0.002848 -0.002023 0.000000 0.000000 0.000000
# 2 -0.002848 0.010738 -0.002917 0.000000 0.000000 0.000000
# 3 -0.002023 -0.002917 0.009526 0.000000 0.000000 0.000000
# 4 0.000000 0.000000 0.000000 0.035461 0.000000 0.000000
# 5 0.000000 0.000000 0.000000 0.000000 0.037486 0.000000
# 6 0.000000 0.000000 0.000000 0.000000 0.000000 0.047697
#
#
# Mechanical properties :
#
#
# Convention : Reuss Voigt Hill
#
# Bulk Modulus (GPa) = 71.62241 71.68871 71.65556
# Shear Modulus (GPa) = 29.34044 31.35967 30.35005
#
# Velocity S-wave (km/s) = 3.73456 3.86093 3.79827
# Velocity P-wave (km/s) = 7.25545 7.34526 7.30049
#
# Compressibility (1/GPa) = 0.01396211
#
# Stress axis : x y z
#
# Youngs Moduli (GPa) = 107.82595 93.12342 104.97864
#
# Poissons Ratio (x) = 0.26523 0.21240
# Poissons Ratio (y) = 0.30710 0.30620
# Poissons Ratio (z) = 0.21816 0.27162
#
# Static dielectric constant tensor:
#      x y z
#    x 3.579270 0.000000 0.000000 
#    y 0.000000 4.246950 0.000000 
#    z 0.000000 0.000000 3.885480 
# 
# 
# High freq. dielectric constant tensor:
#      x y z
#    x 1.802090 0.000000 0.000000 
#    y 0.000000 1.851960 0.000000 
#    z 0.000000 0.000000 1.823540 
# 
# From -- ./inp_files/17514.got.cif
#   From: 2010.03.12/outbox.cif.g09.slc.cpg/sg46_9_cif.got.tgz:17514.got - 2010.04.14 02:56:35.
