data_PCOD8193895
_publ_section_title
;
Structure prediction by ZEFSAII (Michael W. Deem and Ramdas Pophale) SiO2 
 PCOD8193895
Probable space group: P M M M
;
_chemical_formula_sum "Si O2"
_cell_formula_units_Z 52
_cell_length_a 18.167382
_cell_length_b 13.905683
_cell_length_c 14.245412
_cell_angle_alpha 90.000000
_cell_angle_beta 90.000000
_cell_angle_gamma 90.000000
_cell_volume 3598.816368
_symmetry_space_group_name_H-M "P M M M"
_symmetry_group_IT_number 47
_symmetry_cell_setting 'orthorhombic'
loop_
_space_group_symop_operation_xyz
x,y,z
-x,-y,z
x,-y,-z
-x,y,-z
-x,-y,-z
x,y,-z
-x,y,z
x,-y,z
loop_
_atom_site_type_symbol
_atom_site_label
_atom_site_fract_x
_atom_site_fract_y
_atom_site_fract_z
Si Si1 0.000000 0.108034 0.388275
Si Si2 0.419193 0.114055 0.605435
Si Si3 0.143315 0.779636 0.611148
Si Si4 0.203279 0.109481 0.895048
Si Si5 0.916667 0.734646 0.894385
Si Si6 0.914430 0.609420 0.719571
Si Si7 0.275888 0.111879 0.292842
O O1 0.927406 0.161673 0.350710
O O2 0.000000 0.107855 0.500000
O O3 0.000000 0.000000 0.348441
O O4 0.400876 0.150164 0.500000
O O5 0.500000 0.153338 0.636491
O O6 0.356381 0.150790 0.676936
O O7 0.421294 0.000000 0.606378
O O8 0.148223 0.779612 0.500000
O O9 0.134701 0.670542 0.647133
O O10 0.216102 0.827654 0.651062
O O11 0.134348 0.175462 0.868194
O O12 0.267975 0.127612 0.819311
O O13 0.175186 0.000000 0.888868
O O14 0.233499 0.132327 0.000000
O O15 0.900601 0.646031 0.825482
O O16 0.000000 0.771720 0.883243
O O17 0.901345 0.697763 0.000000
O O18 0.887090 0.500000 0.713831
O O19 0.000000 0.617857 0.691384
O O20 0.265833 0.000000 0.320257
#
# Coordination Sequence:
#
# PCOD8193895 Si02
#       7
#     4   8   8   8   8   8   8
#     4   9  18  30  41  55  80 111 141 177 213 247
#     4   8  14  25  41  62  88 116 145 176 208 244
#     4  11  20  30  42  60  84 111 148 182 213 255
#     4   9  17  28  42  62  88 116 143 172 212 262
#     4   9  17  30  46  62  81 106 142 186 226 260
#     4  10  20  33  46  59  78 108 148 188 226 262
#     4  10  18  28  44  65  88 116 145 175 215 257
#
# _framework density 14.449195
#
# number of rings (size 3 to 8) (size 9 to 14) (size 15 to 20)
#    0.000    2.538    2.308    1.385    0.000    2.462 
#    0.000    3.846    0.000    0.462    0.000    3.231 
#    0.000    0.615    0.000    3.231    0.000    5.077 
#
# Total GULP energy -644618.394276 kJ/mol
# GULP energy per Si atom -12396.507582 kJ/mol
# Density = 1.441631 g / cm^3
# Si number density = 14.449195 Si / 1000 Ang^3
#
#
#
# Elastic Constant Matrix: (Units=GPa)
#
#
# Indices 1 2 3 4 5 6 
#
# 1 102.5600 40.6439 53.5672 0.0000 0.0000 0.0000
# 2 40.6439 74.5687 36.5758 0.0000 0.0000 0.0000
# 3 53.5672 36.5758 83.3274 0.0000 0.0000 0.0000
# 4 0.0000 0.0000 0.0000 17.7120 0.0000 0.0000
# 5 0.0000 0.0000 0.0000 0.0000 21.1558 0.0000
# 6 0.0000 0.0000 0.0000 0.0000 0.0000 6.5659
#
#
#
# Elastic Compliance Matrix: (Units=1/GPa)
#
#
# Indices 1 2 3 4 5 6 
#
# 1 0.015846 -0.004639 -0.008150 0.000000 0.000000 0.000000
# 2 -0.004639 0.018448 -0.005115 0.000000 0.000000 0.000000
# 3 -0.008150 -0.005115 0.019486 0.000000 0.000000 0.000000
# 4 0.000000 0.000000 0.000000 0.056459 0.000000 0.000000
# 5 0.000000 0.000000 0.000000 0.000000 0.047268 0.000000
# 6 0.000000 0.000000 0.000000 0.000000 0.000000 0.152302
#
#
# Mechanical properties :
#
#
# Convention : Reuss Voigt Hill
#
# Bulk Modulus (GPa) = 55.64803 58.00332 56.82567
# Shear Modulus (GPa) = 14.22040 17.73136 15.97588
#
# Velocity S-wave (km/s) = 3.14054 3.50687 3.32875
# Velocity P-wave (km/s) = 7.19355 7.52513 7.36121
#
# Compressibility (1/GPa) = 0.01797009
#
# Stress axis : x y z
#
# Youngs Moduli (GPa) = 63.10876 54.20609 51.32021
#
# Poissons Ratio (x) = 0.25147 0.41827
# Poissons Ratio (y) = 0.29277 0.26252
# Poissons Ratio (z) = 0.51434 0.27728
#
# Static dielectric constant tensor:
#      x y z
#    x 2.835130 0.000000 0.000000 
#    y 0.000000 2.633160 0.000000 
#    z 0.000000 0.000000 2.976760 
# 
# 
# High freq. dielectric constant tensor:
#      x y z
#    x 1.524700 0.000000 0.000000 
#    y 0.000000 1.522910 0.000000 
#    z 0.000000 0.000000 1.562420 
# 
# From -- ./inp_files/24618.got.cif
#   From: 2010.03.12/outbox.cif.g09.slc.cpg/sg47_13_cif.got.tgz:24618.got - 2010.04.14 03:12:58.
