data_PCOD8193641
_publ_section_title
;
Structure prediction by ZEFSAII (Michael W. Deem and Ramdas Pophale) SiO2 
 PCOD8193641
Probable space group: P M M M
;
_chemical_formula_sum "Si O2"
_cell_formula_units_Z 40
_cell_length_a 20.611316
_cell_length_b 9.219565
_cell_length_c 12.007388
_cell_angle_alpha 90.000000
_cell_angle_beta 90.000000
_cell_angle_gamma 90.000000
_cell_volume 2281.732333
_symmetry_space_group_name_H-M "P M M M"
_symmetry_group_IT_number 47
_symmetry_cell_setting 'orthorhombic'
loop_
_space_group_symop_operation_xyz
x,y,z
-x,-y,z
x,-y,-z
-x,y,-z
-x,-y,-z
x,y,-z
-x,y,z
x,-y,z
loop_
_atom_site_type_symbol
_atom_site_label
_atom_site_fract_x
_atom_site_fract_y
_atom_site_fract_z
Si Si1 0.204142 0.670871 0.709273
Si Si2 0.254863 0.839168 0.500000
Si Si3 0.406511 0.839165 0.500000
Si Si4 0.070735 0.671540 0.625473
Si Si5 0.312286 0.671720 0.123780
Si Si6 0.571855 0.333415 0.721570
O O1 0.210508 0.500000 0.687889
O O2 0.236600 0.750977 0.607953
O O3 0.127751 0.718188 0.711838
O O4 0.243176 0.716224 0.820459
O O5 0.330659 0.854098 0.500000
O O6 0.222884 0.000000 0.500000
O O7 0.430333 0.754997 0.608180
O O8 0.437587 0.000000 0.500000
O O9 0.087455 0.727514 0.500000
O O10 0.066229 0.500000 0.622041
O O11 0.000000 0.733845 0.663303
O O12 0.317716 0.500000 0.115425
O O13 0.373732 0.731088 0.194325
O O14 0.313928 0.740430 0.000000
O O15 0.500000 0.322482 0.777078
O O16 0.589244 0.500000 0.693353
#
# Coordination Sequence:
#
# PCOD8193641 Si02
#       6
#     8   4   4   8   8   8
#     4  10  17  29  51  70  91 126 161 191 230 279
#     4  11  21  30  45  72 100 122 151 194 238 279
#     4  11  22  34  49  71 101 129 151 186 237 289
#     4   8  13  21  38  68  98 121 152 189 224 272
#     4   9  18  31  48  71  94 119 158 203 237 269
#     4  10  20  33  51  73  96 123 155 193 234 279
#
# _framework density 17.530539999999998
#
# number of rings (size 3 to 8) (size 9 to 14) (size 15 to 20)
#    0.000    2.400    3.000    1.500    0.000    2.800 
#    0.000    2.000    0.000    4.200    0.000    5.600 
#    0.000    0.000    0.000    1.800    0.000    2.000 
#
# Total GULP energy -495595.671959 kJ/mol
# GULP energy per Si atom -12389.891799 kJ/mol
# Density = 1.749064 g / cm^3
# Si number density = 17.530540 Si / 1000 Ang^3
#
#
#
# Elastic Constant Matrix: (Units=GPa)
#
#
# Indices 1 2 3 4 5 6 
#
# 1 157.7231 18.1256 69.6440 0.0000 0.0000 0.0000
# 2 18.1256 37.7024 25.8731 0.0000 0.0000 0.0000
# 3 69.6440 25.8731 122.8613 0.0000 0.0000 0.0000
# 4 0.0000 0.0000 0.0000 -7.5956 0.0000 0.0000
# 5 0.0000 0.0000 0.0000 0.0000 13.3018 0.0000
# 6 0.0000 0.0000 0.0000 0.0000 0.0000 6.8646
#
#
#
# Elastic Compliance Matrix: (Units=1/GPa)
#
#
# Indices 1 2 3 4 5 6 
#
# 1 0.008484 -0.000910 -0.004617 0.000000 0.000000 0.000000
# 2 -0.000910 0.031102 -0.006034 0.000000 0.000000 0.000000
# 3 -0.004617 -0.006034 0.012027 0.000000 0.000000 0.000000
# 4 0.000000 0.000000 0.000000 -0.131655 0.000000 0.000000
# 5 0.000000 0.000000 0.000000 0.000000 0.075178 0.000000
# 6 0.000000 0.000000 0.000000 0.000000 0.000000 0.145675
#
#
# Mechanical properties :
#
#
# Convention : Reuss Voigt Hill
#
# Bulk Modulus (GPa) = 35.09962 60.61912 47.85937
# Shear Modulus (GPa) = 28.83019 16.15710 22.49364
#
# Velocity S-wave (km/s) = 4.05973 3.03917 3.58594
# Velocity P-wave (km/s) = 6.48388 6.85344 6.67122
#
# Compressibility (1/GPa) = 0.02849033
#
# Stress axis : x y z
#
# Youngs Moduli (GPa) = 117.87433 32.15264 83.14453
#
# Poissons Ratio (x) = 0.02926 0.38390
# Poissons Ratio (y) = 0.10726 0.50168
# Poissons Ratio (z) = 0.54426 0.19400
#
# Static dielectric constant tensor:
#      x y z
#    x 3.870370 0.000000 0.000000 
#    y 0.000000 3.023160 0.000000 
#    z 0.000000 0.000000 3.184440 
# 
# 
# High freq. dielectric constant tensor:
#      x y z
#    x 1.700460 0.000000 0.000000 
#    y 0.000000 1.633530 0.000000 
#    z 0.000000 0.000000 1.646360 
# 
# From -- ./inp_files/4112.got.cif
#   From: 2010.03.12/outbox.cif.g09.slc.cpg/sg47_3_cif.got.tgz:4112.got - 2010.04.14 03:12:58.
