data_PCOD8193806
_publ_section_title
;
Structure prediction by ZEFSAII (Michael W. Deem and Ramdas Pophale) SiO2 
 PCOD8193806
Probable space group: P M M M
;
_chemical_formula_sum "Si O2"
_cell_formula_units_Z 56
_cell_length_a 13.773428
_cell_length_b 9.152616
_cell_length_c 29.439056
_cell_angle_alpha 90.000000
_cell_angle_beta 90.000000
_cell_angle_gamma 90.000000
_cell_volume 3711.172699
_symmetry_space_group_name_H-M "P M M M"
_symmetry_group_IT_number 47
_symmetry_cell_setting 'orthorhombic'
loop_
_space_group_symop_operation_xyz
x,y,z
-x,-y,z
x,-y,-z
-x,y,-z
-x,-y,-z
x,y,-z
-x,y,z
x,-y,z
loop_
_atom_site_type_symbol
_atom_site_label
_atom_site_fract_x
_atom_site_fract_y
_atom_site_fract_z
Si Si1 0.889809 0.168207 0.216864
Si Si2 0.610161 0.674275 0.354232
Si Si3 0.290713 0.832679 0.725805
Si Si4 0.108552 0.673382 0.050015
Si Si5 0.783073 0.326411 0.138131
Si Si6 0.610603 0.170521 0.819224
Si Si7 0.384815 0.336713 0.548044
O O1 0.820840 0.198842 0.260151
O O2 0.859779 0.269746 0.175082
O O3 0.000000 0.203274 0.231263
O O4 0.876724 0.000000 0.201448
O O5 0.500000 0.727421 0.343855
O O6 0.613764 0.500000 0.354674
O O7 0.683590 0.732951 0.316737
O O8 0.646948 0.736055 0.403842
O O9 0.360297 0.790695 0.767749
O O10 0.306446 0.000000 0.711598
O O11 0.104944 0.500000 0.051346
O O12 0.181663 0.729761 0.088756
O O13 0.000000 0.734115 0.059430
O O14 0.144202 0.726246 0.000000
O O15 0.778178 0.500000 0.141414
O O16 0.676244 0.261135 0.145857
O O17 0.500000 0.217190 0.827385
O O18 0.627861 0.000000 0.828373
O O19 0.352722 0.257085 0.500000
O O20 0.500000 0.345078 0.549900
O O21 0.342081 0.500000 0.546263
#
# Coordination Sequence:
#
# PCOD8193806 Si02
#       7
#     8   8   8   8   8   8   8
#     4   9  18  32  46  58  78 110 141 165 194 239
#     4   9  16  24  36  56  80 105 132 162 195 229
#     4   9  17  28  41  57  76 101 133 164 196 234
#     4   8  14  25  41  62  88 113 132 154 193 246
#     4  10  18  27  44  69  89 104 130 169 207 239
#     4   9  18  32  46  58  78 112 147 171 195 235
#     4   7  10  18  32  49  70  98 131 161 187 222
#
# _framework density 15.089568999999999
#
# number of rings (size 3 to 8) (size 9 to 14) (size 15 to 20)
#    0.000    3.286    0.000    3.857    0.000    4.286 
#    0.000    0.000    0.000    2.571    0.000   10.000 
#    0.000    0.571    0.000    7.143    0.000    0.286 
#
# Total GULP energy -693781.395549 kJ/mol
# GULP energy per Si atom -12388.953492 kJ/mol
# Density = 1.505522 g / cm^3
# Si number density = 15.089569 Si / 1000 Ang^3
#
#
#
# Elastic Constant Matrix: (Units=GPa)
#
#
# Indices 1 2 3 4 5 6 
#
# 1 103.0637 28.6248 64.5976 0.0000 0.0000 0.0000
# 2 28.6248 33.2488 37.3878 0.0000 0.0000 0.0000
# 3 64.5976 37.3878 139.0093 0.0000 0.0000 0.0000
# 4 0.0000 0.0000 0.0000 1.0293 0.0000 0.0000
# 5 0.0000 0.0000 0.0000 0.0000 18.4797 0.0000
# 6 0.0000 0.0000 0.0000 0.0000 0.0000 19.9332
#
#
#
# Elastic Compliance Matrix: (Units=1/GPa)
#
#
# Indices 1 2 3 4 5 6 
#
# 1 0.014796 -0.007177 -0.004945 0.000000 0.000000 0.000000
# 2 -0.007177 0.046598 -0.009198 0.000000 0.000000 0.000000
# 3 -0.004945 -0.009198 0.011966 0.000000 0.000000 0.000000
# 4 0.000000 0.000000 0.000000 0.971529 0.000000 0.000000
# 5 0.000000 0.000000 0.000000 0.000000 0.054113 0.000000
# 6 0.000000 0.000000 0.000000 0.000000 0.000000 0.050168
#
#
# Mechanical properties :
#
#
# Convention : Reuss Voigt Hill
#
# Bulk Modulus (GPa) = 32.55307 59.61579 46.08443
# Shear Modulus (GPa) = 4.15957 17.53590 10.84773
#
# Velocity S-wave (km/s) = 1.66210 3.41269 2.68412
# Velocity P-wave (km/s) = 5.03026 7.42444 6.34136
#
# Compressibility (1/GPa) = 0.03071907
#
# Stress axis : x y z
#
# Youngs Moduli (GPa) = 67.58769 21.46019 83.57315
#
# Poissons Ratio (x) = 0.15402 0.41328
# Poissons Ratio (y) = 0.48509 0.76868
# Poissons Ratio (z) = 0.33423 0.19738
#
# Static dielectric constant tensor:
#      x y z
#    x 2.839030 0.000000 0.000000 
#    y 0.000000 2.648760 0.000000 
#    z 0.000000 0.000000 3.213350 
# 
# 
# High freq. dielectric constant tensor:
#      x y z
#    x 1.551590 0.000000 0.000000 
#    y 0.000000 1.552900 0.000000 
#    z 0.000000 0.000000 1.580040 
# 
# From -- ./inp_files/25786.got.cif
#   From: 2010.03.12/outbox.cif.g09.slc.cpg/sg47_13_cif.got.tgz:25786.got - 2010.04.14 03:12:58.
