data_PCOD8193092
_publ_section_title
;
Structure prediction by ZEFSAII (Michael W. Deem and Ramdas Pophale) SiO2 
 PCOD8193092
Probable space group: I M A 2
;
_chemical_formula_sum "Si O2"
_cell_formula_units_Z 48
_cell_length_a 9.551384
_cell_length_b 7.965368
_cell_length_c 30.226199
_cell_angle_alpha 90.000000
_cell_angle_beta 90.000000
_cell_angle_gamma 90.000000
_cell_volume 2299.617939
_symmetry_space_group_name_H-M "I M A 2"
_symmetry_group_IT_number 46
_symmetry_cell_setting 'orthorhombic'
loop_
_space_group_symop_operation_xyz
x,y,z
-x,-y,z
1/2-x,y,z
1/2+x,-y,z
1/2+x,1/2+y,1/2+z
1/2-x,1/2-y,1/2+z
-x,1/2+y,1/2+z
x,1/2-y,1/2+z
loop_
_atom_site_type_symbol
_atom_site_label
_atom_site_fract_x
_atom_site_fract_y
_atom_site_fract_z
Si Si1 0.250000 0.773135 0.445981
Si Si2 0.514034 0.185484 0.889562
Si Si3 0.086709 0.346196 0.227722
Si Si4 0.250000 0.142376 0.432100
Si Si5 0.250000 0.990791 0.523586
Si Si6 0.500000 0.000000 0.589579
Si Si7 0.087320 0.332437 0.639786
Si Si8 0.414041 0.665511 0.798769
O O1 0.115498 0.668443 0.431733
O O2 0.250000 0.810927 0.498175
O O3 0.250000 0.948040 0.417878
O O4 0.377971 0.266139 0.909812
O O5 0.577467 0.297842 0.850711
O O6 0.500000 0.000000 0.869670
O O7 0.250000 0.391227 0.238914
O O8 0.083642 0.193477 0.192723
O O9 0.000000 0.500000 0.205864
O O10 0.997105 0.307251 0.271657
O O11 0.250000 0.142354 0.486515
O O12 0.376162 0.995190 0.555908
O O13 0.513606 0.830835 0.618389
O O14 0.250000 0.349918 0.624060
O O15 0.000000 0.500000 0.627323
O O16 0.500000 0.500000 0.787258
O O17 0.250000 0.650051 0.784670
#
# Coordination Sequence:
#
# PCOD8193092 Si02
#       8
#     4   8   8   4   4   4   8   8
#     4  10  21  45  64  93 122 180 223 275 348 420
#     4  12  24  40  65  99 136 177 232 288 348 413
#     4  11  24  44  70 104 143 190 236 289 359 416
#     4  10  23  41  70  91 128 180 223 281 344 432
#     4  10  24  42  76  98 134 182 232 296 358 436
#     4  12  22  48  74 106 140 190 238 294 372 432
#     4  11  26  45  73 109 145 192 239 295 360 433
#     4  12  26  43  65  98 137 186 238 291 346 425
#
# _framework density 20.873031000000001
#
# number of rings (size 3 to 8) (size 9 to 14) (size 15 to 20)
#    0.500    0.333    2.500    5.000    3.500    2.667 
#    0.000    5.000    0.000    0.000    0.000    0.000 
#    0.000    0.000    0.000    0.000    0.000    0.000 
#
# Total GULP energy -297366.291046 kJ/mol
# GULP energy per Si atom -12390.262127 kJ/mol
# Density = 2.082552 g / cm^3
# Si number density = 20.873031 Si / 1000 Ang^3
#
#
#
# Elastic Constant Matrix: (Units=GPa)
#
#
# Indices 1 2 3 4 5 6 
#
# 1 168.1335 46.5963 40.9304 0.0000 0.0000 0.0000
# 2 46.5963 106.3390 23.6700 0.0000 0.0000 0.0000
# 3 40.9304 23.6700 94.1830 0.0000 0.0000 0.0000
# 4 0.0000 0.0000 0.0000 31.9672 0.0000 0.0000
# 5 0.0000 0.0000 0.0000 0.0000 39.2483 0.0000
# 6 0.0000 0.0000 0.0000 0.0000 0.0000 40.7032
#
#
#
# Elastic Compliance Matrix: (Units=1/GPa)
#
#
# Indices 1 2 3 4 5 6 
#
# 1 0.007288 -0.002636 -0.002505 0.000000 0.000000 0.000000
# 2 -0.002636 0.010915 -0.001597 0.000000 0.000000 0.000000
# 3 -0.002505 -0.001597 0.012108 0.000000 0.000000 0.000000
# 4 0.000000 0.000000 0.000000 0.031282 0.000000 0.000000
# 5 0.000000 0.000000 0.000000 0.000000 0.025479 0.000000
# 6 0.000000 0.000000 0.000000 0.000000 0.000000 0.024568
#
#
# Mechanical properties :
#
#
# Convention : Reuss Voigt Hill
#
# Bulk Modulus (GPa) = 59.40463 65.67211 62.53837
# Shear Modulus (GPa) = 38.24777 39.54768 38.89773
#
# Velocity S-wave (km/s) = 4.28530 4.35751 4.32156
# Velocity P-wave (km/s) = 7.28058 7.53977 7.41131
#
# Compressibility (1/GPa) = 0.01683370
#
# Stress axis : x y z
#
# Youngs Moduli (GPa) = 137.21312 91.62119 82.59254
#
# Poissons Ratio (x) = 0.24151 0.20687
# Poissons Ratio (y) = 0.36169 0.13194
# Poissons Ratio (z) = 0.34369 0.14636
#
# Static dielectric constant tensor:
#      x y z
#    x 3.802870 0.000000 0.000000 
#    y 0.000000 3.754010 0.000000 
#    z 0.000000 0.000000 3.712910 
# 
# 
# High freq. dielectric constant tensor:
#      x y z
#    x 1.836430 0.000000 0.000000 
#    y 0.000000 1.811340 0.000000 
#    z 0.000000 0.000000 1.815640 
# 
# From -- ./inp_files/25111.got.cif
#   From: 2010.03.12/outbox.cif.g09.slc.cpg/sg46_13_cif.got.tgz:25111.got - 2010.04.14 02:56:35.
