data_PCOD8193704
_publ_section_title
;
Structure prediction by ZEFSAII (Michael W. Deem and Ramdas Pophale) SiO2 
 PCOD8193704
Probable space group: P M M M
;
_chemical_formula_sum "Si O2"
_cell_formula_units_Z 52
_cell_length_a 17.666874
_cell_length_b 9.303504
_cell_length_c 19.240309
_cell_angle_alpha 90.000000
_cell_angle_beta 90.000000
_cell_angle_gamma 90.000000
_cell_volume 3162.410934
_symmetry_space_group_name_H-M "P M M M"
_symmetry_group_IT_number 47
_symmetry_cell_setting 'orthorhombic'
loop_
_space_group_symop_operation_xyz
x,y,z
-x,-y,z
x,-y,-z
-x,y,-z
-x,-y,-z
x,y,-z
-x,y,z
x,-y,z
loop_
_atom_site_type_symbol
_atom_site_label
_atom_site_fract_x
_atom_site_fract_y
_atom_site_fract_z
Si Si1 0.375895 0.169897 0.684806
Si Si2 0.084290 0.331155 0.780116
Si Si3 0.847305 0.335463 0.924306
Si Si4 0.217296 0.158770 0.273260
Si Si5 0.500000 0.169456 0.576804
Si Si6 0.585525 0.336214 0.178198
Si Si7 0.712433 0.161389 0.120953
O O1 0.285701 0.205715 0.674462
O O2 0.423302 0.216557 0.616825
O O3 0.410680 0.259199 0.747644
O O4 0.385429 0.000000 0.701229
O O5 0.090791 0.500000 0.770682
O O6 0.098981 0.286202 0.860698
O O7 0.144561 0.262716 0.726471
O O8 0.000000 0.276996 0.761061
O O9 0.822670 0.500000 0.911711
O O10 0.772536 0.238518 0.928554
O O11 0.888369 0.319269 0.000000
O O12 0.255289 0.159976 0.198293
O O13 0.187640 0.000000 0.292569
O O14 0.500000 0.240773 0.500000
O O15 0.500000 0.000000 0.569436
O O16 0.500000 0.333416 0.150816
O O17 0.615006 0.500000 0.185934
O O18 0.635034 0.252165 0.120843
O O19 0.697253 0.000000 0.093847
#
# Coordination Sequence:
#
# PCOD8193704 Si02
#       7
#     8   8   8   8   4   8   8
#     4   9  16  27  43  62  87 118 152 182 208 247
#     4   9  17  28  42  62  86 110 138 174 216 261
#     4   9  17  29  44  60  80 108 138 168 206 256
#     4   8  15  26  40  59  81 109 141 174 214 255
#     4   9  16  26  43  67  95 127 158 185 210 239
#     4  10  18  26  40  62  84 105 135 176 220 260
#     4   9  17  28  42  59  79 104 136 175 215 256
#
# _framework density 16.443151
#
# number of rings (size 3 to 8) (size 9 to 14) (size 15 to 20)
#    0.000    3.000    0.769    1.846    0.000    5.538 
#    0.000    1.538    0.000    1.385    0.000    7.538 
#    0.000    0.615    0.000    7.692    0.000    1.231 
#
# Total GULP energy -644338.100581 kJ/mol
# GULP energy per Si atom -12391.117319 kJ/mol
# Density = 1.640573 g / cm^3
# Si number density = 16.443151 Si / 1000 Ang^3
#
#
#
# Elastic Constant Matrix: (Units=GPa)
#
#
# Indices 1 2 3 4 5 6 
#
# 1 131.4025 44.9165 34.0173 0.0000 0.0000 0.0000
# 2 44.9165 69.0039 10.0654 0.0000 0.0000 0.0000
# 3 34.0173 10.0654 41.6113 0.0000 0.0000 0.0000
# 4 0.0000 0.0000 0.0000 10.1833 0.0000 0.0000
# 5 0.0000 0.0000 0.0000 0.0000 14.0295 0.0000
# 6 0.0000 0.0000 0.0000 0.0000 0.0000 26.4175
#
#
#
# Elastic Compliance Matrix: (Units=1/GPa)
#
#
# Indices 1 2 3 4 5 6 
#
# 1 0.011994 -0.006610 -0.008206 0.000000 0.000000 0.000000
# 2 -0.006610 0.018665 0.000889 0.000000 0.000000 0.000000
# 3 -0.008206 0.000889 0.030526 0.000000 0.000000 0.000000
# 4 0.000000 0.000000 0.000000 0.098200 0.000000 0.000000
# 5 0.000000 0.000000 0.000000 0.000000 0.071278 0.000000
# 6 0.000000 0.000000 0.000000 0.000000 0.000000 0.037854
#
#
# Mechanical properties :
#
#
# Convention : Reuss Voigt Hill
#
# Bulk Modulus (GPa) = 30.00331 46.66844 38.33587
# Shear Modulus (GPa) = 16.26112 20.32730 18.29421
#
# Velocity S-wave (km/s) = 3.14814 3.51980 3.33914
# Velocity P-wave (km/s) = 5.61254 6.70537 6.18315
#
# Compressibility (1/GPa) = 0.03332966
#
# Stress axis : x y z
#
# Youngs Moduli (GPa) = 83.37351 53.57593 32.75947
#
# Poissons Ratio (x) = 0.35415 0.26883
# Poissons Ratio (y) = 0.55113 -0.02912
# Poissons Ratio (z) = 0.68419 -0.04763
#
# Static dielectric constant tensor:
#      x y z
#    x 3.283380 0.000000 0.000000 
#    y 0.000000 3.158850 0.000000 
#    z 0.000000 0.000000 2.841070 
# 
# 
# High freq. dielectric constant tensor:
#      x y z
#    x 1.632200 0.000000 0.000000 
#    y 0.000000 1.630330 0.000000 
#    z 0.000000 0.000000 1.575240 
# 
# From -- ./inp_files/28529.got.cif
#   From: 2010.03.12/outbox.cif.g09.slc.cpg/sg47_15_cif.got.tgz:28529.got - 2010.04.14 03:12:58.
