data_PCOD8193628
_publ_section_title
;
Structure prediction by ZEFSAII (Michael W. Deem and Ramdas Pophale) SiO2 
 PCOD8193628
Probable space group: P M M M
;
_chemical_formula_sum "Si O2"
_cell_formula_units_Z 52
_cell_length_a 12.793148
_cell_length_b 7.752770
_cell_length_c 27.774751
_cell_angle_alpha 90.000000
_cell_angle_beta 90.000000
_cell_angle_gamma 90.000000
_cell_volume 2754.764631
_symmetry_space_group_name_H-M "P M M M"
_symmetry_group_IT_number 47
_symmetry_cell_setting 'orthorhombic'
loop_
_space_group_symop_operation_xyz
x,y,z
-x,-y,z
x,-y,-z
-x,y,-z
-x,-y,-z
x,y,-z
-x,y,z
x,-y,z
loop_
_atom_site_type_symbol
_atom_site_label
_atom_site_fract_x
_atom_site_fract_y
_atom_site_fract_z
Si Si1 0.882026 0.794584 0.052507
Si Si2 0.380651 0.201934 0.323160
Si Si3 0.000000 0.303644 0.797555
Si Si4 0.120770 0.000000 0.556762
Si Si5 0.204022 0.197821 0.850260
Si Si6 0.000000 0.202868 0.310585
Si Si7 0.384661 0.794430 0.214802
Si Si8 0.814366 0.306147 0.379465
O O1 0.813173 0.717681 0.096591
O O2 0.000000 0.724894 0.058385
O O3 0.883936 0.000000 0.055844
O O4 0.837519 0.736385 0.000000
O O5 0.500000 0.240189 0.338923
O O6 0.361769 0.270802 0.268890
O O7 0.302743 0.300742 0.358606
O O8 0.355928 0.000000 0.326293
O O9 0.899011 0.208498 0.818101
O O10 0.000000 0.297237 0.740239
O O11 0.000000 0.500000 0.815108
O O12 0.175130 0.172582 0.576608
O O13 0.133221 0.000000 0.500000
O O14 0.000000 0.000000 0.573353
O O15 0.300385 0.288068 0.822107
O O16 0.233749 0.000000 0.857734
O O17 0.104007 0.258773 0.338057
O O18 0.000000 0.000000 0.302328
O O19 0.500000 0.733722 0.198384
O O20 0.378285 0.000000 0.215503
O O21 0.835883 0.500000 0.398551
#
# Coordination Sequence:
#
# PCOD8193628 Si02
#       8
#     8   8   4   4   8   4   8   8
#     4   8  13  22  39  63  89 119 167 221 260 314
#     4   9  17  32  54  79 111 151 190 227 276 338
#     4  12  24  32  43  73 109 133 163 212 270 327
#     4  11  24  44  65  89 121 157 196 235 279 332
#     4  10  17  29  48  67  92 132 173 208 264 330
#     4  12  22  38  56  77 113 152 186 221 269 332
#     4   8  15  27  46  73 100 131 173 217 258 313
#     4  12  22  37  61  89 119 149 189 237 284 329
#
# _framework density 18.876387000000001
#
# number of rings (size 3 to 8) (size 9 to 14) (size 15 to 20)
#    0.000    2.077    3.077    3.692    0.000    1.846 
#    0.000    0.769    0.000    3.692    0.000    4.308 
#    0.000    0.000    0.000    1.385    0.000    1.538 
#
# Total GULP energy -644590.494663 kJ/mol
# GULP energy per Si atom -12395.971051 kJ/mol
# Density = 1.883342 g / cm^3
# Si number density = 18.876387 Si / 1000 Ang^3
#
#
#
# Elastic Constant Matrix: (Units=GPa)
#
#
# Indices 1 2 3 4 5 6 
#
# 1 118.6025 13.8026 57.0242 0.0000 0.0000 0.0000
# 2 13.8026 64.2819 21.6447 0.0000 0.0000 0.0000
# 3 57.0242 21.6447 113.3611 0.0000 0.0000 0.0000
# 4 0.0000 0.0000 0.0000 0.4782 0.0000 0.0000
# 5 0.0000 0.0000 0.0000 0.0000 26.9764 0.0000
# 6 0.0000 0.0000 0.0000 0.0000 0.0000 5.1432
#
#
#
# Elastic Compliance Matrix: (Units=1/GPa)
#
#
# Indices 1 2 3 4 5 6 
#
# 1 0.011139 -0.000540 -0.005500 0.000000 0.000000 0.000000
# 2 -0.000540 0.016651 -0.002908 0.000000 0.000000 0.000000
# 3 -0.005500 -0.002908 0.012143 0.000000 0.000000 0.000000
# 4 0.000000 0.000000 0.000000 2.091079 0.000000 0.000000
# 5 0.000000 0.000000 0.000000 0.000000 0.037069 0.000000
# 6 0.000000 0.000000 0.000000 0.000000 0.000000 0.194431
#
#
# Mechanical properties :
#
#
# Convention : Reuss Voigt Hill
#
# Bulk Modulus (GPa) = 45.37583 53.46540 49.42061
# Shear Modulus (GPa) = 2.09402 20.10450 11.09926
#
# Velocity S-wave (km/s) = 1.05439 3.26707 2.42750
# Velocity P-wave (km/s) = 5.05697 6.52818 5.83909
#
# Compressibility (1/GPa) = 0.02203817
#
# Stress axis : x y z
#
# Youngs Moduli (GPa) = 89.77633 60.05467 82.34988
#
# Poissons Ratio (x) = 0.03241 0.45293
# Poissons Ratio (y) = 0.04846 0.23946
# Poissons Ratio (z) = 0.49378 0.17463
#
# Static dielectric constant tensor:
#      x y z
#    x 3.596230 0.000000 0.000000 
#    y 0.000000 3.242180 0.000000 
#    z 0.000000 0.000000 3.565800 
# 
# 
# High freq. dielectric constant tensor:
#      x y z
#    x 1.722760 0.000000 0.000000 
#    y 0.000000 1.714510 0.000000 
#    z 0.000000 0.000000 1.721880 
# 
# From -- ./inp_files/33642.got.cif
#   From: 2010.03.12/outbox.cif.g09.slc.cpg/sg47_17_cif.got.tgz:33642.got - 2010.04.14 03:12:58.
