data_PCOD8193928
_publ_section_title
;
Structure prediction by ZEFSAII (Michael W. Deem and Ramdas Pophale) SiO2 
 PCOD8193928
Probable space group: P M M M
;
_chemical_formula_sum "Si O2"
_cell_formula_units_Z 52
_cell_length_a 27.850345
_cell_length_b 11.655512
_cell_length_c 9.282360
_cell_angle_alpha 90.000000
_cell_angle_beta 90.000000
_cell_angle_gamma 90.000000
_cell_volume 3013.147161
_symmetry_space_group_name_H-M "P M M M"
_symmetry_group_IT_number 47
_symmetry_cell_setting 'orthorhombic'
loop_
_space_group_symop_operation_xyz
x,y,z
-x,-y,z
x,-y,-z
-x,y,-z
-x,-y,-z
x,y,-z
-x,y,z
x,-y,z
loop_
_atom_site_type_symbol
_atom_site_label
_atom_site_fract_x
_atom_site_fract_y
_atom_site_fract_z
Si Si1 0.177378 0.250946 0.664727
Si Si2 0.092644 0.364470 0.165816
Si Si3 0.552725 0.871079 0.171031
Si Si4 0.276082 0.631395 0.333585
Si Si5 0.796511 0.000000 0.339142
Si Si6 0.649949 0.771755 0.170518
Si Si7 0.298311 0.000000 0.169650
Si Si8 0.000000 0.363487 0.663203
O O1 0.167325 0.290251 0.500000
O O2 0.140351 0.309188 0.771469
O O3 0.230765 0.290257 0.711727
O O4 0.171437 0.113823 0.681321
O O5 0.097274 0.500000 0.182175
O O6 0.046924 0.317362 0.254130
O O7 0.086426 0.328317 0.000000
O O8 0.500000 0.827769 0.223123
O O9 0.594151 0.782213 0.221415
O O10 0.562370 0.000000 0.230749
O O11 0.554310 0.878207 0.000000
O O12 0.288362 0.649395 0.500000
O O13 0.263120 0.500000 0.298627
O O14 0.323698 0.665186 0.245197
O O15 0.755743 0.000000 0.221343
O O16 0.773735 0.000000 0.500000
O O17 0.675011 0.887548 0.226777
O O18 0.654274 0.755343 0.000000
O O19 0.298503 0.000000 0.000000
O O20 0.000000 0.500000 0.663939
O O21 0.000000 0.315827 0.500000
#
# Coordination Sequence:
#
# PCOD8193928 Si02
#       8
#     8   8   8   8   4   8   4   4
#     4  10  20  34  52  73  98 129 165 204 244 291
#     4  10  20  33  51  77 107 136 167 205 248 292
#     4   8  13  23  42  69  98 124 152 191 241 294
#     4  10  21  35  50  69  95 130 169 205 243 290
#     4  10  20  34  52  72  96 129 170 204 238 290
#     4  10  18  29  48  73  99 126 157 197 244 295
#     4  10  18  28  45  72 101 125 154 194 243 296
#     4   9  17  31  53  78 103 134 171 209 249 291
#
# _framework density 17.257704
#
# number of rings (size 3 to 8) (size 9 to 14) (size 15 to 20)
#    0.000    2.385    2.308    1.615    0.000    4.000 
#    0.000    0.000    0.000    1.385    0.000    7.538 
#    0.000    0.000    0.000    0.000    0.000    0.000 
#
# Total GULP energy -644654.981297 kJ/mol
# GULP energy per Si atom -12397.211179 kJ/mol
# Density = 1.721843 g / cm^3
# Si number density = 17.257704 Si / 1000 Ang^3
#
#
#
# Elastic Constant Matrix: (Units=GPa)
#
#
# Indices 1 2 3 4 5 6 
#
# 1 121.9172 33.0243 52.4748 0.0000 0.0000 0.0000
# 2 33.0243 58.5864 33.5979 0.0000 0.0000 0.0000
# 3 52.4748 33.5979 60.7522 0.0000 0.0000 0.0000
# 4 0.0000 0.0000 0.0000 21.9993 0.0000 0.0000
# 5 0.0000 0.0000 0.0000 0.0000 18.6095 0.0000
# 6 0.0000 0.0000 0.0000 0.0000 0.0000 22.6416
#
#
#
# Elastic Compliance Matrix: (Units=1/GPa)
#
#
# Indices 1 2 3 4 5 6 
#
# 1 0.013125 -0.001314 -0.010610 0.000000 0.000000 0.000000
# 2 -0.001314 0.025128 -0.012762 0.000000 0.000000 0.000000
# 3 -0.010610 -0.012762 0.032683 0.000000 0.000000 0.000000
# 4 0.000000 0.000000 0.000000 0.045456 0.000000 0.000000
# 5 0.000000 0.000000 0.000000 0.000000 0.053736 0.000000
# 6 0.000000 0.000000 0.000000 0.000000 0.000000 0.044166
#
#
# Mechanical properties :
#
#
# Convention : Reuss Voigt Hill
#
# Bulk Modulus (GPa) = 46.37354 53.27221 49.82287
# Shear Modulus (GPa) = 18.46018 20.79401 19.62709
#
# Velocity S-wave (km/s) = 3.27414 3.47495 3.37604
# Velocity P-wave (km/s) = 6.42050 6.85828 6.64300
#
# Compressibility (1/GPa) = 0.02156402
#
# Stress axis : x y z
#
# Youngs Moduli (GPa) = 76.19126 39.79632 30.59732
#
# Poissons Ratio (x) = 0.05228 0.32464
# Poissons Ratio (y) = 0.10009 0.39048
# Poissons Ratio (z) = 0.80840 0.50788
#
# Static dielectric constant tensor:
#      x y z
#    x 3.349190 0.000000 0.000000 
#    y 0.000000 3.089420 0.000000 
#    z 0.000000 0.000000 3.074180 
# 
# 
# High freq. dielectric constant tensor:
#      x y z
#    x 1.667940 0.000000 0.000000 
#    y 0.000000 1.641130 0.000000 
#    z 0.000000 0.000000 1.650440 
# 
# From -- ./inp_files/13331.got.cif
#   From: 2010.03.12/outbox.cif.g09.slc.cpg/sg47_7_cif.got.tgz:13331.got - 2010.04.14 03:12:58.
