data_PCOD8193680
_publ_section_title
;
Structure prediction by ZEFSAII (Michael W. Deem and Ramdas Pophale) SiO2 
 PCOD8193680
Probable space group: P M M M
;
_chemical_formula_sum "Si O2"
_cell_formula_units_Z 40
_cell_length_a 9.153308
_cell_length_b 20.285118
_cell_length_c 11.879704
_cell_angle_alpha 90.000000
_cell_angle_beta 90.000000
_cell_angle_gamma 90.000000
_cell_volume 2205.775122
_symmetry_space_group_name_H-M "P M M M"
_symmetry_group_IT_number 47
_symmetry_cell_setting 'orthorhombic'
loop_
_space_group_symop_operation_xyz
x,y,z
-x,-y,z
x,-y,-z
-x,y,-z
-x,-y,-z
x,y,-z
-x,y,z
x,-y,z
loop_
_atom_site_type_symbol
_atom_site_label
_atom_site_fract_x
_atom_site_fract_y
_atom_site_fract_z
Si Si1 0.326540 0.867606 0.500000
Si Si2 0.327191 0.803717 0.871258
Si Si3 0.169151 0.686643 0.743849
Si Si4 0.673448 0.927184 0.268455
Si Si5 0.668456 0.423780 0.128847
Si Si6 0.834297 0.732093 0.500000
O O1 0.500000 0.865721 0.500000
O O2 0.266024 0.905246 0.609701
O O3 0.274123 0.793013 0.500000
O O4 0.500000 0.795065 0.857844
O O5 0.251717 0.747375 0.799753
O O6 0.275071 0.874989 0.825522
O O7 0.277544 0.798097 0.000000
O O8 0.230482 0.617829 0.788706
O O9 0.194604 0.687475 0.609723
O O10 0.000000 0.692008 0.775843
O O11 0.500000 0.929606 0.272744
O O12 0.735405 0.000000 0.238783
O O13 0.500000 0.409537 0.157361
O O14 0.706354 0.500000 0.148027
O O15 0.700384 0.403440 0.000000
O O16 0.000000 0.759211 0.500000
#
# Coordination Sequence:
#
# PCOD8193680 Si02
#       6
#     4   8   8   8   8   4
#     4  10  17  30  54  77  97 129 176 224 267 314
#     4  10  20  33  51  76 105 138 176 217 263 316
#     4  11  22  36  55  78 106 140 178 218 260 307
#     4   9  17  29  48  76 105 131 168 221 272 315
#     4   9  19  37  60  85 113 142 171 208 254 302
#     4  10  22  37  52  74 106 140 174 217 264 308
#
# _framework density 18.134214
#
# number of rings (size 3 to 8) (size 9 to 14) (size 15 to 20)
#    0.000    2.200    2.000    2.100    0.000    6.000 
#    0.000    3.500    0.000    6.000    0.000    1.400 
#    0.000    0.000    0.000    0.000    0.000    0.000 
#
# Total GULP energy -496010.916061 kJ/mol
# GULP energy per Si atom -12400.272902 kJ/mol
# Density = 1.809294 g / cm^3
# Si number density = 18.134214 Si / 1000 Ang^3
#
#
#
# Elastic Constant Matrix: (Units=GPa)
#
#
# Indices 1 2 3 4 5 6 
#
# 1 37.7637 32.5126 40.9165 0.0000 0.0000 0.0000
# 2 32.5126 108.7686 59.4968 0.0000 0.0000 0.0000
# 3 40.9165 59.4968 134.5827 0.0000 0.0000 0.0000
# 4 0.0000 0.0000 0.0000 35.8116 0.0000 0.0000
# 5 0.0000 0.0000 0.0000 0.0000 22.8967 0.0000
# 6 0.0000 0.0000 0.0000 0.0000 0.0000 -2.6730
#
#
#
# Elastic Compliance Matrix: (Units=1/GPa)
#
#
# Indices 1 2 3 4 5 6 
#
# 1 0.043857 -0.007671 -0.009942 0.000000 0.000000 0.000000
# 2 -0.007671 0.013468 -0.003622 0.000000 0.000000 0.000000
# 3 -0.009942 -0.003622 0.012054 0.000000 0.000000 0.000000
# 4 0.000000 0.000000 0.000000 0.027924 0.000000 0.000000
# 5 0.000000 0.000000 0.000000 0.000000 0.043674 0.000000
# 6 0.000000 0.000000 0.000000 0.000000 0.000000 -0.374113
#
#
# Mechanical properties :
#
#
# Convention : Reuss Voigt Hill
#
# Bulk Modulus (GPa) = 37.16229 60.77408 48.96818
# Shear Modulus (GPa) = -27.51872 21.08634 -3.21619
#
# Velocity S-wave (km/s) = -3.89974 3.41367 -1.33319
# Velocity P-wave (km/s) = 0.51001 7.00884 4.96910
#
# Compressibility (1/GPa) = 0.02690900
#
# Stress axis : x y z
#
# Youngs Moduli (GPa) = 22.80114 74.25035 82.95824
#
# Poissons Ratio (x) = 0.56958 0.82481
# Poissons Ratio (y) = 0.17491 0.30046
# Poissons Ratio (z) = 0.22670 0.26892
#
# Static dielectric constant tensor:
#      x y z
#    x 3.129710 0.000000 0.000000 
#    y 0.000000 3.443750 0.000000 
#    z 0.000000 0.000000 3.583450 
# 
# 
# High freq. dielectric constant tensor:
#      x y z
#    x 1.676150 0.000000 0.000000 
#    y 0.000000 1.706880 0.000000 
#    z 0.000000 0.000000 1.709260 
# 
# From -- ./inp_files/4133.got.cif
#   From: 2010.03.12/outbox.cif.g09.slc.cpg/sg47_3_cif.got.tgz:4133.got - 2010.04.14 03:12:58.
