data_PCOD8193730
_publ_section_title
;
Structure prediction by ZEFSAII (Michael W. Deem and Ramdas Pophale) SiO2 
 PCOD8193730
Probable space group: P M M M
;
_chemical_formula_sum "Si O2"
_cell_formula_units_Z 64
_cell_length_a 18.213403
_cell_length_b 27.015036
_cell_length_c 9.159563
_cell_angle_alpha 90.000000
_cell_angle_beta 90.000000
_cell_angle_gamma 90.000000
_cell_volume 4506.832338
_symmetry_space_group_name_H-M "P M M M"
_symmetry_group_IT_number 47
_symmetry_cell_setting 'orthorhombic'
loop_
_space_group_symop_operation_xyz
x,y,z
-x,-y,z
x,-y,-z
-x,y,-z
-x,-y,-z
x,y,-z
-x,y,z
x,-y,z
loop_
_atom_site_type_symbol
_atom_site_label
_atom_site_fract_x
_atom_site_fract_y
_atom_site_fract_z
Si Si1 0.587018 0.052286 0.663161
Si Si2 0.671373 0.754380 0.828418
Si Si3 0.585039 0.840337 0.673932
Si Si4 0.174914 0.444783 0.168085
Si Si5 0.794762 0.296619 0.665475
Si Si6 0.416439 0.344295 0.830186
Si Si7 0.915848 0.350431 0.171492
Si Si8 0.702485 0.396517 0.663787
O O1 0.619043 0.050439 0.500000
O O2 0.500000 0.053855 0.655093
O O3 0.611042 0.104913 0.732734
O O4 0.611749 0.000000 0.742880
O O5 0.636222 0.802720 0.758846
O O6 0.750661 0.745333 0.754337
O O7 0.617172 0.709105 0.793879
O O8 0.682973 0.762009 0.000000
O O9 0.596326 0.835713 0.500000
O O10 0.500000 0.830262 0.713885
O O11 0.143511 0.500000 0.196151
O O12 0.113554 0.405003 0.216094
O O13 0.250256 0.438750 0.257362
O O14 0.195586 0.436591 0.000000
O O15 0.808568 0.278498 0.500000
O O16 0.872337 0.307358 0.743648
O O17 0.748000 0.346261 0.668497
O O18 0.500000 0.343900 0.776190
O O19 0.374544 0.387894 0.745085
O O20 0.409645 0.356298 0.000000
O O21 0.000000 0.347484 0.220312
O O22 0.905982 0.341220 0.000000
O O23 0.685903 0.413919 0.500000
#
# Coordination Sequence:
#
# PCOD8193730 Si02
#       8
#     8   8   8   8   8   8   8   8
#     4   7  10  18  32  48  66  92 129 170 207 241
#     4  10  18  27  39  55  77 103 130 160 197 239
#     4   9  16  24  35  53  76 101 132 172 212 244
#     4   9  17  29  45  63  82 105 129 150 176 213
#     4   9  17  29  43  58  77 102 131 158 185 222
#     4   9  17  28  41  56  74  97 124 154 190 233
#     4   9  17  29  45  65  87 107 127 152 180 212
#     4   9  17  28  42  59  77  98 124 154 187 222
#
# _framework density 14.200661
#
# number of rings (size 3 to 8) (size 9 to 14) (size 15 to 20)
#    0.000    3.125    0.000    2.625    0.000    5.250 
#    0.000    1.250    0.000    0.750    0.000    7.875 
#    0.000    0.000    0.000    0.000    0.000    0.625 
#
# Total GULP energy -793056.521599 kJ/mol
# GULP energy per Si atom -12391.508150 kJ/mol
# Density = 1.416834 g / cm^3
# Si number density = 14.200661 Si / 1000 Ang^3
#
#
#
# Elastic Constant Matrix: (Units=GPa)
#
#
# Indices 1 2 3 4 5 6 
#
# 1 96.4858 47.9932 44.3104 0.0000 0.0000 0.0000
# 2 47.9932 74.9561 36.1273 0.0000 0.0000 0.0000
# 3 44.3104 36.1273 60.4473 0.0000 0.0000 0.0000
# 4 0.0000 0.0000 0.0000 14.1431 0.0000 0.0000
# 5 0.0000 0.0000 0.0000 0.0000 18.7229 0.0000
# 6 0.0000 0.0000 0.0000 0.0000 0.0000 11.7413
#
#
#
# Elastic Compliance Matrix: (Units=1/GPa)
#
#
# Indices 1 2 3 4 5 6 
#
# 1 0.018072 -0.007285 -0.008894 0.000000 0.000000 0.000000
# 2 -0.007285 0.021676 -0.007615 0.000000 0.000000 0.000000
# 3 -0.008894 -0.007615 0.027614 0.000000 0.000000 0.000000
# 4 0.000000 0.000000 0.000000 0.070706 0.000000 0.000000
# 5 0.000000 0.000000 0.000000 0.000000 0.053411 0.000000
# 6 0.000000 0.000000 0.000000 0.000000 0.000000 0.085169
#
#
# Mechanical properties :
#
#
# Convention : Reuss Voigt Hill
#
# Bulk Modulus (GPa) = 50.56861 54.30566 52.43714
# Shear Modulus (GPa) = 15.11369 15.81867 15.46618
#
# Velocity S-wave (km/s) = 3.26589 3.34119 3.30376
# Velocity P-wave (km/s) = 7.06461 7.29448 7.18047
#
# Compressibility (1/GPa) = 0.01977511
#
# Stress axis : x y z
#
# Youngs Moduli (GPa) = 55.33389 46.13488 36.21353
#
# Poissons Ratio (x) = 0.33608 0.32208
# Poissons Ratio (y) = 0.40309 0.27576
# Poissons Ratio (z) = 0.49213 0.35131
#
# Static dielectric constant tensor:
#      x y z
#    x 2.644810 0.000000 0.000000 
#    y 0.000000 2.868220 0.000000 
#    z 0.000000 0.000000 2.764260 
# 
# 
# High freq. dielectric constant tensor:
#      x y z
#    x 1.511880 0.000000 0.000000 
#    y 0.000000 1.522830 0.000000 
#    z 0.000000 0.000000 1.537830 
# 
# From -- ./inp_files/10247.got.cif
#   From: 2010.03.12/outbox.cif.g09.slc.cpg/sg47_6_cif.got.tgz:10247.got - 2010.04.14 03:12:58.
