data_PCOD8193750
_publ_section_title
;
Structure prediction by ZEFSAII (Michael W. Deem and Ramdas Pophale) SiO2 
 PCOD8193750
Probable space group: P M M M
;
_chemical_formula_sum "Si O2"
_cell_formula_units_Z 60
_cell_length_a 24.113558
_cell_length_b 18.093047
_cell_length_c 9.132918
_cell_angle_alpha 90.000000
_cell_angle_beta 90.000000
_cell_angle_gamma 90.000000
_cell_volume 3984.580138
_symmetry_space_group_name_H-M "P M M M"
_symmetry_group_IT_number 47
_symmetry_cell_setting 'orthorhombic'
loop_
_space_group_symop_operation_xyz
x,y,z
-x,-y,z
x,-y,-z
-x,y,-z
-x,-y,-z
x,y,-z
-x,y,z
x,-y,z
loop_
_atom_site_type_symbol
_atom_site_label
_atom_site_fract_x
_atom_site_fract_y
_atom_site_fract_z
Si Si1 0.328863 0.417308 0.671611
Si Si2 0.437338 0.848422 0.828082
Si Si3 0.879827 0.412859 0.827685
Si Si4 0.272554 0.204980 0.164517
Si Si5 0.615446 0.702769 0.838620
Si Si6 0.781481 0.330635 0.327142
Si Si7 0.335661 0.914358 0.331614
Si Si8 0.000000 0.414031 0.830712
O O1 0.336758 0.418213 0.500000
O O2 0.332280 0.500000 0.736576
O O3 0.379453 0.368522 0.735105
O O4 0.269559 0.383771 0.715812
O O5 0.500000 0.873254 0.793289
O O6 0.430232 0.761863 0.782570
O O7 0.396134 0.900383 0.737957
O O8 0.423120 0.856828 0.000000
O O9 0.872713 0.500000 0.797995
O O10 0.836645 0.367966 0.732077
O O11 0.940835 0.384141 0.770485
O O12 0.871517 0.396500 0.000000
O O13 0.327152 0.253844 0.159184
O O14 0.225526 0.250471 0.251745
O O15 0.286708 0.129242 0.248781
O O16 0.251637 0.187096 0.000000
O O17 0.600050 0.673687 0.000000
O O18 0.785738 0.319164 0.500000
O O19 0.337456 0.888370 0.500000
O O20 0.321057 0.000000 0.317426
O O21 0.000000 0.500000 0.801145
O O22 0.000000 0.396385 0.000000
#
# Coordination Sequence:
#
# PCOD8193750 Si02
#       8
#     8   8   8   8   8   8   8   4
#     4   9  17  27  38  54  77 103 129 160 202 250
#     4   9  18  32  48  64  82 106 137 170 200 234
#     4   9  16  26  40  57  79 111 152 192 225 257
#     4   9  17  30  46  62  81 107 139 169 199 241
#     4   8  15  27  42  59  76  96 126 164 202 238
#     4  10  18  27  40  59  84 110 137 174 218 257
#     4  10  20  32  46  66  91 114 134 159 195 240
#     4   7  12  24  39  53  73 107 150 191 226 257
#
# _framework density 15.058049
#
# number of rings (size 3 to 8) (size 9 to 14) (size 15 to 20)
#    0.000    3.000    0.000    3.200    0.000    6.400 
#    0.000    1.667    0.000    1.600    0.000    2.800 
#    0.000    0.000    0.000    0.600    0.000   11.600 
#
# Total GULP energy -743549.681151 kJ/mol
# GULP energy per Si atom -12392.494686 kJ/mol
# Density = 1.502378 g / cm^3
# Si number density = 15.058049 Si / 1000 Ang^3
#
#
#
# Elastic Constant Matrix: (Units=GPa)
#
#
# Indices 1 2 3 4 5 6 
#
# 1 50.1238 28.1970 29.8006 0.0000 0.0000 0.0000
# 2 28.1970 77.7080 41.8449 0.0000 0.0000 0.0000
# 3 29.8006 41.8449 71.1868 0.0000 0.0000 0.0000
# 4 0.0000 0.0000 0.0000 24.7028 0.0000 0.0000
# 5 0.0000 0.0000 0.0000 0.0000 17.1755 0.0000
# 6 0.0000 0.0000 0.0000 0.0000 0.0000 15.0145
#
#
#
# Elastic Compliance Matrix: (Units=1/GPa)
#
#
# Indices 1 2 3 4 5 6 
#
# 1 0.028168 -0.005664 -0.008462 0.000000 0.000000 0.000000
# 2 -0.005664 0.019968 -0.009366 0.000000 0.000000 0.000000
# 3 -0.008462 -0.009366 0.023096 0.000000 0.000000 0.000000
# 4 0.000000 0.000000 0.000000 0.040481 0.000000 0.000000
# 5 0.000000 0.000000 0.000000 0.000000 0.058223 0.000000
# 6 0.000000 0.000000 0.000000 0.000000 0.000000 0.066602
#
#
# Mechanical properties :
#
#
# Convention : Reuss Voigt Hill
#
# Bulk Modulus (GPa) = 41.24384 44.30038 42.77211
# Shear Modulus (GPa) = 17.14647 17.99029 17.56838
#
# Velocity S-wave (km/s) = 3.37811 3.46023 3.41942
# Velocity P-wave (km/s) = 6.53184 6.74151 6.63750
#
# Compressibility (1/GPa) = 0.02424605
#
# Stress axis : x y z
#
# Youngs Moduli (GPa) = 35.50101 50.08137 43.29801
#
# Poissons Ratio (x) = 0.28367 0.36641
# Poissons Ratio (y) = 0.20108 0.40553
# Poissons Ratio (z) = 0.30043 0.46907
#
# Static dielectric constant tensor:
#      x y z
#    x 2.896170 0.000000 0.000000 
#    y 0.000000 2.860460 0.000000 
#    z 0.000000 0.000000 2.947800 
# 
# 
# High freq. dielectric constant tensor:
#      x y z
#    x 1.548730 0.000000 0.000000 
#    y 0.000000 1.556490 0.000000 
#    z 0.000000 0.000000 1.578470 
# 
# From -- ./inp_files/12886.got.cif
#   From: 2010.03.12/outbox.cif.g09.slc.cpg/sg47_7_cif.got.tgz:12886.got - 2010.04.14 03:12:58.
