data_PCOD8193886
_publ_section_title
;
Structure prediction by ZEFSAII (Michael W. Deem and Ramdas Pophale) SiO2 
 PCOD8193886
Probable space group: P M M M
;
_chemical_formula_sum "Si O2"
_cell_formula_units_Z 52
_cell_length_a 12.647571
_cell_length_b 9.116355
_cell_length_c 28.283814
_cell_angle_alpha 90.000000
_cell_angle_beta 90.000000
_cell_angle_gamma 90.000000
_cell_volume 3261.116602
_symmetry_space_group_name_H-M "P M M M"
_symmetry_group_IT_number 47
_symmetry_cell_setting 'orthorhombic'
loop_
_space_group_symop_operation_xyz
x,y,z
-x,-y,z
x,-y,-z
-x,y,-z
-x,-y,-z
x,y,-z
-x,y,z
x,-y,z
loop_
_atom_site_type_symbol
_atom_site_label
_atom_site_fract_x
_atom_site_fract_y
_atom_site_fract_z
Si Si1 0.289274 0.825671 0.219201
Si Si2 0.500000 0.326206 0.221201
Si Si3 0.728819 0.831796 0.325963
Si Si4 0.125542 0.665101 0.500000
Si Si5 0.877843 0.172903 0.406503
Si Si6 0.119652 0.827631 0.857039
Si Si7 0.500000 0.833128 0.317193
Si Si8 0.874409 0.334614 0.051587
O O1 0.394041 0.745519 0.198862
O O2 0.264250 0.768550 0.272586
O O3 0.190784 0.777411 0.187008
O O4 0.308405 0.000000 0.218394
O O5 0.500000 0.500000 0.213046
O O6 0.500000 0.286983 0.276344
O O7 0.811235 0.759125 0.362501
O O8 0.608644 0.811859 0.346615
O O9 0.762011 0.000000 0.322939
O O10 0.170570 0.500000 0.500000
O O11 0.165915 0.749148 0.453512
O O12 0.000000 0.665642 0.500000
O O13 0.000000 0.210149 0.396837
O O14 0.859937 0.000000 0.413166
O O15 0.169242 0.763220 0.905449
O O16 0.000000 0.770762 0.847884
O O17 0.120957 0.000000 0.862955
O O18 0.500000 0.000000 0.295506
O O19 0.834581 0.500000 0.059482
O O20 0.000000 0.328223 0.051875
O O21 0.833954 0.277567 0.000000
#
# Coordination Sequence:
#
# PCOD8193886 Si02
#       8
#     8   4   8   4   8   8   4   8
#     4   9  17  30  45  62  89 120 144 171 214 260
#     4  10  18  28  44  64  82 106 150 194 215 238
#     4   8  14  25  43  63  81 106 137 166 198 242
#     4   9  17  29  43  58  79 108 138 167 202 243
#     4   9  16  26  42  64  85 104 132 170 206 239
#     4   9  17  27  41  64  91 117 144 174 210 255
#     4   8  14  28  46  61  81 109 138 168 208 251
#     4   8  14  25  40  57  80 113 149 180 211 249
#
# _framework density 15.945459
#
# number of rings (size 3 to 8) (size 9 to 14) (size 15 to 20)
#    0.000    3.308    0.000    2.308    0.000    2.462 
#    0.000    7.692    0.000    0.462    0.000    8.077 
#    0.000    4.308    0.000    0.000    0.000    0.000 
#
# Total GULP energy -644246.640891 kJ/mol
# GULP energy per Si atom -12389.358479 kJ/mol
# Density = 1.590917 g / cm^3
# Si number density = 15.945459 Si / 1000 Ang^3
#
#
#
# Elastic Constant Matrix: (Units=GPa)
#
#
# Indices 1 2 3 4 5 6 
#
# 1 88.2494 30.1291 67.2133 0.0000 0.0000 0.0000
# 2 30.1291 42.2976 32.8662 0.0000 0.0000 0.0000
# 3 67.2133 32.8662 122.1328 0.0000 0.0000 0.0000
# 4 0.0000 0.0000 0.0000 13.5345 0.0000 0.0000
# 5 0.0000 0.0000 0.0000 0.0000 4.8208 0.0000
# 6 0.0000 0.0000 0.0000 0.0000 0.0000 11.8904
#
#
#
# Elastic Compliance Matrix: (Units=1/GPa)
#
#
# Indices 1 2 3 4 5 6 
#
# 1 0.021310 -0.007671 -0.009664 0.000000 0.000000 0.000000
# 2 -0.007671 0.032654 -0.004566 0.000000 0.000000 0.000000
# 3 -0.009664 -0.004566 0.014735 0.000000 0.000000 0.000000
# 4 0.000000 0.000000 0.000000 0.073885 0.000000 0.000000
# 5 0.000000 0.000000 0.000000 0.000000 0.207433 0.000000
# 6 0.000000 0.000000 0.000000 0.000000 0.000000 0.084101
#
#
# Mechanical properties :
#
#
# Convention : Reuss Voigt Hill
#
# Bulk Modulus (GPa) = 40.16298 57.01076 48.58687
# Shear Modulus (GPa) = 10.28345 14.21390 12.24867
#
# Velocity S-wave (km/s) = 2.54227 2.98888 2.77458
# Velocity P-wave (km/s) = 5.81893 6.90959 6.38758
#
# Compressibility (1/GPa) = 0.02489855
#
# Stress axis : x y z
#
# Youngs Moduli (GPa) = 46.92536 30.62440 67.86765
#
# Poissons Ratio (x) = 0.23492 0.65584
# Poissons Ratio (y) = 0.35996 0.30986
# Poissons Ratio (z) = 0.45346 0.13982
#
# Static dielectric constant tensor:
#      x y z
#    x 3.082150 0.000000 0.000000 
#    y 0.000000 2.859640 0.000000 
#    z 0.000000 0.000000 3.224980 
# 
# 
# High freq. dielectric constant tensor:
#      x y z
#    x 1.590340 0.000000 0.000000 
#    y 0.000000 1.591700 0.000000 
#    z 0.000000 0.000000 1.600700 
# 
# From -- ./inp_files/34574.got.cif
#   From: 2010.03.12/outbox.cif.g09.slc.cpg/sg47_18_cif.got.tgz:34574.got - 2010.04.14 03:12:58.
