data_PCOD8193112
_publ_section_title
;
Structure prediction by ZEFSAII (Michael W. Deem and Ramdas Pophale) SiO2 
 PCOD8193112
Probable space group: I M A 2
;
_chemical_formula_sum "Si O2"
_cell_formula_units_Z 64
_cell_length_a 17.876894
_cell_length_b 15.471478
_cell_length_c 11.826184
_cell_angle_alpha 90.000000
_cell_angle_beta 90.000000
_cell_angle_gamma 90.000000
_cell_volume 3270.909295
_symmetry_space_group_name_H-M "I M A 2"
_symmetry_group_IT_number 46
_symmetry_cell_setting 'orthorhombic'
loop_
_space_group_symop_operation_xyz
x,y,z
-x,-y,z
1/2-x,y,z
1/2+x,-y,z
1/2+x,1/2+y,1/2+z
1/2-x,1/2-y,1/2+z
-x,1/2+y,1/2+z
x,1/2-y,1/2+z
loop_
_atom_site_type_symbol
_atom_site_label
_atom_site_fract_x
_atom_site_fract_y
_atom_site_fract_z
Si Si1 0.947862 0.328840 0.209510
Si Si2 0.578327 0.899412 0.419533
Si Si3 0.165045 0.811717 0.292228
Si Si4 0.973802 0.404893 0.439225
Si Si5 0.429151 0.238326 0.064883
Si Si6 0.165963 0.570107 0.580409
Si Si7 0.090394 0.586750 0.980255
Si Si8 0.835268 0.609981 0.689333
O O1 0.888369 0.268899 0.272350
O O2 0.976450 0.395974 0.303820
O O3 0.017439 0.274560 0.163022
O O4 0.909450 0.382177 0.109178
O O5 0.604182 0.814330 0.486733
O O6 0.488441 0.899111 0.416915
O O7 0.608394 0.899548 0.293082
O O8 0.610167 0.985011 0.481549
O O9 0.250000 0.778456 0.289754
O O10 0.149339 0.883275 0.198128
O O11 0.150779 0.856367 0.413417
O O12 0.889452 0.393300 0.485396
O O13 0.000000 0.500000 0.475135
O O14 0.025980 0.331640 0.492094
O O15 0.356561 0.196206 0.121726
O O16 0.250000 0.589252 0.537425
O O17 0.154209 0.468807 0.602683
O O18 0.750000 0.616047 0.733048
#
# Coordination Sequence:
#
# PCOD8193112 Si02
#       8
#     8   8   8   8   8   8   8   8
#     4  11  24  40  60  93 127 158 202 250 308 371
#     4  10  22  38  62  89 119 157 206 259 298 361
#     4  11  22  39  64  92 122 158 204 254 306 372
#     4  12  24  39  64  92 125 167 202 253 309 374
#     4  11  22  40  62  90 120 161 208 259 310 357
#     4  10  22  40  61  89 122 160 203 250 304 366
#     4  10  22  40  63  90 122 161 199 251 311 363
#     4  11  22  39  61  87 119 157 206 256 304 359
#
# _framework density 19.566424000000001
#
# number of rings (size 3 to 8) (size 9 to 14) (size 15 to 20)
#    0.000    1.250    3.750    3.000    3.500    1.500 
#    0.000    0.000    0.000    0.000    0.000    0.000 
#    0.000    0.000    0.000    0.000    0.000    0.000 
#
# Total GULP energy -396913.766143 kJ/mol
# GULP energy per Si atom -12403.555192 kJ/mol
# Density = 1.952189 g / cm^3
# Si number density = 19.566424 Si / 1000 Ang^3
#
#
#
# Elastic Constant Matrix: (Units=GPa)
#
#
# Indices 1 2 3 4 5 6 
#
# 1 55.0744 20.2913 28.5169 0.0000 0.0000 0.0000
# 2 20.2913 106.2919 29.9873 0.0000 0.0000 0.0000
# 3 28.5169 29.9873 102.9386 0.0000 0.0000 0.0000
# 4 0.0000 0.0000 0.0000 36.4864 0.0000 0.0000
# 5 0.0000 0.0000 0.0000 0.0000 20.7239 0.0000
# 6 0.0000 0.0000 0.0000 0.0000 0.0000 17.3833
#
#
#
# Elastic Compliance Matrix: (Units=1/GPa)
#
#
# Indices 1 2 3 4 5 6 
#
# 1 0.021881 -0.002688 -0.005279 0.000000 0.000000 0.000000
# 2 -0.002688 0.010581 -0.002338 0.000000 0.000000 0.000000
# 3 -0.005279 -0.002338 0.011858 0.000000 0.000000 0.000000
# 4 0.000000 0.000000 0.000000 0.027408 0.000000 0.000000
# 5 0.000000 0.000000 0.000000 0.000000 0.048254 0.000000
# 6 0.000000 0.000000 0.000000 0.000000 0.000000 0.057526
#
#
# Mechanical properties :
#
#
# Convention : Reuss Voigt Hill
#
# Bulk Modulus (GPa) = 42.17446 46.87733 44.52590
# Shear Modulus (GPa) = 24.26966 27.28601 25.77784
#
# Velocity S-wave (km/s) = 3.52571 3.73839 3.63361
# Velocity P-wave (km/s) = 6.17863 6.53025 6.35687
#
# Compressibility (1/GPa) = 0.02371103
#
# Stress axis : x y z
#
# Youngs Moduli (GPa) = 45.70232 94.51187 84.33239
#
# Poissons Ratio (x) = 0.25403 0.44516
# Poissons Ratio (y) = 0.12284 0.19714
# Poissons Ratio (z) = 0.24124 0.22094
#
# Static dielectric constant tensor:
#      x y z
#    x 3.460040 0.000000 0.000000 
#    y 0.000000 3.853290 0.000000 
#    z 0.000000 0.000000 3.450610 
# 
# 
# High freq. dielectric constant tensor:
#      x y z
#    x 1.748960 0.000000 0.000000 
#    y 0.000000 1.775890 0.000000 
#    z 0.000000 0.000000 1.759850 
# 
# From -- ./inp_files/11972.got.cif
#   From: 2010.03.12/outbox.cif.g09.slc.cpg/sg46_6_cif.got.tgz:11972.got - 2010.04.14 02:56:35.
