data_PCOD8193557
_publ_section_title
;
Structure prediction by ZEFSAII (Michael W. Deem and Ramdas Pophale) SiO2 
 PCOD8193557
Probable space group: P M M M
;
_chemical_formula_sum "Si O2"
_cell_formula_units_Z 48
_cell_length_a 11.917664
_cell_length_b 9.940084
_cell_length_c 24.585189
_cell_angle_alpha 90.000000
_cell_angle_beta 90.000000
_cell_angle_gamma 90.000000
_cell_volume 2912.424949
_symmetry_space_group_name_H-M "P M M M"
_symmetry_group_IT_number 47
_symmetry_cell_setting 'orthorhombic'
loop_
_space_group_symop_operation_xyz
x,y,z
-x,-y,z
x,-y,-z
-x,y,-z
-x,-y,-z
x,y,-z
-x,y,z
x,-y,z
loop_
_atom_site_type_symbol
_atom_site_label
_atom_site_fract_x
_atom_site_fract_y
_atom_site_fract_z
Si Si1 0.129352 0.347032 0.152690
Si Si2 0.133248 0.849081 0.060260
Si Si3 0.000000 0.648810 0.674680
Si Si4 0.221416 0.342883 0.269948
Si Si5 0.368139 0.156536 0.336419
Si Si6 0.242493 0.153900 0.558775
Si Si7 0.000000 0.745628 0.439797
O O1 0.138917 0.500000 0.132398
O O2 0.180638 0.253763 0.105121
O O3 0.203399 0.323170 0.205990
O O4 0.000000 0.311039 0.166144
O O5 0.000000 0.840278 0.059596
O O6 0.172068 0.000000 0.075512
O O7 0.178694 0.810685 0.000000
O O8 0.886804 0.716736 0.697514
O O9 0.000000 0.500000 0.700199
O O10 0.000000 0.638094 0.609032
O O11 0.244456 0.500000 0.284234
O O12 0.325848 0.249370 0.286834
O O13 0.500000 0.173432 0.341760
O O14 0.311993 0.217901 0.391507
O O15 0.334921 0.000000 0.326574
O O16 0.273654 0.221627 0.500000
O O17 0.109103 0.162242 0.568027
O O18 0.278156 0.000000 0.556156
O O19 0.000000 0.676173 0.500000
#
# Coordination Sequence:
#
# PCOD8193557 Si02
#       7
#     8   8   4   8   8   8   4
#     4   9  16  26  42  64  90 120 156 194 228 267
#     4   8  14  24  37  56  88 128 162 189 220 261
#     4  10  18  30  47  66  91 122 152 189 234 284
#     4  10  19  33  50  68  93 124 156 191 237 285
#     4  10  21  35  50  69  91 117 155 199 236 276
#     4   9  17  29  46  68  92 117 146 185 234 284
#     4  10  17  27  46  69  91 117 150 188 233 286
#
# _framework density 16.481112
#
# number of rings (size 3 to 8) (size 9 to 14) (size 15 to 20)
#    0.000    2.667    2.500    0.750    0.000    2.833 
#    0.000    3.750    0.000    0.500    0.000    1.167 
#    0.000    0.667    0.000    7.333    0.000    5.667 
#
# Total GULP energy -594832.851351 kJ/mol
# GULP energy per Si atom -12392.351070 kJ/mol
# Density = 1.644360 g / cm^3
# Si number density = 16.481112 Si / 1000 Ang^3
#
#
#
# Elastic Constant Matrix: (Units=GPa)
#
#
# Indices 1 2 3 4 5 6 
#
# 1 64.0672 31.0838 37.4827 0.0000 0.0000 0.0000
# 2 31.0838 67.9003 59.4085 0.0000 0.0000 0.0000
# 3 37.4827 59.4085 123.4820 0.0000 0.0000 0.0000
# 4 0.0000 0.0000 0.0000 27.7273 0.0000 0.0000
# 5 0.0000 0.0000 0.0000 0.0000 9.1462 0.0000
# 6 0.0000 0.0000 0.0000 0.0000 0.0000 18.3255
#
#
#
# Elastic Compliance Matrix: (Units=1/GPa)
#
#
# Indices 1 2 3 4 5 6 
#
# 1 0.020679 -0.006864 -0.002975 0.000000 0.000000 0.000000
# 2 -0.006864 0.027712 -0.011249 0.000000 0.000000 0.000000
# 3 -0.002975 -0.011249 0.014413 0.000000 0.000000 0.000000
# 4 0.000000 0.000000 0.000000 0.036066 0.000000 0.000000
# 5 0.000000 0.000000 0.000000 0.000000 0.109336 0.000000
# 6 0.000000 0.000000 0.000000 0.000000 0.000000 0.054569
#
#
# Mechanical properties :
#
#
# Convention : Reuss Voigt Hill
#
# Bulk Modulus (GPa) = 48.47532 56.82220 52.64876
# Shear Modulus (GPa) = 16.03459 19.53809 17.78634
#
# Velocity S-wave (km/s) = 3.12253 3.44682 3.28867
# Velocity P-wave (km/s) = 6.51742 7.09879 6.81431
#
# Compressibility (1/GPa) = 0.02062905
#
# Stress axis : x y z
#
# Youngs Moduli (GPa) = 48.35768 36.08580 69.38022
#
# Poissons Ratio (x) = 0.24769 0.20640
# Poissons Ratio (y) = 0.33192 0.78045
# Poissons Ratio (z) = 0.14386 0.40593
#
# Static dielectric constant tensor:
#      x y z
#    x 2.758240 0.000000 0.000000 
#    y 0.000000 2.961470 0.000000 
#    z 0.000000 0.000000 3.348450 
# 
# 
# High freq. dielectric constant tensor:
#      x y z
#    x 1.591410 0.000000 0.000000 
#    y 0.000000 1.614540 0.000000 
#    z 0.000000 0.000000 1.642360 
# 
# From -- ./inp_files/30446.got.cif
#   From: 2010.03.12/outbox.cif.g09.slc.cpg/sg47_16_cif.got.tgz:30446.got - 2010.04.14 03:12:58.
