data_PCOD8193172
_publ_section_title
;
Structure prediction by ZEFSAII (Michael W. Deem and Ramdas Pophale) SiO2 
 PCOD8193172
Probable space group: I M A 2
;
_chemical_formula_sum "Si O2"
_cell_formula_units_Z 56
_cell_length_a 14.868104
_cell_length_b 12.224965
_cell_length_c 13.106200
_cell_angle_alpha 90.000000
_cell_angle_beta 90.000000
_cell_angle_gamma 90.000000
_cell_volume 2382.209793
_symmetry_space_group_name_H-M "I M A 2"
_symmetry_group_IT_number 46
_symmetry_cell_setting 'orthorhombic'
loop_
_space_group_symop_operation_xyz
x,y,z
-x,-y,z
1/2-x,y,z
1/2+x,-y,z
1/2+x,1/2+y,1/2+z
1/2-x,1/2-y,1/2+z
-x,1/2+y,1/2+z
x,1/2-y,1/2+z
loop_
_atom_site_type_symbol
_atom_site_label
_atom_site_fract_x
_atom_site_fract_y
_atom_site_fract_z
Si Si1 0.653562 0.703955 0.238580
Si Si2 0.603446 0.478848 0.309655
Si Si3 0.588080 0.947875 0.029980
Si Si4 0.855185 0.281450 0.166038
Si Si5 0.530248 0.785626 0.554349
Si Si6 0.650065 0.456411 0.723661
Si Si7 0.853803 0.611626 0.896430
O O1 0.750000 0.736688 0.187982
O O2 0.661402 0.575619 0.262321
O O3 0.570269 0.728010 0.166677
O O4 0.640670 0.770879 0.342217
O O5 0.500000 0.500000 0.283115
O O6 0.619396 0.480806 0.432038
O O7 0.635116 0.364689 0.260644
O O8 0.560032 0.825513 0.995858
O O9 0.500000 0.000000 0.080698
O O10 0.656564 0.963333 0.124042
O O11 0.750000 0.279072 0.129316
O O12 0.892129 0.162669 0.202217
O O13 0.922761 0.309371 0.070259
O O14 0.579160 0.884820 0.494033
O O15 0.750000 0.432774 0.759994
O O16 0.605899 0.519613 0.819582
O O17 0.750000 0.588950 0.930777
#
# Coordination Sequence:
#
# PCOD8193172 Si02
#       7
#     8   8   8   8   8   8   8
#     4  11  22  38  67 103 141 176 224 296 360 416
#     4  11  23  43  70 101 138 186 239 290 354 423
#     4  11  22  38  69 104 135 181 245 290 341 414
#     4  11  25  46  72 103 147 197 237 289 357 430
#     4  12  22  41  73 105 142 186 238 298 358 425
#     4  10  22  42  68 103 147 187 231 288 357 429
#     4  10  22  40  69 110 144 181 234 296 363 421
#
# _framework density 23.507586
#
# number of rings (size 3 to 8) (size 9 to 14) (size 15 to 20)
#    0.000    1.143    5.714    0.857    0.000    1.714 
#    0.000    1.429   12.571    3.429    0.000    1.000 
#    0.000    0.000    0.000    0.000    0.000    0.000 
#
# Total GULP energy -346920.679080 kJ/mol
# GULP energy per Si atom -12390.024253 kJ/mol
# Density = 2.345408 g / cm^3
# Si number density = 23.507586 Si / 1000 Ang^3
#
#
#
# Elastic Constant Matrix: (Units=GPa)
#
#
# Indices 1 2 3 4 5 6 
#
# 1 126.9917 27.9518 55.4076 0.0000 0.0000 0.0000
# 2 27.9518 90.5266 31.8135 0.0000 0.0000 0.0000
# 3 55.4076 31.8135 90.1921 0.0000 0.0000 0.0000
# 4 0.0000 0.0000 0.0000 33.0429 0.0000 0.0000
# 5 0.0000 0.0000 0.0000 0.0000 29.5137 0.0000
# 6 0.0000 0.0000 0.0000 0.0000 0.0000 27.6733
#
#
#
# Elastic Compliance Matrix: (Units=1/GPa)
#
#
# Indices 1 2 3 4 5 6 
#
# 1 0.010862 -0.001152 -0.006267 0.000000 0.000000 0.000000
# 2 -0.001152 0.012732 -0.003783 0.000000 0.000000 0.000000
# 3 -0.006267 -0.003783 0.016272 0.000000 0.000000 0.000000
# 4 0.000000 0.000000 0.000000 0.030264 0.000000 0.000000
# 5 0.000000 0.000000 0.000000 0.000000 0.033883 0.000000
# 6 0.000000 0.000000 0.000000 0.000000 0.000000 0.036136
#
#
# Mechanical properties :
#
#
# Convention : Reuss Voigt Hill
#
# Bulk Modulus (GPa) = 57.26661 59.78402 58.52531
# Shear Modulus (GPa) = 29.69612 30.88182 30.28897
#
# Velocity S-wave (km/s) = 3.55809 3.62843 3.59343
# Velocity P-wave (km/s) = 6.42602 6.56056 6.49364
#
# Compressibility (1/GPa) = 0.01746218
#
# Stress axis : x y z
#
# Youngs Moduli (GPa) = 92.06180 78.54452 61.45590
#
# Poissons Ratio (x) = 0.09045 0.38513
# Poissons Ratio (y) = 0.10602 0.23251
# Poissons Ratio (z) = 0.57693 0.29716
#
# Static dielectric constant tensor:
#      x y z
#    x 4.381260 0.000000 0.000000 
#    y 0.000000 4.395140 0.000000 
#    z 0.000000 0.000000 3.888960 
# 
# 
# High freq. dielectric constant tensor:
#      x y z
#    x 1.932260 0.000000 0.000000 
#    y 0.000000 1.929740 0.000000 
#    z 0.000000 0.000000 1.908560 
# 
# From -- ./inp_files/15954.got.cif
#   From: 2010.03.12/outbox.cif.g09.slc.cpg/sg46_8_cif.got.tgz:15954.got - 2010.04.14 02:56:35.
