data_PCOD8193075
_publ_section_title
;
Structure prediction by ZEFSAII (Michael W. Deem and Ramdas Pophale) SiO2 
 PCOD8193075
Probable space group: I M A 2
;
_chemical_formula_sum "Si O2"
_cell_formula_units_Z 32
_cell_length_a 9.973004
_cell_length_b 7.715851
_cell_length_c 20.106592
_cell_angle_alpha 90.000000
_cell_angle_beta 90.000000
_cell_angle_gamma 90.000000
_cell_volume 1547.206535
_symmetry_space_group_name_H-M "I M A 2"
_symmetry_group_IT_number 46
_symmetry_cell_setting 'orthorhombic'
loop_
_space_group_symop_operation_xyz
x,y,z
-x,-y,z
1/2-x,y,z
1/2+x,-y,z
1/2+x,1/2+y,1/2+z
1/2-x,1/2-y,1/2+z
-x,1/2+y,1/2+z
x,1/2-y,1/2+z
loop_
_atom_site_type_symbol
_atom_site_label
_atom_site_fract_x
_atom_site_fract_y
_atom_site_fract_z
Si Si1 0.250000 0.160650 0.058370
Si Si2 0.250000 0.035955 0.919075
Si Si3 0.250000 0.714762 0.530747
Si Si4 0.481220 0.809507 0.615479
Si Si5 0.593898 0.339266 0.751072
Si Si6 0.500000 0.500000 0.329176
O O1 0.377594 0.244161 0.091149
O O2 0.250000 0.958225 0.076055
O O3 0.250000 0.180771 0.977753
O O4 0.119890 0.065521 0.875191
O O5 0.250000 0.841171 0.952701
O O6 0.382561 0.820588 0.551405
O O7 0.421555 0.686345 0.672189
O O8 0.500000 0.000000 0.645712
O O9 0.500000 0.500000 0.774327
O O10 0.750000 0.378801 0.768179
O O11 0.547106 0.162635 0.785919
#
# Coordination Sequence:
#
# PCOD8193075 Si02
#       6
#     4   4   4   8   8   4
#     4  10  23  40  69  97 130 189 227 279 351 410
#     4  10  24  44  74  96 138 198 234 282 348 426
#     4  10  21  42  65  95 134 185 231 277 347 408
#     4  12  23  40  66 105 145 175 230 294 359 418
#     4  12  28  46  71 108 144 189 238 300 361 424
#     4  12  24  50  76  98 146 192 244 282 354 436
#
# _framework density 20.682434000000001
#
# number of rings (size 3 to 8) (size 9 to 14) (size 15 to 20)
#    0.750    0.000    3.750    4.500    3.500    0.000 
#    0.000    7.500    0.000    0.000    0.000    0.000 
#    0.000    0.000    0.000    0.000    0.000    0.000 
#
# Total GULP energy -198337.968154 kJ/mol
# GULP energy per Si atom -12396.123010 kJ/mol
# Density = 2.063536 g / cm^3
# Si number density = 20.682434 Si / 1000 Ang^3
#
#
#
# Elastic Constant Matrix: (Units=GPa)
#
#
# Indices 1 2 3 4 5 6 
#
# 1 186.3319 39.3587 45.5775 0.0000 0.0000 0.0000
# 2 39.3587 102.1664 16.8778 0.0000 0.0000 0.0000
# 3 45.5775 16.8778 86.7503 0.0000 0.0000 0.0000
# 4 0.0000 0.0000 0.0000 32.0582 0.0000 0.0000
# 5 0.0000 0.0000 0.0000 0.0000 47.5233 0.0000
# 6 0.0000 0.0000 0.0000 0.0000 0.0000 36.4231
#
#
#
# Elastic Compliance Matrix: (Units=1/GPa)
#
#
# Indices 1 2 3 4 5 6 
#
# 1 0.006537 -0.002016 -0.003042 0.000000 0.000000 0.000000
# 2 -0.002016 0.010735 -0.001029 0.000000 0.000000 0.000000
# 3 -0.003042 -0.001029 0.013326 0.000000 0.000000 0.000000
# 4 0.000000 0.000000 0.000000 0.031193 0.000000 0.000000
# 5 0.000000 0.000000 0.000000 0.000000 0.021042 0.000000
# 6 0.000000 0.000000 0.000000 0.000000 0.000000 0.027455
#
#
# Mechanical properties :
#
#
# Convention : Reuss Voigt Hill
#
# Bulk Modulus (GPa) = 54.28103 64.31961 59.30032
# Shear Modulus (GPa) = 38.87932 41.42991 40.15461
#
# Velocity S-wave (km/s) = 4.34040 4.48051 4.41101
# Velocity P-wave (km/s) = 7.17082 7.61136 7.39437
#
# Compressibility (1/GPa) = 0.01842264
#
# Stress axis : x y z
#
# Youngs Moduli (GPa) = 152.98384 93.15734 75.04170
#
# Poissons Ratio (x) = 0.18777 0.22829
# Poissons Ratio (y) = 0.30836 0.07725
# Poissons Ratio (z) = 0.46539 0.09590
#
# Static dielectric constant tensor:
#      x y z
#    x 3.753810 0.000000 0.000000 
#    y 0.000000 3.710210 0.000000 
#    z 0.000000 0.000000 3.670510 
# 
# 
# High freq. dielectric constant tensor:
#      x y z
#    x 1.829470 0.000000 0.000000 
#    y 0.000000 1.799990 0.000000 
#    z 0.000000 0.000000 1.801710 
# 
# From -- ./inp_files/20689.got.cif
#   From: 2010.03.12/outbox.cif.g09.slc.cpg/sg46_11_cif.got.tgz:20689.got - 2010.04.14 02:56:35.
