data_PCOD8193820
_publ_section_title
;
Structure prediction by ZEFSAII (Michael W. Deem and Ramdas Pophale) SiO2 
 PCOD8193820
Probable space group: P M M M
;
_chemical_formula_sum "Si O2"
_cell_formula_units_Z 52
_cell_length_a 7.660307
_cell_length_b 13.312636
_cell_length_c 33.359994
_cell_angle_alpha 90.000000
_cell_angle_beta 90.000000
_cell_angle_gamma 90.000000
_cell_volume 3402.014783
_symmetry_space_group_name_H-M "P M M M"
_symmetry_group_IT_number 47
_symmetry_cell_setting 'orthorhombic'
loop_
_space_group_symop_operation_xyz
x,y,z
-x,-y,z
x,-y,-z
-x,y,-z
-x,-y,-z
x,y,-z
-x,y,z
x,-y,z
loop_
_atom_site_type_symbol
_atom_site_label
_atom_site_fract_x
_atom_site_fract_y
_atom_site_fract_z
Si Si1 0.293579 0.387396 0.956444
Si Si2 0.692090 0.118049 0.627157
Si Si3 0.000000 0.807398 0.771700
Si Si4 0.702912 0.302221 0.874170
Si Si5 0.000000 0.119924 0.316583
Si Si6 0.794729 0.114927 0.456991
Si Si7 0.000000 0.613405 0.179435
Si Si8 0.697678 0.886886 0.824529
O O1 0.500000 0.389781 0.958381
O O2 0.223487 0.500000 0.947882
O O3 0.234098 0.314740 0.920280
O O4 0.221586 0.349838 0.000000
O O5 0.500000 0.142640 0.644020
O O6 0.710753 0.166895 0.582477
O O7 0.831760 0.158607 0.658857
O O8 0.725857 0.000000 0.622439
O O9 0.000000 0.689656 0.783046
O O10 0.172833 0.861202 0.788453
O O11 0.000000 0.818774 0.724352
O O12 0.500000 0.335143 0.868523
O O13 0.824605 0.371118 0.846494
O O14 0.731185 0.185802 0.862438
O O15 0.000000 0.000000 0.308685
O O16 0.739068 0.165395 0.500000
O O17 0.000000 0.121948 0.451506
O O18 0.733435 0.000000 0.458859
O O19 0.000000 0.500000 0.196078
O O20 0.500000 0.873870 0.808244
O O21 0.731099 0.000000 0.839673
#
# Coordination Sequence:
#
# PCOD8193820 Si02
#       8
#     8   8   4   8   4   8   4   8
#     4   8  13  22  38  59  82 110 140 165 195 239
#     4   9  16  24  34  49  69  96 130 165 200 233
#     4  10  20  32  46  62  81 106 131 163 211 254
#     4   9  17  29  45  64  87 113 136 163 201 238
#     4  10  18  28  39  52  73  99 128 162 196 236
#     4   8  12  19  31  45  64  92 127 167 202 229
#     4  10  20  32  47  68  86 101 131 169 203 249
#     4   9  17  29  45  64  83 104 135 171 203 239
#
# _framework density 15.28506
#
# number of rings (size 3 to 8) (size 9 to 14) (size 15 to 20)
#    0.000    3.077    0.769    2.077    0.000    1.846 
#    0.000    3.462    0.000    1.846    0.000    3.231 
#    0.000    3.692    0.000    0.308    0.000    1.538 
#
# Total GULP energy -644226.155910 kJ/mol
# GULP energy per Si atom -12388.964537 kJ/mol
# Density = 1.525027 g / cm^3
# Si number density = 15.285060 Si / 1000 Ang^3
#
#
#
# Elastic Constant Matrix: (Units=GPa)
#
#
# Indices 1 2 3 4 5 6 
#
# 1 79.5602 27.0945 51.8749 0.0000 0.0000 0.0000
# 2 27.0945 65.1439 42.2199 0.0000 0.0000 0.0000
# 3 51.8749 42.2199 144.8393 0.0000 0.0000 0.0000
# 4 0.0000 0.0000 0.0000 12.2431 0.0000 0.0000
# 5 0.0000 0.0000 0.0000 0.0000 8.1622 0.0000
# 6 0.0000 0.0000 0.0000 0.0000 0.0000 9.3191
#
#
#
# Elastic Compliance Matrix: (Units=1/GPa)
#
#
# Indices 1 2 3 4 5 6 
#
# 1 0.017162 -0.003889 -0.005013 0.000000 0.000000 0.000000
# 2 -0.003889 0.019807 -0.004381 0.000000 0.000000 0.000000
# 3 -0.005013 -0.004381 0.009977 0.000000 0.000000 0.000000
# 4 0.000000 0.000000 0.000000 0.081679 0.000000 0.000000
# 5 0.000000 0.000000 0.000000 0.000000 0.122517 0.000000
# 6 0.000000 0.000000 0.000000 0.000000 0.000000 0.107306
#
#
# Mechanical properties :
#
#
# Convention : Reuss Voigt Hill
#
# Bulk Modulus (GPa) = 49.06718 59.10246 54.08482
# Shear Modulus (GPa) = 12.76137 17.16847 14.96492
#
# Velocity S-wave (km/s) = 2.89258 3.35508 3.13238
# Velocity P-wave (km/s) = 6.58234 7.33209 6.96730
#
# Compressibility (1/GPa) = 0.02038022
#
# Stress axis : x y z
#
# Youngs Moduli (GPa) = 58.26773 50.48608 100.23393
#
# Poissons Ratio (x) = 0.19634 0.50248
# Poissons Ratio (y) = 0.22661 0.43911
# Poissons Ratio (z) = 0.29210 0.22117
#
# Static dielectric constant tensor:
#      x y z
#    x 3.016920 0.000000 0.000000 
#    y 0.000000 2.558950 0.000000 
#    z 0.000000 0.000000 3.093030 
# 
# 
# High freq. dielectric constant tensor:
#      x y z
#    x 1.597490 0.000000 0.000000 
#    y 0.000000 1.517920 0.000000 
#    z 0.000000 0.000000 1.585670 
# 
# From -- ./inp_files/34320.got.cif
#   From: 2010.03.12/outbox.cif.g09.slc.cpg/sg47_18_cif.got.tgz:34320.got - 2010.04.14 03:12:58.
