data_PCOD8193965
_publ_section_title
;
Structure prediction by ZEFSAII (Michael W. Deem and Ramdas Pophale) SiO2 
 PCOD8193965
Probable space group: P M M M
;
_chemical_formula_sum "Si O2"
_cell_formula_units_Z 64
_cell_length_a 28.355564
_cell_length_b 14.137083
_cell_length_c 8.890558
_cell_angle_alpha 90.000000
_cell_angle_beta 90.000000
_cell_angle_gamma 90.000000
_cell_volume 3563.913193
_symmetry_space_group_name_H-M "P M M M"
_symmetry_group_IT_number 47
_symmetry_cell_setting 'orthorhombic'
loop_
_space_group_symop_operation_xyz
x,y,z
-x,-y,z
x,-y,-z
-x,y,-z
-x,-y,-z
x,y,-z
-x,y,z
x,-y,z
loop_
_atom_site_type_symbol
_atom_site_label
_atom_site_fract_x
_atom_site_fract_y
_atom_site_fract_z
Si Si1 0.868053 0.773040 0.176622
Si Si2 0.186906 0.608986 0.320828
Si Si3 0.621324 0.735815 0.323191
Si Si4 0.790680 0.892866 0.671787
Si Si5 0.054873 0.892822 0.325222
Si Si6 0.552602 0.105469 0.320991
Si Si7 0.275037 0.274398 0.672529
Si Si8 0.447967 0.611215 0.832517
O O1 0.855473 0.672124 0.253167
O O2 0.830469 0.853391 0.218756
O O3 0.918384 0.812361 0.230819
O O4 0.869090 0.756673 0.000000
O O5 0.184432 0.618493 0.500000
O O6 0.181774 0.500000 0.268855
O O7 0.236940 0.651130 0.259090
O O8 0.627127 0.749270 0.500000
O O9 0.592466 0.824776 0.253578
O O10 0.673404 0.723020 0.249062
O O11 0.590888 0.643687 0.286737
O O12 0.809207 0.884891 0.500000
O O13 0.743194 0.832655 0.691668
O O14 0.778668 0.000000 0.716135
O O15 0.066155 0.877466 0.500000
O O16 0.000000 0.878722 0.291571
O O17 0.070131 0.000000 0.278844
O O18 0.553107 0.110527 0.500000
O O19 0.500000 0.133783 0.263960
O O20 0.565051 0.000000 0.265741
O O21 0.281148 0.303137 0.500000
O O22 0.500000 0.646929 0.783009
O O23 0.447173 0.500000 0.833416
O O24 0.436192 0.649426 0.000000
#
# Coordination Sequence:
#
# PCOD8193965 Si02
#       8
#     8   8   8   8   8   8   8   8
#     4  11  21  31  48  76 107 134 164 208 257 298
#     4   9  18  35  56  71  89 125 170 210 248 297
#     4  10  18  28  47  73  96 116 144 188 238 284
#     4   9  17  31  50  68  92 131 173 205 233 277
#     4   9  18  33  53  77 107 144 181 211 240 283
#     4   8  14  24  38  60  91 122 149 179 219 269
#     4   8  16  29  45  71  99 118 146 193 245 289
#     4   9  19  35  50  63  84 116 150 182 222 277
#
# _framework density 17.957788000000001
#
# number of rings (size 3 to 8) (size 9 to 14) (size 15 to 20)
#    0.000    2.875    0.000    3.750    0.000    4.500 
#    0.000    7.500    0.000    0.750    0.000    4.375 
#    0.000    0.000    0.000    0.000    0.000    0.000 
#
# Total GULP energy -793176.597932 kJ/mol
# GULP energy per Si atom -12393.384343 kJ/mol
# Density = 1.791692 g / cm^3
# Si number density = 17.957788 Si / 1000 Ang^3
#
#
#
# Elastic Constant Matrix: (Units=GPa)
#
#
# Indices 1 2 3 4 5 6 
#
# 1 112.1523 59.5449 29.9782 0.0000 0.0000 0.0000
# 2 59.5449 127.8642 30.9630 0.0000 0.0000 0.0000
# 3 29.9782 30.9630 38.2793 0.0000 0.0000 0.0000
# 4 0.0000 0.0000 0.0000 12.9104 0.0000 0.0000
# 5 0.0000 0.0000 0.0000 0.0000 9.0838 0.0000
# 6 0.0000 0.0000 0.0000 0.0000 0.0000 16.6405
#
#
#
# Elastic Compliance Matrix: (Units=1/GPa)
#
#
# Indices 1 2 3 4 5 6 
#
# 1 0.013062 -0.004484 -0.006602 0.000000 0.000000 0.000000
# 2 -0.004484 0.011265 -0.005600 0.000000 0.000000 0.000000
# 3 -0.006602 -0.005600 0.035824 0.000000 0.000000 0.000000
# 4 0.000000 0.000000 0.000000 0.077457 0.000000 0.000000
# 5 0.000000 0.000000 0.000000 0.000000 0.110086 0.000000
# 6 0.000000 0.000000 0.000000 0.000000 0.000000 0.060094
#
#
# Mechanical properties :
#
#
# Convention : Reuss Voigt Hill
#
# Bulk Modulus (GPa) = 37.34426 57.69643 47.52035
# Shear Modulus (GPa) = 14.28210 18.24758 16.26484
#
# Velocity S-wave (km/s) = 2.82319 3.19115 3.01279
# Velocity P-wave (km/s) = 5.60963 6.76584 6.21468
#
# Compressibility (1/GPa) = 0.02677788
#
# Stress axis : x y z
#
# Youngs Moduli (GPa) = 76.55826 88.76969 27.91390
#
# Poissons Ratio (x) = 0.39804 0.18430
# Poissons Ratio (y) = 0.34329 0.15633
# Poissons Ratio (z) = 0.50547 0.49715
#
# Static dielectric constant tensor:
#      x y z
#    x 3.465090 0.000000 0.000000 
#    y 0.000000 3.382860 0.000000 
#    z 0.000000 0.000000 2.974530 
# 
# 
# High freq. dielectric constant tensor:
#      x y z
#    x 1.692680 0.000000 0.000000 
#    y 0.000000 1.693730 0.000000 
#    z 0.000000 0.000000 1.655930 
# 
# From -- ./inp_files/14307.got.cif
#   From: 2010.03.12/outbox.cif.g09.slc.cpg/sg47_8_cif.got.tgz:14307.got - 2010.04.14 03:12:58.
