data_PCOD8193605
_publ_section_title
;
Structure prediction by ZEFSAII (Michael W. Deem and Ramdas Pophale) SiO2 
 PCOD8193605
Probable space group: P M M M
;
_chemical_formula_sum "Si O2"
_cell_formula_units_Z 52
_cell_length_a 14.751886
_cell_length_b 22.738560
_cell_length_c 9.333666
_cell_angle_alpha 90.000000
_cell_angle_beta 90.000000
_cell_angle_gamma 90.000000
_cell_volume 3130.853608
_symmetry_space_group_name_H-M "P M M M"
_symmetry_group_IT_number 47
_symmetry_cell_setting 'orthorhombic'
loop_
_space_group_symop_operation_xyz
x,y,z
-x,-y,z
x,-y,-z
-x,y,-z
-x,-y,-z
x,y,-z
-x,y,z
x,-y,z
loop_
_atom_site_type_symbol
_atom_site_label
_atom_site_fract_x
_atom_site_fract_y
_atom_site_fract_z
Si Si1 0.105146 0.285029 0.168760
Si Si2 0.598702 0.930160 0.159949
Si Si3 0.898239 0.500000 0.330579
Si Si4 0.104871 0.169457 0.662762
Si Si5 0.767346 0.933917 0.332238
Si Si6 0.599705 0.566007 0.669768
Si Si7 0.788736 0.385502 0.670368
O O1 0.132417 0.221613 0.230724
O O2 0.169980 0.330985 0.246082
O O3 0.000000 0.299405 0.204125
O O4 0.123351 0.285647 0.000000
O O5 0.500000 0.906154 0.209345
O O6 0.675734 0.906802 0.265714
O O7 0.596895 0.000000 0.163140
O O8 0.620211 0.907679 0.000000
O O9 0.903851 0.500000 0.500000
O O10 0.844400 0.557350 0.278798
O O11 0.000000 0.500000 0.264836
O O12 0.132411 0.186821 0.500000
O O13 0.152322 0.109395 0.713124
O O14 0.000000 0.155199 0.673357
O O15 0.752583 0.935580 0.500000
O O16 0.788893 0.000000 0.274959
O O17 0.603191 0.562162 0.500000
O O18 0.500000 0.590535 0.718750
O O19 0.612889 0.500000 0.731338
O O20 0.683413 0.607007 0.719826
O O21 0.797333 0.375344 0.500000
#
# Coordination Sequence:
#
# PCOD8193605 Si02
#       7
#     8   8   4   8   8   8   8
#     4  10  21  35  49  66  90 122 159 197 236 277
#     4   8  14  25  41  62  90 124 157 184 215 264
#     4   9  16  24  38  66  98 121 147 187 228 267
#     4   9  18  33  51  69  91 122 158 191 226 276
#     4   9  17  28  45  72 100 121 146 187 239 286
#     4   8  13  23  42  70 100 124 151 190 231 271
#     4  10  17  28  48  72  95 123 157 191 231 276
#
# _framework density 16.608889000000001
#
# number of rings (size 3 to 8) (size 9 to 14) (size 15 to 20)
#    0.000    3.000    0.769    1.846    0.000    2.769 
#    0.000    3.462    0.000    2.769    0.000    7.538 
#    0.000    0.000    0.000    0.000    0.000    0.000 
#
# Total GULP energy -644435.748039 kJ/mol
# GULP energy per Si atom -12392.995155 kJ/mol
# Density = 1.657109 g / cm^3
# Si number density = 16.608889 Si / 1000 Ang^3
#
#
#
# Elastic Constant Matrix: (Units=GPa)
#
#
# Indices 1 2 3 4 5 6 
#
# 1 130.7695 73.2093 44.3205 0.0000 0.0000 0.0000
# 2 73.2093 95.7314 42.6554 0.0000 0.0000 0.0000
# 3 44.3205 42.6554 44.0951 0.0000 0.0000 0.0000
# 4 0.0000 0.0000 0.0000 8.3651 0.0000 0.0000
# 5 0.0000 0.0000 0.0000 0.0000 18.5208 0.0000
# 6 0.0000 0.0000 0.0000 0.0000 0.0000 13.9913
#
#
#
# Elastic Compliance Matrix: (Units=1/GPa)
#
#
# Indices 1 2 3 4 5 6 
#
# 1 0.014424 -0.008034 -0.006727 0.000000 0.000000 0.000000
# 2 -0.008034 0.022833 -0.014013 0.000000 0.000000 0.000000
# 3 -0.006727 -0.014013 0.042995 0.000000 0.000000 0.000000
# 4 0.000000 0.000000 0.000000 0.119544 0.000000 0.000000
# 5 0.000000 0.000000 0.000000 0.000000 0.053993 0.000000
# 6 0.000000 0.000000 0.000000 0.000000 0.000000 0.071473
#
#
# Mechanical properties :
#
#
# Convention : Reuss Voigt Hill
#
# Bulk Modulus (GPa) = 44.04192 65.66292 54.85242
# Shear Modulus (GPa) = 12.80806 15.53617 14.17211
#
# Velocity S-wave (km/s) = 2.77998 3.06177 2.92427
# Velocity P-wave (km/s) = 6.07281 7.21941 6.67079
#
# Compressibility (1/GPa) = 0.02270564
#
# Stress axis : x y z
#
# Youngs Moduli (GPa) = 69.32725 43.79553 23.25840
#
# Poissons Ratio (x) = 0.35183 0.15646
# Poissons Ratio (y) = 0.55694 0.32593
# Poissons Ratio (z) = 0.46635 0.61372
#
# Static dielectric constant tensor:
#      x y z
#    x 3.547490 0.000000 0.000000 
#    y 0.000000 2.993410 0.000000 
#    z 0.000000 0.000000 2.923050 
# 
# 
# High freq. dielectric constant tensor:
#      x y z
#    x 1.648770 0.000000 0.000000 
#    y 0.000000 1.613210 0.000000 
#    z 0.000000 0.000000 1.612540 
# 
# From -- ./inp_files/7658.got.cif
#   From: 2010.03.12/outbox.cif.g09.slc.cpg/sg47_4_cif.got.tgz:7658.got - 2010.04.14 03:12:58.
