data_PCOD8193490
_publ_section_title
;
Structure prediction by ZEFSAII (Michael W. Deem and Ramdas Pophale) SiO2 
 PCOD8193490
Probable space group: P M M M
;
_chemical_formula_sum "Si O2"
_cell_formula_units_Z 64
_cell_length_a 14.974366
_cell_length_b 14.207751
_cell_length_c 20.338454
_cell_angle_alpha 90.000000
_cell_angle_beta 90.000000
_cell_angle_gamma 90.000000
_cell_volume 4327.048057
_symmetry_space_group_name_H-M "P M M M"
_symmetry_group_IT_number 47
_symmetry_cell_setting 'orthorhombic'
loop_
_space_group_symop_operation_xyz
x,y,z
-x,-y,z
x,-y,-z
-x,y,-z
-x,-y,-z
x,y,-z
-x,y,z
x,-y,z
loop_
_atom_site_type_symbol
_atom_site_label
_atom_site_fract_x
_atom_site_fract_y
_atom_site_fract_z
Si Si1 0.100833 0.603701 0.256943
Si Si2 0.159765 0.892565 0.331625
Si Si3 0.772439 0.392752 0.620011
Si Si4 0.599571 0.301182 0.575796
Si Si5 0.095437 0.750145 0.429481
Si Si6 0.893990 0.893962 0.928254
Si Si7 0.673328 0.896225 0.574277
Si Si8 0.896240 0.799227 0.797870
O O1 0.111855 0.500000 0.224172
O O2 0.177485 0.617775 0.310803
O O3 0.114726 0.686052 0.203937
O O4 0.000000 0.612332 0.287317
O O5 0.092617 0.827731 0.372400
O O6 0.253391 0.883272 0.369104
O O7 0.162953 0.851200 0.257734
O O8 0.126280 0.000000 0.329463
O O9 0.773470 0.500000 0.595226
O O10 0.670358 0.355341 0.622388
O O11 0.825643 0.325943 0.570654
O O12 0.618234 0.328983 0.500000
O O13 0.500000 0.332890 0.596686
O O14 0.603224 0.187798 0.584584
O O15 0.103860 0.801984 0.500000
O O16 0.000000 0.697008 0.424080
O O17 0.857748 0.829381 0.868986
O O18 0.000000 0.891705 0.928384
O O19 0.859968 0.000000 0.916250
O O20 0.859307 0.858059 0.000000
O O21 0.714576 0.888685 0.500000
O O22 0.628310 0.000000 0.582496
O O23 0.000000 0.829177 0.788846
#
# Coordination Sequence:
#
# PCOD8193490 Si02
#       8
#     8   8   8   8   8   8   8   8
#     4   9  17  29  46  65  83 107 140 175 210 249
#     4  11  20  29  43  62  84 109 138 171 209 254
#     4  11  21  34  49  61  79 105 135 176 222 260
#     4  10  20  33  48  64  80  99 130 174 222 267
#     4  11  22  33  44  59  81 109 140 173 212 256
#     4   8  14  24  37  55  80 109 140 172 207 245
#     4   9  17  30  47  63  81 107 136 168 210 259
#     4  10  17  26  41  59  81 108 140 178 212 242
#
# _framework density 14.790684000000001
#
# number of rings (size 3 to 8) (size 9 to 14) (size 15 to 20)
#    0.000    2.125    2.500    2.250    0.000    4.500 
#    0.000    3.125    0.000    0.375    0.000    2.625 
#    0.000    0.000    0.000    0.000    0.000   10.000 
#
# Total GULP energy -792836.086798 kJ/mol
# GULP energy per Si atom -12388.063856 kJ/mol
# Density = 1.475702 g / cm^3
# Si number density = 14.790684 Si / 1000 Ang^3
#
#
#
# Elastic Constant Matrix: (Units=GPa)
#
#
# Indices 1 2 3 4 5 6 
#
# 1 70.5071 32.0779 22.3621 0.0000 0.0000 0.0000
# 2 32.0779 103.8440 50.3305 0.0000 0.0000 0.0000
# 3 22.3621 50.3305 104.1637 0.0000 0.0000 0.0000
# 4 0.0000 0.0000 0.0000 18.4197 0.0000 0.0000
# 5 0.0000 0.0000 0.0000 0.0000 6.9744 0.0000
# 6 0.0000 0.0000 0.0000 0.0000 0.0000 12.1107
#
#
#
# Elastic Compliance Matrix: (Units=1/GPa)
#
#
# Indices 1 2 3 4 5 6 
#
# 1 0.016662 -0.004457 -0.001423 0.000000 0.000000 0.000000
# 2 -0.004457 0.013767 -0.005695 0.000000 0.000000 0.000000
# 3 -0.001423 -0.005695 0.012658 0.000000 0.000000 0.000000
# 4 0.000000 0.000000 0.000000 0.054290 0.000000 0.000000
# 5 0.000000 0.000000 0.000000 0.000000 0.143381 0.000000
# 6 0.000000 0.000000 0.000000 0.000000 0.000000 0.082572
#
#
# Mechanical properties :
#
#
# Convention : Reuss Voigt Hill
#
# Bulk Modulus (GPa) = 50.16199 54.22844 52.19522
# Shear Modulus (GPa) = 14.15928 19.08393 16.62160
#
# Velocity S-wave (km/s) = 3.09740 3.59592 3.35593
# Velocity P-wave (km/s) = 6.83960 7.34741 7.09804
#
# Compressibility (1/GPa) = 0.01993541
#
# Stress axis : x y z
#
# Youngs Moduli (GPa) = 60.01585 72.63778 79.00342
#
# Poissons Ratio (x) = 0.32376 0.11246
# Poissons Ratio (y) = 0.26750 0.44994
# Poissons Ratio (z) = 0.08543 0.41368
#
# Static dielectric constant tensor:
#      x y z
#    x 2.617510 0.000000 0.000000 
#    y 0.000000 3.134060 0.000000 
#    z 0.000000 0.000000 2.826620 
# 
# 
# High freq. dielectric constant tensor:
#      x y z
#    x 1.530160 0.000000 0.000000 
#    y 0.000000 1.578330 0.000000 
#    z 0.000000 0.000000 1.531630 
# 
# From -- ./inp_files/28357.got.cif
#   From: 2010.03.12/outbox.cif.g09.slc.cpg/sg47_15_cif.got.tgz:28357.got - 2010.04.14 03:12:58.
