data_PCOD8193153
_publ_section_title
;
Structure prediction by ZEFSAII (Michael W. Deem and Ramdas Pophale) SiO2 
 PCOD8193153
Probable space group: I M A 2
;
_chemical_formula_sum "Si O2"
_cell_formula_units_Z 64
_cell_length_a 14.330717
_cell_length_b 9.548772
_cell_length_c 21.747612
_cell_angle_alpha 90.000000
_cell_angle_beta 90.000000
_cell_angle_gamma 90.000000
_cell_volume 2975.959520
_symmetry_space_group_name_H-M "I M A 2"
_symmetry_group_IT_number 46
_symmetry_cell_setting 'orthorhombic'
loop_
_space_group_symop_operation_xyz
x,y,z
-x,-y,z
1/2-x,y,z
1/2+x,-y,z
1/2+x,1/2+y,1/2+z
1/2-x,1/2-y,1/2+z
-x,1/2+y,1/2+z
x,1/2-y,1/2+z
loop_
_atom_site_type_symbol
_atom_site_label
_atom_site_fract_x
_atom_site_fract_y
_atom_site_fract_z
Si Si1 0.902761 0.563258 0.364330
Si Si2 0.639172 0.420186 0.004879
Si Si3 0.644983 0.894232 0.063660
Si Si4 0.644800 0.699058 0.950056
Si Si5 0.515251 0.842663 0.177705
Si Si6 0.855468 0.375282 0.474478
Si Si7 0.353365 0.125562 0.731992
Si Si8 0.140358 0.628947 0.144504
O O1 0.915039 0.709754 0.401420
O O2 0.855180 0.449158 0.408535
O O3 0.843226 0.581646 0.303042
O O4 0.000000 0.500000 0.343243
O O5 0.750000 0.432594 0.998322
O O6 0.611453 0.424191 0.076695
O O7 0.597265 0.548141 0.964342
O O8 0.596508 0.277526 0.974964
O O9 0.750000 0.925303 0.088333
O O10 0.577492 0.850204 0.117391
O O11 0.650215 0.767941 0.016511
O O12 0.600083 0.028092 0.027894
O O13 0.750000 0.688373 0.922657
O O14 0.573047 0.752366 0.227336
O O15 0.416436 0.769167 0.162691
O O16 0.500000 0.000000 0.203889
O O17 0.750000 0.350795 0.495181
O O18 0.250000 0.172224 0.709613
O O19 0.387587 0.994940 0.691069
O O20 0.250000 0.666852 0.148649
#
# Coordination Sequence:
#
# PCOD8193153 Si02
#       8
#     8   8   8   8   8   8   8   8
#     4  11  22  38  59  83 113 150 198 246 291 351
#     4   9  17  32  56  86 119 152 190 239 295 352
#     4   9  18  34  56  85 123 165 204 240 289 358
#     4   9  18  34  56  83 115 151 192 238 292 349
#     4  12  24  37  60  92 125 155 196 253 311 367
#     4   9  18  34  57  85 118 156 197 241 295 357
#     4  11  24  45  68  85 111 158 211 254 298 360
#     4  10  22  40  62  89 124 165 205 249 301 364
#
# _framework density 21.505669000000001
#
# number of rings (size 3 to 8) (size 9 to 14) (size 15 to 20)
#    0.000    2.000    0.000    4.875    0.000    8.000 
#    0.000    4.375    0.000    1.500    0.000    0.000 
#    0.000    0.000    0.000    0.000    0.000    0.000 
#
# Total GULP energy -396663.819601 kJ/mol
# GULP energy per Si atom -12395.744363 kJ/mol
# Density = 2.145672 g / cm^3
# Si number density = 21.505669 Si / 1000 Ang^3
#
#
#
# Elastic Constant Matrix: (Units=GPa)
#
#
# Indices 1 2 3 4 5 6 
#
# 1 71.2967 42.5885 16.0492 0.0000 0.0000 0.0000
# 2 42.5885 173.2115 60.5060 0.0000 0.0000 0.0000
# 3 16.0492 60.5060 113.7246 0.0000 0.0000 0.0000
# 4 0.0000 0.0000 0.0000 19.4950 0.0000 0.0000
# 5 0.0000 0.0000 0.0000 0.0000 14.5247 0.0000
# 6 0.0000 0.0000 0.0000 0.0000 0.0000 30.6395
#
#
#
# Elastic Compliance Matrix: (Units=1/GPa)
#
#
# Indices 1 2 3 4 5 6 
#
# 1 0.016445 -0.003971 -0.000208 0.000000 0.000000 0.000000
# 2 -0.003971 0.008050 -0.003723 0.000000 0.000000 0.000000
# 3 -0.000208 -0.003723 0.010803 0.000000 0.000000 0.000000
# 4 0.000000 0.000000 0.000000 0.051295 0.000000 0.000000
# 5 0.000000 0.000000 0.000000 0.000000 0.068848 0.000000
# 6 0.000000 0.000000 0.000000 0.000000 0.000000 0.032638
#
#
# Mechanical properties :
#
#
# Convention : Reuss Voigt Hill
#
# Bulk Modulus (GPa) = 51.29543 66.28003 58.78773
# Shear Modulus (GPa) = 23.76654 28.87111 26.31882
#
# Velocity S-wave (km/s) = 3.32795 3.66797 3.50209
# Velocity P-wave (km/s) = 6.21859 6.98752 6.61424
#
# Compressibility (1/GPa) = 0.01949491
#
# Stress axis : x y z
#
# Youngs Moduli (GPa) = 60.81045 124.22506 92.56614
#
# Poissons Ratio (x) = 0.49325 0.01927
# Poissons Ratio (y) = 0.24145 0.34458
# Poissons Ratio (z) = 0.01266 0.46243
#
# Static dielectric constant tensor:
#      x y z
#    x 3.879750 0.000000 0.000000 
#    y 0.000000 4.334700 0.000000 
#    z 0.000000 0.000000 3.559860 
# 
# 
# High freq. dielectric constant tensor:
#      x y z
#    x 1.845810 0.000000 0.000000 
#    y 0.000000 1.850570 0.000000 
#    z 0.000000 0.000000 1.817080 
# 
# From -- ./inp_files/23662.got.cif
#   From: 2010.03.12/outbox.cif.g09.slc.cpg/sg46_12_cif.got.tgz:23662.got - 2010.04.14 02:56:35.
