data_PCOD8193081
_publ_section_title
;
Structure prediction by ZEFSAII (Michael W. Deem and Ramdas Pophale) SiO2 
 PCOD8193081
Probable space group: I M A 2
;
_chemical_formula_sum "Si O2"
_cell_formula_units_Z 32
_cell_length_a 21.422368
_cell_length_b 6.899696
_cell_length_c 9.383754
_cell_angle_alpha 90.000000
_cell_angle_beta 90.000000
_cell_angle_gamma 90.000000
_cell_volume 1386.992286
_symmetry_space_group_name_H-M "I M A 2"
_symmetry_group_IT_number 46
_symmetry_cell_setting 'orthorhombic'
loop_
_space_group_symop_operation_xyz
x,y,z
-x,-y,z
1/2-x,y,z
1/2+x,-y,z
1/2+x,1/2+y,1/2+z
1/2-x,1/2-y,1/2+z
-x,1/2+y,1/2+z
x,1/2-y,1/2+z
loop_
_atom_site_type_symbol
_atom_site_label
_atom_site_fract_x
_atom_site_fract_y
_atom_site_fract_z
Si Si1 0.086615 0.672347 0.246660
Si Si2 0.494454 0.773838 0.004761
Si Si3 0.321626 0.007047 0.174152
Si Si4 0.126471 0.295362 0.395437
O O1 0.059850 0.763079 0.390902
O O2 0.115265 0.462201 0.277773
O O3 0.138192 0.811140 0.176738
O O4 0.026884 0.652866 0.142153
O O5 0.561262 0.700412 0.948083
O O6 0.500000 0.000000 0.044910
O O7 0.250000 0.943384 0.172880
O O8 0.334106 0.131175 0.316243
O O9 0.335969 0.125731 0.030907
#
# Coordination Sequence:
#
# PCOD8193081 Si02
#       4
#     8   8   8   8
#     4  11  23  46  68 104 137 184 229 294 357 416
#     4  10  21  42  69 103 137 170 234 289 358 409
#     4  12  27  47  69 102 145 193 241 281 345 431
#     4  11  26  46  71 105 140 186 239 297 356 417
#
# _framework density 23.071504999999998
#
# number of rings (size 3 to 8) (size 9 to 14) (size 15 to 20)
#    0.000    1.000    5.000    2.250    3.500    2.000 
#    0.000    0.000    0.000    0.000    0.000    0.000 
#    0.000    0.000    0.000    0.000    0.000    0.000 
#
# Total GULP energy -198440.274694 kJ/mol
# GULP energy per Si atom -12402.517168 kJ/mol
# Density = 2.301899 g / cm^3
# Si number density = 23.071505 Si / 1000 Ang^3
#
#
#
# Elastic Constant Matrix: (Units=GPa)
#
#
# Indices 1 2 3 4 5 6 
#
# 1 136.4874 36.9607 30.7688 0.0000 0.0000 0.0000
# 2 36.9607 68.0679 29.8879 0.0000 0.0000 0.0000
# 3 30.7688 29.8879 97.5918 0.0000 0.0000 0.0000
# 4 0.0000 0.0000 0.0000 39.9084 0.0000 0.0000
# 5 0.0000 0.0000 0.0000 0.0000 29.9624 0.0000
# 6 0.0000 0.0000 0.0000 0.0000 0.0000 29.0102
#
#
#
# Elastic Compliance Matrix: (Units=1/GPa)
#
#
# Indices 1 2 3 4 5 6 
#
# 1 0.008778 -0.004103 -0.001511 0.000000 0.000000 0.000000
# 2 -0.004103 0.018892 -0.004492 0.000000 0.000000 0.000000
# 3 -0.001511 -0.004492 0.012099 0.000000 0.000000 0.000000
# 4 0.000000 0.000000 0.000000 0.025057 0.000000 0.000000
# 5 0.000000 0.000000 0.000000 0.000000 0.033375 0.000000
# 6 0.000000 0.000000 0.000000 0.000000 0.000000 0.034471
#
#
# Mechanical properties :
#
#
# Convention : Reuss Voigt Hill
#
# Bulk Modulus (GPa) = 51.13397 55.26465 53.19931
# Shear Modulus (GPa) = 31.36697 33.41153 32.38925
#
# Velocity S-wave (km/s) = 3.69121 3.80962 3.75088
# Velocity P-wave (km/s) = 6.35438 6.58457 6.47050
#
# Compressibility (1/GPa) = 0.01955647
#
# Stress axis : x y z
#
# Youngs Moduli (GPa) = 113.91511 52.93354 82.65239
#
# Poissons Ratio (x) = 0.21720 0.12489
# Poissons Ratio (y) = 0.46742 0.37127
# Poissons Ratio (z) = 0.17213 0.23778
#
# Static dielectric constant tensor:
#      x y z
#    x 4.297260 0.000000 0.000000 
#    y 0.000000 3.990800 0.000000 
#    z 0.000000 0.000000 4.265090 
# 
# 
# High freq. dielectric constant tensor:
#      x y z
#    x 1.902750 0.000000 0.000000 
#    y 0.000000 1.908550 0.000000 
#    z 0.000000 0.000000 1.928060 
# 
# From -- ./inp_files/7093.got.cif
#   From: 2010.03.12/outbox.cif.g09.slc.cpg/sg46_4_cif.got.tgz:7093.got - 2010.04.14 02:56:35.
