data_PCOD8193121
_publ_section_title
;
Structure prediction by ZEFSAII (Michael W. Deem and Ramdas Pophale) SiO2 
 PCOD8193121
Probable space group: I M A 2
;
_chemical_formula_sum "Si O2"
_cell_formula_units_Z 56
_cell_length_a 20.394626
_cell_length_b 13.256636
_cell_length_c 9.740381
_cell_angle_alpha 90.000000
_cell_angle_beta 90.000000
_cell_angle_gamma 90.000000
_cell_volume 2633.449666
_symmetry_space_group_name_H-M "I M A 2"
_symmetry_group_IT_number 46
_symmetry_cell_setting 'orthorhombic'
loop_
_space_group_symop_operation_xyz
x,y,z
-x,-y,z
1/2-x,y,z
1/2+x,-y,z
1/2+x,1/2+y,1/2+z
1/2-x,1/2-y,1/2+z
-x,1/2+y,1/2+z
x,1/2-y,1/2+z
loop_
_atom_site_type_symbol
_atom_site_label
_atom_site_fract_x
_atom_site_fract_y
_atom_site_fract_z
Si Si1 0.924584 0.517400 0.326520
Si Si2 0.388953 0.344702 0.087717
Si Si3 0.883995 0.608383 0.603573
Si Si4 0.070895 0.025990 0.360111
Si Si5 0.675448 0.354591 0.931338
Si Si6 0.750000 0.669546 0.028545
Si Si7 0.824995 0.341341 0.249318
Si Si8 0.250000 0.135764 0.207012
O O1 0.929124 0.590621 0.196425
O O2 0.887526 0.575489 0.447552
O O3 0.881440 0.418939 0.295915
O O4 0.000000 0.500000 0.369723
O O5 0.395875 0.227314 0.117686
O O6 0.412710 0.368067 0.934193
O O7 0.313601 0.385115 0.090782
O O8 0.935856 0.548353 0.697537
O O9 0.815636 0.572946 0.675646
O O10 0.123653 0.941156 0.397974
O O11 0.000000 0.000000 0.418225
O O12 0.750000 0.395972 0.908582
O O13 0.661249 0.260934 0.831947
O O14 0.666492 0.318320 0.088108
O O15 0.750000 0.677270 0.862582
O O16 0.750000 0.782085 0.085740
O O17 0.750000 0.379388 0.279558
#
# Coordination Sequence:
#
# PCOD8193121 Si02
#       8
#     8   8   8   8   8   4   8   4
#     4  12  27  46  67 104 139 181 235 284 346 416
#     4  11  24  43  70  98 141 180 222 275 350 419
#     4  11  26  43  68 101 141 179 222 279 346 416
#     4  12  25  44  67 102 133 182 232 280 348 413
#     4  10  24  45  72  98 133 177 232 288 338 399
#     4  10  22  38  66 100 135 172 225 269 335 422
#     4  10  24  46  71 100 131 179 233 285 341 395
#     4  10  22  40  64 102 131 176 225 267 341 414
#
# _framework density 21.264883999999999
#
# number of rings (size 3 to 8) (size 9 to 14) (size 15 to 20)
#    0.000    1.143    2.857    1.714   12.000    2.286 
#    0.000    0.000    0.000    0.000    0.000    0.000 
#    0.000    0.000    0.000    0.000    0.000    0.000 
#
# Total GULP energy -347064.926318 kJ/mol
# GULP energy per Si atom -12395.175940 kJ/mol
# Density = 2.121648 g / cm^3
# Si number density = 21.264884 Si / 1000 Ang^3
#
#
#
# Elastic Constant Matrix: (Units=GPa)
#
#
# Indices 1 2 3 4 5 6 
#
# 1 120.6359 61.2283 30.5510 0.0000 0.0000 0.0000
# 2 61.2283 92.8035 45.2011 0.0000 0.0000 0.0000
# 3 30.5510 45.2011 107.4108 0.0000 0.0000 0.0000
# 4 0.0000 0.0000 0.0000 44.2111 0.0000 0.0000
# 5 0.0000 0.0000 0.0000 0.0000 29.4677 0.0000
# 6 0.0000 0.0000 0.0000 0.0000 0.0000 17.5214
#
#
#
# Elastic Compliance Matrix: (Units=1/GPa)
#
#
# Indices 1 2 3 4 5 6 
#
# 1 0.012464 -0.008171 -0.000106 0.000000 0.000000 0.000000
# 2 -0.008171 0.018911 -0.005634 0.000000 0.000000 0.000000
# 3 -0.000106 -0.005634 0.011711 0.000000 0.000000 0.000000
# 4 0.000000 0.000000 0.000000 0.022619 0.000000 0.000000
# 5 0.000000 0.000000 0.000000 0.000000 0.033935 0.000000
# 6 0.000000 0.000000 0.000000 0.000000 0.000000 0.057073
#
#
# Mechanical properties :
#
#
# Convention : Reuss Voigt Hill
#
# Bulk Modulus (GPa) = 65.52052 66.09011 65.80531
# Shear Modulus (GPa) = 26.36809 30.49802 28.43305
#
# Velocity S-wave (km/s) = 3.52516 3.79119 3.66059
# Velocity P-wave (km/s) = 6.88821 7.09303 6.99137
#
# Compressibility (1/GPa) = 0.01526240
#
# Stress axis : x y z
#
# Youngs Moduli (GPa) = 80.23348 52.88051 85.38840
#
# Poissons Ratio (x) = 0.43210 0.00909
# Poissons Ratio (y) = 0.65560 0.48107
# Poissons Ratio (z) = 0.00854 0.29792
#
# Static dielectric constant tensor:
#      x y z
#    x 4.250080 0.000000 0.000000 
#    y 0.000000 3.614950 0.000000 
#    z 0.000000 0.000000 3.949840 
# 
# 
# High freq. dielectric constant tensor:
#      x y z
#    x 1.843250 0.000000 0.000000 
#    y 0.000000 1.820500 0.000000 
#    z 0.000000 0.000000 1.852840 
# 
# From -- ./inp_files/7448.got.cif
#   From: 2010.03.12/outbox.cif.g09.slc.cpg/sg46_4_cif.got.tgz:7448.got - 2010.04.14 02:56:35.
