data_PCOD8193694
_publ_section_title
;
Structure prediction by ZEFSAII (Michael W. Deem and Ramdas Pophale) SiO2 
 PCOD8193694
Probable space group: P M M M
;
_chemical_formula_sum "Si O2"
_cell_formula_units_Z 64
_cell_length_a 18.453307
_cell_length_b 9.361444
_cell_length_c 26.237543
_cell_angle_alpha 90.000000
_cell_angle_beta 90.000000
_cell_angle_gamma 90.000000
_cell_volume 4532.525061
_symmetry_space_group_name_H-M "P M M M"
_symmetry_group_IT_number 47
_symmetry_cell_setting 'orthorhombic'
loop_
_space_group_symop_operation_xyz
x,y,z
-x,-y,z
x,-y,-z
-x,y,-z
-x,-y,-z
x,y,-z
-x,y,z
x,-y,z
loop_
_atom_site_type_symbol
_atom_site_label
_atom_site_fract_x
_atom_site_fract_y
_atom_site_fract_z
Si Si1 0.164005 0.663723 0.058020
Si Si2 0.917612 0.832570 0.857025
Si Si3 0.582689 0.666408 0.651275
Si Si4 0.582516 0.166445 0.158116
Si Si5 0.586093 0.839044 0.444174
Si Si6 0.213217 0.842187 0.794414
Si Si7 0.662543 0.331384 0.754253
Si Si8 0.712619 0.156984 0.096147
O O1 0.167629 0.500000 0.076009
O O2 0.107081 0.747261 0.092914
O O3 0.245274 0.728743 0.061695
O O4 0.136983 0.675973 0.000000
O O5 0.869265 0.791999 0.807158
O O6 0.000000 0.792130 0.844079
O O7 0.908157 0.000000 0.869545
O O8 0.500000 0.716115 0.662147
O O9 0.585158 0.500000 0.640259
O O10 0.616632 0.741517 0.601321
O O11 0.632136 0.708613 0.698955
O O12 0.500000 0.204986 0.145485
O O13 0.608680 0.262250 0.204997
O O14 0.628786 0.200481 0.106628
O O15 0.592224 0.000000 0.173313
O O16 0.613856 0.786078 0.500000
O O17 0.500000 0.832001 0.443731
O O18 0.612976 0.000000 0.434641
O O19 0.255678 0.731453 0.758222
O O20 0.252233 0.848590 0.848410
O O21 0.213695 0.000000 0.768963
O O22 0.665243 0.500000 0.763648
O O23 0.717675 0.000000 0.070266
#
# Coordination Sequence:
#
# PCOD8193694 Si02
#       8
#     8   8   8   8   8   8   8   8
#     4  10  20  31  43  61  83 103 122 147 180 216
#     4   9  18  32  48  64  81 101 125 151 177 210
#     4   9  17  26  34  48  72 100 130 164 198 229
#     4   9  17  28  41  57  76  96 120 154 194 230
#     4   8  14  24  36  49  65  88 123 166 206 240
#     4   8  15  28  43  58  76  98 124 151 180 217
#     4  10  18  26  37  55  79 103 128 157 188 225
#     4   8  15  28  44  59  74  96 126 154 180 218
#
# _framework density 14.120164000000001
#
# number of rings (size 3 to 8) (size 9 to 14) (size 15 to 20)
#    0.000    3.125    0.000    3.000    0.000    8.000 
#    0.000    3.750    0.000    0.375    0.000    2.625 
#    0.000    0.000    0.000    0.000    0.000    0.625 
#
# Total GULP energy -793124.862182 kJ/mol
# GULP energy per Si atom -12392.575972 kJ/mol
# Density = 1.408803 g / cm^3
# Si number density = 14.120164 Si / 1000 Ang^3
#
#
#
# Elastic Constant Matrix: (Units=GPa)
#
#
# Indices 1 2 3 4 5 6 
#
# 1 101.4364 38.4725 36.2252 0.0000 0.0000 0.0000
# 2 38.4725 63.7918 35.1233 0.0000 0.0000 0.0000
# 3 36.2252 35.1233 55.2843 0.0000 0.0000 0.0000
# 4 0.0000 0.0000 0.0000 22.0486 0.0000 0.0000
# 5 0.0000 0.0000 0.0000 0.0000 11.5344 0.0000
# 6 0.0000 0.0000 0.0000 0.0000 0.0000 14.8196
#
#
#
# Elastic Compliance Matrix: (Units=1/GPa)
#
#
# Indices 1 2 3 4 5 6 
#
# 1 0.013901 -0.005181 -0.005817 0.000000 0.000000 0.000000
# 2 -0.005181 0.026040 -0.013149 0.000000 0.000000 0.000000
# 3 -0.005817 -0.013149 0.030254 0.000000 0.000000 0.000000
# 4 0.000000 0.000000 0.000000 0.045354 0.000000 0.000000
# 5 0.000000 0.000000 0.000000 0.000000 0.086697 0.000000
# 6 0.000000 0.000000 0.000000 0.000000 0.000000 0.067478
#
#
# Mechanical properties :
#
#
# Convention : Reuss Voigt Hill
#
# Bulk Modulus (GPa) = 45.66017 48.90605 47.28311
# Shear Modulus (GPa) = 15.36952 17.05996 16.21474
#
# Velocity S-wave (km/s) = 3.30279 3.47969 3.39239
# Velocity P-wave (km/s) = 6.85213 7.13128 6.99309
#
# Compressibility (1/GPa) = 0.02190093
#
# Stress axis : x y z
#
# Youngs Moduli (GPa) = 71.93885 38.40194 33.05330
#
# Poissons Ratio (x) = 0.19894 0.19228
# Poissons Ratio (y) = 0.37268 0.43463
# Poissons Ratio (z) = 0.41848 0.50496
#
# Static dielectric constant tensor:
#      x y z
#    x 3.020130 0.000000 0.000000 
#    y 0.000000 2.845020 0.000000 
#    z 0.000000 0.000000 2.702740 
# 
# 
# High freq. dielectric constant tensor:
#      x y z
#    x 1.516390 0.000000 0.000000 
#    y 0.000000 1.544700 0.000000 
#    z 0.000000 0.000000 1.507350 
# 
# From -- ./inp_files/31576.got.cif
#   From: 2010.03.12/outbox.cif.g09.slc.cpg/sg47_16_cif.got.tgz:31576.got - 2010.04.14 03:12:58.
