data_PCOD8193260
_publ_section_title
;
Structure prediction by ZEFSAII (Michael W. Deem and Ramdas Pophale) SiO2 
 PCOD8193260
Probable space group: I M A 2
;
_chemical_formula_sum "Si O2"
_cell_formula_units_Z 36
_cell_length_a 12.350932
_cell_length_b 9.676247
_cell_length_c 14.409906
_cell_angle_alpha 90.000000
_cell_angle_beta 90.000000
_cell_angle_gamma 90.000000
_cell_volume 1722.137502
_symmetry_space_group_name_H-M "I M A 2"
_symmetry_group_IT_number 46
_symmetry_cell_setting 'orthorhombic'
loop_
_space_group_symop_operation_xyz
x,y,z
-x,-y,z
1/2-x,y,z
1/2+x,-y,z
1/2+x,1/2+y,1/2+z
1/2-x,1/2-y,1/2+z
-x,1/2+y,1/2+z
x,1/2-y,1/2+z
loop_
_atom_site_type_symbol
_atom_site_label
_atom_site_fract_x
_atom_site_fract_y
_atom_site_fract_z
Si Si1 0.629902 0.253846 0.714650
Si Si2 0.750000 0.767269 0.860505
Si Si3 0.478237 0.347081 0.375007
Si Si4 0.977825 0.841530 0.554368
Si Si5 0.250000 0.482138 0.730312
Si Si6 0.750000 0.751829 0.078752
O O1 0.750000 0.186473 0.707781
O O2 0.569187 0.186696 0.800565
O O3 0.567155 0.225065 0.620170
O O4 0.642817 0.420054 0.729325
O O5 0.860064 0.840261 0.824688
O O6 0.750000 0.609249 0.823816
O O7 0.750000 0.784179 0.970508
O O8 0.500000 0.500000 0.414241
O O9 0.483120 0.238341 0.457711
O O10 0.859304 0.832063 0.602436
O O11 0.000000 0.000000 0.533414
O O12 0.250000 0.392109 0.637270
#
# Coordination Sequence:
#
# PCOD8193260 Si02
#       6
#     8   4   8   8   4   4
#     4  10  26  43  72 100 137 185 231 278 343 418
#     4  10  24  41  68 104 139 173 233 287 342 397
#     4  11  26  45  73 101 143 182 231 291 346 413
#     4  11  26  45  73 101 143 182 231 291 346 413
#     4  10  24  44  72 104 136 186 226 288 336 430
#     4  10  24  41  68 104 139 173 233 287 342 397
#
# _framework density 20.904253000000001
#
# number of rings (size 3 to 8) (size 9 to 14) (size 15 to 20)
#    0.667    0.889    0.000    2.000   15.556    2.667 
#    0.000    0.000    0.000    0.000    0.000    0.000 
#    0.000    0.000    0.000    0.000    0.000    0.000 
#
# Total GULP energy -223125.855303 kJ/mol
# GULP energy per Si atom -12395.880850 kJ/mol
# Density = 2.085667 g / cm^3
# Si number density = 20.904253 Si / 1000 Ang^3
#
#
#
# Elastic Constant Matrix: (Units=GPa)
#
#
# Indices 1 2 3 4 5 6 
#
# 1 189.4753 42.1459 31.6999 0.0000 0.0000 0.0000
# 2 42.1459 133.6819 12.3836 0.0000 0.0000 0.0000
# 3 31.6999 12.3836 74.6802 0.0000 0.0000 0.0000
# 4 0.0000 0.0000 0.0000 47.0655 0.0000 0.0000
# 5 0.0000 0.0000 0.0000 0.0000 45.4175 0.0000
# 6 0.0000 0.0000 0.0000 0.0000 0.0000 35.1072
#
#
#
# Elastic Compliance Matrix: (Units=1/GPa)
#
#
# Indices 1 2 3 4 5 6 
#
# 1 0.006036 -0.001692 -0.002282 0.000000 0.000000 0.000000
# 2 -0.001692 0.008071 -0.000620 0.000000 0.000000 0.000000
# 3 -0.002282 -0.000620 0.014462 0.000000 0.000000 0.000000
# 4 0.000000 0.000000 0.000000 0.021247 0.000000 0.000000
# 5 0.000000 0.000000 0.000000 0.000000 0.022018 0.000000
# 6 0.000000 0.000000 0.000000 0.000000 0.000000 0.028484
#
#
# Mechanical properties :
#
#
# Convention : Reuss Voigt Hill
#
# Bulk Modulus (GPa) = 51.59470 63.36623 57.48046
# Shear Modulus (GPa) = 43.11638 46.29189 44.70414
#
# Velocity S-wave (km/s) = 4.54647 4.71092 4.62943
# Velocity P-wave (km/s) = 7.23157 7.74395 7.49214
#
# Compressibility (1/GPa) = 0.01938184
#
# Stress axis : x y z
#
# Youngs Moduli (GPa) = 165.68106 123.89729 69.14789
#
# Poissons Ratio (x) = 0.20958 0.15776
# Poissons Ratio (y) = 0.28025 0.04290
# Poissons Ratio (z) = 0.37800 0.07686
#
# Static dielectric constant tensor:
#      x y z
#    x 4.477810 0.000000 0.000000 
#    y 0.000000 3.670160 0.000000 
#    z 0.000000 0.000000 3.617690 
# 
# 
# High freq. dielectric constant tensor:
#      x y z
#    x 1.839800 0.000000 0.000000 
#    y 0.000000 1.815120 0.000000 
#    z 0.000000 0.000000 1.819770 
# 
# From -- ./inp_files/15649.got.cif
#   From: 2010.03.12/outbox.cif.g09.slc.cpg/sg46_8_cif.got.tgz:15649.got - 2010.04.14 02:56:35.
