data_PCOD8193166
_publ_section_title
;
Structure prediction by ZEFSAII (Michael W. Deem and Ramdas Pophale) SiO2 
 PCOD8193166
Probable space group: I M A 2
;
_chemical_formula_sum "Si O2"
_cell_formula_units_Z 48
_cell_length_a 14.861072
_cell_length_b 11.316897
_cell_length_c 13.708780
_cell_angle_alpha 90.000000
_cell_angle_beta 90.000000
_cell_angle_gamma 90.000000
_cell_volume 2305.559361
_symmetry_space_group_name_H-M "I M A 2"
_symmetry_group_IT_number 46
_symmetry_cell_setting 'orthorhombic'
loop_
_space_group_symop_operation_xyz
x,y,z
-x,-y,z
1/2-x,y,z
1/2+x,-y,z
1/2+x,1/2+y,1/2+z
1/2-x,1/2-y,1/2+z
-x,1/2+y,1/2+z
x,1/2-y,1/2+z
loop_
_atom_site_type_symbol
_atom_site_label
_atom_site_fract_x
_atom_site_fract_y
_atom_site_fract_z
Si Si1 0.098538 0.531175 0.420120
Si Si2 0.148392 0.113501 0.209695
Si Si3 0.516859 0.864955 0.383409
Si Si4 0.351535 0.736610 0.298194
Si Si5 0.650200 0.786191 0.001025
Si Si6 0.852578 0.368192 0.614978
O O1 0.145893 0.599148 0.330062
O O2 0.151283 0.411691 0.444479
O O3 0.089519 0.616841 0.516355
O O4 0.000000 0.500000 0.383267
O O5 0.250000 0.130287 0.249501
O O6 0.076628 0.155845 0.287812
O O7 0.129113 0.976537 0.188139
O O8 0.132553 0.191705 0.114499
O O9 0.419948 0.805452 0.368691
O O10 0.571860 0.802588 0.469733
O O11 0.500000 0.000000 0.411887
O O12 0.250000 0.786121 0.314133
O O13 0.375905 0.753611 0.182331
O O14 0.750000 0.731249 0.985084
O O15 0.750000 0.367021 0.577688
#
# Coordination Sequence:
#
# PCOD8193166 Si02
#       6
#     8   8   8   8   8   8
#     4  11  21  38  64  93 120 164 212 266 312 366
#     4   9  19  37  62  90 119 156 206 258 306 367
#     4  12  23  36  63  94 125 166 206 261 314 375
#     4  11  23  37  57  90 129 164 205 257 315 370
#     4  10  22  40  65  94 124 164 212 261 314 373
#     4   9  19  35  59  89 119 159 203 253 307 367
#
# _framework density 20.819244000000001
#
# number of rings (size 3 to 8) (size 9 to 14) (size 15 to 20)
#    0.000    1.667    3.333    3.000    4.667    0.667 
#    0.000    0.000    7.333    0.000    0.000    0.000 
#    0.000    0.000    0.000    0.000    0.000    0.000 
#
# Total GULP energy -297522.552563 kJ/mol
# GULP energy per Si atom -12396.773023 kJ/mol
# Density = 2.077186 g / cm^3
# Si number density = 20.819244 Si / 1000 Ang^3
#
#
#
# Elastic Constant Matrix: (Units=GPa)
#
#
# Indices 1 2 3 4 5 6 
#
# 1 111.2238 34.4692 33.6928 0.0000 0.0000 0.0000
# 2 34.4692 85.7615 43.6016 0.0000 0.0000 0.0000
# 3 33.6928 43.6016 72.2408 0.0000 0.0000 0.0000
# 4 0.0000 0.0000 0.0000 34.9986 0.0000 0.0000
# 5 0.0000 0.0000 0.0000 0.0000 25.3824 0.0000
# 6 0.0000 0.0000 0.0000 0.0000 0.0000 30.6038
#
#
#
# Elastic Compliance Matrix: (Units=1/GPa)
#
#
# Indices 1 2 3 4 5 6 
#
# 1 0.010852 -0.002580 -0.003504 0.000000 0.000000 0.000000
# 2 -0.002580 0.017436 -0.009320 0.000000 0.000000 0.000000
# 3 -0.003504 -0.009320 0.021102 0.000000 0.000000 0.000000
# 4 0.000000 0.000000 0.000000 0.028573 0.000000 0.000000
# 5 0.000000 0.000000 0.000000 0.000000 0.039397 0.000000
# 6 0.000000 0.000000 0.000000 0.000000 0.000000 0.032676
#
#
# Mechanical properties :
#
#
# Convention : Reuss Voigt Hill
#
# Bulk Modulus (GPa) = 53.81793 54.75036 54.28415
# Shear Modulus (GPa) = 26.73261 28.69446 27.71353
#
# Velocity S-wave (km/s) = 3.58723 3.71653 3.65245
# Velocity P-wave (km/s) = 6.56230 6.69118 6.62705
#
# Compressibility (1/GPa) = 0.01858117
#
# Stress axis : x y z
#
# Youngs Moduli (GPa) = 92.14930 57.35388 47.38873
#
# Poissons Ratio (x) = 0.14798 0.16605
# Poissons Ratio (y) = 0.23776 0.44167
# Poissons Ratio (z) = 0.32289 0.53454
#
# Static dielectric constant tensor:
#      x y z
#    x 3.941080 0.000000 0.000000 
#    y 0.000000 3.651710 0.000000 
#    z 0.000000 0.000000 3.609430 
# 
# 
# High freq. dielectric constant tensor:
#      x y z
#    x 1.834670 0.000000 0.000000 
#    y 0.000000 1.785920 0.000000 
#    z 0.000000 0.000000 1.797150 
# 
# From -- ./inp_files/15849.got.cif
#   From: 2010.03.12/outbox.cif.g09.slc.cpg/sg46_8_cif.got.tgz:15849.got - 2010.04.14 02:56:35.
