data_PCOD8193929
_publ_section_title
;
Structure prediction by ZEFSAII (Michael W. Deem and Ramdas Pophale) SiO2 
 PCOD8193929
Probable space group: P M M M
;
_chemical_formula_sum "Si O2"
_cell_formula_units_Z 32
_cell_length_a 11.740679
_cell_length_b 19.367021
_cell_length_c 7.777621
_cell_angle_alpha 90.000000
_cell_angle_beta 90.000000
_cell_angle_gamma 90.000000
_cell_volume 1768.490837
_symmetry_space_group_name_H-M "P M M M"
_symmetry_group_IT_number 47
_symmetry_cell_setting 'orthorhombic'
loop_
_space_group_symop_operation_xyz
x,y,z
-x,-y,z
x,-y,-z
-x,y,-z
-x,-y,-z
x,y,-z
-x,y,z
x,-y,z
loop_
_atom_site_type_symbol
_atom_site_label
_atom_site_fract_x
_atom_site_fract_y
_atom_site_fract_z
Si Si1 0.500000 0.076151 0.203416
Si Si2 0.134597 0.920537 0.500000
Si Si3 0.365470 0.574085 0.803433
Si Si4 0.269448 0.853765 0.803015
Si Si5 0.629417 0.279995 0.304818
O O1 0.388005 0.115237 0.266890
O O2 0.500000 0.000000 0.284798
O O3 0.500000 0.072630 0.000000
O O4 0.173615 0.881540 0.673864
O O5 0.000000 0.917836 0.500000
O O6 0.177915 0.000000 0.500000
O O7 0.500000 0.571811 0.783453
O O8 0.317392 0.500000 0.731447
O O9 0.320075 0.641917 0.705048
O O10 0.328572 0.581844 0.000000
O O11 0.285731 0.770823 0.797835
O O12 0.239866 0.875766 0.000000
O O13 0.628454 0.255397 0.500000
O O14 0.500000 0.276995 0.228156
#
# Coordination Sequence:
#
# PCOD8193929 Si02
#       5
#     4   4   8   8   8
#     4   9  18  31  51  81 109 135 168 208 261 326
#     4  11  26  45  61  79 104 136 180 230 273 320
#     4   8  14  24  38  59  94 143 189 220 250 299
#     4  11  21  36  58  82 110 142 176 217 268 324
#     4  10  18  28  45  73 109 145 180 218 264 317
#
# _framework density 18.094522999999999
#
# number of rings (size 3 to 8) (size 9 to 14) (size 15 to 20)
#    0.000    2.250    2.500    2.250    0.000    4.000 
#    0.000    5.000    0.000    0.000    0.000    0.000 
#    0.000    2.000    0.000    5.250    0.000    0.250 
#
# Total GULP energy -396530.376459 kJ/mol
# GULP energy per Si atom -12391.574264 kJ/mol
# Density = 1.805334 g / cm^3
# Si number density = 18.094523 Si / 1000 Ang^3
#
#
#
# Elastic Constant Matrix: (Units=GPa)
#
#
# Indices 1 2 3 4 5 6 
#
# 1 46.2855 28.9970 23.4714 0.0000 0.0000 0.0000
# 2 28.9970 146.6530 32.8509 0.0000 0.0000 0.0000
# 3 23.4714 32.8509 81.3753 0.0000 0.0000 0.0000
# 4 0.0000 0.0000 0.0000 26.1705 0.0000 0.0000
# 5 0.0000 0.0000 0.0000 0.0000 18.2114 0.0000
# 6 0.0000 0.0000 0.0000 0.0000 0.0000 13.3263
#
#
#
# Elastic Compliance Matrix: (Units=1/GPa)
#
#
# Indices 1 2 3 4 5 6 
#
# 1 0.027279 -0.003992 -0.006256 0.000000 0.000000 0.000000
# 2 -0.003992 0.008081 -0.002111 0.000000 0.000000 0.000000
# 3 -0.006256 -0.002111 0.014945 0.000000 0.000000 0.000000
# 4 0.000000 0.000000 0.000000 0.038211 0.000000 0.000000
# 5 0.000000 0.000000 0.000000 0.000000 0.054911 0.000000
# 6 0.000000 0.000000 0.000000 0.000000 0.000000 0.075040
#
#
# Mechanical properties :
#
#
# Convention : Reuss Voigt Hill
#
# Bulk Modulus (GPa) = 39.08353 49.43916 44.26135
# Shear Modulus (GPa) = 19.86380 24.14128 22.00254
#
# Velocity S-wave (km/s) = 3.31687 3.65660 3.49087
# Velocity P-wave (km/s) = 6.02622 6.72381 6.38455
#
# Compressibility (1/GPa) = 0.02558623
#
# Stress axis : x y z
#
# Youngs Moduli (GPa) = 36.65861 123.74705 66.91011
#
# Poissons Ratio (x) = 0.49403 0.41862
# Poissons Ratio (y) = 0.14635 0.14123
# Poissons Ratio (z) = 0.22935 0.26120
#
# Static dielectric constant tensor:
#      x y z
#    x 2.730800 0.000000 0.000000 
#    y 0.000000 3.665730 0.000000 
#    z 0.000000 0.000000 3.211740 
# 
# 
# High freq. dielectric constant tensor:
#      x y z
#    x 1.613760 0.000000 0.000000 
#    y 0.000000 1.728220 0.000000 
#    z 0.000000 0.000000 1.700700 
# 
# From -- ./inp_files/3634.got.cif
#   From: 2010.03.12/outbox.cif.g09.slc.cpg/sg47_2_cif.got.tgz:3634.got - 2010.04.14 03:12:58.
