data_PCOD8193729
_publ_section_title
;
Structure prediction by ZEFSAII (Michael W. Deem and Ramdas Pophale) SiO2 
 PCOD8193729
Probable space group: P M M M
;
_chemical_formula_sum "Si O2"
_cell_formula_units_Z 40
_cell_length_a 16.918725
_cell_length_b 18.050587
_cell_length_c 9.670025
_cell_angle_alpha 90.000000
_cell_angle_beta 90.000000
_cell_angle_gamma 90.000000
_cell_volume 2953.157147
_symmetry_space_group_name_H-M "P M M M"
_symmetry_group_IT_number 47
_symmetry_cell_setting 'orthorhombic'
loop_
_space_group_symop_operation_xyz
x,y,z
-x,-y,z
x,-y,-z
-x,y,-z
-x,-y,-z
x,y,-z
-x,y,z
x,-y,z
loop_
_atom_site_type_symbol
_atom_site_label
_atom_site_fract_x
_atom_site_fract_y
_atom_site_fract_z
Si Si1 0.171475 0.587951 0.160506
Si Si2 0.000000 0.419511 0.837234
Si Si3 0.312133 0.360677 0.337109
Si Si4 0.406141 0.081685 0.155231
Si Si5 0.412350 0.500000 0.663953
Si Si6 0.591224 0.784860 0.660398
O O1 0.177626 0.500000 0.190903
O O2 0.230214 0.635043 0.255323
O O3 0.083462 0.619281 0.201861
O O4 0.190395 0.603642 0.000000
O O5 0.000000 0.500000 0.765269
O O6 0.000000 0.431779 0.000000
O O7 0.294893 0.366511 0.500000
O O8 0.366997 0.427469 0.284111
O O9 0.356632 0.285432 0.298023
O O10 0.500000 0.081294 0.161116
O O11 0.373691 0.144692 0.257555
O O12 0.374964 0.000000 0.200352
O O13 0.377150 0.099625 0.000000
O O14 0.500000 0.500000 0.729073
O O15 0.418483 0.500000 0.500000
O O16 0.599263 0.803772 0.500000
O O17 0.500000 0.767935 0.698963
#
# Coordination Sequence:
#
# PCOD8193729 Si02
#       6
#     8   4   8   8   4   8
#     4   9  16  27  42  57  73  94 123 157 194 235
#     4   7  12  24  41  57  71  91 118 149 188 237
#     4  10  18  27  39  55  75  99 130 165 196 224
#     4   8  14  25  40  56  73  94 121 154 194 236
#     4   9  16  26  39  50  65  98 138 167 191 219
#     4   9  17  27  38  54  75 100 132 164 191 223
#
# _framework density 13.544824999999999
#
# number of rings (size 3 to 8) (size 9 to 14) (size 15 to 20)
#    0.000    3.200    1.000    2.400    0.000    3.600 
#    0.000    2.500    0.000    4.200    0.000    0.000 
#    0.000    0.000    0.000    0.900    0.000   17.600 
#
# Total GULP energy -495633.780650 kJ/mol
# GULP energy per Si atom -12390.844516 kJ/mol
# Density = 1.351400 g / cm^3
# Si number density = 13.544825 Si / 1000 Ang^3
#
#
#
# Elastic Constant Matrix: (Units=GPa)
#
#
# Indices 1 2 3 4 5 6 
#
# 1 93.4524 45.8253 39.1418 0.0000 0.0000 0.0000
# 2 45.8253 103.9438 47.7206 0.0000 0.0000 0.0000
# 3 39.1418 47.7206 47.0359 0.0000 0.0000 0.0000
# 4 0.0000 0.0000 0.0000 21.6938 0.0000 0.0000
# 5 0.0000 0.0000 0.0000 0.0000 19.8519 0.0000
# 6 0.0000 0.0000 0.0000 0.0000 0.0000 3.6267
#
#
#
# Elastic Compliance Matrix: (Units=1/GPa)
#
#
# Indices 1 2 3 4 5 6 
#
# 1 0.016609 -0.001829 -0.011966 0.000000 0.000000 0.000000
# 2 -0.001829 0.018210 -0.016953 0.000000 0.000000 0.000000
# 3 -0.011966 -0.016953 0.048419 0.000000 0.000000 0.000000
# 4 0.000000 0.000000 0.000000 0.046096 0.000000 0.000000
# 5 0.000000 0.000000 0.000000 0.000000 0.050373 0.000000
# 6 0.000000 0.000000 0.000000 0.000000 0.000000 0.275731
#
#
# Mechanical properties :
#
#
# Convention : Reuss Voigt Hill
#
# Bulk Modulus (GPa) = 45.99606 56.64526 51.32066
# Shear Modulus (GPa) = 9.53867 16.48413 13.01140
#
# Velocity S-wave (km/s) = 2.65661 3.49235 3.10275
# Velocity P-wave (km/s) = 6.59107 7.62715 7.12796
#
# Compressibility (1/GPa) = 0.02174099
#
# Stress axis : x y z
#
# Youngs Moduli (GPa) = 60.20679 54.91468 20.65324
#
# Poissons Ratio (x) = 0.10042 0.24715
# Poissons Ratio (y) = 0.11010 0.35014
# Poissons Ratio (z) = 0.72046 0.93099
#
# Static dielectric constant tensor:
#      x y z
#    x 2.692970 0.000000 0.000000 
#    y 0.000000 2.700980 0.000000 
#    z 0.000000 0.000000 2.581000 
# 
# 
# High freq. dielectric constant tensor:
#      x y z
#    x 1.492850 0.000000 0.000000 
#    y 0.000000 1.495550 0.000000 
#    z 0.000000 0.000000 1.503820 
# 
# From -- ./inp_files/9329.got.cif
#   From: 2010.03.12/outbox.cif.g09.slc.cpg/sg47_5_cif.got.tgz:9329.got - 2010.04.14 03:12:58.
