data_PCOD8193400
_publ_section_title
;
Structure prediction by ZEFSAII (Michael W. Deem and Ramdas Pophale) SiO2 
 PCOD8193400
Probable space group: I M A 2
;
_chemical_formula_sum "Si O2"
_cell_formula_units_Z 40
_cell_length_a 10.799397
_cell_length_b 17.221613
_cell_length_c 9.058107
_cell_angle_alpha 90.000000
_cell_angle_beta 90.000000
_cell_angle_gamma 90.000000
_cell_volume 1684.654238
_symmetry_space_group_name_H-M "I M A 2"
_symmetry_group_IT_number 46
_symmetry_cell_setting 'orthorhombic'
loop_
_space_group_symop_operation_xyz
x,y,z
-x,-y,z
1/2-x,y,z
1/2+x,-y,z
1/2+x,1/2+y,1/2+z
1/2-x,1/2-y,1/2+z
-x,1/2+y,1/2+z
x,1/2-y,1/2+z
loop_
_atom_site_type_symbol
_atom_site_label
_atom_site_fract_x
_atom_site_fract_y
_atom_site_fract_z
Si Si1 0.612182 0.812504 0.793750
Si Si2 0.473227 0.589347 0.498875
Si Si3 0.979821 0.347709 0.812751
Si Si4 0.250000 0.846559 0.840545
Si Si5 0.750000 0.314675 0.996822
Si Si6 0.108094 0.062260 0.541667
O O1 0.750000 0.777893 0.797684
O O2 0.593126 0.863081 0.942627
O O3 0.516003 0.741865 0.789800
O O4 0.591437 0.865973 0.652133
O O5 0.500000 0.500000 0.511727
O O6 0.431612 0.620187 0.657685
O O7 0.368998 0.601019 0.374284
O O8 0.870162 0.356878 0.931112
O O9 0.090146 0.401641 0.877266
O O10 0.250000 0.818877 0.672745
O O11 0.250000 0.774719 0.951678
O O12 0.250000 0.027992 0.553075
O O13 0.000000 0.000000 0.577560
#
# Coordination Sequence:
#
# PCOD8193400 Si02
#       6
#     8   8   8   4   4   8
#     4  11  25  46  73 105 144 203 258 316 385 459
#     4  12  27  47  73 108 155 199 252 313 392 463
#     4  12  25  47  75 112 146 203 257 325 382 464
#     4  12  26  50  76 114 150 199 260 320 401 468
#     4  12  26  46  84 112 152 197 264 332 391 466
#     4  11  26  49  74 109 154 205 260 321 393 469
#
# _framework density 23.743744
#
# number of rings (size 3 to 8) (size 9 to 14) (size 15 to 20)
#    0.000    0.400    2.000    6.000    2.800    3.200 
#    7.200    1.000    0.000    0.000    0.000    0.000 
#    0.000    0.000    0.000    0.000    0.000    0.000 
#
# Total GULP energy -248080.845628 kJ/mol
# GULP energy per Si atom -12404.042281 kJ/mol
# Density = 2.368970 g / cm^3
# Si number density = 23.743744 Si / 1000 Ang^3
#
#
#
# Elastic Constant Matrix: (Units=GPa)
#
#
# Indices 1 2 3 4 5 6 
#
# 1 147.9779 56.1478 57.0346 -0.0001 0.0000 0.0001
# 2 56.1478 122.7551 55.9940 -0.0005 0.0001 0.0000
# 3 57.0346 55.9940 161.9770 -0.0012 0.0003 0.0003
# 4 -0.0001 -0.0005 -0.0012 34.8517 0.0002 0.0001
# 5 0.0000 0.0001 0.0003 0.0002 30.3736 0.0000
# 6 0.0001 0.0000 0.0003 0.0001 0.0000 34.6895
#
#
#
# Elastic Compliance Matrix: (Units=1/GPa)
#
#
# Indices 1 2 3 4 5 6 
#
# 1 0.008691 -0.003062 -0.002002 0.000000 0.000000 0.000000
# 2 -0.003062 0.010750 -0.002638 0.000000 0.000000 0.000000
# 3 -0.002002 -0.002638 0.007790 0.000000 0.000000 0.000000
# 4 0.000000 0.000000 0.000000 0.028693 0.000000 0.000000
# 5 0.000000 0.000000 0.000000 0.000000 0.032923 0.000000
# 6 0.000000 0.000000 0.000000 0.000000 0.000000 0.028827
#
#
# Mechanical properties :
#
#
# Convention : Reuss Voigt Hill
#
# Bulk Modulus (GPa) = 84.54503 85.67361 85.10932
# Shear Modulus (GPa) = 36.49047 37.55187 37.02117
#
# Velocity S-wave (km/s) = 3.92452 3.98118 3.95295
# Velocity P-wave (km/s) = 7.49802 7.56928 7.53374
#
# Compressibility (1/GPa) = 0.01182802
#
# Stress axis : x y z
#
# Youngs Moduli (GPa) = 115.05895 93.02084 128.36172
#
# Poissons Ratio (x) = 0.28485 0.25694
# Poissons Ratio (y) = 0.35234 0.33862
# Poissons Ratio (z) = 0.23031 0.24539
#
# Static dielectric constant tensor:
#      x y z
#    x 4.725900 0.000000 0.000000 
#    y 0.000000 4.172530 0.000000 
#    z 0.000000 0.000000 4.326490 
# 
# 
# High freq. dielectric constant tensor:
#      x y z
#    x 1.948470 0.000000 0.000000 
#    y 0.000000 1.945630 0.000000 
#    z 0.000000 0.000000 1.950860 
# 
# From -- ./inp_files/4477.got.cif
#   From: 2010.03.12/outbox.cif.g09.slc.cpg/sg46_3_cif.got.tgz:4477.got - 2010.04.14 02:56:35.
