data_PCOD8193313
_publ_section_title
;
Structure prediction by ZEFSAII (Michael W. Deem and Ramdas Pophale) SiO2 
 PCOD8193313
Probable space group: I M A 2
;
_chemical_formula_sum "Si O2"
_cell_formula_units_Z 56
_cell_length_a 8.460407
_cell_length_b 20.326826
_cell_length_c 15.462467
_cell_angle_alpha 90.000000
_cell_angle_beta 90.000000
_cell_angle_gamma 90.000000
_cell_volume 2659.130254
_symmetry_space_group_name_H-M "I M A 2"
_symmetry_group_IT_number 46
_symmetry_cell_setting 'orthorhombic'
loop_
_space_group_symop_operation_xyz
x,y,z
-x,-y,z
1/2-x,y,z
1/2+x,-y,z
1/2+x,1/2+y,1/2+z
1/2-x,1/2-y,1/2+z
-x,1/2+y,1/2+z
x,1/2-y,1/2+z
loop_
_atom_site_type_symbol
_atom_site_label
_atom_site_fract_x
_atom_site_fract_y
_atom_site_fract_z
Si Si1 0.570096 0.113775 0.061990
Si Si2 0.932928 0.429990 0.234664
Si Si3 0.071320 0.243327 0.984890
Si Si4 0.929598 0.807771 0.664927
Si Si5 0.565830 0.573000 0.739075
Si Si6 0.563549 0.293836 0.804203
Si Si7 0.932358 0.934471 0.899637
O O1 0.750000 0.112277 0.095487
O O2 0.456369 0.092471 0.138963
O O3 0.529090 0.181714 0.016344
O O4 0.542635 0.063778 0.983692
O O5 0.750000 0.439097 0.255654
O O6 0.000000 0.500000 0.200122
O O7 0.963819 0.373442 0.164493
O O8 0.020665 0.390217 0.317210
O O9 0.250000 0.219195 0.965698
O O10 0.001043 0.271102 0.896550
O O11 0.065883 0.294070 0.062691
O O12 0.750000 0.820924 0.694442
O O13 0.995017 0.746887 0.722553
O O14 0.500000 0.500000 0.758856
O O15 0.750000 0.573537 0.761146
O O16 0.479727 0.628855 0.795560
O O17 0.750000 0.284948 0.802485
O O18 0.750000 0.931023 0.925076
O O19 0.000000 0.000000 0.851444
#
# Coordination Sequence:
#
# PCOD8193313 Si02
#       7
#     8   8   8   8   8   8   8
#     4  12  23  38  60  91 127 164 212 267 328 392
#     4  11  22  38  60  88 124 164 210 261 322 388
#     4  11  24  42  66  94 127 169 218 271 328 391
#     4  11  23  42  67  94 128 168 215 268 326 389
#     4  12  25  44  67  95 132 177 226 279 341 407
#     4  12  25  43  68  99 135 175 222 277 336 400
#     4  11  21  35  54  81 119 159 203 249 308 377
#
# _framework density 21.059515999999999
#
# number of rings (size 3 to 8) (size 9 to 14) (size 15 to 20)
#    0.000    0.571    1.429    9.429    0.000    1.714 
#    0.000    0.714    0.000    3.429    0.000    0.000 
#    0.000    0.000    0.000    0.000    0.000    0.000 
#
# Total GULP energy -346939.042089 kJ/mol
# GULP energy per Si atom -12390.680075 kJ/mol
# Density = 2.101158 g / cm^3
# Si number density = 21.059516 Si / 1000 Ang^3
#
#
#
# Elastic Constant Matrix: (Units=GPa)
#
#
# Indices 1 2 3 4 5 6 
#
# 1 133.5065 23.7154 18.7460 0.0000 0.0000 0.0000
# 2 23.7154 115.5936 23.5014 0.0000 0.0000 0.0000
# 3 18.7460 23.5014 68.1144 -0.0001 0.0000 0.0000
# 4 0.0000 0.0000 -0.0001 24.1850 0.0000 0.0000
# 5 0.0000 0.0000 0.0000 0.0000 32.3818 0.0000
# 6 0.0000 0.0000 0.0000 0.0000 0.0000 34.5782
#
#
#
# Elastic Compliance Matrix: (Units=1/GPa)
#
#
# Indices 1 2 3 4 5 6 
#
# 1 0.007963 -0.001278 -0.001751 0.000000 0.000000 0.000000
# 2 -0.001278 0.009509 -0.002929 0.000000 0.000000 0.000000
# 3 -0.001751 -0.002929 0.016174 0.000000 0.000000 0.000000
# 4 0.000000 0.000000 0.000000 0.041348 0.000000 0.000000
# 5 0.000000 0.000000 0.000000 0.000000 0.030882 0.000000
# 6 0.000000 0.000000 0.000000 0.000000 0.000000 0.028920
#
#
# Mechanical properties :
#
#
# Convention : Reuss Voigt Hill
#
# Bulk Modulus (GPa) = 46.01882 49.90447 47.96164
# Shear Modulus (GPa) = 32.47739 34.97911 33.72825
#
# Velocity S-wave (km/s) = 3.93131 4.07991 4.00630
# Velocity P-wave (km/s) = 6.51967 6.77810 6.65014
#
# Compressibility (1/GPa) = 0.02173024
#
# Stress axis : x y z
#
# Youngs Moduli (GPa) = 125.57975 105.16719 61.82911
#
# Poissons Ratio (x) = 0.13438 0.10824
# Poissons Ratio (y) = 0.16046 0.18110
# Poissons Ratio (z) = 0.21985 0.30804
#
# Static dielectric constant tensor:
#      x y z
#    x 2.982710 0.000000 0.000000 
#    y 0.000000 4.076910 0.000000 
#    z 0.000000 0.000000 3.985120 
# 
# 
# High freq. dielectric constant tensor:
#      x y z
#    x 1.839400 0.000000 0.000000 
#    y 0.000000 1.834500 0.000000 
#    z 0.000000 0.000000 1.821920 
# 
# From -- ./inp_files/14153.got.cif
#   From: 2010.03.12/outbox.cif.g09.slc.cpg/sg46_8_cif.got.tgz:14153.got - 2010.04.14 02:56:35.
