data_PCOD8193736
_publ_section_title
;
Structure prediction by ZEFSAII (Michael W. Deem and Ramdas Pophale) SiO2 
 PCOD8193736
Probable space group: P M M M
;
_chemical_formula_sum "Si O2"
_cell_formula_units_Z 52
_cell_length_a 12.518457
_cell_length_b 16.803672
_cell_length_c 14.288351
_cell_angle_alpha 90.000000
_cell_angle_beta 90.000000
_cell_angle_gamma 90.000000
_cell_volume 3005.641011
_symmetry_space_group_name_H-M "P M M M"
_symmetry_group_IT_number 47
_symmetry_cell_setting 'orthorhombic'
loop_
_space_group_symop_operation_xyz
x,y,z
-x,-y,z
x,-y,-z
-x,y,-z
-x,-y,-z
x,y,-z
-x,y,z
x,-y,z
loop_
_atom_site_type_symbol
_atom_site_label
_atom_site_fract_x
_atom_site_fract_y
_atom_site_fract_z
Si Si1 0.119904 0.650601 0.709175
Si Si2 0.310482 0.413023 0.609498
Si Si3 0.379525 0.242101 0.609454
Si Si4 0.873052 0.589856 0.900245
Si Si5 0.125434 0.092278 0.106673
Si Si6 0.817344 0.825842 0.710403
Si Si7 0.000000 0.092524 0.602550
O O1 0.186276 0.600521 0.633846
O O2 0.171848 0.638791 0.812559
O O3 0.121016 0.743959 0.691918
O O4 0.000000 0.617496 0.702613
O O5 0.325364 0.418058 0.500000
O O6 0.348498 0.500000 0.650752
O O7 0.373222 0.334424 0.646247
O O8 0.347170 0.238345 0.500000
O O9 0.500000 0.211703 0.625058
O O10 0.302072 0.183488 0.668005
O O11 0.832380 0.500000 0.890029
O O12 0.000000 0.593089 0.899542
O O13 0.831625 0.625183 0.000000
O O14 0.189985 0.147422 0.180448
O O15 0.000000 0.106370 0.123362
O O16 0.154411 0.000000 0.123397
O O17 0.155896 0.116740 0.000000
O O18 0.890235 0.888973 0.656706
O O19 0.000000 0.134382 0.500000
O O20 0.000000 0.000000 0.588424
#
# Coordination Sequence:
#
# PCOD8193736 Si02
#       7
#     8   8   8   8   8   8   4
#     4  10  18  27  39  63  95 129 159 194 245 299
#     4   9  18  30  44  65  91 123 165 208 248 291
#     4   9  19  35  53  72  96 130 172 218 262 298
#     4   8  14  24  37  53  79 119 161 195 227 270
#     4   9  17  30  50  76 106 137 165 195 236 292
#     4  11  19  32  50  75 102 131 167 206 250 298
#     4  11  22  34  51  75 102 133 163 193 237 298
#
# _framework density 17.300802000000001
#
# number of rings (size 3 to 8) (size 9 to 14) (size 15 to 20)
#    0.000    2.538    1.538    2.308    0.000    2.769 
#    0.000    3.846    0.000    2.308    0.000    6.462 
#    0.000    0.000    0.000   16.308    0.000    0.923 
#
# Total GULP energy -644228.529216 kJ/mol
# GULP energy per Si atom -12389.010177 kJ/mol
# Density = 1.726142 g / cm^3
# Si number density = 17.300802 Si / 1000 Ang^3
#
#
#
# Elastic Constant Matrix: (Units=GPa)
#
#
# Indices 1 2 3 4 5 6 
#
# 1 78.1805 22.2005 33.3266 0.0000 0.0000 0.0000
# 2 22.2005 55.7194 24.4348 0.0000 0.0000 0.0000
# 3 33.3266 24.4348 63.4885 0.0000 0.0000 0.0000
# 4 0.0000 0.0000 0.0000 29.7669 0.0000 0.0000
# 5 0.0000 0.0000 0.0000 0.0000 13.6446 0.0000
# 6 0.0000 0.0000 0.0000 0.0000 0.0000 3.9952
#
#
#
# Elastic Compliance Matrix: (Units=1/GPa)
#
#
# Indices 1 2 3 4 5 6 
#
# 1 0.017010 -0.003443 -0.007604 0.000000 0.000000 0.000000
# 2 -0.003443 0.022288 -0.006771 0.000000 0.000000 0.000000
# 3 -0.007604 -0.006771 0.022348 0.000000 0.000000 0.000000
# 4 0.000000 0.000000 0.000000 0.033594 0.000000 0.000000
# 5 0.000000 0.000000 0.000000 0.000000 0.073289 0.000000
# 6 0.000000 0.000000 0.000000 0.000000 0.000000 0.250301
#
#
# Mechanical properties :
#
#
# Convention : Reuss Voigt Hill
#
# Bulk Modulus (GPa) = 38.44492 39.70136 39.07314
# Shear Modulus (GPa) = 10.79597 17.30979 14.05288
#
# Velocity S-wave (km/s) = 2.50074 3.16653 2.85312
# Velocity P-wave (km/s) = 5.53245 6.03048 5.78683
#
# Compressibility (1/GPa) = 0.02601124
#
# Stress axis : x y z
#
# Youngs Moduli (GPa) = 58.78932 44.86722 44.74634
#
# Poissons Ratio (x) = 0.15447 0.34025
# Poissons Ratio (y) = 0.20240 0.30297
# Poissons Ratio (z) = 0.44703 0.30379
#
# Static dielectric constant tensor:
#      x y z
#    x 2.854410 0.000000 0.000000 
#    y 0.000000 3.302960 0.000000 
#    z 0.000000 0.000000 3.685140 
# 
# 
# High freq. dielectric constant tensor:
#      x y z
#    x 1.617140 0.000000 0.000000 
#    y 0.000000 1.665150 0.000000 
#    z 0.000000 0.000000 1.671230 
# 
# From -- ./inp_files/22793.got.cif
#   From: 2010.03.12/outbox.cif.g09.slc.cpg/sg47_12_cif.got.tgz:22793.got - 2010.04.14 03:12:58.
