data_PCOD8193318
_publ_section_title
;
Structure prediction by ZEFSAII (Michael W. Deem and Ramdas Pophale) SiO2 
 PCOD8193318
Probable space group: I M A 2
;
_chemical_formula_sum "Si O2"
_cell_formula_units_Z 56
_cell_length_a 8.400272
_cell_length_b 14.365496
_cell_length_c 22.221868
_cell_angle_alpha 90.000000
_cell_angle_beta 90.000000
_cell_angle_gamma 90.000000
_cell_volume 2681.603339
_symmetry_space_group_name_H-M "I M A 2"
_symmetry_group_IT_number 46
_symmetry_cell_setting 'orthorhombic'
loop_
_space_group_symop_operation_xyz
x,y,z
-x,-y,z
1/2-x,y,z
1/2+x,-y,z
1/2+x,1/2+y,1/2+z
1/2-x,1/2-y,1/2+z
-x,1/2+y,1/2+z
x,1/2-y,1/2+z
loop_
_atom_site_type_symbol
_atom_site_label
_atom_site_fract_x
_atom_site_fract_y
_atom_site_fract_z
Si Si1 0.935237 0.903227 0.681070
Si Si2 0.934156 0.212693 0.576334
Si Si3 0.564204 0.399739 0.311801
Si Si4 0.562792 0.603898 0.963754
Si Si5 0.934275 0.786968 0.343522
Si Si6 0.435043 0.903114 0.238827
Si Si7 0.435833 0.100505 0.108151
O O1 0.750000 0.911742 0.697148
O O2 0.962377 0.823431 0.632391
O O3 0.029909 0.880344 0.741737
O O4 0.000000 0.000000 0.653315
O O5 0.750000 0.201051 0.592185
O O6 0.972741 0.155093 0.517156
O O7 0.978796 0.321035 0.567405
O O8 0.500000 0.500000 0.332177
O O9 0.750000 0.394489 0.324445
O O10 0.476126 0.321678 0.351924
O O11 0.500000 0.500000 0.957430
O O12 0.750000 0.604263 0.976877
O O13 0.518119 0.658164 0.903262
O O14 0.750000 0.800763 0.328043
O O15 0.038296 0.823754 0.287909
O O16 0.250000 0.911771 0.222666
O O17 0.529067 0.879373 0.178104
O O18 0.500000 0.000000 0.266129
O O19 0.250000 0.104998 0.095719
O O20 0.500000 0.000000 0.088098
#
# Coordination Sequence:
#
# PCOD8193318 Si02
#       7
#     8   8   8   8   8   8   8
#     4  11  21  36  58  87 122 157 196 241 294 351
#     4  12  24  40  61  86 118 156 198 242 293 348
#     4  11  22  38  60  88 121 155 195 241 293 349
#     4  11  25  44  65  89 118 153 195 242 291 345
#     4  11  23  40  61  86 118 156 198 243 293 347
#     4  11  21  35  57  88 123 158 197 240 293 350
#     4  11  22  39  61  88 121 155 195 241 293 348
#
# _framework density 20.883029000000001
#
# number of rings (size 3 to 8) (size 9 to 14) (size 15 to 20)
#    0.000    0.857    0.000   10.714    0.000    3.429 
#    0.000    0.714    0.000    3.429    0.000    0.000 
#    0.000    0.000    0.000    0.000    0.000    0.000 
#
# Total GULP energy -347406.074278 kJ/mol
# GULP energy per Si atom -12407.359796 kJ/mol
# Density = 2.083550 g / cm^3
# Si number density = 20.883029 Si / 1000 Ang^3
#
#
#
# Elastic Constant Matrix: (Units=GPa)
#
#
# Indices 1 2 3 4 5 6 
#
# 1 96.0710 24.9608 21.5991 0.0000 0.0000 0.0000
# 2 24.9608 160.9973 57.3884 0.0000 0.0000 0.0000
# 3 21.5991 57.3884 56.9256 0.0000 0.0000 0.0000
# 4 0.0000 0.0000 0.0000 54.6766 0.0000 0.0000
# 5 0.0000 0.0000 0.0000 0.0000 26.1245 0.0000
# 6 0.0000 0.0000 0.0000 0.0000 0.0000 34.6155
#
#
#
# Elastic Compliance Matrix: (Units=1/GPa)
#
#
# Indices 1 2 3 4 5 6 
#
# 1 0.011392 -0.000352 -0.003968 0.000000 0.000000 0.000000
# 2 -0.000352 0.009706 -0.009652 0.000000 0.000000 0.000000
# 3 -0.003968 -0.009652 0.028802 0.000000 0.000000 0.000000
# 4 0.000000 0.000000 0.000000 0.018289 0.000000 0.000000
# 5 0.000000 0.000000 0.000000 0.000000 0.038278 0.000000
# 6 0.000000 0.000000 0.000000 0.000000 0.000000 0.028889
#
#
# Mechanical properties :
#
#
# Convention : Reuss Voigt Hill
#
# Bulk Modulus (GPa) = 45.54074 57.98782 51.76428
# Shear Modulus (GPa) = 29.30497 37.08637 33.19567
#
# Velocity S-wave (km/s) = 3.75012 4.21873 3.99130
# Velocity P-wave (km/s) = 6.37229 7.18042 6.78839
#
# Compressibility (1/GPa) = 0.02195836
#
# Stress axis : x y z
#
# Youngs Moduli (GPa) = 87.77735 103.02678 34.71935
#
# Poissons Ratio (x) = 0.03626 0.13776
# Poissons Ratio (y) = 0.03089 0.33510
# Poissons Ratio (z) = 0.34829 0.99437
#
# Static dielectric constant tensor:
#      x y z
#    x 3.820200 0.000000 0.000000 
#    y 0.000000 4.156280 0.000000 
#    z 0.000000 0.000000 3.476510 
# 
# 
# High freq. dielectric constant tensor:
#      x y z
#    x 1.835100 0.000000 0.000000 
#    y 0.000000 1.839250 0.000000 
#    z 0.000000 0.000000 1.787740 
# 
# From -- ./inp_files/21097.got.cif
#   From: 2010.03.12/outbox.cif.g09.slc.cpg/sg46_11_cif.got.tgz:21097.got - 2010.04.14 02:56:35.
