data_PCOD8193301
_publ_section_title
;
Structure prediction by ZEFSAII (Michael W. Deem and Ramdas Pophale) SiO2 
 PCOD8193301
Probable space group: I M A 2
;
_chemical_formula_sum "Si O2"
_cell_formula_units_Z 48
_cell_length_a 15.463698
_cell_length_b 15.398799
_cell_length_c 9.985693
_cell_angle_alpha 90.000000
_cell_angle_beta 90.000000
_cell_angle_gamma 90.000000
_cell_volume 2377.816956
_symmetry_space_group_name_H-M "I M A 2"
_symmetry_group_IT_number 46
_symmetry_cell_setting 'orthorhombic'
loop_
_space_group_symop_operation_xyz
x,y,z
-x,-y,z
1/2-x,y,z
1/2+x,-y,z
1/2+x,1/2+y,1/2+z
1/2-x,1/2-y,1/2+z
-x,1/2+y,1/2+z
x,1/2-y,1/2+z
loop_
_atom_site_type_symbol
_atom_site_label
_atom_site_fract_x
_atom_site_fract_y
_atom_site_fract_z
Si Si1 0.750000 0.417779 0.784710
Si Si2 0.750000 0.141610 0.824094
Si Si3 0.250000 0.488895 0.523468
Si Si4 0.497586 0.760417 0.517303
Si Si5 0.750000 0.486269 0.083877
Si Si6 0.889868 0.274919 0.767218
Si Si7 0.568624 0.928317 0.637108
Si Si8 0.063951 0.076865 0.949258
O O1 0.750000 0.498967 0.683417
O O2 0.835977 0.363009 0.756033
O O3 0.750000 0.453161 0.933587
O O4 0.835110 0.198862 0.835289
O O5 0.750000 0.081772 0.952963
O O6 0.750000 0.095028 0.681746
O O7 0.335652 0.439153 0.478396
O O8 0.417451 0.755936 0.619963
O O9 0.469640 0.787518 0.367765
O O10 0.561558 0.836917 0.561443
O O11 0.543021 0.666823 0.522970
O O12 0.834040 0.542463 0.113586
O O13 0.548490 0.911912 0.792132
O O14 0.500000 0.000000 0.582092
O O15 0.000000 0.000000 0.002625
#
# Coordination Sequence:
#
# PCOD8193301 Si02
#       8
#     4   4   4   8   4   8   8   8
#     4  11  24  38  60  99 136 158 210 289 346 371
#     4  11  20  38  68  91 126 174 222 267 324 403
#     4  12  24  42  66  95 128 175 225 264 319 394
#     4  12  24  40  66  98 132 172 220 267 322 393
#     4  12  24  42  66  95 128 175 225 264 319 394
#     4  11  22  38  62  97 132 166 210 279 342 385
#     4  11  23  43  69  95 131 177 221 267 322 393
#     4  11  23  43  69  95 131 177 221 267 322 393
#
# _framework density 20.186582999999999
#
# number of rings (size 3 to 8) (size 9 to 14) (size 15 to 20)
#    0.000    0.667    3.333    6.000    0.000    4.667 
#    0.000    3.333    0.000    0.000    0.000    0.000 
#    0.000    0.000    0.000    0.000    0.000    0.000 
#
# Total GULP energy -297704.168337 kJ/mol
# GULP energy per Si atom -12404.340347 kJ/mol
# Density = 2.014064 g / cm^3
# Si number density = 20.186583 Si / 1000 Ang^3
#
#
#
# Elastic Constant Matrix: (Units=GPa)
#
#
# Indices 1 2 3 4 5 6 
#
# 1 115.5894 43.2153 1.2994 0.0000 0.0000 0.0000
# 2 43.2153 115.8053 12.1614 0.0000 0.0000 0.0000
# 3 1.2994 12.1614 77.5120 0.0000 0.0000 0.0000
# 4 0.0000 0.0000 0.0000 40.3881 0.0000 0.0000
# 5 0.0000 0.0000 0.0000 0.0000 14.9216 0.0000
# 6 0.0000 0.0000 0.0000 0.0000 0.0000 -3.8443
#
#
#
# Elastic Compliance Matrix: (Units=1/GPa)
#
#
# Indices 1 2 3 4 5 6 
#
# 1 0.010068 -0.003802 0.000428 0.000000 0.000000 0.000000
# 2 -0.003802 0.010216 -0.001539 0.000000 0.000000 0.000000
# 3 0.000428 -0.001539 0.013136 0.000000 0.000000 0.000000
# 4 0.000000 0.000000 0.000000 0.024760 0.000000 0.000000
# 5 0.000000 0.000000 0.000000 0.000000 0.067017 0.000000
# 6 0.000000 0.000000 0.000000 0.000000 0.000000 -0.260126
#
#
# Mechanical properties :
#
#
# Convention : Reuss Voigt Hill
#
# Bulk Modulus (GPa) = 42.38643 46.91767 44.65205
# Shear Modulus (GPa) = -42.64763 27.10847 -7.76958
#
# Velocity S-wave (km/s) = -4.60137 3.66853 -1.96399
# Velocity P-wave (km/s) = 2.68090 6.42157 4.12610
#
# Compressibility (1/GPa) = 0.02359246
#
# Stress axis : x y z
#
# Youngs Moduli (GPa) = 99.32503 97.88945 76.12943
#
# Poissons Ratio (x) = 0.37218 -0.03256
# Poissons Ratio (y) = 0.37763 0.11717
# Poissons Ratio (z) = -0.04249 0.15066
#
# Static dielectric constant tensor:
#      x y z
#    x 3.801860 0.000000 0.000000 
#    y 0.000000 3.717360 0.000000 
#    z 0.000000 0.000000 3.677760 
# 
# 
# High freq. dielectric constant tensor:
#      x y z
#    x 1.790420 0.000000 0.000000 
#    y 0.000000 1.788960 0.000000 
#    z 0.000000 0.000000 1.794290 
# 
# From -- ./inp_files/6655.got.cif
#   From: 2010.03.12/outbox.cif.g09.slc.cpg/sg46_4_cif.got.tgz:6655.got - 2010.04.14 02:56:35.
