data_PCOD8193293
_publ_section_title
;
Structure prediction by ZEFSAII (Michael W. Deem and Ramdas Pophale) SiO2 
 PCOD8193293
Probable space group: I M A 2
;
_chemical_formula_sum "Si O2"
_cell_formula_units_Z 48
_cell_length_a 31.103431
_cell_length_b 8.839464
_cell_length_c 8.607482
_cell_angle_alpha 90.000000
_cell_angle_beta 90.000000
_cell_angle_gamma 90.000000
_cell_volume 2366.520948
_symmetry_space_group_name_H-M "I M A 2"
_symmetry_group_IT_number 46
_symmetry_cell_setting 'orthorhombic'
loop_
_space_group_symop_operation_xyz
x,y,z
-x,-y,z
1/2-x,y,z
1/2+x,-y,z
1/2+x,1/2+y,1/2+z
1/2-x,1/2-y,1/2+z
-x,1/2+y,1/2+z
x,1/2-y,1/2+z
loop_
_atom_site_type_symbol
_atom_site_label
_atom_site_fract_x
_atom_site_fract_y
_atom_site_fract_z
Si Si1 0.297430 0.543681 0.388750
Si Si2 0.329486 0.785078 0.616182
Si Si3 0.548496 0.453815 0.445529
Si Si4 0.378809 0.346814 0.316390
Si Si5 0.580282 0.179897 0.256958
Si Si6 0.620949 0.960278 0.473521
O O1 0.250000 0.469426 0.407037
O O2 0.307980 0.640716 0.539974
O O3 0.296102 0.655967 0.242777
O O4 0.333646 0.418519 0.366466
O O5 0.373365 0.733552 0.698095
O O6 0.338987 0.924013 0.496393
O O7 0.500000 0.500000 0.418888
O O8 0.581923 0.591890 0.421092
O O9 0.556659 0.327798 0.316693
O O10 0.553117 0.393581 0.619756
O O11 0.370771 0.169056 0.344877
O O12 0.390562 0.380775 0.137110
O O13 0.582759 0.062502 0.401465
#
# Coordination Sequence:
#
# PCOD8193293 Si02
#       6
#     8   8   8   8   8   8
#     4  11  22  38  65  99 132 170 224 272 324 395
#     4  11  19  40  68  92 125 178 216 271 324 383
#     4  12  25  42  67  95 130 174 218 271 337 396
#     4  11  23  42  62  98 132 173 216 273 337 382
#     4  12  20  45  68  93 129 172 223 273 325 391
#     4  11  22  39  72  89 129 178 214 268 332 393
#
# _framework density 20.28294
#
# number of rings (size 3 to 8) (size 9 to 14) (size 15 to 20)
#    0.000    0.667    8.333    1.500    0.000    2.667 
#    0.000    5.833    0.000    0.000    0.000    0.000 
#    0.000    0.000    0.000    0.000    0.000    0.000 
#
# Total GULP energy -297535.836614 kJ/mol
# GULP energy per Si atom -12397.326526 kJ/mol
# Density = 2.023678 g / cm^3
# Si number density = 20.282940 Si / 1000 Ang^3
#
#
#
# Elastic Constant Matrix: (Units=GPa)
#
#
# Indices 1 2 3 4 5 6 
#
# 1 148.3954 41.6472 34.8229 0.0000 0.0000 0.0000
# 2 41.6472 93.6768 23.1394 0.0000 0.0000 0.0000
# 3 34.8229 23.1394 74.8432 0.0001 0.0000 0.0000
# 4 0.0000 0.0000 0.0001 -533.4149 0.0000 0.0000
# 5 0.0000 0.0000 0.0000 0.0000 23.8781 0.0000
# 6 0.0000 0.0000 0.0000 0.0000 0.0000 31.0635
#
#
#
# Elastic Compliance Matrix: (Units=1/GPa)
#
#
# Indices 1 2 3 4 5 6 
#
# 1 0.008253 -0.002946 -0.002929 0.000000 0.000000 0.000000
# 2 -0.002946 0.012609 -0.002528 0.000000 0.000000 0.000000
# 3 -0.002929 -0.002528 0.015506 0.000000 0.000000 0.000000
# 4 0.000000 0.000000 0.000000 -0.001875 0.000000 0.000000
# 5 0.000000 0.000000 0.000000 0.000000 0.041879 0.000000
# 6 0.000000 0.000000 0.000000 0.000000 0.000000 0.032192
#
#
# Mechanical properties :
#
#
# Convention : Reuss Voigt Hill
#
# Bulk Modulus (GPa) = 51.11859 57.34827 54.23343
# Shear Modulus (GPa) = 37.91038 -81.20760 -21.64861
#
# Velocity S-wave (km/s) = 4.32797 -6.33438 -3.27055
# Velocity P-wave (km/s) = 7.08750 5.01633 3.54041
#
# Compressibility (1/GPa) = 0.01956235
#
# Stress axis : x y z
#
# Youngs Moduli (GPa) = 121.17136 79.30880 64.49244
#
# Poissons Ratio (x) = 0.23360 0.18891
# Poissons Ratio (y) = 0.35691 0.16303
# Poissons Ratio (z) = 0.35493 0.20048
#
# Static dielectric constant tensor:
#      x y z
#    x 3.597670 0.000000 0.000000 
#    y 0.000000 4.243830 0.000000 
#    z 0.000000 0.000000 4.092070 
# 
# 
# High freq. dielectric constant tensor:
#      x y z
#    x 1.765710 0.000000 0.000000 
#    y 0.000000 1.797290 0.000000 
#    z 0.000000 0.000000 1.809730 
# 
# From -- ./inp_files/8382.got.cif
#   From: 2010.03.12/outbox.cif.g09.slc.cpg/sg46_5_cif.got.tgz:8382.got - 2010.04.14 02:56:35.
