data_PCOD8193939
_publ_section_title
;
Structure prediction by ZEFSAII (Michael W. Deem and Ramdas Pophale) SiO2 
 PCOD8193939
Probable space group: P M M M
;
_chemical_formula_sum "Si O2"
_cell_formula_units_Z 40
_cell_length_a 19.026586
_cell_length_b 13.923133
_cell_length_c 8.846666
_cell_angle_alpha 90.000000
_cell_angle_beta 90.000000
_cell_angle_gamma 90.000000
_cell_volume 2343.567525
_symmetry_space_group_name_H-M "P M M M"
_symmetry_group_IT_number 47
_symmetry_cell_setting 'orthorhombic'
loop_
_space_group_symop_operation_xyz
x,y,z
-x,-y,z
x,-y,-z
-x,y,-z
-x,-y,-z
x,y,-z
-x,y,z
x,-y,z
loop_
_atom_site_type_symbol
_atom_site_label
_atom_site_fract_x
_atom_site_fract_y
_atom_site_fract_z
Si Si1 0.787170 0.391530 0.820413
Si Si2 0.923164 0.284516 0.176862
Si Si3 0.710814 0.778824 0.321603
Si Si4 0.577853 0.892545 0.320449
Si Si5 0.167268 0.108794 0.174849
O O1 0.774157 0.500000 0.765376
O O2 0.863584 0.356633 0.758722
O O3 0.726243 0.324144 0.753799
O O4 0.784879 0.382753 0.000000
O O5 0.900271 0.174848 0.210405
O O6 0.000000 0.303092 0.252282
O O7 0.929972 0.302621 0.000000
O O8 0.711153 0.765083 0.500000
O O9 0.635493 0.816753 0.260640
O O10 0.767896 0.858445 0.276952
O O11 0.580801 0.895674 0.500000
O O12 0.500000 0.859942 0.266150
O O13 0.594154 0.000000 0.258588
O O14 0.146730 0.000000 0.214949
O O15 0.189600 0.120594 0.000000
#
# Coordination Sequence:
#
# PCOD8193939 Si02
#       5
#     8   8   8   8   8
#     4   9  18  32  48  65  86 113 144 180 225 270
#     4   8  14  25  42  65  88 108 139 184 225 258
#     4  10  18  28  46  69  90 113 145 183 218 256
#     4   8  14  25  42  66  94 119 142 171 209 250
#     4   9  17  28  42  62  90 122 150 176 211 256
#
# _framework density 17.067996000000001
#
# number of rings (size 3 to 8) (size 9 to 14) (size 15 to 20)
#    0.000    3.200    0.000    3.000    0.000    2.400 
#    0.000    4.000    0.000   12.600    0.000   22.400 
#    0.000    0.000    0.000    0.000    0.000    0.000 
#
# Total GULP energy -495711.070234 kJ/mol
# GULP energy per Si atom -12392.776756 kJ/mol
# Density = 1.702915 g / cm^3
# Si number density = 17.067996 Si / 1000 Ang^3
#
#
#
# Elastic Constant Matrix: (Units=GPa)
#
#
# Indices 1 2 3 4 5 6 
#
# 1 140.9049 74.0370 19.5739 0.0000 0.0000 0.0000
# 2 74.0370 145.4473 22.7073 0.0000 0.0000 0.0000
# 3 19.5739 22.7073 21.4464 0.0000 0.0000 0.0000
# 4 0.0000 0.0000 0.0000 20.8506 0.0000 0.0000
# 5 0.0000 0.0000 0.0000 0.0000 17.0054 0.0000
# 6 0.0000 0.0000 0.0000 0.0000 0.0000 20.8397
#
#
#
# Elastic Compliance Matrix: (Units=1/GPa)
#
#
# Indices 1 2 3 4 5 6 
#
# 1 0.010037 -0.004408 -0.004494 0.000000 0.000000 0.000000
# 2 -0.004408 0.010172 -0.006748 0.000000 0.000000 0.000000
# 3 -0.004494 -0.006748 0.057874 0.000000 0.000000 0.000000
# 4 0.000000 0.000000 0.000000 0.047960 0.000000 0.000000
# 5 0.000000 0.000000 0.000000 0.000000 0.058805 0.000000
# 6 0.000000 0.000000 0.000000 0.000000 0.000000 0.047985
#
#
# Mechanical properties :
#
#
# Convention : Reuss Voigt Hill
#
# Bulk Modulus (GPa) = 21.37442 60.04832 40.71137
# Shear Modulus (GPa) = 17.87451 24.50450 21.18951
#
# Velocity S-wave (km/s) = 3.23964 3.79317 3.52728
# Velocity P-wave (km/s) = 5.15208 7.37851 6.36343
#
# Compressibility (1/GPa) = 0.04678488
#
# Stress axis : x y z
#
# Youngs Moduli (GPa) = 99.62912 98.30519 17.27889
#
# Poissons Ratio (x) = 0.43329 0.07765
# Poissons Ratio (y) = 0.43913 0.11659
# Poissons Ratio (z) = 0.44774 0.66333
#
# Static dielectric constant tensor:
#      x y z
#    x 3.466620 0.000000 0.000000 
#    y 0.000000 3.286880 0.000000 
#    z 0.000000 0.000000 2.808150 
# 
# 
# High freq. dielectric constant tensor:
#      x y z
#    x 1.654130 0.000000 0.000000 
#    y 0.000000 1.654140 0.000000 
#    z 0.000000 0.000000 1.618570 
# 
# From -- ./inp_files/5940.got.cif
#   From: 2010.03.12/outbox.cif.g09.slc.cpg/sg47_3_cif.got.tgz:5940.got - 2010.04.14 03:12:58.
