data_PCOD8193196
_publ_section_title
;
Structure prediction by ZEFSAII (Michael W. Deem and Ramdas Pophale) SiO2 
 PCOD8193196
Probable space group: I M A 2
;
_chemical_formula_sum "Si O2"
_cell_formula_units_Z 48
_cell_length_a 20.819219
_cell_length_b 7.555803
_cell_length_c 14.569820
_cell_angle_alpha 90.000000
_cell_angle_beta 90.000000
_cell_angle_gamma 90.000000
_cell_volume 2291.918901
_symmetry_space_group_name_H-M "I M A 2"
_symmetry_group_IT_number 46
_symmetry_cell_setting 'orthorhombic'
loop_
_space_group_symop_operation_xyz
x,y,z
-x,-y,z
1/2-x,y,z
1/2+x,-y,z
1/2+x,1/2+y,1/2+z
1/2-x,1/2-y,1/2+z
-x,1/2+y,1/2+z
x,1/2-y,1/2+z
loop_
_atom_site_type_symbol
_atom_site_label
_atom_site_fract_x
_atom_site_fract_y
_atom_site_fract_z
Si Si1 0.905828 0.794690 0.363800
Si Si2 0.319547 0.538124 0.334280
Si Si3 0.177750 0.021403 0.632634
Si Si4 0.506731 0.299733 0.499122
Si Si5 0.359399 0.635815 0.945495
Si Si6 0.956449 0.673762 0.179582
O O1 0.868396 0.609803 0.369019
O O2 0.951578 0.814040 0.451170
O O3 0.947680 0.792914 0.270443
O O4 0.860667 0.966526 0.376314
O O5 0.250000 0.450361 0.346717
O O6 0.330655 0.590318 0.227065
O O7 0.320234 0.715489 0.392789
O O8 0.250000 0.112904 0.633759
O O9 0.115116 0.148959 0.634659
O O10 0.175802 0.902805 0.541624
O O11 0.500000 0.500000 0.465106
O O12 0.571855 0.214832 0.466723
O O13 0.498373 0.286751 0.608400
O O14 0.000000 0.500000 0.201712
#
# Coordination Sequence:
#
# PCOD8193196 Si02
#       6
#     8   8   8   8   8   8
#     4  11  24  41  65  96 129 172 214 270 334 389
#     4  10  24  44  66  96 132 174 223 272 333 399
#     4  10  22  42  67  93 131 174 214 273 333 389
#     4  12  23  40  63  97 133 168 219 274 336 398
#     4  12  23  42  69  96 133 175 222 271 333 402
#     4  11  22  42  66  96 132 171 218 277 333 399
#
# _framework density 20.943151
#
# number of rings (size 3 to 8) (size 9 to 14) (size 15 to 20)
#    0.000    1.000    5.000    1.500    2.333    4.000 
#    0.000    0.000    0.000    0.000    0.000    0.000 
#    0.000    0.000    0.000    0.000    0.000    0.000 
#
# Total GULP energy -297376.921111 kJ/mol
# GULP energy per Si atom -12390.705046 kJ/mol
# Density = 2.089548 g / cm^3
# Si number density = 20.943151 Si / 1000 Ang^3
#
#
#
# Elastic Constant Matrix: (Units=GPa)
#
#
# Indices 1 2 3 4 5 6 
#
# 1 90.6650 20.1742 22.9528 0.0000 0.0000 0.0000
# 2 20.1742 75.9435 24.9040 0.0000 0.0000 0.0000
# 3 22.9528 24.9040 114.5972 0.0000 0.0000 0.0000
# 4 0.0000 0.0000 0.0000 31.0967 0.0000 0.0000
# 5 0.0000 0.0000 0.0000 0.0000 27.6269 0.0000
# 6 0.0000 0.0000 0.0000 0.0000 0.0000 21.8456
#
#
#
# Elastic Compliance Matrix: (Units=1/GPa)
#
#
# Indices 1 2 3 4 5 6 
#
# 1 0.012078 -0.002600 -0.001854 0.000000 0.000000 0.000000
# 2 -0.002600 0.014738 -0.002682 0.000000 0.000000 0.000000
# 3 -0.001854 -0.002682 0.009680 0.000000 0.000000 0.000000
# 4 0.000000 0.000000 0.000000 0.032158 0.000000 0.000000
# 5 0.000000 0.000000 0.000000 0.000000 0.036197 0.000000
# 6 0.000000 0.000000 0.000000 0.000000 0.000000 0.045776
#
#
# Mechanical properties :
#
#
# Convention : Reuss Voigt Hill
#
# Bulk Modulus (GPa) = 44.99783 46.36308 45.68046
# Shear Modulus (GPa) = 29.01807 30.32550 29.67179
#
# Velocity S-wave (km/s) = 3.72635 3.80938 3.76809
# Velocity P-wave (km/s) = 6.32824 6.44470 6.38673
#
# Compressibility (1/GPa) = 0.02222329
#
# Stress axis : x y z
#
# Youngs Moduli (GPa) = 82.79802 67.85192 103.30175
#
# Poissons Ratio (x) = 0.17644 0.19151
# Poissons Ratio (y) = 0.21531 0.27705
# Poissons Ratio (z) = 0.15350 0.18198
#
# Static dielectric constant tensor:
#      x y z
#    x 4.040540 0.000000 0.000000 
#    y 0.000000 3.583530 0.000000 
#    z 0.000000 0.000000 4.050320 
# 
# 
# High freq. dielectric constant tensor:
#      x y z
#    x 1.835760 0.000000 0.000000 
#    y 0.000000 1.789060 0.000000 
#    z 0.000000 0.000000 1.836660 
# 
# From -- ./inp_files/16973.got.cif
#   From: 2010.03.12/outbox.cif.g09.slc.cpg/sg46_9_cif.got.tgz:16973.got - 2010.04.14 02:56:35.
