data_PCOD8193671
_publ_section_title
;
Structure prediction by ZEFSAII (Michael W. Deem and Ramdas Pophale) SiO2 
 PCOD8193671
Probable space group: P M M M
;
_chemical_formula_sum "Si O2"
_cell_formula_units_Z 52
_cell_length_a 11.913828
_cell_length_b 25.506225
_cell_length_c 9.226163
_cell_angle_alpha 90.000000
_cell_angle_beta 90.000000
_cell_angle_gamma 90.000000
_cell_volume 2803.616682
_symmetry_space_group_name_H-M "P M M M"
_symmetry_group_IT_number 47
_symmetry_cell_setting 'orthorhombic'
loop_
_space_group_symop_operation_xyz
x,y,z
-x,-y,z
x,-y,-z
-x,y,-z
-x,-y,-z
x,y,-z
-x,y,z
x,-y,z
loop_
_atom_site_type_symbol
_atom_site_label
_atom_site_fract_x
_atom_site_fract_y
_atom_site_fract_z
Si Si1 0.375161 0.348374 0.671657
Si Si2 0.229796 0.942038 0.828150
Si Si3 0.371806 0.844735 0.828528
Si Si4 0.781922 0.440101 0.669719
Si Si5 0.000000 0.892574 0.172267
Si Si6 0.755505 0.247125 0.331285
Si Si7 0.000000 0.215129 0.334594
Si Si8 0.000000 0.562221 0.162411
O O1 0.381923 0.345350 0.500000
O O2 0.500000 0.344487 0.739279
O O3 0.322005 0.403955 0.718306
O O4 0.299263 0.300550 0.729915
O O5 0.326796 0.901803 0.779133
O O6 0.109327 0.922851 0.768790
O O7 0.256416 0.000000 0.764954
O O8 0.224235 0.944721 0.000000
O O9 0.500000 0.839463 0.776854
O O10 0.296324 0.801279 0.753811
O O11 0.360389 0.837665 0.000000
O O12 0.808112 0.434868 0.500000
O O13 0.752325 0.500000 0.711340
O O14 0.890169 0.418257 0.753514
O O15 0.000000 0.833904 0.229409
O O16 0.000000 0.889179 0.000000
O O17 0.727370 0.239478 0.500000
O O18 0.889408 0.250137 0.304357
O O19 0.000000 0.194762 0.500000
O O20 0.000000 0.500000 0.160297
O O21 0.000000 0.585329 0.000000
#
# Coordination Sequence:
#
# PCOD8193671 Si02
#       8
#     8   8   8   8   4   8   4   4
#     4   9  18  32  51  76 103 132 168 208 250 299
#     4   9  17  29  48  75 102 128 162 203 248 299
#     4  10  20  33  51  75 101 131 168 209 250 291
#     4   9  17  30  51  78 105 134 170 212 255 298
#     4  10  17  30  53  75  97 127 162 200 246 300
#     4  10  20  35  54  74  99 132 169 206 250 304
#     4  10  20  32  50  76 100 124 160 206 249 292
#     4   9  17  30  49  73 103 137 170 206 249 299
#
# _framework density 18.547471999999999
#
# number of rings (size 3 to 8) (size 9 to 14) (size 15 to 20)
#    0.000    2.538    1.538    0.923    0.000    4.000 
#    0.000    6.154    0.000    4.615    0.000    3.231 
#    0.000    0.000    0.000    0.000    0.000    0.000 
#
# Total GULP energy -644707.437040 kJ/mol
# GULP energy per Si atom -12398.219943 kJ/mol
# Density = 1.850526 g / cm^3
# Si number density = 18.547472 Si / 1000 Ang^3
#
#
#
# Elastic Constant Matrix: (Units=GPa)
#
#
# Indices 1 2 3 4 5 6 
#
# 1 164.1443 75.4873 29.9915 0.0000 0.0000 0.0000
# 2 75.4873 127.6339 24.3245 0.0000 0.0000 0.0000
# 3 29.9915 24.3245 28.4900 0.0000 0.0000 0.0000
# 4 0.0000 0.0000 0.0000 18.0101 0.0000 0.0000
# 5 0.0000 0.0000 0.0000 0.0000 15.2894 0.0000
# 6 0.0000 0.0000 0.0000 0.0000 0.0000 33.5494
#
#
#
# Elastic Compliance Matrix: (Units=1/GPa)
#
#
# Indices 1 2 3 4 5 6 
#
# 1 0.009150 -0.004271 -0.005986 0.000000 0.000000 0.000000
# 2 -0.004271 0.011351 -0.005195 0.000000 0.000000 0.000000
# 3 -0.005986 -0.005195 0.045837 0.000000 0.000000 0.000000
# 4 0.000000 0.000000 0.000000 0.055525 0.000000 0.000000
# 5 0.000000 0.000000 0.000000 0.000000 0.065405 0.000000
# 6 0.000000 0.000000 0.000000 0.000000 0.000000 0.029807
#
#
# Mechanical properties :
#
#
# Convention : Reuss Voigt Hill
#
# Bulk Modulus (GPa) = 28.22157 64.43054 46.32605
# Shear Modulus (GPa) = 19.24632 26.06741 22.65687
#
# Velocity S-wave (km/s) = 3.22480 3.75299 3.49888
# Velocity P-wave (km/s) = 5.39580 7.32076 6.43071
#
# Compressibility (1/GPa) = 0.03543390
#
# Stress axis : x y z
#
# Youngs Moduli (GPa) = 109.28977 88.09789 21.81641
#
# Poissons Ratio (x) = 0.37625 0.13059
# Poissons Ratio (y) = 0.46676 0.11335
# Poissons Ratio (z) = 0.65418 0.45771
#
# Static dielectric constant tensor:
#      x y z
#    x 3.741230 0.000000 0.000000 
#    y 0.000000 3.504640 0.000000 
#    z 0.000000 0.000000 3.089260 
# 
# 
# High freq. dielectric constant tensor:
#      x y z
#    x 1.731490 0.000000 0.000000 
#    y 0.000000 1.719420 0.000000 
#    z 0.000000 0.000000 1.677040 
# 
# From -- ./inp_files/4685.got.cif
#   From: 2010.03.12/outbox.cif.g09.slc.cpg/sg47_3_cif.got.tgz:4685.got - 2010.04.14 03:12:58.
