data_PCOD8193866
_publ_section_title
;
Structure prediction by ZEFSAII (Michael W. Deem and Ramdas Pophale) SiO2 
 PCOD8193866
Probable space group: P M M M
;
_chemical_formula_sum "Si O2"
_cell_formula_units_Z 36
_cell_length_a 18.058997
_cell_length_b 9.746611
_cell_length_c 13.922895
_cell_angle_alpha 90.000000
_cell_angle_beta 90.000000
_cell_angle_gamma 90.000000
_cell_volume 2450.624702
_symmetry_space_group_name_H-M "P M M M"
_symmetry_group_IT_number 47
_symmetry_cell_setting 'orthorhombic'
loop_
_space_group_symop_operation_xyz
x,y,z
-x,-y,z
x,-y,-z
-x,y,-z
-x,-y,-z
x,y,-z
-x,y,z
x,-y,z
loop_
_atom_site_type_symbol
_atom_site_label
_atom_site_fract_x
_atom_site_fract_y
_atom_site_fract_z
Si Si1 0.581776 0.653981 0.885939
Si Si2 0.286651 0.158607 0.888924
Si Si3 0.085563 0.657562 0.389734
Si Si4 0.000000 0.162644 0.893239
Si Si5 0.140346 0.161268 0.772600
O O1 0.500000 0.697193 0.847820
O O2 0.600528 0.500000 0.851169
O O3 0.644069 0.756763 0.846158
O O4 0.581276 0.660452 0.000000
O O5 0.215252 0.198785 0.827606
O O6 0.306920 0.000000 0.877415
O O7 0.270204 0.194802 0.000000
O O8 0.108271 0.679843 0.500000
O O9 0.098430 0.500000 0.359603
O O10 0.137762 0.756035 0.326954
O O11 0.000000 0.698418 0.374329
O O12 0.927141 0.213638 0.838351
O O13 0.000000 0.000000 0.900508
O O14 0.000000 0.226794 0.000000
O O15 0.134460 0.000000 0.750349
#
# Coordination Sequence:
#
# PCOD8193866 Si02
#       5
#     8   8   8   4   8
#     4   8  14  25  40  57  78 107 143 177 207 241
#     4   9  17  27  39  59  87 115 142 172 206 244
#     4   9  18  32  47  61  79 104 134 173 222 264
#     4   9  16  26  40  57  80 112 145 173 200 233
#     4  10  18  28  43  63  83 108 143 177 207 243
#
# _framework density 14.690130999999999
#
# number of rings (size 3 to 8) (size 9 to 14) (size 15 to 20)
#    0.000    3.000    1.111    2.000    0.000    4.444 
#    0.000    3.333    0.000    2.667    0.000    0.000 
#    0.000    0.889    0.000    9.778    0.000    7.556 
#
# Total GULP energy -446301.318518 kJ/mol
# GULP energy per Si atom -12397.258848 kJ/mol
# Density = 1.465670 g / cm^3
# Si number density = 14.690131 Si / 1000 Ang^3
#
#
#
# Elastic Constant Matrix: (Units=GPa)
#
#
# Indices 1 2 3 4 5 6 
#
# 1 124.9489 62.1714 43.2317 0.0000 0.0000 0.0000
# 2 62.1714 63.6908 40.9515 0.0000 0.0000 0.0000
# 3 43.2317 40.9515 65.9961 0.0000 0.0000 0.0000
# 4 0.0000 0.0000 0.0000 20.5441 0.0000 0.0000
# 5 0.0000 0.0000 0.0000 0.0000 6.2193 0.0000
# 6 0.0000 0.0000 0.0000 0.0000 0.0000 26.4986
#
#
#
# Elastic Compliance Matrix: (Units=1/GPa)
#
#
# Indices 1 2 3 4 5 6 
#
# 1 0.015627 -0.014429 -0.001283 0.000000 0.000000 0.000000
# 2 -0.014429 0.039446 -0.015025 0.000000 0.000000 0.000000
# 3 -0.001283 -0.015025 0.025316 0.000000 0.000000 0.000000
# 4 0.000000 0.000000 0.000000 0.048676 0.000000 0.000000
# 5 0.000000 0.000000 0.000000 0.000000 0.160789 0.000000
# 6 0.000000 0.000000 0.000000 0.000000 0.000000 0.037738
#
#
# Mechanical properties :
#
#
# Convention : Reuss Voigt Hill
#
# Bulk Modulus (GPa) = 52.86838 60.81610 56.84224
# Shear Modulus (GPa) = 12.64633 17.87114 15.25873
#
# Velocity S-wave (km/s) = 2.93725 3.49168 3.22639
# Velocity P-wave (km/s) = 6.89713 7.59901 7.25656
#
# Compressibility (1/GPa) = 0.01891490
#
# Stress axis : x y z
#
# Youngs Moduli (GPa) = 63.99326 25.35093 39.50018
#
# Poissons Ratio (x) = 0.36578 0.05069
# Poissons Ratio (y) = 0.92335 0.59350
# Poissons Ratio (z) = 0.08211 0.38090
#
# Static dielectric constant tensor:
#      x y z
#    x 2.965240 0.000000 0.000000 
#    y 0.000000 2.799070 0.000000 
#    z 0.000000 0.000000 2.610190 
# 
# 
# High freq. dielectric constant tensor:
#      x y z
#    x 1.555970 0.000000 0.000000 
#    y 0.000000 1.555970 0.000000 
#    z 0.000000 0.000000 1.527420 
# 
# From -- ./inp_files/5964.got.cif
#   From: 2010.03.12/outbox.cif.g09.slc.cpg/sg47_3_cif.got.tgz:5964.got - 2010.04.14 03:12:58.
