data_PCOD8193913
_publ_section_title
;
Structure prediction by ZEFSAII (Michael W. Deem and Ramdas Pophale) SiO2 
 PCOD8193913
Probable space group: P M M M
;
_chemical_formula_sum "Si O2"
_cell_formula_units_Z 64
_cell_length_a 28.695919
_cell_length_b 9.151844
_cell_length_c 14.503284
_cell_angle_alpha 90.000000
_cell_angle_beta 90.000000
_cell_angle_gamma 90.000000
_cell_volume 3808.860771
_symmetry_space_group_name_H-M "P M M M"
_symmetry_group_IT_number 47
_symmetry_cell_setting 'orthorhombic'
loop_
_space_group_symop_operation_xyz
x,y,z
-x,-y,z
x,-y,-z
-x,y,-z
-x,-y,-z
x,y,-z
-x,y,z
x,-y,z
loop_
_atom_site_type_symbol
_atom_site_label
_atom_site_fract_x
_atom_site_fract_y
_atom_site_fract_z
Si Si1 0.141770 0.672262 0.606534
Si Si2 0.409102 0.173194 0.600717
Si Si3 0.727129 0.169705 0.104141
Si Si4 0.693886 0.827744 0.397096
Si Si5 0.552312 0.171315 0.789785
Si Si6 0.365793 0.333703 0.108701
Si Si7 0.779219 0.828876 0.280868
Si Si8 0.051097 0.836865 0.390896
O O1 0.151608 0.720956 0.500000
O O2 0.144303 0.500000 0.615588
O O3 0.177552 0.742035 0.678266
O O4 0.090860 0.724397 0.640769
O O5 0.425593 0.233681 0.500000
O O6 0.357501 0.235649 0.625106
O O7 0.443695 0.220286 0.682323
O O8 0.406159 0.000000 0.593482
O O9 0.681643 0.254882 0.140451
O O10 0.771283 0.200773 0.171420
O O11 0.713571 0.000000 0.108377
O O12 0.741127 0.217040 0.000000
O O13 0.708841 0.782785 0.500000
O O14 0.732658 0.765016 0.328706
O O15 0.692190 0.000000 0.385422
O O16 0.500000 0.208395 0.822870
O O17 0.588618 0.258200 0.850788
O O18 0.563034 0.000000 0.800170
O O19 0.363730 0.500000 0.143057
O O20 0.370644 0.322579 0.000000
O O21 0.787100 0.000000 0.301425
O O22 0.048920 0.839613 0.500000
O O23 0.000000 0.787749 0.352912
O O24 0.063009 0.000000 0.354386
#
# Coordination Sequence:
#
# PCOD8193913 Si02
#       8
#     8   8   8   8   8   8   8   8
#     4  10  20  30  40  61  96 133 165 198 235 272
#     4   8  14  26  44  66  91 115 142 179 219 259
#     4   9  18  33  53  75  95 115 145 187 230 271
#     4   8  13  21  36  59  83 109 143 177 207 246
#     4  10  20  32  48  71  95 118 146 182 223 263
#     4  10  21  36  53  71  91 117 146 177 220 275
#     4  10  18  28  45  66  91 124 155 185 225 272
#     4   8  14  26  44  63  84 117 163 208 243 276
#
# _framework density 16.802924000000001
#
# number of rings (size 3 to 8) (size 9 to 14) (size 15 to 20)
#    0.000    2.875    0.000    3.000    0.000    5.500 
#    0.000    3.750    0.000    0.375    0.000    0.875 
#    0.000    0.500    0.000    5.750    0.000    1.875 
#
# Total GULP energy -793100.345775 kJ/mol
# GULP energy per Si atom -12392.192903 kJ/mol
# Density = 1.676468 g / cm^3
# Si number density = 16.802924 Si / 1000 Ang^3
#
#
#
# Elastic Constant Matrix: (Units=GPa)
#
#
# Indices 1 2 3 4 5 6 
#
# 1 106.7607 49.3253 47.6622 0.0000 0.0000 0.0000
# 2 49.3253 59.8811 29.7298 0.0000 0.0000 0.0000
# 3 47.6622 29.7298 55.6038 0.0000 0.0000 0.0000
# 4 0.0000 0.0000 0.0000 13.6661 0.0000 0.0000
# 5 0.0000 0.0000 0.0000 0.0000 19.0422 0.0000
# 6 0.0000 0.0000 0.0000 0.0000 0.0000 11.4239
#
#
#
# Elastic Compliance Matrix: (Units=1/GPa)
#
#
# Indices 1 2 3 4 5 6 
#
# 1 0.018874 -0.010230 -0.010708 0.000000 0.000000 0.000000
# 2 -0.010230 0.028280 -0.006351 0.000000 0.000000 0.000000
# 3 -0.010708 -0.006351 0.030559 0.000000 0.000000 0.000000
# 4 0.000000 0.000000 0.000000 0.073174 0.000000 0.000000
# 5 0.000000 0.000000 0.000000 0.000000 0.052515 0.000000
# 6 0.000000 0.000000 0.000000 0.000000 0.000000 0.087536
#
#
# Mechanical properties :
#
#
# Convention : Reuss Voigt Hill
#
# Bulk Modulus (GPa) = 43.22821 52.85336 48.04079
# Shear Modulus (GPa) = 14.15511 15.19498 14.67505
#
# Velocity S-wave (km/s) = 2.90560 3.01043 2.95848
# Velocity P-wave (km/s) = 6.08598 6.60354 6.35003
#
# Compressibility (1/GPa) = 0.02313304
#
# Stress axis : x y z
#
# Youngs Moduli (GPa) = 52.98282 35.36060 32.72324
#
# Poissons Ratio (x) = 0.36175 0.35042
# Poissons Ratio (y) = 0.54203 0.20784
# Poissons Ratio (z) = 0.56736 0.22459
#
# Static dielectric constant tensor:
#      x y z
#    x 3.428020 0.000000 0.000000 
#    y 0.000000 2.942690 0.000000 
#    z 0.000000 0.000000 3.208090 
# 
# 
# High freq. dielectric constant tensor:
#      x y z
#    x 1.638590 0.000000 0.000000 
#    y 0.000000 1.619210 0.000000 
#    z 0.000000 0.000000 1.631060 
# 
# From -- ./inp_files/14289.got.cif
#   From: 2010.03.12/outbox.cif.g09.slc.cpg/sg47_8_cif.got.tgz:14289.got - 2010.04.14 03:12:58.
