data_PCOD8193841
_publ_section_title
;
Structure prediction by ZEFSAII (Michael W. Deem and Ramdas Pophale) SiO2 
 PCOD8193841
Probable space group: P M M M
;
_chemical_formula_sum "Si O2"
_cell_formula_units_Z 48
_cell_length_a 13.984361
_cell_length_b 19.031103
_cell_length_c 12.890514
_cell_angle_alpha 90.000000
_cell_angle_beta 90.000000
_cell_angle_gamma 90.000000
_cell_volume 3430.653225
_symmetry_space_group_name_H-M "P M M M"
_symmetry_group_IT_number 47
_symmetry_cell_setting 'orthorhombic'
loop_
_space_group_symop_operation_xyz
x,y,z
-x,-y,z
x,-y,-z
-x,y,-z
-x,-y,-z
x,y,-z
-x,y,z
x,-y,z
loop_
_atom_site_type_symbol
_atom_site_label
_atom_site_fract_x
_atom_site_fract_y
_atom_site_fract_z
Si Si1 0.113795 0.333602 0.806541
Si Si2 0.113755 0.578965 0.384867
Si Si3 0.269548 0.916643 0.806178
Si Si4 0.111458 0.817855 0.877753
Si Si5 0.606241 0.083241 0.000000
Si Si6 0.606871 0.083408 0.615442
Si Si7 0.114130 0.421172 0.000000
O O1 0.154337 0.364929 0.698259
O O2 0.147962 0.253906 0.823955
O O3 0.154232 0.381806 0.898891
O O4 0.000000 0.335842 0.808655
O O5 0.150186 0.600097 0.500000
O O6 0.148809 0.500000 0.356902
O O7 0.000000 0.580000 0.382337
O O8 0.166639 0.881471 0.822568
O O9 0.338899 0.890994 0.897969
O O10 0.316517 0.889022 0.699055
O O11 0.253954 0.000000 0.806936
O O12 0.000000 0.830860 0.857134
O O13 0.132931 0.814524 0.000000
O O14 0.500000 0.116122 0.000000
O O15 0.599398 0.000000 0.000000
O O16 0.638293 0.107972 0.500000
O O17 0.500000 0.111947 0.640741
O O18 0.603658 0.000000 0.621289
O O19 0.154465 0.500000 0.000000
O O20 0.000000 0.420928 0.000000
#
# Coordination Sequence:
#
# PCOD8193841 Si02
#       7
#     8   8   8   8   4   8   4
#     4   9  15  24  35  48  68  95 128 165 199 232
#     4   8  13  21  34  52  72  92 116 152 198 243
#     4  10  18  28  42  60  79 101 134 174 209 242
#     4  10  19  30  40  51  74 110 148 180 208 232
#     4   9  16  25  39  61  83  96 111 151 212 265
#     4   8  14  26  45  66  84 100 118 148 199 261
#     4   9  14  19  32  52  67  82 112 158 203 236
#
# _framework density 13.991504000000001
#
# number of rings (size 3 to 8) (size 9 to 14) (size 15 to 20)
#    0.000    3.000    1.667    2.000    0.000    4.333 
#    0.000    1.667    0.000    1.500    0.000    2.333 
#    0.000    0.000    0.000    0.000    0.000   34.167 
#
# Total GULP energy -594887.555729 kJ/mol
# GULP energy per Si atom -12393.490744 kJ/mol
# Density = 1.395966 g / cm^3
# Si number density = 13.991504 Si / 1000 Ang^3
#
#
#
# Elastic Constant Matrix: (Units=GPa)
#
#
# Indices 1 2 3 4 5 6 
#
# 1 48.2724 31.1707 38.9526 0.0000 0.0000 0.0000
# 2 31.1707 62.2765 45.1950 0.0000 0.0000 0.0000
# 3 38.9526 45.1950 120.6371 0.0000 0.0000 0.0000
# 4 0.0000 0.0000 0.0000 18.6078 0.0000 0.0000
# 5 0.0000 0.0000 0.0000 0.0000 15.2469 0.0000
# 6 0.0000 0.0000 0.0000 0.0000 0.0000 1.1753
#
#
#
# Elastic Compliance Matrix: (Units=1/GPa)
#
#
# Indices 1 2 3 4 5 6 
#
# 1 0.033745 -0.012337 -0.006274 0.000000 0.000000 0.000000
# 2 -0.012337 0.026563 -0.005968 0.000000 0.000000 0.000000
# 3 -0.006274 -0.005968 0.012551 0.000000 0.000000 0.000000
# 4 0.000000 0.000000 0.000000 0.053741 0.000000 0.000000
# 5 0.000000 0.000000 0.000000 0.000000 0.065587 0.000000
# 6 0.000000 0.000000 0.000000 0.000000 0.000000 0.850837
#
#
# Mechanical properties :
#
#
# Convention : Reuss Voigt Hill
#
# Bulk Modulus (GPa) = 42.19200 51.31363 46.75281
# Shear Modulus (GPa) = 4.54511 14.73050 9.63781
#
# Velocity S-wave (km/s) = 1.80431 3.24824 2.62741
# Velocity P-wave (km/s) = 5.87891 7.12899 6.53392
#
# Compressibility (1/GPa) = 0.02370118
#
# Stress axis : x y z
#
# Youngs Moduli (GPa) = 29.63429 37.64573 79.67454
#
# Poissons Ratio (x) = 0.46443 0.49988
# Poissons Ratio (y) = 0.36559 0.47551
# Poissons Ratio (z) = 0.18593 0.22468
#
# Static dielectric constant tensor:
#      x y z
#    x 2.390260 0.000000 0.000000 
#    y 0.000000 2.620340 0.000000 
#    z 0.000000 0.000000 3.084050 
# 
# 
# High freq. dielectric constant tensor:
#      x y z
#    x 1.478620 0.000000 0.000000 
#    y 0.000000 1.509240 0.000000 
#    z 0.000000 0.000000 1.548370 
# 
# From -- ./inp_files/16444.got.cif
#   From: 2010.03.12/outbox.cif.g09.slc.cpg/sg47_9_cif.got.tgz:16444.got - 2010.04.14 03:12:58.
