data_PCOD8193868
_publ_section_title
;
Structure prediction by ZEFSAII (Michael W. Deem and Ramdas Pophale) SiO2 
 PCOD8193868
Probable space group: P M M M
;
_chemical_formula_sum "Si O2"
_cell_formula_units_Z 64
_cell_length_a 23.874342
_cell_length_b 18.950268
_cell_length_c 9.050159
_cell_angle_alpha 90.000000
_cell_angle_beta 90.000000
_cell_angle_gamma 90.000000
_cell_volume 4094.519808
_symmetry_space_group_name_H-M "P M M M"
_symmetry_group_IT_number 47
_symmetry_cell_setting 'orthorhombic'
loop_
_space_group_symop_operation_xyz
x,y,z
-x,-y,z
x,-y,-z
-x,y,-z
-x,-y,-z
x,y,-z
-x,y,z
x,-y,z
loop_
_atom_site_type_symbol
_atom_site_label
_atom_site_fract_x
_atom_site_fract_y
_atom_site_fract_z
Si Si1 0.063753 0.716536 0.672094
Si Si2 0.228354 0.921100 0.170123
Si Si3 0.128143 0.578296 0.332029
Si Si4 0.561450 0.920465 0.675644
Si Si5 0.328150 0.150588 0.325663
Si Si6 0.265133 0.287458 0.325591
Si Si7 0.162793 0.214792 0.173093
Si Si8 0.243599 0.420990 0.827457
O O1 0.071193 0.734126 0.500000
O O2 0.081007 0.635727 0.706295
O O3 0.100775 0.771350 0.765789
O O4 0.000000 0.726393 0.723345
O O5 0.283658 0.904428 0.262553
O O6 0.178382 0.866658 0.207389
O O7 0.207393 0.000000 0.208884
O O8 0.245679 0.914237 0.000000
O O9 0.150156 0.588429 0.500000
O O10 0.101846 0.500000 0.312053
O O11 0.179664 0.588284 0.221961
O O12 0.561702 0.919756 0.500000
O O13 0.500000 0.895229 0.732677
O O14 0.609980 0.868430 0.736437
O O15 0.573287 0.000000 0.731825
O O16 0.326070 0.141850 0.500000
O O17 0.312492 0.230606 0.279166
O O18 0.258726 0.292780 0.500000
O O19 0.205384 0.265944 0.258172
O O20 0.281983 0.363744 0.258674
O O21 0.165829 0.231846 0.000000
O O22 0.265139 0.500000 0.789600
O O23 0.247582 0.405567 0.000000
#
# Coordination Sequence:
#
# PCOD8193868 Si02
#       8
#     8   8   8   8   8   8   8   8
#     4  10  20  32  46  64  86 111 139 173 211 255
#     4   9  18  31  46  65  88 112 139 176 221 263
#     4   9  17  29  45  63  84 111 139 167 202 246
#     4   8  13  22  38  61  90 123 155 184 212 243
#     4   9  17  27  42  66  92 117 149 184 212 248
#     4  10  18  28  43  63  88 115 142 175 216 257
#     4  10  19  31  47  64  83 109 140 173 213 259
#     4  10  19  29  43  63  86 112 142 175 211 254
#
# _framework density 15.630648000000001
#
# number of rings (size 3 to 8) (size 9 to 14) (size 15 to 20)
#    0.000    2.625    1.250    1.875    0.000    3.000 
#    0.000    1.250    0.000    0.750    0.000    7.000 
#    0.000    0.500    0.000    6.250    0.000    1.000 
#
# Total GULP energy -793344.562745 kJ/mol
# GULP energy per Si atom -12396.008793 kJ/mol
# Density = 1.559507 g / cm^3
# Si number density = 15.630648 Si / 1000 Ang^3
#
#
#
# Elastic Constant Matrix: (Units=GPa)
#
#
# Indices 1 2 3 4 5 6 
#
# 1 100.6977 62.0227 27.1726 0.0000 0.0000 0.0000
# 2 62.0227 123.6466 39.9320 0.0000 0.0000 0.0000
# 3 27.1726 39.9320 45.4933 0.0000 0.0000 0.0000
# 4 0.0000 0.0000 0.0000 22.1556 0.0000 0.0000
# 5 0.0000 0.0000 0.0000 0.0000 5.3960 0.0000
# 6 0.0000 0.0000 0.0000 0.0000 0.0000 23.8418
#
#
#
# Elastic Compliance Matrix: (Units=1/GPa)
#
#
# Indices 1 2 3 4 5 6 
#
# 1 0.014701 -0.006334 -0.003221 0.000000 0.000000 0.000000
# 2 -0.006334 0.014016 -0.008520 0.000000 0.000000 0.000000
# 3 -0.003221 -0.008520 0.031383 0.000000 0.000000 0.000000
# 4 0.000000 0.000000 0.000000 0.045135 0.000000 0.000000
# 5 0.000000 0.000000 0.000000 0.000000 0.185322 0.000000
# 6 0.000000 0.000000 0.000000 0.000000 0.000000 0.041943
#
#
# Mechanical properties :
#
#
# Convention : Reuss Voigt Hill
#
# Bulk Modulus (GPa) = 41.75141 58.67691 50.21416
# Shear Modulus (GPa) = 13.27547 19.65937 16.46742
#
# Velocity S-wave (km/s) = 2.91748 3.55032 3.24934
# Velocity P-wave (km/s) = 6.17399 7.37750 6.80241
#
# Compressibility (1/GPa) = 0.02395128
#
# Stress axis : x y z
#
# Youngs Moduli (GPa) = 68.02144 71.34585 31.86403
#
# Poissons Ratio (x) = 0.45191 0.10264
# Poissons Ratio (y) = 0.43085 0.27147
# Poissons Ratio (z) = 0.21911 0.60784
#
# Static dielectric constant tensor:
#      x y z
#    x 2.922110 0.000000 0.000000 
#    y 0.000000 3.279520 0.000000 
#    z 0.000000 0.000000 2.916150 
# 
# 
# High freq. dielectric constant tensor:
#      x y z
#    x 1.563090 0.000000 0.000000 
#    y 0.000000 1.603790 0.000000 
#    z 0.000000 0.000000 1.594990 
# 
# From -- ./inp_files/10192.got.cif
#   From: 2010.03.12/outbox.cif.g09.slc.cpg/sg47_6_cif.got.tgz:10192.got - 2010.04.14 03:12:58.
