data_PCOD8193936
_publ_section_title
;
Structure prediction by ZEFSAII (Michael W. Deem and Ramdas Pophale) SiO2 
 PCOD8193936
Probable space group: P M M M
;
_chemical_formula_sum "Si O2"
_cell_formula_units_Z 52
_cell_length_a 11.983729
_cell_length_b 8.103631
_cell_length_c 30.135128
_cell_angle_alpha 90.000000
_cell_angle_beta 90.000000
_cell_angle_gamma 90.000000
_cell_volume 2926.474047
_symmetry_space_group_name_H-M "P M M M"
_symmetry_group_IT_number 47
_symmetry_cell_setting 'orthorhombic'
loop_
_space_group_symop_operation_xyz
x,y,z
-x,-y,z
x,-y,-z
-x,y,-z
-x,-y,-z
x,y,-z
-x,y,z
x,-y,z
loop_
_atom_site_type_symbol
_atom_site_label
_atom_site_fract_x
_atom_site_fract_y
_atom_site_fract_z
Si Si1 0.500000 0.188373 0.662304
Si Si2 0.632975 0.000000 0.050449
Si Si3 0.873222 0.802526 0.632575
Si Si4 0.274015 0.810153 0.711662
Si Si5 0.632424 0.685622 0.895209
Si Si6 0.500000 0.686484 0.431352
Si Si7 0.740510 0.807403 0.451876
Si Si8 0.377014 0.308219 0.796191
O O1 0.606154 0.226882 0.691525
O O2 0.500000 0.312589 0.621621
O O3 0.500000 0.000000 0.644468
O O4 0.679743 0.830868 0.072971
O O5 0.500000 0.000000 0.053607
O O6 0.675072 0.000000 0.000000
O O7 0.818166 0.732098 0.678212
O O8 0.807905 0.727953 0.589606
O O9 0.000000 0.740519 0.630476
O O10 0.864555 0.000000 0.632357
O O11 0.279296 0.738970 0.761380
O O12 0.245984 0.000000 0.716289
O O13 0.500000 0.677509 0.898820
O O14 0.678950 0.500000 0.907194
O O15 0.666478 0.738908 0.845224
O O16 0.500000 0.500000 0.448720
O O17 0.609027 0.777353 0.449066
O O18 0.782658 0.738525 0.500000
O O19 0.763366 0.000000 0.450241
O O20 0.500000 0.224532 0.786885
O O21 0.396587 0.500000 0.794006
#
# Coordination Sequence:
#
# PCOD8193936 Si02
#       8
#     4   4   8   8   8   4   8   8
#     4  10  18  31  47  70  96 117 146 183 225 278
#     4   9  16  24  36  54  76 114 163 205 238 275
#     4   9  18  33  51  71  94 117 149 192 227 266
#     4  10  18  28  46  68  89 115 145 181 229 277
#     4   8  15  26  36  52  80 113 149 196 245 283
#     4  12  23  33  50  73 100 124 142 176 227 277
#     4  10  20  35  55  74  93 119 148 182 227 276
#     4   9  17  27  40  61  89 116 145 185 234 282
#
# _framework density 17.768823999999999
#
# number of rings (size 3 to 8) (size 9 to 14) (size 15 to 20)
#    0.000    2.538    2.308    1.846    1.077    2.462 
#    0.000    3.077    0.000    1.846    0.000    1.077 
#    0.000    0.000    0.000    0.000    0.000    1.538 
#
# Total GULP energy -644240.479499 kJ/mol
# GULP energy per Si atom -12389.239990 kJ/mol
# Density = 1.772838 g / cm^3
# Si number density = 17.768824 Si / 1000 Ang^3
#
#
#
# Elastic Constant Matrix: (Units=GPa)
#
#
# Indices 1 2 3 4 5 6 
#
# 1 77.0600 11.4679 43.2763 0.0000 0.0000 0.0000
# 2 11.4679 43.8426 49.5044 0.0000 0.0000 0.0000
# 3 43.2763 49.5044 159.9133 0.0000 0.0000 0.0000
# 4 0.0000 0.0000 0.0000 9.7883 0.0000 0.0000
# 5 0.0000 0.0000 0.0000 0.0000 12.5276 0.0000
# 6 0.0000 0.0000 0.0000 0.0000 0.0000 3.9746
#
#
#
# Elastic Compliance Matrix: (Units=1/GPa)
#
#
# Indices 1 2 3 4 5 6 
#
# 1 0.015333 0.001037 -0.004471 0.000000 0.000000 0.000000
# 2 0.001037 0.035136 -0.011158 0.000000 0.000000 0.000000
# 3 -0.004471 -0.011158 0.010917 0.000000 0.000000 0.000000
# 4 0.000000 0.000000 0.000000 0.102163 0.000000 0.000000
# 5 0.000000 0.000000 0.000000 0.000000 0.079823 0.000000
# 6 0.000000 0.000000 0.000000 0.000000 0.000000 0.251599
#
#
# Mechanical properties :
#
#
# Convention : Reuss Voigt Hill
#
# Bulk Modulus (GPa) = 31.05161 54.36812 42.70986
# Shear Modulus (GPa) = 9.34773 17.02927 13.18850
#
# Velocity S-wave (km/s) = 2.29612 3.09913 2.72734
# Velocity P-wave (km/s) = 4.95407 6.59318 5.83150
#
# Compressibility (1/GPa) = 0.03220445
#
# Stress axis : x y z
#
# Youngs Moduli (GPa) = 65.21795 28.46060 91.59702
#
# Poissons Ratio (x) = -0.02952 0.40950
# Poissons Ratio (y) = -0.06765 1.02203
# Poissons Ratio (z) = 0.29157 0.31756
#
# Static dielectric constant tensor:
#      x y z
#    x 2.770500 0.000000 0.000000 
#    y 0.000000 3.180150 0.000000 
#    z 0.000000 0.000000 3.724810 
# 
# 
# High freq. dielectric constant tensor:
#      x y z
#    x 1.624500 0.000000 0.000000 
#    y 0.000000 1.670580 0.000000 
#    z 0.000000 0.000000 1.694250 
# 
# From -- ./inp_files/33662.got.cif
#   From: 2010.03.12/outbox.cif.g09.slc.cpg/sg47_17_cif.got.tgz:33662.got - 2010.04.14 03:12:58.
