data_PCOD8193906
_publ_section_title
;
Structure prediction by ZEFSAII (Michael W. Deem and Ramdas Pophale) SiO2 
 PCOD8193906
Probable space group: P M M M
;
_chemical_formula_sum "Si O2"
_cell_formula_units_Z 64
_cell_length_a 28.710464
_cell_length_b 9.442223
_cell_length_c 14.384507
_cell_angle_alpha 90.000000
_cell_angle_beta 90.000000
_cell_angle_gamma 90.000000
_cell_volume 3899.504684
_symmetry_space_group_name_H-M "P M M M"
_symmetry_group_IT_number 47
_symmetry_cell_setting 'orthorhombic'
loop_
_space_group_symop_operation_xyz
x,y,z
-x,-y,z
x,-y,-z
-x,y,-z
-x,-y,-z
x,y,-z
-x,y,z
x,-y,z
loop_
_atom_site_type_symbol
_atom_site_label
_atom_site_fract_x
_atom_site_fract_y
_atom_site_fract_z
Si Si1 0.448032 0.164345 0.284996
Si Si2 0.732607 0.667815 0.397605
Si Si3 0.948643 0.657978 0.110052
Si Si4 0.860852 0.833158 0.108674
Si Si5 0.309982 0.338372 0.892339
Si Si6 0.602317 0.837357 0.103771
Si Si7 0.781953 0.666686 0.215103
Si Si8 0.370937 0.659805 0.609443
O O1 0.500000 0.219629 0.308027
O O2 0.440015 0.188201 0.174551
O O3 0.410266 0.245589 0.344591
O O4 0.443364 0.000000 0.310406
O O5 0.746389 0.728247 0.500000
O O6 0.728490 0.500000 0.403546
O O7 0.772225 0.709741 0.322738
O O8 0.680897 0.720823 0.367242
O O9 0.935225 0.500000 0.145970
O O10 0.910659 0.772489 0.142498
O O11 0.000000 0.700733 0.148621
O O12 0.950605 0.655774 0.000000
O O13 0.823350 0.759083 0.174194
O O14 0.860309 0.000000 0.126267
O O15 0.851278 0.797519 0.000000
O O16 0.321899 0.500000 0.869392
O O17 0.353492 0.247910 0.857147
O O18 0.263995 0.289448 0.840078
O O19 0.300357 0.311859 0.000000
O O20 0.617504 0.000000 0.101082
O O21 0.587679 0.785702 0.000000
O O22 0.793505 0.500000 0.203942
O O23 0.378836 0.663655 0.500000
O O24 0.376171 0.500000 0.647480
#
# Coordination Sequence:
#
# PCOD8193906 Si02
#       8
#     8   8   8   8   8   8   8   8
#     4  10  21  34  47  66  91 116 141 172 213 258
#     4   8  15  29  49  71  90 109 140 182 223 262
#     4   8  14  26  44  63  84 116 159 201 234 264
#     4  10  20  30  40  60  93 129 160 191 226 261
#     4   9  17  28  43  64  87 112 145 182 218 258
#     4   9  18  32  48  64  83 111 147 182 213 249
#     4  10  18  28  45  65  87 118 150 180 218 264
#     4   9  18  34  55  74  90 110 138 173 214 263
#
# _framework density 16.412341000000001
#
# number of rings (size 3 to 8) (size 9 to 14) (size 15 to 20)
#    0.000    2.875    0.000    2.625    0.000    4.500 
#    0.000    5.625    0.000    1.125    0.000    2.625 
#    0.000    0.500    0.000    5.750    0.000    1.875 
#
# Total GULP energy -793241.787861 kJ/mol
# GULP energy per Si atom -12394.402935 kJ/mol
# Density = 1.637499 g / cm^3
# Si number density = 16.412341 Si / 1000 Ang^3
#
#
#
# Elastic Constant Matrix: (Units=GPa)
#
#
# Indices 1 2 3 4 5 6 
#
# 1 113.0535 55.5075 58.3069 0.0000 0.0000 0.0000
# 2 55.5075 60.4678 33.5951 0.0000 0.0000 0.0000
# 3 58.3069 33.5951 58.2488 0.0000 0.0000 0.0000
# 4 0.0000 0.0000 0.0000 18.1770 0.0000 0.0000
# 5 0.0000 0.0000 0.0000 0.0000 18.0354 0.0000
# 6 0.0000 0.0000 0.0000 0.0000 0.0000 -120.1387
#
#
#
# Elastic Compliance Matrix: (Units=1/GPa)
#
#
# Indices 1 2 3 4 5 6 
#
# 1 0.023235 -0.012371 -0.016123 0.000000 0.000000 0.000000
# 2 -0.012371 0.030923 -0.005451 0.000000 0.000000 0.000000
# 3 -0.016123 -0.005451 0.036451 0.000000 0.000000 0.000000
# 4 0.000000 0.000000 0.000000 0.055014 0.000000 0.000000
# 5 0.000000 0.000000 0.000000 0.000000 0.055446 0.000000
# 6 0.000000 0.000000 0.000000 0.000000 0.000000 -0.008324
#
#
# Mechanical properties :
#
#
# Convention : Reuss Voigt Hill
#
# Bulk Modulus (GPa) = 44.01859 58.50989 51.26424
# Shear Modulus (GPa) = 18.64224 -11.16122 3.74051
#
# Velocity S-wave (km/s) = 3.37392 -2.61061 1.51130
# Velocity P-wave (km/s) = 6.48509 5.16142 5.86075
#
# Compressibility (1/GPa) = 0.02271768
#
# Stress axis : x y z
#
# Youngs Moduli (GPa) = 43.03913 32.33879 27.43430
#
# Poissons Ratio (x) = 0.40007 0.44232
# Poissons Ratio (y) = 0.53244 0.14955
# Poissons Ratio (z) = 0.69391 0.17629
#
# Static dielectric constant tensor:
#      x y z
#    x 3.264190 0.000000 0.000000 
#    y 0.000000 3.025260 0.000000 
#    z 0.000000 0.000000 3.202360 
# 
# 
# High freq. dielectric constant tensor:
#      x y z
#    x 1.621730 0.000000 0.000000 
#    y 0.000000 1.617060 0.000000 
#    z 0.000000 0.000000 1.616880 
# 
# From -- ./inp_files/22191.got.cif
#   From: 2010.03.12/outbox.cif.g09.slc.cpg/sg47_12_cif.got.tgz:22191.got - 2010.04.14 03:12:58.
