data_PCOD8193632
_publ_section_title
;
Structure prediction by ZEFSAII (Michael W. Deem and Ramdas Pophale) SiO2 
 PCOD8193632
Probable space group: P M M M
;
_chemical_formula_sum "Si O2"
_cell_formula_units_Z 52
_cell_length_a 11.918188
_cell_length_b 9.115829
_cell_length_c 28.494812
_cell_angle_alpha 90.000000
_cell_angle_beta 90.000000
_cell_angle_gamma 90.000000
_cell_volume 3095.795022
_symmetry_space_group_name_H-M "P M M M"
_symmetry_group_IT_number 47
_symmetry_cell_setting 'orthorhombic'
loop_
_space_group_symop_operation_xyz
x,y,z
-x,-y,z
x,-y,-z
-x,y,-z
-x,-y,-z
x,y,-z
-x,y,z
x,-y,z
loop_
_atom_site_type_symbol
_atom_site_label
_atom_site_fract_x
_atom_site_fract_y
_atom_site_fract_z
Si Si1 0.125167 0.673744 0.273761
Si Si2 0.130808 0.671348 0.907803
Si Si3 0.500000 0.330938 0.209857
Si Si4 0.133421 0.165360 0.000000
Si Si5 0.373768 0.673386 0.551028
Si Si6 0.500000 0.172976 0.694573
Si Si7 0.292381 0.327343 0.351808
Si Si8 0.745201 0.670928 0.816792
O O1 0.119212 0.500000 0.269279
O O2 0.178722 0.716092 0.324330
O O3 0.200684 0.738386 0.230984
O O4 0.000000 0.741331 0.271409
O O5 0.154479 0.500000 0.915063
O O6 0.196287 0.738070 0.862928
O O7 0.000000 0.702618 0.899587
O O8 0.178135 0.753099 0.953665
O O9 0.500000 0.500000 0.228298
O O10 0.500000 0.216574 0.251499
O O11 0.611863 0.299957 0.179636
O O12 0.000000 0.170452 0.000000
O O13 0.179325 0.000000 0.000000
O O14 0.333056 0.735204 0.500000
O O15 0.500000 0.731907 0.561955
O O16 0.378580 0.500000 0.548029
O O17 0.288173 0.718865 0.592930
O O18 0.608755 0.238236 0.671057
O O19 0.500000 0.000000 0.689172
O O20 0.317747 0.500000 0.346213
O O21 0.772604 0.500000 0.816277
#
# Coordination Sequence:
#
# PCOD8193632 Si02
#       8
#     8   8   4   4   8   4   8   8
#     4   9  16  25  42  70  95 116 150 191 225 264
#     4   9  16  27  45  69  94 118 145 183 230 269
#     4  10  18  32  50  68  90 122 159 185 221 274
#     4   9  17  29  45  66  91 120 154 189 222 261
#     4   8  13  21  38  65  89 110 145 189 227 270
#     4  12  22  30  43  67  95 120 152 192 232 272
#     4  10  17  29  49  66  88 122 155 186 226 277
#     4   9  16  26  45  70  94 116 146 188 226 268
#
# _framework density 16.796976999999998
#
# number of rings (size 3 to 8) (size 9 to 14) (size 15 to 20)
#    0.000    2.692    2.308    1.846    0.000    2.769 
#    0.000    0.769    0.000    2.308    0.000    6.462 
#    0.000    0.000    0.000    1.385    0.000    1.538 
#
# Total GULP energy -644357.077061 kJ/mol
# GULP energy per Si atom -12391.482251 kJ/mol
# Density = 1.675875 g / cm^3
# Si number density = 16.796977 Si / 1000 Ang^3
#
#
#
# Elastic Constant Matrix: (Units=GPa)
#
#
# Indices 1 2 3 4 5 6 
#
# 1 104.5637 18.9016 67.7305 0.0000 0.0000 0.0000
# 2 18.9016 33.1789 24.1439 0.0000 0.0000 0.0000
# 3 67.7305 24.1439 169.8221 0.0000 0.0000 0.0000
# 4 0.0000 0.0000 0.0000 3.2804 0.0000 0.0000
# 5 0.0000 0.0000 0.0000 0.0000 34.7542 0.0000
# 6 0.0000 0.0000 0.0000 0.0000 0.0000 3.4532
#
#
#
# Elastic Compliance Matrix: (Units=1/GPa)
#
#
# Indices 1 2 3 4 5 6 
#
# 1 0.013394 -0.004175 -0.004748 0.000000 0.000000 0.000000
# 2 -0.004175 0.034919 -0.003299 0.000000 0.000000 0.000000
# 3 -0.004748 -0.003299 0.008251 0.000000 0.000000 0.000000
# 4 0.000000 0.000000 0.000000 0.304837 0.000000 0.000000
# 5 0.000000 0.000000 0.000000 0.000000 0.028774 0.000000
# 6 0.000000 0.000000 0.000000 0.000000 0.000000 0.289583
#
#
# Mechanical properties :
#
#
# Convention : Reuss Voigt Hill
#
# Bulk Modulus (GPa) = 31.13435 58.79074 44.96255
# Shear Modulus (GPa) = 6.99389 21.41682 14.20536
#
# Velocity S-wave (km/s) = 2.04275 3.57464 2.91126
# Velocity P-wave (km/s) = 4.91322 7.21902 6.17470
#
# Compressibility (1/GPa) = 0.03211887
#
# Stress axis : x y z
#
# Youngs Moduli (GPa) = 74.66040 28.63767 121.19159
#
# Poissons Ratio (x) = 0.11956 0.57546
# Poissons Ratio (y) = 0.31171 0.39986
# Poissons Ratio (z) = 0.35452 0.09449
#
# Static dielectric constant tensor:
#      x y z
#    x 3.469320 0.000000 0.000000 
#    y 0.000000 2.702940 0.000000 
#    z 0.000000 0.000000 3.661100 
# 
# 
# High freq. dielectric constant tensor:
#      x y z
#    x 1.622020 0.000000 0.000000 
#    y 0.000000 1.593670 0.000000 
#    z 0.000000 0.000000 1.659520 
# 
# From -- ./inp_files/33617.got.cif
#   From: 2010.03.12/outbox.cif.g09.slc.cpg/sg47_17_cif.got.tgz:33617.got - 2010.04.14 03:12:58.
