data_PCOD8193504
_publ_section_title
;
Structure prediction by ZEFSAII (Michael W. Deem and Ramdas Pophale) SiO2 
 PCOD8193504
Probable space group: P M M M
;
_chemical_formula_sum "Si O2"
_cell_formula_units_Z 48
_cell_length_a 9.329734
_cell_length_b 12.038369
_cell_length_c 25.570538
_cell_angle_alpha 90.000000
_cell_angle_beta 90.000000
_cell_angle_gamma 90.000000
_cell_volume 2871.949364
_symmetry_space_group_name_H-M "P M M M"
_symmetry_group_IT_number 47
_symmetry_cell_setting 'orthorhombic'
loop_
_space_group_symop_operation_xyz
x,y,z
-x,-y,z
x,-y,-z
-x,y,-z
-x,-y,-z
x,y,-z
-x,y,z
x,-y,z
loop_
_atom_site_type_symbol
_atom_site_label
_atom_site_fract_x
_atom_site_fract_y
_atom_site_fract_z
Si Si1 0.829579 0.875140 0.942504
Si Si2 0.169378 0.721584 0.350161
Si Si3 0.171110 0.740801 0.844726
Si Si4 0.169705 0.500000 0.705355
Si Si5 0.666665 0.626756 0.439899
Si Si6 0.829531 0.874380 0.256560
Si Si7 0.170555 0.500000 0.820922
O O1 0.764880 0.799326 0.896454
O O2 0.000000 0.874121 0.939474
O O3 0.773111 0.000000 0.933816
O O4 0.780353 0.831814 0.000000
O O5 0.223997 0.609063 0.323364
O O6 0.247892 0.719583 0.406222
O O7 0.219069 0.822104 0.312247
O O8 0.000000 0.725015 0.359578
O O9 0.229605 0.802015 0.792356
O O10 0.224684 0.613061 0.848487
O O11 0.000000 0.746327 0.843967
O O12 0.235669 0.500000 0.763004
O O13 0.000000 0.500000 0.709050
O O14 0.696145 0.656771 0.500000
O O15 0.500000 0.636659 0.426531
O O16 0.719335 0.500000 0.428768
O O17 0.000000 0.873975 0.254024
O O18 0.769609 0.000000 0.252828
O O19 0.000000 0.500000 0.819060
#
# Coordination Sequence:
#
# PCOD8193504 Si02
#       7
#     8   8   8   4   8   8   4
#     4   8  13  20  28  37  52  81 125 171 205 234
#     4  10  17  26  43  64  86 108 134 170 208 245
#     4   9  14  20  30  44  65  93 123 158 203 249
#     4   9  14  22  34  55  81 103 124 154 201 248
#     4   9  18  31  45  63  88 114 137 164 201 244
#     4   9  16  24  36  56  79 101 127 164 208 247
#     4   9  14  20  29  44  69  97 120 148 197 254
#
# _framework density 16.713386
#
# number of rings (size 3 to 8) (size 9 to 14) (size 15 to 20)
#    0.000    3.000    2.500    1.500    0.000    2.333 
#    0.000    1.250    0.000    3.500    0.000    3.500 
#    0.000    0.000    0.000    0.000    0.000    0.833 
#
# Total GULP energy -594747.927167 kJ/mol
# GULP energy per Si atom -12390.581816 kJ/mol
# Density = 1.667535 g / cm^3
# Si number density = 16.713386 Si / 1000 Ang^3
#
#
#
# Elastic Constant Matrix: (Units=GPa)
#
#
# Indices 1 2 3 4 5 6 
#
# 1 12.8869 14.2737 24.6346 0.0000 0.0000 0.0000
# 2 14.2737 124.8840 70.5342 0.0000 0.0000 0.0000
# 3 24.6346 70.5342 140.4269 0.0000 0.0000 0.0000
# 4 0.0000 0.0000 0.0000 29.2283 0.0000 0.0000
# 5 0.0000 0.0000 0.0000 0.0000 0.6661 0.0000
# 6 0.0000 0.0000 0.0000 0.0000 0.0000 6.8738
#
#
#
# Elastic Compliance Matrix: (Units=1/GPa)
#
#
# Indices 1 2 3 4 5 6 
#
# 1 0.117302 -0.002492 -0.019326 0.000000 0.000000 0.000000
# 2 -0.002492 0.011232 -0.005204 0.000000 0.000000 0.000000
# 3 -0.019326 -0.005204 0.013126 0.000000 0.000000 0.000000
# 4 0.000000 0.000000 0.000000 0.034213 0.000000 0.000000
# 5 0.000000 0.000000 0.000000 0.000000 1.501347 0.000000
# 6 0.000000 0.000000 0.000000 0.000000 0.000000 0.145480
#
#
# Mechanical properties :
#
#
# Convention : Reuss Voigt Hill
#
# Bulk Modulus (GPa) = 11.41363 55.23140 33.32252
# Shear Modulus (GPa) = 2.62336 18.60398 10.61367
#
# Velocity S-wave (km/s) = 1.25420 3.33996 2.52273
# Velocity P-wave (km/s) = 2.99019 6.92761 5.33540
#
# Compressibility (1/GPa) = 0.08761453
#
# Stress axis : x y z
#
# Youngs Moduli (GPa) = 8.52500 89.03431 76.18713
#
# Poissons Ratio (x) = 0.22184 1.47242
# Poissons Ratio (y) = 0.02124 0.39651
# Poissons Ratio (z) = 0.16476 0.46337
#
# Static dielectric constant tensor:
#      x y z
#    x 2.410430 0.000000 0.000000 
#    y 0.000000 3.294760 0.000000 
#    z 0.000000 0.000000 3.367530 
# 
# 
# High freq. dielectric constant tensor:
#      x y z
#    x 1.564020 0.000000 0.000000 
#    y 0.000000 1.635110 0.000000 
#    z 0.000000 0.000000 1.653790 
# 
# From -- ./inp_files/32435.got.cif
#   From: 2010.03.12/outbox.cif.g09.slc.cpg/sg47_17_cif.got.tgz:32435.got - 2010.04.14 03:12:58.
