data_PCOD8193762
_publ_section_title
;
Structure prediction by ZEFSAII (Michael W. Deem and Ramdas Pophale) SiO2 
 PCOD8193762
Probable space group: P M M M
;
_chemical_formula_sum "Si O2"
_cell_formula_units_Z 60
_cell_length_a 23.563379
_cell_length_b 18.376293
_cell_length_c 9.094541
_cell_angle_alpha 90.000000
_cell_angle_beta 90.000000
_cell_angle_gamma 90.000000
_cell_volume 3938.004977
_symmetry_space_group_name_H-M "P M M M"
_symmetry_group_IT_number 47
_symmetry_cell_setting 'orthorhombic'
loop_
_space_group_symop_operation_xyz
x,y,z
-x,-y,z
x,-y,-z
-x,y,-z
-x,-y,-z
x,y,-z
-x,y,z
x,-y,z
loop_
_atom_site_type_symbol
_atom_site_label
_atom_site_fract_x
_atom_site_fract_y
_atom_site_fract_z
Si Si1 0.331420 0.417241 0.670489
Si Si2 0.435516 0.833109 0.668765
Si Si3 0.887248 0.415488 0.827044
Si Si4 0.268895 0.214097 0.163185
Si Si5 0.612325 0.704128 0.836039
Si Si6 0.785401 0.336313 0.329388
Si Si7 0.339426 0.917329 0.172297
Si Si8 0.000000 0.413634 0.665903
O O1 0.346499 0.410734 0.500000
O O2 0.332254 0.500000 0.725716
O O3 0.379852 0.373963 0.758745
O O4 0.269062 0.385963 0.701562
O O5 0.417020 0.824002 0.500000
O O6 0.500000 0.860666 0.683168
O O7 0.430815 0.754275 0.745224
O O8 0.395862 0.893686 0.742326
O O9 0.876785 0.500000 0.788751
O O10 0.835906 0.368879 0.765012
O O11 0.944449 0.385829 0.751247
O O12 0.892739 0.403169 0.000000
O O13 0.327598 0.256697 0.159143
O O14 0.226202 0.253387 0.276148
O O15 0.284647 0.132087 0.216085
O O16 0.241389 0.213562 0.000000
O O17 0.588221 0.692143 0.000000
O O18 0.802191 0.335110 0.500000
O O19 0.324365 0.000000 0.213305
O O20 0.352413 0.907147 0.000000
O O21 0.000000 0.500000 0.664402
O O22 0.000000 0.382461 0.500000
#
# Coordination Sequence:
#
# PCOD8193762 Si02
#       8
#     8   8   8   8   8   8   8   4
#     4   9  17  28  42  61  85 110 135 168 212 258
#     4  10  20  32  46  64  85 109 137 168 202 242
#     4  10  19  29  41  58  82 113 149 187 224 258
#     4   8  15  28  43  60  83 109 136 165 201 245
#     4   9  17  29  45  62  80 105 136 169 206 249
#     4  10  18  27  41  61  84 110 142 177 210 246
#     4   9  18  32  49  68  89 113 139 166 199 242
#     4   9  17  29  43  57  77 109 148 187 224 261
#
# _framework density 15.236141
#
# number of rings (size 3 to 8) (size 9 to 14) (size 15 to 20)
#    0.000    2.733    0.000    3.000    0.000    7.733 
#    0.000    1.333    0.000    0.400    0.000    2.800 
#    0.000    0.000    0.000    0.600    0.000   12.400 
#
# Total GULP energy -743883.605467 kJ/mol
# GULP energy per Si atom -12398.060091 kJ/mol
# Density = 1.520146 g / cm^3
# Si number density = 15.236141 Si / 1000 Ang^3
#
#
#
# Elastic Constant Matrix: (Units=GPa)
#
#
# Indices 1 2 3 4 5 6 
#
# 1 48.6676 35.4956 36.0764 0.0000 0.0000 0.0000
# 2 35.4956 109.4402 45.5491 0.0000 0.0000 0.0000
# 3 36.0764 45.5491 86.7845 0.0000 0.0000 0.0000
# 4 0.0000 0.0000 0.0000 21.5779 0.0000 0.0000
# 5 0.0000 0.0000 0.0000 0.0000 24.9472 0.0000
# 6 0.0000 0.0000 0.0000 0.0000 0.0000 11.8003
#
#
#
# Elastic Compliance Matrix: (Units=1/GPa)
#
#
# Indices 1 2 3 4 5 6 
#
# 1 0.032826 -0.006356 -0.010310 0.000000 0.000000 0.000000
# 2 -0.006356 0.012922 -0.004140 0.000000 0.000000 0.000000
# 3 -0.010310 -0.004140 0.017982 0.000000 0.000000 0.000000
# 4 0.000000 0.000000 0.000000 0.046344 0.000000 0.000000
# 5 0.000000 0.000000 0.000000 0.000000 0.040085 0.000000
# 6 0.000000 0.000000 0.000000 0.000000 0.000000 0.084743
#
#
# Mechanical properties :
#
#
# Convention : Reuss Voigt Hill
#
# Bulk Modulus (GPa) = 45.21219 53.23715 49.22467
# Shear Modulus (GPa) = 17.61281 20.18316 18.89799
#
# Velocity S-wave (km/s) = 3.40367 3.64358 3.52567
# Velocity P-wave (km/s) = 6.72201 7.26072 6.99655
#
# Compressibility (1/GPa) = 0.02211793
#
# Stress axis : x y z
#
# Youngs Moduli (GPa) = 30.46412 77.38824 55.61266
#
# Poissons Ratio (x) = 0.49185 0.57336
# Poissons Ratio (y) = 0.19362 0.23024
# Poissons Ratio (z) = 0.31408 0.32039
#
# Static dielectric constant tensor:
#      x y z
#    x 2.715960 0.000000 0.000000 
#    y 0.000000 3.025370 0.000000 
#    z 0.000000 0.000000 3.103140 
# 
# 
# High freq. dielectric constant tensor:
#      x y z
#    x 1.550450 0.000000 0.000000 
#    y 0.000000 1.564260 0.000000 
#    z 0.000000 0.000000 1.598220 
# 
# From -- ./inp_files/12887.got.cif
#   From: 2010.03.12/outbox.cif.g09.slc.cpg/sg47_7_cif.got.tgz:12887.got - 2010.04.14 03:12:58.
