data_PCOD8193775
_publ_section_title
;
Structure prediction by ZEFSAII (Michael W. Deem and Ramdas Pophale) SiO2 
 PCOD8193775
Probable space group: P M M M
;
_chemical_formula_sum "Si O2"
_cell_formula_units_Z 56
_cell_length_a 21.609913
_cell_length_b 18.438607
_cell_length_c 8.909653
_cell_angle_alpha 90.000000
_cell_angle_beta 90.000000
_cell_angle_gamma 90.000000
_cell_volume 3550.110871
_symmetry_space_group_name_H-M "P M M M"
_symmetry_group_IT_number 47
_symmetry_cell_setting 'orthorhombic'
loop_
_space_group_symop_operation_xyz
x,y,z
-x,-y,z
x,-y,-z
-x,y,-z
-x,-y,-z
x,y,-z
-x,y,z
x,-y,z
loop_
_atom_site_type_symbol
_atom_site_label
_atom_site_fract_x
_atom_site_fract_y
_atom_site_fract_z
Si Si1 0.570855 0.416915 0.673555
Si Si2 0.928932 0.173120 0.327214
Si Si3 0.174821 0.917693 0.820473
Si Si4 0.681390 0.657571 0.179113
Si Si5 0.254312 0.793468 0.163741
Si Si6 0.204737 0.415882 0.326914
Si Si7 0.131035 0.299827 0.833759
O O1 0.588447 0.406913 0.500000
O O2 0.500000 0.394807 0.702274
O O3 0.581858 0.500000 0.722054
O O4 0.612565 0.364339 0.773816
O O5 0.908723 0.177610 0.500000
O O6 0.889399 0.110512 0.246916
O O7 0.919556 0.252439 0.254514
O O8 0.000000 0.150321 0.309130
O O9 0.233136 0.869029 0.756926
O O10 0.186146 0.000000 0.769568
O O11 0.170772 0.909760 0.000000
O O12 0.695271 0.740106 0.242150
O O13 0.730183 0.601117 0.246913
O O14 0.688329 0.656704 0.000000
O O15 0.192741 0.746377 0.150864
O O16 0.280380 0.813839 0.000000
O O17 0.211164 0.393534 0.500000
O O18 0.190084 0.500000 0.306665
O O19 0.146772 0.373454 0.255081
O O20 0.105711 0.319050 0.000000
#
# Coordination Sequence:
#
# PCOD8193775 Si02
#       7
#     8   8   8   8   8   8   8
#     4   9  18  31  43  56  81 118 154 187 225 266
#     4  10  20  32  46  64  87 116 146 174 210 260
#     4   9  17  30  48  67  88 116 147 177 211 254
#     4  10  18  27  42  63  87 115 148 185 219 254
#     4   7  13  26  41  60  84 107 134 171 214 254
#     4  10  19  29  43  64  89 115 142 175 219 268
#     4   9  17  30  47  64  83 108 141 182 221 256
#
# _framework density 15.774155
#
# number of rings (size 3 to 8) (size 9 to 14) (size 15 to 20)
#    0.000    2.857    0.000    4.286    0.000    5.143 
#    0.000    2.857    0.000    0.429    0.000    3.000 
#    0.000    0.571    0.000    7.143    0.000    1.143 
#
# Total GULP energy -693902.098831 kJ/mol
# GULP energy per Si atom -12391.108908 kJ/mol
# Density = 1.573825 g / cm^3
# Si number density = 15.774155 Si / 1000 Ang^3
#
#
#
# Elastic Constant Matrix: (Units=GPa)
#
#
# Indices 1 2 3 4 5 6 
#
# 1 56.7788 49.9998 25.6756 0.0000 0.0000 0.0000
# 2 49.9998 116.4178 43.4409 0.0000 0.0000 0.0000
# 3 25.6756 43.4409 72.1372 0.0000 0.0000 0.0000
# 4 0.0000 0.0000 0.0000 19.7363 0.0000 0.0000
# 5 0.0000 0.0000 0.0000 0.0000 22.7944 0.0000
# 6 0.0000 0.0000 0.0000 0.0000 0.0000 21.8539
#
#
#
# Elastic Compliance Matrix: (Units=1/GPa)
#
#
# Indices 1 2 3 4 5 6 
#
# 1 0.029050 -0.011116 -0.003645 0.000000 0.000000 0.000000
# 2 -0.011116 0.015333 -0.005277 0.000000 0.000000 0.000000
# 3 -0.003645 -0.005277 0.018338 0.000000 0.000000 0.000000
# 4 0.000000 0.000000 0.000000 0.050668 0.000000 0.000000
# 5 0.000000 0.000000 0.000000 0.000000 0.043870 0.000000
# 6 0.000000 0.000000 0.000000 0.000000 0.000000 0.045758
#
#
# Mechanical properties :
#
#
# Convention : Reuss Voigt Hill
#
# Bulk Modulus (GPa) = 44.16313 53.72958 48.94635
# Shear Modulus (GPa) = 19.94876 21.29144 20.62010
#
# Velocity S-wave (km/s) = 3.56005 3.67790 3.61946
# Velocity P-wave (km/s) = 6.70496 7.22300 6.96879
#
# Compressibility (1/GPa) = 0.02264333
#
# Stress axis : x y z
#
# Youngs Moduli (GPa) = 34.42386 65.21863 54.53218
#
# Poissons Ratio (x) = 0.72498 0.19880
# Poissons Ratio (y) = 0.38266 0.28777
# Poissons Ratio (z) = 0.12549 0.34416
#
# Static dielectric constant tensor:
#      x y z
#    x 2.834930 0.000000 0.000000 
#    y 0.000000 3.230240 0.000000 
#    z 0.000000 0.000000 3.031670 
# 
# 
# High freq. dielectric constant tensor:
#      x y z
#    x 1.573060 0.000000 0.000000 
#    y 0.000000 1.597540 0.000000 
#    z 0.000000 0.000000 1.604610 
# 
# From -- ./inp_files/12829.got.cif
#   From: 2010.03.12/outbox.cif.g09.slc.cpg/sg47_7_cif.got.tgz:12829.got - 2010.04.14 03:12:58.
