data_PCOD8193693
_publ_section_title
;
Structure prediction by ZEFSAII (Michael W. Deem and Ramdas Pophale) SiO2 
 PCOD8193693
Probable space group: P M M M
;
_chemical_formula_sum "Si O2"
_cell_formula_units_Z 64
_cell_length_a 26.801984
_cell_length_b 18.345489
_cell_length_c 9.165409
_cell_angle_alpha 90.000000
_cell_angle_beta 90.000000
_cell_angle_gamma 90.000000
_cell_volume 4506.590385
_symmetry_space_group_name_H-M "P M M M"
_symmetry_group_IT_number 47
_symmetry_cell_setting 'orthorhombic'
loop_
_space_group_symop_operation_xyz
x,y,z
-x,-y,z
x,-y,-z
-x,y,-z
-x,-y,-z
x,y,-z
-x,y,z
x,-y,z
loop_
_atom_site_type_symbol
_atom_site_label
_atom_site_fract_x
_atom_site_fract_y
_atom_site_fract_z
Si Si1 0.848269 0.083410 0.669603
Si Si2 0.860755 0.416853 0.170814
Si Si3 0.660588 0.916444 0.174238
Si Si4 0.899676 0.202318 0.163182
Si Si5 0.552740 0.913574 0.837002
Si Si6 0.056880 0.329568 0.667583
Si Si7 0.203526 0.287527 0.161648
Si Si8 0.747376 0.832558 0.330141
O O1 0.860585 0.092328 0.500000
O O2 0.891533 0.124631 0.758663
O O3 0.793829 0.115305 0.705143
O O4 0.848485 0.000000 0.720081
O O5 0.848694 0.500000 0.210725
O O6 0.909193 0.391377 0.259232
O O7 0.811477 0.369400 0.212641
O O8 0.872880 0.406114 0.000000
O O9 0.605676 0.889792 0.234080
O O10 0.699998 0.863513 0.247004
O O11 0.671270 0.000000 0.221203
O O12 0.663133 0.909377 0.000000
O O13 0.938338 0.251281 0.253770
O O14 0.847559 0.243431 0.158577
O O15 0.920449 0.189362 0.000000
O O16 0.500000 0.889325 0.757347
O O17 0.554568 0.000000 0.845620
O O18 0.550863 0.881537 0.000000
O O19 0.073407 0.320017 0.500000
O O20 0.000000 0.356160 0.680247
O O21 0.241765 0.249543 0.273247
O O22 0.227743 0.288165 0.000000
O O23 0.735355 0.828521 0.500000
#
# Coordination Sequence:
#
# PCOD8193693 Si02
#       8
#     8   8   8   8   8   8   8   8
#     4   9  17  28  41  57  78 103 128 156 194 238
#     4   9  18  32  49  68  87 105 126 153 184 217
#     4   9  16  24  35  52  73  98 130 169 209 242
#     4   9  17  29  45  62  78  99 128 160 192 226
#     4   7  10  18  32  48  65  88 123 166 206 241
#     4  10  20  32  46  64  85 108 131 153 180 217
#     4   8  15  28  43  58  77 101 127 152 180 219
#     4  10  18  26  37  54  77 103 130 159 191 228
#
# _framework density 14.201423999999999
#
# number of rings (size 3 to 8) (size 9 to 14) (size 15 to 20)
#    0.000    3.125    0.000    3.375    0.000    6.000 
#    0.000    1.250    0.000    0.750    0.000    4.375 
#    0.000    0.000    0.000    0.000    0.000    0.625 
#
# Total GULP energy -792991.605899 kJ/mol
# GULP energy per Si atom -12390.493842 kJ/mol
# Density = 1.416910 g / cm^3
# Si number density = 14.201424 Si / 1000 Ang^3
#
#
#
# Elastic Constant Matrix: (Units=GPa)
#
#
# Indices 1 2 3 4 5 6 
#
# 1 65.9189 42.4744 33.1518 0.0000 0.0000 0.0000
# 2 42.4744 96.3956 38.2443 0.0000 0.0000 0.0000
# 3 33.1518 38.2443 59.3247 0.0000 0.0000 0.0000
# 4 0.0000 0.0000 0.0000 17.4106 0.0000 0.0000
# 5 0.0000 0.0000 0.0000 0.0000 11.3311 0.0000
# 6 0.0000 0.0000 0.0000 0.0000 0.0000 10.6102
#
#
#
# Elastic Compliance Matrix: (Units=1/GPa)
#
#
# Indices 1 2 3 4 5 6 
#
# 1 0.024280 -0.007142 -0.008964 0.000000 0.000000 0.000000
# 2 -0.007142 0.016040 -0.006349 0.000000 0.000000 0.000000
# 3 -0.008964 -0.006349 0.025959 0.000000 0.000000 0.000000
# 4 0.000000 0.000000 0.000000 0.057436 0.000000 0.000000
# 5 0.000000 0.000000 0.000000 0.000000 0.088253 0.000000
# 6 0.000000 0.000000 0.000000 0.000000 0.000000 0.094249
#
#
# Mechanical properties :
#
#
# Convention : Reuss Voigt Hill
#
# Bulk Modulus (GPa) = 46.79831 49.93113 48.36472
# Shear Modulus (GPa) = 13.95670 15.05494 14.50582
#
# Velocity S-wave (km/s) = 3.13831 3.25945 3.19946
# Velocity P-wave (km/s) = 6.79388 7.02858 6.91223
#
# Compressibility (1/GPa) = 0.02136829
#
# Stress axis : x y z
#
# Youngs Moduli (GPa) = 41.18564 62.34455 38.52273
#
# Poissons Ratio (x) = 0.44527 0.34532
# Poissons Ratio (y) = 0.29415 0.24459
# Poissons Ratio (z) = 0.36919 0.39583
#
# Static dielectric constant tensor:
#      x y z
#    x 2.833680 0.000000 0.000000 
#    y 0.000000 2.781470 0.000000 
#    z 0.000000 0.000000 2.789380 
# 
# 
# High freq. dielectric constant tensor:
#      x y z
#    x 1.519710 0.000000 0.000000 
#    y 0.000000 1.514750 0.000000 
#    z 0.000000 0.000000 1.538830 
# 
# From -- ./inp_files/13493.got.cif
#   From: 2010.03.12/outbox.cif.g09.slc.cpg/sg47_7_cif.got.tgz:13493.got - 2010.04.14 03:12:58.
