data_PCOD8193039
_publ_section_title
;
Structure prediction by ZEFSAII (Michael W. Deem and Ramdas Pophale) SiO2 
 PCOD8193039
Probable space group: I M A 2
;
_chemical_formula_sum "Si O2"
_cell_formula_units_Z 60
_cell_length_a 27.771582
_cell_length_b 21.232179
_cell_length_c 5.087481
_cell_angle_alpha 90.000000
_cell_angle_beta 90.000000
_cell_angle_gamma 90.000000
_cell_volume 2999.839277
_symmetry_space_group_name_H-M "I M A 2"
_symmetry_group_IT_number 46
_symmetry_cell_setting 'orthorhombic'
loop_
_space_group_symop_operation_xyz
x,y,z
-x,-y,z
1/2-x,y,z
1/2+x,-y,z
1/2+x,1/2+y,1/2+z
1/2-x,1/2-y,1/2+z
-x,1/2+y,1/2+z
x,1/2-y,1/2+z
loop_
_atom_site_type_symbol
_atom_site_label
_atom_site_fract_x
_atom_site_fract_y
_atom_site_fract_z
Si Si1 0.400554 0.030099 0.150100
Si Si2 0.038934 0.208741 0.779899
Si Si3 0.306477 0.289234 0.153092
Si Si4 0.112168 0.610004 0.716176
Si Si5 0.380851 0.392816 0.161507
Si Si6 0.451126 0.621690 0.217473
Si Si7 0.500000 0.500000 0.424898
Si Si8 0.694531 0.291563 0.788147
O O1 0.391527 0.080338 0.375588
O O2 0.376045 0.964206 0.230184
O O3 0.376829 0.051959 0.876020
O O4 0.457983 0.024261 0.115350
O O5 0.046840 0.263681 0.569303
O O6 0.077103 0.153826 0.744511
O O7 0.985642 0.181142 0.751795
O O8 0.250000 0.300852 0.152203
O O9 0.324073 0.250477 0.404391
O O10 0.330036 0.357618 0.150279
O O11 0.090765 0.626792 0.432511
O O12 0.161688 0.646925 0.759556
O O13 0.072176 0.627264 0.931453
O O14 0.480329 0.556020 0.240328
O O15 0.750000 0.313826 0.770932
O O16 0.682773 0.240750 0.564655
#
# Coordination Sequence:
#
# PCOD8193039 Si02
#       8
#     8   8   8   8   8   8   4   8
#     4  11  24  37  64  86 123 159 213 241 300 349
#     4  12  25  38  55  85 122 157 197 247 308 350
#     4  10  21  40  65  89 117 157 206 255 306 365
#     4  11  24  40  61  94 120 157 201 255 299 357
#     4  12  23  40  60  89 120 164 202 255 294 366
#     4  11  24  38  61  85 121 163 201 252 297 361
#     4  10  22  42  60  86 114 170 216 246 280 370
#     4  10  22  42  69  93 119 159 202 247 308 378
#
# _framework density 20.001069999999999
#
# number of rings (size 3 to 8) (size 9 to 14) (size 15 to 20)
#    0.000    1.067    1.333    5.600    3.733    4.267 
#    0.000    1.333    0.000    0.000    0.000    0.000 
#    0.000    0.000    0.000    0.000    0.000    0.000 
#
# Total GULP energy -372205.558747 kJ/mol
# GULP energy per Si atom -12406.851958 kJ/mol
# Density = 1.995555 g / cm^3
# Si number density = 20.001070 Si / 1000 Ang^3
#
#
#
# Elastic Constant Matrix: (Units=GPa)
#
#
# Indices 1 2 3 4 5 6 
#
# 1 79.2320 52.8321 16.0084 0.0000 0.0000 0.0000
# 2 52.8321 80.3806 15.6326 0.0000 0.0000 0.0000
# 3 16.0084 15.6326 89.5501 0.0000 0.0000 0.0000
# 4 0.0000 0.0000 0.0000 28.3440 0.0000 0.0000
# 5 0.0000 0.0000 0.0000 0.0000 35.0716 0.0000
# 6 0.0000 0.0000 0.0000 0.0000 0.0000 48.1092
#
#
#
# Elastic Compliance Matrix: (Units=1/GPa)
#
#
# Indices 1 2 3 4 5 6 
#
# 1 0.022662 -0.014603 -0.001502 0.000000 0.000000 0.000000
# 2 -0.014603 0.022288 -0.001280 0.000000 0.000000 0.000000
# 3 -0.001502 -0.001280 0.011659 0.000000 0.000000 0.000000
# 4 0.000000 0.000000 0.000000 0.035281 0.000000 0.000000
# 5 0.000000 0.000000 0.000000 0.000000 0.028513 0.000000
# 6 0.000000 0.000000 0.000000 0.000000 0.000000 0.020786
#
#
# Mechanical properties :
#
#
# Convention : Reuss Voigt Hill
#
# Bulk Modulus (GPa) = 45.79085 46.45653 46.12369
# Shear Modulus (GPa) = 27.28681 33.28426 30.28554
#
# Velocity S-wave (km/s) = 3.69761 4.08379 3.89549
# Velocity P-wave (km/s) = 6.41667 6.74640 6.58360
#
# Compressibility (1/GPa) = 0.02183842
#
# Stress axis : x y z
#
# Youngs Moduli (GPa) = 44.12686 44.86725 85.77125
#
# Poissons Ratio (x) = 0.65520 0.12882
# Poissons Ratio (y) = 0.64438 0.10981
# Poissons Ratio (z) = 0.06628 0.05744
#
# Static dielectric constant tensor:
#      x y z
#    x 3.585590 0.000000 0.000000 
#    y 0.000000 3.778890 0.000000 
#    z 0.000000 0.000000 3.832180 
# 
# 
# High freq. dielectric constant tensor:
#      x y z
#    x 1.770030 0.000000 0.000000 
#    y 0.000000 1.784430 0.000000 
#    z 0.000000 0.000000 1.800730 
# 
# From -- ./inp_files/2596.got.cif
#   From: 2010.03.12/outbox.cif.g09.slc.cpg/sg46_2_cif.got.tgz:2596.got - 2010.04.14 02:56:35.
