data_PCOD8193079
_publ_section_title
;
Structure prediction by ZEFSAII (Michael W. Deem and Ramdas Pophale) SiO2 
 PCOD8193079
Probable space group: I M A 2
;
_chemical_formula_sum "Si O2"
_cell_formula_units_Z 56
_cell_length_a 22.175245
_cell_length_b 15.246935
_cell_length_c 7.545030
_cell_angle_alpha 90.000000
_cell_angle_beta 90.000000
_cell_angle_gamma 90.000000
_cell_volume 2551.008740
_symmetry_space_group_name_H-M "I M A 2"
_symmetry_group_IT_number 46
_symmetry_cell_setting 'orthorhombic'
loop_
_space_group_symop_operation_xyz
x,y,z
-x,-y,z
1/2-x,y,z
1/2+x,-y,z
1/2+x,1/2+y,1/2+z
1/2-x,1/2-y,1/2+z
-x,1/2+y,1/2+z
x,1/2-y,1/2+z
loop_
_atom_site_type_symbol
_atom_site_label
_atom_site_fract_x
_atom_site_fract_y
_atom_site_fract_z
Si Si1 0.913801 0.140484 0.572680
Si Si2 0.865874 0.647966 0.468923
Si Si3 0.182541 0.317160 0.111648
Si Si4 0.316690 0.528188 0.618809
Si Si5 0.497796 0.101625 0.878253
Si Si6 0.683608 0.005783 0.521210
Si Si7 0.588755 0.166127 0.156199
O O1 0.974162 0.117841 0.682957
O O2 0.926189 0.140310 0.360491
O O3 0.889117 0.233656 0.642032
O O4 0.863928 0.066939 0.625663
O O5 0.815848 0.659123 0.318156
O O6 0.863553 0.736502 0.585513
O O7 0.848770 0.564113 0.584805
O O8 0.929991 0.636632 0.374469
O O9 0.250000 0.290817 0.050309
O O10 0.160539 0.405127 0.010507
O O11 0.250000 0.534021 0.530037
O O12 0.309569 0.542894 0.826396
O O13 0.360156 0.607200 0.559393
O O14 0.500000 0.000000 0.928470
O O15 0.529402 0.155305 0.036732
O O16 0.750000 0.008977 0.614735
#
# Coordination Sequence:
#
# PCOD8193079 Si02
#       7
#     8   8   8   8   8   8   8
#     4  11  24  44  69  97 140 176 228 281 340 400
#     4  12  25  40  65  94 134 179 224 279 345 405
#     4  11  23  40  63  96 131 170 222 278 340 410
#     4  10  21  42  67  96 130 172 222 281 348 410
#     4  12  26  47  67  99 138 180 238 279 335 414
#     4   9  21  42  67  96 132 173 224 283 348 410
#     4  11  24  44  69  99 136 180 220 288 337 409
#
# _framework density 21.952100999999999
#
# number of rings (size 3 to 8) (size 9 to 14) (size 15 to 20)
#    0.000    1.143    2.857    3.000    2.000    2.286 
#    2.571    0.000    0.000    0.000    0.000    0.000 
#    0.000    0.000    0.000    0.000    0.000    0.000 
#
# Total GULP energy -347150.414197 kJ/mol
# GULP energy per Si atom -12398.229078 kJ/mol
# Density = 2.190214 g / cm^3
# Si number density = 21.952101 Si / 1000 Ang^3
#
#
#
# Elastic Constant Matrix: (Units=GPa)
#
#
# Indices 1 2 3 4 5 6 
#
# 1 126.3870 72.1177 34.4324 0.0000 0.0000 0.0000
# 2 72.1177 157.4603 6.0306 0.0000 0.0000 0.0000
# 3 34.4324 6.0306 71.8488 0.0000 0.0000 0.0000
# 4 0.0000 0.0000 0.0000 30.2889 0.0000 0.0000
# 5 0.0000 0.0000 0.0000 0.0000 28.7640 0.0000
# 6 0.0000 0.0000 0.0000 0.0000 0.0000 33.3303
#
#
#
# Elastic Compliance Matrix: (Units=1/GPa)
#
#
# Indices 1 2 3 4 5 6 
#
# 1 0.012602 -0.005558 -0.005573 0.000000 0.000000 0.000000
# 2 -0.005558 0.008823 0.001923 0.000000 0.000000 0.000000
# 3 -0.005573 0.001923 0.016427 0.000000 0.000000 0.000000
# 4 0.000000 0.000000 0.000000 0.033015 0.000000 0.000000
# 5 0.000000 0.000000 0.000000 0.000000 0.034766 0.000000
# 6 0.000000 0.000000 0.000000 0.000000 0.000000 0.030003
#
#
# Mechanical properties :
#
#
# Convention : Reuss Voigt Hill
#
# Bulk Modulus (GPa) = 51.44979 64.53973 57.99476
# Shear Modulus (GPa) = 31.14661 34.68433 32.91547
#
# Velocity S-wave (km/s) = 3.77084 3.97923 3.87644
# Velocity P-wave (km/s) = 6.51515 7.11171 6.81996
#
# Compressibility (1/GPa) = 0.01943643
#
# Stress axis : x y z
#
# Youngs Moduli (GPa) = 79.35162 113.34098 60.87393
#
# Poissons Ratio (x) = 0.63000 0.33924
# Poissons Ratio (y) = 0.44107 -0.11707
# Poissons Ratio (z) = 0.44221 -0.21798
#
# Static dielectric constant tensor:
#      x y z
#    x 4.076090 0.000000 0.000000 
#    y 0.000000 4.193300 0.000000 
#    z 0.000000 0.000000 3.832580 
# 
# 
# High freq. dielectric constant tensor:
#      x y z
#    x 1.856160 0.000000 0.000000 
#    y 0.000000 1.876510 0.000000 
#    z 0.000000 0.000000 1.861790 
# 
# From -- ./inp_files/7406.got.cif
#   From: 2010.03.12/outbox.cif.g09.slc.cpg/sg46_4_cif.got.tgz:7406.got - 2010.04.14 02:56:35.
