data_PCOD8193869
_publ_section_title
;
Structure prediction by ZEFSAII (Michael W. Deem and Ramdas Pophale) SiO2 
 PCOD8193869
Probable space group: P M M M
;
_chemical_formula_sum "Si O2"
_cell_formula_units_Z 52
_cell_length_a 8.083603
_cell_length_b 13.831153
_cell_length_c 28.139918
_cell_angle_alpha 90.000000
_cell_angle_beta 90.000000
_cell_angle_gamma 90.000000
_cell_volume 3146.199006
_symmetry_space_group_name_H-M "P M M M"
_symmetry_group_IT_number 47
_symmetry_cell_setting 'orthorhombic'
loop_
_space_group_symop_operation_xyz
x,y,z
-x,-y,z
x,-y,-z
-x,y,-z
-x,-y,-z
x,y,-z
-x,y,z
x,-y,z
loop_
_atom_site_type_symbol
_atom_site_label
_atom_site_fract_x
_atom_site_fract_y
_atom_site_fract_z
Si Si1 0.693087 0.285888 0.448097
Si Si2 0.816950 0.885302 0.889201
Si Si3 0.310424 0.891296 0.789133
Si Si4 0.500000 0.115341 0.054041
Si Si5 0.696670 0.609426 0.644702
Si Si6 0.803927 0.891359 0.395240
Si Si7 0.191949 0.214110 0.699116
O O1 0.771010 0.311061 0.500000
O O2 0.500000 0.304638 0.450735
O O3 0.768179 0.353194 0.406256
O O4 0.727709 0.173525 0.436947
O O5 0.793500 0.854319 0.834329
O O6 0.667616 0.842644 0.921383
O O7 0.000000 0.848630 0.905993
O O8 0.809201 0.000000 0.892795
O O9 0.500000 0.892351 0.805277
O O10 0.288132 0.817156 0.746079
O O11 0.254694 0.000000 0.773910
O O12 0.500000 0.000000 0.057096
O O13 0.500000 0.151791 0.000000
O O14 0.500000 0.618087 0.645533
O O15 0.756644 0.500000 0.652480
O O16 0.771362 0.673776 0.687199
O O17 0.742771 0.851428 0.344381
O O18 0.000000 0.886186 0.398336
O O19 0.737834 0.000000 0.401711
O O20 0.000000 0.197428 0.708467
#
# Coordination Sequence:
#
# PCOD8193869 Si02
#       7
#     8   8   8   4   8   8   8
#     4   9  18  31  46  65  85 104 132 170 210 254
#     4   9  16  26  39  56  81 114 153 196 239 277
#     4  10  18  28  43  63  89 118 148 185 226 267
#     4   9  16  26  38  54  80 114 157 205 242 273
#     4   9  18  33  50  65  83 107 135 170 213 262
#     4   9  18  31  44  59  83 112 139 168 203 249
#     4  10  19  30  45  65  86 109 141 176 214 263
#
# _framework density 16.52788
#
# number of rings (size 3 to 8) (size 9 to 14) (size 15 to 20)
#    0.000    2.692    0.769    1.385    0.000    4.000 
#    0.000    4.615    0.000    0.000    0.000    4.308 
#    0.000    0.000    0.000    0.000    0.000    1.538 
#
# Total GULP energy -644596.150195 kJ/mol
# GULP energy per Si atom -12396.079811 kJ/mol
# Density = 1.649026 g / cm^3
# Si number density = 16.527880 Si / 1000 Ang^3
#
#
#
# Elastic Constant Matrix: (Units=GPa)
#
#
# Indices 1 2 3 4 5 6 
#
# 1 63.4935 9.6219 36.6245 0.0000 0.0000 0.0000
# 2 9.6219 72.5473 29.1571 0.0000 0.0000 0.0000
# 3 36.6245 29.1571 103.0104 0.0000 0.0000 0.0000
# 4 0.0000 0.0000 0.0000 9.9897 0.0000 0.0000
# 5 0.0000 0.0000 0.0000 0.0000 18.8344 0.0000
# 6 0.0000 0.0000 0.0000 0.0000 0.0000 16.0012
#
#
#
# Elastic Compliance Matrix: (Units=1/GPa)
#
#
# Indices 1 2 3 4 5 6 
#
# 1 0.019816 0.000230 -0.007111 0.000000 0.000000 0.000000
# 2 0.000230 0.015556 -0.004485 0.000000 0.000000 0.000000
# 3 -0.007111 -0.004485 0.013505 0.000000 0.000000 0.000000
# 4 0.000000 0.000000 0.000000 0.100103 0.000000 0.000000
# 5 0.000000 0.000000 0.000000 0.000000 0.053094 0.000000
# 6 0.000000 0.000000 0.000000 0.000000 0.000000 0.062495
#
#
# Mechanical properties :
#
#
# Convention : Reuss Voigt Hill
#
# Bulk Modulus (GPa) = 38.24643 43.31757 40.78200
# Shear Modulus (GPa) = 16.89089 19.87490 18.38290
#
# Velocity S-wave (km/s) = 3.20028 3.47148 3.33864
# Velocity P-wave (km/s) = 6.07014 6.50645 6.29208
#
# Compressibility (1/GPa) = 0.02614623
#
# Stress axis : x y z
#
# Youngs Moduli (GPa) = 50.46329 64.28337 74.04520
#
# Poissons Ratio (x) = -0.01475 0.52650
# Poissons Ratio (y) = -0.01158 0.33208
# Poissons Ratio (z) = 0.35882 0.28830
#
# Static dielectric constant tensor:
#      x y z
#    x 3.163740 0.000000 0.000000 
#    y 0.000000 2.846240 0.000000 
#    z 0.000000 0.000000 3.101970 
# 
# 
# High freq. dielectric constant tensor:
#      x y z
#    x 1.642080 0.000000 0.000000 
#    y 0.000000 1.586070 0.000000 
#    z 0.000000 0.000000 1.624520 
# 
# From -- ./inp_files/13414.got.cif
#   From: 2010.03.12/outbox.cif.g09.slc.cpg/sg47_7_cif.got.tgz:13414.got - 2010.04.14 03:12:58.
