data_PCOD8193284
_publ_section_title
;
Structure prediction by ZEFSAII (Michael W. Deem and Ramdas Pophale) SiO2 
 PCOD8193284
Probable space group: I M A 2
;
_chemical_formula_sum "Si O2"
_cell_formula_units_Z 24
_cell_length_a 9.018975
_cell_length_b 5.159333
_cell_length_c 17.790853
_cell_angle_alpha 90.000000
_cell_angle_beta 90.000000
_cell_angle_gamma 90.000000
_cell_volume 827.842110
_symmetry_space_group_name_H-M "I M A 2"
_symmetry_group_IT_number 46
_symmetry_cell_setting 'orthorhombic'
loop_
_space_group_symop_operation_xyz
x,y,z
-x,-y,z
1/2-x,y,z
1/2+x,-y,z
1/2+x,1/2+y,1/2+z
1/2-x,1/2-y,1/2+z
-x,1/2+y,1/2+z
x,1/2-y,1/2+z
loop_
_atom_site_type_symbol
_atom_site_label
_atom_site_fract_x
_atom_site_fract_y
_atom_site_fract_z
Si Si1 0.500000 0.500000 0.785100
Si Si2 0.000000 0.500000 0.026590
Si Si3 0.250000 0.307834 0.365176
Si Si4 0.250000 0.857751 0.000508
Si Si5 0.250000 0.262215 0.616865
Si Si6 0.750000 0.344369 0.239014
O O1 0.600745 0.664327 0.841362
O O2 0.398179 0.669509 0.726576
O O3 0.100990 0.333894 0.080470
O O4 0.104466 0.692066 0.977630
O O5 0.250000 0.367235 0.455057
O O6 0.250000 0.593393 0.327856
O O7 0.250000 0.926768 0.092469
O O8 0.250000 0.136954 0.701295
#
# Coordination Sequence:
#
# PCOD8193284 Si02
#       6
#     4   4   4   4   4   4
#     4  10  26  49  78 118 162 207 274 342 398 485
#     4  10  26  49  74 116 154 207 268 340 398 477
#     4  11  26  48  82 116 158 213 268 337 412 484
#     4  11  26  52  81 117 162 210 275 336 411 486
#     4  11  26  47  76 113 158 213 268 330 399 483
#     4  11  26  49  77 118 158 216 271 333 410 481
#
# _framework density 28.991036999999999
#
# number of rings (size 3 to 8) (size 9 to 14) (size 15 to 20)
#    0.000    1.333    0.000    2.000    4.667   18.667 
#    0.000    5.000    0.000    0.000    0.000    0.000 
#    0.000    0.000    0.000    0.000    0.000    0.000 
#
# Total GULP energy -148658.111567 kJ/mol
# GULP energy per Si atom -12388.175964 kJ/mol
# Density = 2.892505 g / cm^3
# Si number density = 28.991037 Si / 1000 Ang^3
#
#
#
# Elastic Constant Matrix: (Units=GPa)
#
#
# Indices 1 2 3 4 5 6 
#
# 1 225.0869 64.8647 51.8134 0.0000 0.0000 0.0000
# 2 64.8647 145.3227 44.5301 0.0000 0.0000 0.0000
# 3 51.8134 44.5301 105.9339 0.0000 0.0000 0.0000
# 4 0.0000 0.0000 0.0000 29.7090 0.0000 0.0000
# 5 0.0000 0.0000 0.0000 0.0000 28.9583 0.0000
# 6 0.0000 0.0000 0.0000 0.0000 0.0000 78.6721
#
#
#
# Elastic Compliance Matrix: (Units=1/GPa)
#
#
# Indices 1 2 3 4 5 6 
#
# 1 0.005403 -0.001839 -0.001870 0.000000 0.000000 0.000000
# 2 -0.001839 0.008524 -0.002684 0.000000 0.000000 0.000000
# 3 -0.001870 -0.002684 0.011483 0.000000 0.000000 0.000000
# 4 0.000000 0.000000 0.000000 0.033660 0.000000 0.000000
# 5 0.000000 0.000000 0.000000 0.000000 0.034532 0.000000
# 6 0.000000 0.000000 0.000000 0.000000 0.000000 0.012711
#
#
# Mechanical properties :
#
#
# Convention : Reuss Voigt Hill
#
# Bulk Modulus (GPa) = 79.20705 88.75112 83.97908
# Shear Modulus (GPa) = 40.54940 48.47689 44.51314
#
# Velocity S-wave (km/s) = 3.74396 4.09361 3.92268
# Velocity P-wave (km/s) = 6.78750 7.28171 7.03894
#
# Compressibility (1/GPa) = 0.01262514
#
# Stress axis : x y z
#
# Youngs Moduli (GPa) = 185.08229 117.31090 87.08835
#
# Poissons Ratio (x) = 0.21570 0.16283
# Poissons Ratio (y) = 0.34031 0.23374
# Poissons Ratio (z) = 0.34606 0.31486
#
# Static dielectric constant tensor:
#      x y z
#    x 5.582110 0.000000 0.000000 
#    y 0.000000 5.938260 0.000000 
#    z 0.000000 0.000000 5.008360 
# 
# 
# High freq. dielectric constant tensor:
#      x y z
#    x 2.204720 0.000000 0.000000 
#    y 0.000000 2.188610 0.000000 
#    z 0.000000 0.000000 2.163220 
# 
# From -- ./inp_files/17818.got.cif
#   From: 2010.03.12/outbox.cif.g09.slc.cpg/sg46_9_cif.got.tgz:17818.got - 2010.04.14 02:56:35.
