data_PCOD8193562
_publ_section_title
;
Structure prediction by ZEFSAII (Michael W. Deem and Ramdas Pophale) SiO2 
 PCOD8193562
Probable space group: P M M M
;
_chemical_formula_sum "Si O2"
_cell_formula_units_Z 64
_cell_length_a 12.831133
_cell_length_b 21.717174
_cell_length_c 13.999061
_cell_angle_alpha 90.000000
_cell_angle_beta 90.000000
_cell_angle_gamma 90.000000
_cell_volume 3900.921614
_symmetry_space_group_name_H-M "P M M M"
_symmetry_group_IT_number 47
_symmetry_cell_setting 'orthorhombic'
loop_
_space_group_symop_operation_xyz
x,y,z
-x,-y,z
x,-y,-z
-x,y,-z
-x,-y,-z
x,y,-z
-x,y,z
x,-y,z
loop_
_atom_site_type_symbol
_atom_site_label
_atom_site_fract_x
_atom_site_fract_y
_atom_site_fract_z
Si Si1 0.381179 0.805152 0.609847
Si Si2 0.250356 0.360026 0.110017
Si Si3 0.879506 0.705516 0.256989
Si Si4 0.618707 0.430335 0.249909
Si Si5 0.232347 0.830541 0.231291
Si Si6 0.698499 0.329184 0.388731
Si Si7 0.386065 0.758288 0.890929
Si Si8 0.122131 0.929255 0.892236
O O1 0.356788 0.819509 0.500000
O O2 0.500000 0.823905 0.635438
O O3 0.294974 0.843507 0.669947
O O4 0.367424 0.732553 0.631897
O O5 0.146484 0.334444 0.161801
O O6 0.300463 0.418845 0.162528
O O7 0.338075 0.308553 0.123323
O O8 0.224201 0.375249 0.000000
O O9 0.854970 0.777664 0.241649
O O10 0.814023 0.679006 0.345708
O O11 0.000000 0.697594 0.281459
O O12 0.500000 0.421292 0.214137
O O13 0.636901 0.500000 0.285139
O O14 0.640351 0.385792 0.339091
O O15 0.319518 0.810900 0.156899
O O16 0.180131 0.891854 0.190710
O O17 0.708375 0.343778 0.500000
O O18 0.500000 0.757068 0.843107
O O19 0.393316 0.776777 0.000000
O O20 0.000000 0.920831 0.876216
O O21 0.155007 0.000000 0.880096
O O22 0.151153 0.906704 0.000000
#
# Coordination Sequence:
#
# PCOD8193562 Si02
#       8
#     8   8   8   8   8   8   8   8
#     4   9  17  29  47  71  96 122 152 185 224 273
#     4   9  18  31  45  62  88 121 153 185 224 271
#     4   9  18  30  46  71  96 115 144 189 235 275
#     4  10  20  31  45  68  94 118 147 183 221 266
#     4  10  17  27  46  70  95 122 151 186 227 266
#     4   9  18  32  49  68  92 121 149 181 227 279
#     4   9  16  25  40  64  91 118 148 182 224 275
#     4   9  18  32  49  69  94 125 158 188 220 263
#
# _framework density 16.406379999999999
#
# number of rings (size 3 to 8) (size 9 to 14) (size 15 to 20)
#    0.000    2.750    0.000    3.000    0.000    3.000 
#    0.000    1.250    0.000    9.000    0.000   13.125 
#    0.000    0.000    0.000    0.000    0.000    0.000 
#
# Total GULP energy -793381.020410 kJ/mol
# GULP energy per Si atom -12396.578444 kJ/mol
# Density = 1.636904 g / cm^3
# Si number density = 16.406380 Si / 1000 Ang^3
#
#
#
# Elastic Constant Matrix: (Units=GPa)
#
#
# Indices 1 2 3 4 5 6 
#
# 1 90.5097 28.4650 30.1723 0.0000 0.0000 0.0000
# 2 28.4650 64.9533 37.1240 0.0000 0.0000 0.0000
# 3 30.1723 37.1240 91.0908 0.0000 0.0000 0.0000
# 4 0.0000 0.0000 0.0000 22.6871 0.0000 0.0000
# 5 0.0000 0.0000 0.0000 0.0000 23.4668 0.0000
# 6 0.0000 0.0000 0.0000 0.0000 0.0000 17.7381
#
#
#
# Elastic Compliance Matrix: (Units=1/GPa)
#
#
# Indices 1 2 3 4 5 6 
#
# 1 0.013286 -0.004311 -0.002644 0.000000 0.000000 0.000000
# 2 -0.004311 0.021470 -0.007322 0.000000 0.000000 0.000000
# 3 -0.002644 -0.007322 0.014838 0.000000 0.000000 0.000000
# 4 0.000000 0.000000 0.000000 0.044078 0.000000 0.000000
# 5 0.000000 0.000000 0.000000 0.000000 0.042613 0.000000
# 6 0.000000 0.000000 0.000000 0.000000 0.000000 0.056376
#
#
# Mechanical properties :
#
#
# Convention : Reuss Voigt Hill
#
# Bulk Modulus (GPa) = 47.52951 48.67516 48.10234
# Shear Modulus (GPa) = 21.90794 22.83122 22.36958
#
# Velocity S-wave (km/s) = 3.65818 3.73447 3.69652
# Velocity P-wave (km/s) = 6.84661 6.95183 6.89942
#
# Compressibility (1/GPa) = 0.02103956
#
# Stress axis : x y z
#
# Youngs Moduli (GPa) = 75.26886 46.57671 67.39554
#
# Poissons Ratio (x) = 0.20081 0.17816
# Poissons Ratio (y) = 0.32451 0.49347
# Poissons Ratio (z) = 0.19898 0.34104
#
# Static dielectric constant tensor:
#      x y z
#    x 3.024830 0.000000 0.000000 
#    y 0.000000 2.812190 0.000000 
#    z 0.000000 0.000000 3.392360 
# 
# 
# High freq. dielectric constant tensor:
#      x y z
#    x 1.627220 0.000000 0.000000 
#    y 0.000000 1.599060 0.000000 
#    z 0.000000 0.000000 1.637110 
# 
# From -- ./inp_files/22957.got.cif
#   From: 2010.03.12/outbox.cif.g09.slc.cpg/sg47_12_cif.got.tgz:22957.got - 2010.04.14 03:12:58.
