data_PCOD8193432
_publ_section_title
;
Structure prediction by ZEFSAII (Michael W. Deem and Ramdas Pophale) SiO2 
 PCOD8193432
Probable space group: I M A 2
;
_chemical_formula_sum "Si O2"
_cell_formula_units_Z 48
_cell_length_a 9.187498
_cell_length_b 31.222119
_cell_length_c 9.187452
_cell_angle_alpha 90.000000
_cell_angle_beta 90.000000
_cell_angle_gamma 90.000000
_cell_volume 2635.449601
_symmetry_space_group_name_H-M "I M A 2"
_symmetry_group_IT_number 46
_symmetry_cell_setting 'orthorhombic'
loop_
_space_group_symop_operation_xyz
x,y,z
-x,-y,z
1/2-x,y,z
1/2+x,-y,z
1/2+x,1/2+y,1/2+z
1/2-x,1/2-y,1/2+z
-x,1/2+y,1/2+z
x,1/2-y,1/2+z
loop_
_atom_site_type_symbol
_atom_site_label
_atom_site_fract_x
_atom_site_fract_y
_atom_site_fract_z
Si Si1 0.423341 0.708964 0.442790
Si Si2 0.080600 0.624999 0.937650
Si Si3 0.914261 0.958963 0.780397
Si Si4 0.076658 0.791037 0.271315
Si Si5 0.414261 0.458964 0.933713
Si Si6 0.419400 0.875000 0.776455
O O1 0.250000 0.710395 0.441526
O O2 0.486227 0.750001 0.357054
O O3 0.483675 0.709806 0.607053
O O4 0.477956 0.665986 0.364010
O O5 0.250000 0.616256 0.908256
O O6 0.022041 0.665984 0.850091
O O7 0.993039 0.584014 0.879096
O O8 0.051214 0.633743 0.107052
O O9 0.750000 0.959806 0.840735
O O10 0.915521 0.960394 0.607055
O O11 0.993039 0.915985 0.835011
O O12 0.000000 0.000000 0.843281
O O13 0.250000 0.789606 0.272583
O O14 0.500000 0.500000 0.870829
O O15 0.250000 0.459807 0.873375
O O16 0.250000 0.883744 0.805850
#
# Coordination Sequence:
#
# PCOD8193432 Si02
#       6
#     8   8   8   8   8   8
#     4   9  16  26  42  65  92 120 150 185 224 265
#     4   9  16  26  42  65  92 120 150 185 224 264
#     4   9  16  26  42  65  92 120 150 185 224 265
#     4   9  16  26  42  65  92 120 150 185 224 265
#     4   9  16  26  42  65  92 120 150 185 224 265
#     4   9  16  26  42  65  92 120 150 185 224 264
#
# _framework density 18.21321
#
# number of rings (size 3 to 8) (size 9 to 14) (size 15 to 20)
#    0.000    3.000    0.000    2.000    0.000    8.000 
#    0.000    0.000    0.000    3.000    0.000    0.000 
#    0.000    0.000    0.000    0.000    0.000    0.000 
#
# Total GULP energy -297579.467526 kJ/mol
# GULP energy per Si atom -12399.144480 kJ/mol
# Density = 1.817176 g / cm^3
# Si number density = 18.213210 Si / 1000 Ang^3
#
#
#
# Elastic Constant Matrix: (Units=GPa)
#
#
# Indices 1 2 3 4 5 6 
#
# 1 75.0493 70.0012 27.4832 0.0001 0.0001 0.0000
# 2 70.0012 214.4281 69.9979 0.0006 -0.0001 0.0000
# 3 27.4832 69.9979 75.0331 0.0000 -0.0002 0.0000
# 4 0.0001 0.0006 0.0000 26.1568 -0.0001 0.0000
# 5 0.0001 -0.0001 -0.0002 -0.0001 6.8589 0.0001
# 6 0.0000 0.0000 0.0000 0.0000 0.0001 26.1554
#
#
#
# Elastic Compliance Matrix: (Units=1/GPa)
#
#
# Indices 1 2 3 4 5 6 
#
# 1 0.019310 -0.005744 -0.001714 0.000000 0.000000 0.000000
# 2 -0.005744 0.008415 -0.005746 0.000000 0.000000 0.000000
# 3 -0.001714 -0.005746 0.019315 0.000000 0.000000 0.000000
# 4 0.000000 0.000000 0.000000 0.038231 0.000001 0.000000
# 5 0.000000 0.000000 0.000000 0.000001 0.145795 -0.000001
# 6 0.000000 0.000000 0.000000 0.000000 -0.000001 0.038233
#
#
# Mechanical properties :
#
#
# Convention : Reuss Voigt Hill
#
# Bulk Modulus (GPa) = 48.46895 77.71946 63.09420
# Shear Modulus (GPa) = 16.52428 24.96944 20.74686
#
# Velocity S-wave (km/s) = 3.01536 3.70665 3.37873
# Velocity P-wave (km/s) = 6.22840 7.81561 7.06670
#
# Compressibility (1/GPa) = 0.02063177
#
# Stress axis : x y z
#
# Youngs Moduli (GPa) = 51.78590 118.84239 51.77193
#
# Poissons Ratio (x) = 0.68268 0.08874
# Poissons Ratio (y) = 0.29748 0.29747
# Poissons Ratio (z) = 0.08876 0.68284
#
# Static dielectric constant tensor:
#      x y z
#    x 3.073470 0.000000 0.000000 
#    y 0.000000 3.608160 0.000000 
#    z 0.000000 0.000000 3.073430 
# 
# 
# High freq. dielectric constant tensor:
#      x y z
#    x 1.667280 0.000000 0.000000 
#    y 0.000000 1.725910 0.000000 
#    z 0.000000 0.000000 1.667280 
# 
# From -- ./inp_files/3948.got.cif
#   From: 2010.03.12/outbox.cif.g09.slc.cpg/sg46_2_cif.got.tgz:3948.got - 2010.04.14 02:56:35.
