data_PCOD8193350
_publ_section_title
;
Structure prediction by ZEFSAII (Michael W. Deem and Ramdas Pophale) SiO2 
 PCOD8193350
Probable space group: I M A 2
;
_chemical_formula_sum "Si O2"
_cell_formula_units_Z 64
_cell_length_a 16.443768
_cell_length_b 14.150868
_cell_length_c 12.574979
_cell_angle_alpha 90.000000
_cell_angle_beta 90.000000
_cell_angle_gamma 90.000000
_cell_volume 2926.117013
_symmetry_space_group_name_H-M "I M A 2"
_symmetry_group_IT_number 46
_symmetry_cell_setting 'orthorhombic'
loop_
_space_group_symop_operation_xyz
x,y,z
-x,-y,z
1/2-x,y,z
1/2+x,-y,z
1/2+x,1/2+y,1/2+z
1/2-x,1/2-y,1/2+z
-x,1/2+y,1/2+z
x,1/2-y,1/2+z
loop_
_atom_site_type_symbol
_atom_site_label
_atom_site_fract_x
_atom_site_fract_y
_atom_site_fract_z
Si Si1 0.339815 0.838665 0.362470
Si Si2 0.557427 0.731761 0.643427
Si Si3 0.540645 0.102250 0.738483
Si Si4 0.660099 0.132359 0.928145
Si Si5 0.157642 0.148583 0.490090
Si Si6 0.155316 0.085406 0.253752
Si Si7 0.905781 0.395758 0.654534
Si Si8 0.090624 0.964984 0.534311
O O1 0.250000 0.881361 0.353893
O O2 0.341576 0.744932 0.431762
O O3 0.371476 0.821121 0.241977
O O4 0.391653 0.916218 0.422570
O O5 0.523436 0.811153 0.726328
O O6 0.590063 0.777017 0.532823
O O7 0.636873 0.681828 0.691119
O O8 0.493625 0.646293 0.621658
O O9 0.591182 0.100339 0.846723
O O10 0.598577 0.108070 0.633571
O O11 0.500000 0.000000 0.734496
O O12 0.750000 0.096740 0.892389
O O13 0.645515 0.094911 0.046836
O O14 0.250000 0.188834 0.494894
O O15 0.131916 0.113412 0.373571
O O16 0.150570 0.052932 0.560088
O O17 0.250000 0.058592 0.240788
O O18 0.098709 0.998657 0.211658
O O19 0.000000 0.000000 0.521389
#
# Coordination Sequence:
#
# PCOD8193350 Si02
#       8
#     8   8   8   8   8   8   8   8
#     4  11  23  40  67 100 138 183 235 296 362 425
#     4  12  25  44  72 105 141 187 239 301 363 428
#     4  11  24  45  65 100 140 185 236 293 357 440
#     4  11  26  44  66  98 144 189 232 294 365 440
#     4  11  24  44  72 103 141 185 238 300 361 429
#     4  11  26  47  73 107 144 188 245 302 368 444
#     4  12  25  45  72 104 143 189 241 304 359 443
#     4  11  22  39  69 103 135 176 234 300 349 421
#
# _framework density 21.871991000000001
#
# number of rings (size 3 to 8) (size 9 to 14) (size 15 to 20)
#    0.000    0.750    5.000    3.000    3.500    2.000 
#    0.000    0.000    0.000    0.000    0.000    0.000 
#    0.000    0.000    0.000    0.000    0.000    0.000 
#
# Total GULP energy -396533.091205 kJ/mol
# GULP energy per Si atom -12391.659100 kJ/mol
# Density = 2.182221 g / cm^3
# Si number density = 21.871991 Si / 1000 Ang^3
#
#
#
# Elastic Constant Matrix: (Units=GPa)
#
#
# Indices 1 2 3 4 5 6 
#
# 1 102.8704 52.5760 59.4674 0.0000 0.0000 0.0000
# 2 52.5760 105.0978 45.6890 0.0000 0.0000 0.0000
# 3 59.4674 45.6890 146.3691 0.0000 0.0000 0.0000
# 4 0.0000 0.0000 0.0000 36.4772 0.0000 0.0000
# 5 0.0000 0.0000 0.0000 0.0000 29.6123 0.0000
# 6 0.0000 0.0000 0.0000 0.0000 0.0000 10.8105
#
#
#
# Elastic Compliance Matrix: (Units=1/GPa)
#
#
# Indices 1 2 3 4 5 6 
#
# 1 0.015158 -0.005676 -0.004387 0.000000 0.000000 0.000000
# 2 -0.005676 0.013134 -0.001794 0.000000 0.000000 0.000000
# 3 -0.004387 -0.001794 0.009174 0.000000 0.000000 0.000000
# 4 0.000000 0.000000 0.000000 0.027414 0.000000 0.000000
# 5 0.000000 0.000000 0.000000 0.000000 0.033770 0.000000
# 6 0.000000 0.000000 0.000000 0.000000 0.000000 0.092503
#
#
# Mechanical properties :
#
#
# Convention : Reuss Voigt Hill
#
# Bulk Modulus (GPa) = 72.70858 74.42248 73.56553
# Shear Modulus (GPa) = 22.78425 28.48698 25.63562
#
# Velocity S-wave (km/s) = 3.23105 3.61285 3.42727
# Velocity P-wave (km/s) = 6.87274 7.17662 7.02632
#
# Compressibility (1/GPa) = 0.01375353
#
# Stress axis : x y z
#
# Youngs Moduli (GPa) = 65.97353 76.13763 109.00134
#
# Poissons Ratio (x) = 0.43214 0.47815
# Poissons Ratio (y) = 0.37445 0.19553
# Poissons Ratio (z) = 0.28940 0.13658
#
# Static dielectric constant tensor:
#      x y z
#    x 4.006700 0.000000 0.000000 
#    y 0.000000 3.996460 0.000000 
#    z 0.000000 0.000000 4.258200 
# 
# 
# High freq. dielectric constant tensor:
#      x y z
#    x 1.857420 0.000000 0.000000 
#    y 0.000000 1.862310 0.000000 
#    z 0.000000 0.000000 1.860410 
# 
# From -- ./inp_files/11990.got.cif
#   From: 2010.03.12/outbox.cif.g09.slc.cpg/sg46_6_cif.got.tgz:11990.got - 2010.04.14 02:56:35.
