data_PCOD8193214
_publ_section_title
;
Structure prediction by ZEFSAII (Michael W. Deem and Ramdas Pophale) SiO2 
 PCOD8193214
Probable space group: I M A 2
;
_chemical_formula_sum "Si O2"
_cell_formula_units_Z 32
_cell_length_a 9.704509
_cell_length_b 12.800348
_cell_length_c 11.905717
_cell_angle_alpha 90.000000
_cell_angle_beta 90.000000
_cell_angle_gamma 90.000000
_cell_volume 1478.941171
_symmetry_space_group_name_H-M "I M A 2"
_symmetry_group_IT_number 46
_symmetry_cell_setting 'orthorhombic'
loop_
_space_group_symop_operation_xyz
x,y,z
-x,-y,z
1/2-x,y,z
1/2+x,-y,z
1/2+x,1/2+y,1/2+z
1/2-x,1/2-y,1/2+z
-x,1/2+y,1/2+z
x,1/2-y,1/2+z
loop_
_atom_site_type_symbol
_atom_site_label
_atom_site_fract_x
_atom_site_fract_y
_atom_site_fract_z
Si Si1 0.750000 0.256488 0.655800
Si Si2 0.750000 0.914446 0.809256
Si Si3 0.250000 0.528904 0.083699
Si Si4 0.979702 0.213417 0.831789
Si Si5 0.750000 0.095530 0.960276
Si Si6 0.100065 0.078611 0.398562
O O1 0.750000 0.155563 0.572067
O O2 0.610300 0.255703 0.728350
O O3 0.750000 0.367106 0.589278
O O4 0.885252 0.845949 0.788190
O O5 0.750000 0.006451 0.716587
O O6 0.750000 0.970560 0.933097
O O7 0.381675 0.476511 0.021482
O O8 0.029621 0.309088 0.909631
O O9 0.890106 0.137963 0.907354
O O10 0.250000 0.088346 0.338095
O O11 0.000000 0.000000 0.328755
#
# Coordination Sequence:
#
# PCOD8193214 Si02
#       6
#     4   4   4   8   4   8
#     4  11  25  43  74 102 138 187 234 284 357 416
#     4  12  23  42  70 103 140 178 236 295 340 413
#     4  10  23  38  71 106 124 184 237 285 335 407
#     4  11  24  45  67 102 141 181 236 282 351 416
#     4  11  25  41  69  99 144 185 223 292 344 418
#     4  10  23  40  68  95 134 172 228 286 340 403
#
# _framework density 21.637103
#
# number of rings (size 3 to 8) (size 9 to 14) (size 15 to 20)
#    0.750    0.500    3.750    2.250   10.500    0.000 
#    0.000    2.500    0.000    0.000    0.000    0.000 
#    0.000    0.000    0.000    0.000    0.000    0.000 
#
# Total GULP energy -198236.626349 kJ/mol
# GULP energy per Si atom -12389.789147 kJ/mol
# Density = 2.158786 g / cm^3
# Si number density = 21.637103 Si / 1000 Ang^3
#
#
#
# Elastic Constant Matrix: (Units=GPa)
#
#
# Indices 1 2 3 4 5 6 
#
# 1 168.2545 36.9953 27.2117 0.0000 0.0000 0.0000
# 2 36.9953 94.5430 24.6226 0.0000 0.0000 0.0000
# 3 27.2117 24.6226 73.5495 0.0000 0.0000 0.0000
# 4 0.0000 0.0000 0.0000 44.7016 0.0000 0.0000
# 5 0.0000 0.0000 0.0000 0.0000 10.2186 0.0000
# 6 0.0000 0.0000 0.0000 0.0000 0.0000 30.5951
#
#
#
# Elastic Compliance Matrix: (Units=1/GPa)
#
#
# Indices 1 2 3 4 5 6 
#
# 1 0.006703 -0.002166 -0.001755 0.000000 0.000000 0.000000
# 2 -0.002166 0.012287 -0.003312 0.000000 0.000000 0.000000
# 3 -0.001755 -0.003312 0.015354 0.000000 0.000000 0.000000
# 4 0.000000 0.000000 0.000000 0.022371 0.000000 0.000000
# 5 0.000000 0.000000 0.000000 0.000000 0.097860 0.000000
# 6 0.000000 0.000000 0.000000 0.000000 0.000000 0.032685
#
#
# Mechanical properties :
#
#
# Convention : Reuss Voigt Hill
#
# Bulk Modulus (GPa) = 50.30449 57.11177 53.70813
# Shear Modulus (GPa) = 23.99764 33.60423 28.80094
#
# Velocity S-wave (km/s) = 3.33392 3.94519 3.65237
# Velocity P-wave (km/s) = 6.17412 6.87061 6.53166
#
# Compressibility (1/GPa) = 0.01987894
#
# Stress axis : x y z
#
# Youngs Moduli (GPa) = 149.17634 81.38425 65.12780
#
# Poissons Ratio (x) = 0.17628 0.11430
# Poissons Ratio (y) = 0.32312 0.21571
# Poissons Ratio (z) = 0.26180 0.26956
#
# Static dielectric constant tensor:
#      x y z
#    x 4.231030 0.000000 0.000000 
#    y 0.000000 3.940360 0.000000 
#    z 0.000000 0.000000 3.449570 
# 
# 
# High freq. dielectric constant tensor:
#      x y z
#    x 1.881250 0.000000 0.000000 
#    y 0.000000 1.852170 0.000000 
#    z 0.000000 0.000000 1.798580 
# 
# From -- ./inp_files/8938.got.cif
#   From: 2010.03.12/outbox.cif.g09.slc.cpg/sg46_5_cif.got.tgz:8938.got - 2010.04.14 02:56:35.
