data_PCOD8193748
_publ_section_title
;
Structure prediction by ZEFSAII (Michael W. Deem and Ramdas Pophale) SiO2 
 PCOD8193748
Probable space group: P M M M
;
_chemical_formula_sum "Si O2"
_cell_formula_units_Z 60
_cell_length_a 18.338924
_cell_length_b 23.227667
_cell_length_c 9.374004
_cell_angle_alpha 90.000000
_cell_angle_beta 90.000000
_cell_angle_gamma 90.000000
_cell_volume 3993.048419
_symmetry_space_group_name_H-M "P M M M"
_symmetry_group_IT_number 47
_symmetry_cell_setting 'orthorhombic'
loop_
_space_group_symop_operation_xyz
x,y,z
-x,-y,z
x,-y,-z
-x,y,-z
-x,-y,-z
x,y,-z
-x,y,z
x,-y,z
loop_
_atom_site_type_symbol
_atom_site_label
_atom_site_fract_x
_atom_site_fract_y
_atom_site_fract_z
Si Si1 0.084970 0.434395 0.161824
Si Si2 0.580386 0.775944 0.830342
Si Si3 0.797803 0.165829 0.157433
Si Si4 0.585585 0.000000 0.330906
Si Si5 0.161339 0.337160 0.332460
Si Si6 0.716969 0.286954 0.159228
Si Si7 0.082794 0.780443 0.332621
Si Si8 0.653067 0.893261 0.168867
O O1 0.110504 0.500000 0.184175
O O2 0.127565 0.395288 0.272617
O O3 0.000000 0.428631 0.194807
O O4 0.101587 0.414550 0.000000
O O5 0.500000 0.763215 0.768024
O O6 0.635171 0.724876 0.780997
O O7 0.606830 0.838335 0.777966
O O8 0.580528 0.776879 0.000000
O O9 0.755863 0.225740 0.154012
O O10 0.867065 0.169999 0.262454
O O11 0.739149 0.117132 0.203490
O O12 0.828181 0.151581 0.000000
O O13 0.624429 0.054627 0.262123
O O14 0.500000 0.000000 0.292874
O O15 0.598289 0.000000 0.500000
O O16 0.170070 0.343291 0.500000
O O17 0.241635 0.329805 0.265447
O O18 0.110112 0.283321 0.290128
O O19 0.715816 0.314018 0.000000
O O20 0.088012 0.789685 0.500000
O O21 0.000000 0.787088 0.277692
O O22 0.642213 0.905038 0.000000
#
# Coordination Sequence:
#
# PCOD8193748 Si02
#       8
#     8   8   8   4   8   8   8   8
#     4   9  18  31  44  58  78 106 140 175 209 243
#     4   8  13  23  42  65  84 105 137 173 205 239
#     4   8  15  27  42  61  81 103 136 172 204 241
#     4  11  23  33  41  61  90 113 138 171 201 234
#     4  10  18  27  40  58  83 113 142 171 201 236
#     4   8  14  25  40  58  81 107 135 168 204 242
#     4   9  17  27  39  59  86 113 139 166 201 245
#     4   9  17  30  47  63  81 109 142 172 203 241
#
# _framework density 15.026114
#
# number of rings (size 3 to 8) (size 9 to 14) (size 15 to 20)
#    0.000    3.133    0.000    3.400    0.000    3.467 
#    0.000    2.667    0.000    1.200    0.000    0.467 
#    0.000    4.267    0.000    6.133    0.000    1.733 
#
# Total GULP energy -743643.133636 kJ/mol
# GULP energy per Si atom -12394.052227 kJ/mol
# Density = 1.499191 g / cm^3
# Si number density = 15.026114 Si / 1000 Ang^3
#
#
#
# Elastic Constant Matrix: (Units=GPa)
#
#
# Indices 1 2 3 4 5 6 
#
# 1 122.5871 48.0154 50.7955 0.0000 0.0000 0.0000
# 2 48.0154 61.6605 41.2689 0.0000 0.0000 0.0000
# 3 50.7955 41.2689 64.7179 0.0000 0.0000 0.0000
# 4 0.0000 0.0000 0.0000 20.5381 0.0000 0.0000
# 5 0.0000 0.0000 0.0000 0.0000 19.3706 0.0000
# 6 0.0000 0.0000 0.0000 0.0000 0.0000 24.8700
#
#
#
# Elastic Compliance Matrix: (Units=1/GPa)
#
#
# Indices 1 2 3 4 5 6 
#
# 1 0.013191 -0.005831 -0.006635 0.000000 0.000000 0.000000
# 2 -0.005831 0.030871 -0.015109 0.000000 0.000000 0.000000
# 3 -0.006635 -0.015109 0.030293 0.000000 0.000000 0.000000
# 4 0.000000 0.000000 0.000000 0.048690 0.000000 0.000000
# 5 0.000000 0.000000 0.000000 0.000000 0.051625 0.000000
# 6 0.000000 0.000000 0.000000 0.000000 0.000000 0.040209
#
#
# Mechanical properties :
#
#
# Convention : Reuss Voigt Hill
#
# Bulk Modulus (GPa) = 52.06752 58.79168 55.42960
# Shear Modulus (GPa) = 18.08782 20.21479 19.15130
#
# Velocity S-wave (km/s) = 3.47329 3.67183 3.57394
# Velocity P-wave (km/s) = 7.12822 7.56225 7.34844
#
# Compressibility (1/GPa) = 0.01920583
#
# Stress axis : x y z
#
# Youngs Moduli (GPa) = 75.81198 32.39319 33.01044
#
# Poissons Ratio (x) = 0.18889 0.21901
# Poissons Ratio (y) = 0.44206 0.49875
# Poissons Ratio (z) = 0.50298 0.48942
#
# Static dielectric constant tensor:
#      x y z
#    x 3.237410 0.000000 0.000000 
#    y 0.000000 2.667710 0.000000 
#    z 0.000000 0.000000 2.819550 
# 
# 
# High freq. dielectric constant tensor:
#      x y z
#    x 1.573910 0.000000 0.000000 
#    y 0.000000 1.539110 0.000000 
#    z 0.000000 0.000000 1.566180 
# 
# From -- ./inp_files/10222.got.cif
#   From: 2010.03.12/outbox.cif.g09.slc.cpg/sg47_6_cif.got.tgz:10222.got - 2010.04.14 03:12:58.
