data_PCOD8193761
_publ_section_title
;
Structure prediction by ZEFSAII (Michael W. Deem and Ramdas Pophale) SiO2 
 PCOD8193761
Probable space group: P M M M
;
_chemical_formula_sum "Si O2"
_cell_formula_units_Z 60
_cell_length_a 23.867960
_cell_length_b 18.308653
_cell_length_c 9.225804
_cell_angle_alpha 90.000000
_cell_angle_beta 90.000000
_cell_angle_gamma 90.000000
_cell_volume 4031.585912
_symmetry_space_group_name_H-M "P M M M"
_symmetry_group_IT_number 47
_symmetry_cell_setting 'orthorhombic'
loop_
_space_group_symop_operation_xyz
x,y,z
-x,-y,z
x,-y,-z
-x,y,-z
-x,-y,-z
x,y,-z
-x,y,z
x,-y,z
loop_
_atom_site_type_symbol
_atom_site_label
_atom_site_fract_x
_atom_site_fract_y
_atom_site_fract_z
Si Si1 0.061686 0.333955 0.330395
Si Si2 0.112919 0.787262 0.159635
Si Si3 0.183323 0.083438 0.831111
Si Si4 0.278838 0.166837 0.670644
Si Si5 0.608103 0.083577 0.667856
Si Si6 0.500000 0.086811 0.163266
Si Si7 0.171716 0.415922 0.670753
Si Si8 0.230163 0.704776 0.163619
O O1 0.065200 0.324467 0.500000
O O2 0.070412 0.252672 0.267067
O O3 0.109644 0.389933 0.277193
O O4 0.000000 0.363204 0.283748
O O5 0.126660 0.870704 0.205886
O O6 0.172276 0.747281 0.161404
O O7 0.085911 0.784174 0.000000
O O8 0.234480 0.109071 0.732180
O O9 0.169560 0.000000 0.795852
O O10 0.199624 0.095637 0.000000
O O11 0.268104 0.176796 0.500000
O O12 0.339656 0.134715 0.704776
O O13 0.274644 0.245710 0.748765
O O14 0.591984 0.087432 0.500000
O O15 0.555641 0.115463 0.756971
O O16 0.622359 0.000000 0.712248
O O17 0.500000 0.000000 0.168602
O O18 0.500000 0.116950 0.000000
O O19 0.179019 0.402910 0.500000
O O20 0.177988 0.500000 0.713479
O O21 0.220428 0.372039 0.754112
O O22 0.251898 0.690137 0.000000
#
# Coordination Sequence:
#
# PCOD8193761 Si02
#       8
#     8   8   8   8   8   4   8   8
#     4   9  17  28  42  60  80 102 129 161 196 233
#     4   8  15  27  41  56  74  99 129 159 195 240
#     4   9  17  28  41  58  80 103 128 164 209 250
#     4  10  18  27  41  61  83 107 138 173 207 245
#     4   9  17  28  40  55  79 111 144 178 215 250
#     4   9  17  27  39  55  75 105 146 185 216 247
#     4   9  17  29  45  64  85 108 132 159 193 235
#     4   9  17  29  43  59  81 108 135 163 198 239
#
# _framework density 14.882481
#
# number of rings (size 3 to 8) (size 9 to 14) (size 15 to 20)
#    0.000    3.000    0.000    2.200    0.000    6.667 
#    0.000    2.667    0.000    0.400    0.000    6.533 
#    0.000    0.000    0.000    0.600    0.000   11.600 
#
# Total GULP energy -743719.509697 kJ/mol
# GULP energy per Si atom -12395.325162 kJ/mol
# Density = 1.484861 g / cm^3
# Si number density = 14.882481 Si / 1000 Ang^3
#
#
#
# Elastic Constant Matrix: (Units=GPa)
#
#
# Indices 1 2 3 4 5 6 
#
# 1 57.0241 41.6731 36.6277 0.0000 0.0000 0.0000
# 2 41.6731 106.3345 42.4442 0.0000 0.0000 0.0000
# 3 36.6277 42.4442 62.8347 0.0000 0.0000 0.0000
# 4 0.0000 0.0000 0.0000 21.3216 0.0000 0.0000
# 5 0.0000 0.0000 0.0000 0.0000 17.4238 0.0000
# 6 0.0000 0.0000 0.0000 0.0000 0.0000 15.4274
#
#
#
# Elastic Compliance Matrix: (Units=1/GPa)
#
#
# Indices 1 2 3 4 5 6 
#
# 1 0.031268 -0.006817 -0.013622 0.000000 0.000000 0.000000
# 2 -0.006817 0.014362 -0.005728 0.000000 0.000000 0.000000
# 3 -0.013622 -0.005728 0.027725 0.000000 0.000000 0.000000
# 4 0.000000 0.000000 0.000000 0.046901 0.000000 0.000000
# 5 0.000000 0.000000 0.000000 0.000000 0.057393 0.000000
# 6 0.000000 0.000000 0.000000 0.000000 0.000000 0.064820
#
#
# Mechanical properties :
#
#
# Convention : Reuss Voigt Hill
#
# Bulk Modulus (GPa) = 47.57114 51.96481 49.76798
# Shear Modulus (GPa) = 16.56683 17.86446 17.21565
#
# Velocity S-wave (km/s) = 3.34005 3.46839 3.40483
# Velocity P-wave (km/s) = 6.84898 7.14368 6.99788
#
# Compressibility (1/GPa) = 0.02102115
#
# Stress axis : x y z
#
# Youngs Moduli (GPa) = 31.98180 69.62770 36.06915
#
# Poissons Ratio (x) = 0.47463 0.49134
# Poissons Ratio (y) = 0.21801 0.20660
# Poissons Ratio (z) = 0.43566 0.39882
#
# Static dielectric constant tensor:
#      x y z
#    x 2.747860 0.000000 0.000000 
#    y 0.000000 2.918050 0.000000 
#    z 0.000000 0.000000 2.996410 
# 
# 
# High freq. dielectric constant tensor:
#      x y z
#    x 1.538160 0.000000 0.000000 
#    y 0.000000 1.550470 0.000000 
#    z 0.000000 0.000000 1.577050 
# 
# From -- ./inp_files/12866.got.cif
#   From: 2010.03.12/outbox.cif.g09.slc.cpg/sg47_7_cif.got.tgz:12866.got - 2010.04.14 03:12:58.
