data_PCOD8193425
_publ_section_title
;
Structure prediction by ZEFSAII (Michael W. Deem and Ramdas Pophale) SiO2 
 PCOD8193425
Probable space group: I M A 2
;
_chemical_formula_sum "Si O2"
_cell_formula_units_Z 32
_cell_length_a 32.027657
_cell_length_b 4.684509
_cell_length_c 8.197470
_cell_angle_alpha 90.000000
_cell_angle_beta 90.000000
_cell_angle_gamma 90.000000
_cell_volume 1229.897964
_symmetry_space_group_name_H-M "I M A 2"
_symmetry_group_IT_number 46
_symmetry_cell_setting 'orthorhombic'
loop_
_space_group_symop_operation_xyz
x,y,z
-x,-y,z
1/2-x,y,z
1/2+x,-y,z
1/2+x,1/2+y,1/2+z
1/2-x,1/2-y,1/2+z
-x,1/2+y,1/2+z
x,1/2-y,1/2+z
loop_
_atom_site_type_symbol
_atom_site_label
_atom_site_fract_x
_atom_site_fract_y
_atom_site_fract_z
Si Si1 0.797400 0.347155 0.902520
Si Si2 0.079044 0.121071 0.538261
Si Si3 0.671186 0.671039 0.588274
Si Si4 0.454502 0.902873 0.216775
O O1 0.750000 0.263515 0.858456
O O2 0.819842 0.514129 0.756757
O O3 0.797028 0.565383 0.057162
O O4 0.823664 0.062025 0.943022
O O5 0.126402 0.177062 0.589273
O O6 0.055097 0.422975 0.550084
O O7 0.077972 0.993905 0.357471
O O8 0.054119 0.923942 0.670103
O O9 0.500000 0.000000 0.280008
#
# Coordination Sequence:
#
# PCOD8193425 Si02
#       4
#     8   8   8   8
#     4  12  25  47  74 106 145 194 246 304 368 441
#     4  12  27  47  73 108 147 191 241 301 367 434
#     4  12  27  47  73 108 147 192 246 305 369 439
#     4  12  25  47  74 106 144 191 243 300 363 438
#
# _framework density 26.018418
#
# number of rings (size 3 to 8) (size 9 to 14) (size 15 to 20)
#    0.000    0.000    0.000   10.500    0.000    4.000 
#    0.000    0.000    0.000    0.000    0.000    0.000 
#    0.000    0.000    0.000    0.000    0.000    0.000 
#
# Total GULP energy -198391.402406 kJ/mol
# GULP energy per Si atom -12399.462650 kJ/mol
# Density = 2.595920 g / cm^3
# Si number density = 26.018418 Si / 1000 Ang^3
#
#
#
# Elastic Constant Matrix: (Units=GPa)
#
#
# Indices 1 2 3 4 5 6 
#
# 1 157.5730 55.9137 30.6974 0.0000 0.0000 0.0000
# 2 55.9137 118.5788 8.3719 0.0000 0.0000 0.0000
# 3 30.6974 8.3719 62.2601 0.0000 0.0000 0.0000
# 4 0.0000 0.0000 0.0000 39.7593 0.0000 0.0000
# 5 0.0000 0.0000 0.0000 0.0000 38.5451 0.0000
# 6 0.0000 0.0000 0.0000 0.0000 0.0000 50.7585
#
#
#
# Elastic Compliance Matrix: (Units=1/GPa)
#
#
# Indices 1 2 3 4 5 6 
#
# 1 0.008361 -0.003686 -0.003627 0.000000 0.000000 0.000000
# 2 -0.003686 0.010139 0.000454 0.000000 0.000000 0.000000
# 3 -0.003627 0.000454 0.017789 0.000000 0.000000 0.000000
# 4 0.000000 0.000000 0.000000 0.025151 0.000000 0.000000
# 5 0.000000 0.000000 0.000000 0.000000 0.025944 0.000000
# 6 0.000000 0.000000 0.000000 0.000000 0.000000 0.019701
#
#
# Mechanical properties :
#
#
# Convention : Reuss Voigt Hill
#
# Bulk Modulus (GPa) = 44.30412 58.70863 51.50638
# Shear Modulus (GPa) = 38.96311 42.04118 40.50214
#
# Velocity S-wave (km/s) = 3.87398 4.02409 3.94975
# Velocity P-wave (km/s) = 6.08894 6.64863 6.37493
#
# Compressibility (1/GPa) = 0.02257126
#
# Stress axis : x y z
#
# Youngs Moduli (GPa) = 119.60482 98.62531 56.21546
#
# Poissons Ratio (x) = 0.36357 0.20387
# Poissons Ratio (y) = 0.44091 -0.02553
# Poissons Ratio (z) = 0.43376 -0.04479
#
# Static dielectric constant tensor:
#      x y z
#    x 4.559920 0.000000 0.000000 
#    y 0.000000 5.142440 0.000000 
#    z 0.000000 0.000000 4.743780 
# 
# 
# High freq. dielectric constant tensor:
#      x y z
#    x 2.037660 0.000000 0.000000 
#    y 0.000000 2.068180 0.000000 
#    z 0.000000 0.000000 2.045060 
# 
# From -- ./inp_files/8296.got.cif
#   From: 2010.03.12/outbox.cif.g09.slc.cpg/sg46_5_cif.got.tgz:8296.got - 2010.04.14 02:56:35.
