data_PCOD8193420
_publ_section_title
;
Structure prediction by ZEFSAII (Michael W. Deem and Ramdas Pophale) SiO2 
 PCOD8193420
Probable space group: I M A 2
;
_chemical_formula_sum "Si O2"
_cell_formula_units_Z 48
_cell_length_a 29.173551
_cell_length_b 4.852827
_cell_length_c 15.053357
_cell_angle_alpha 90.000000
_cell_angle_beta 90.000000
_cell_angle_gamma 90.000000
_cell_volume 2131.166914
_symmetry_space_group_name_H-M "I M A 2"
_symmetry_group_IT_number 46
_symmetry_cell_setting 'orthorhombic'
loop_
_space_group_symop_operation_xyz
x,y,z
-x,-y,z
1/2-x,y,z
1/2+x,-y,z
1/2+x,1/2+y,1/2+z
1/2-x,1/2-y,1/2+z
-x,1/2+y,1/2+z
x,1/2-y,1/2+z
loop_
_atom_site_type_symbol
_atom_site_label
_atom_site_fract_x
_atom_site_fract_y
_atom_site_fract_z
Si Si1 0.398471 0.167091 0.192740
Si Si2 0.250000 0.891896 0.346938
Si Si3 0.340560 0.839079 0.641751
Si Si4 0.606749 0.720474 0.894053
Si Si5 0.532057 0.765872 0.045128
Si Si6 0.250000 0.415735 0.230260
Si Si7 0.337790 0.729975 0.441531
O O1 0.377285 0.418975 0.136665
O O2 0.410884 0.254569 0.292985
O O3 0.444725 0.119735 0.136727
O O4 0.362592 0.910385 0.199185
O O5 0.250000 0.569635 0.323000
O O6 0.295606 0.911340 0.404278
O O7 0.250000 0.090959 0.258589
O O8 0.294978 0.981649 0.679391
O O9 0.330273 0.710612 0.546434
O O10 0.618711 0.404167 0.911954
O O11 0.651292 0.921804 0.906680
O O12 0.567611 0.765814 0.964954
O O13 0.500000 0.500000 0.060935
O O14 0.500000 0.000000 0.009336
#
# Coordination Sequence:
#
# PCOD8193420 Si02
#       7
#     8   4   8   8   8   4   8
#     4  12  25  45  72 101 137 184 231 286 357 428
#     4  12  25  40  63 102 141 182 239 285 330 399
#     4  12  23  44  68  99 140 189 234 284 345 414
#     4  12  25  45  72 101 137 184 231 286 357 428
#     4  12  26  46  72 101 138 171 228 300 362 434
#     4  12  25  40  63 102 141 182 239 285 330 399
#     4  12  23  44  68  99 140 189 234 284 345 414
#
# _framework density 22.522872
#
# number of rings (size 3 to 8) (size 9 to 14) (size 15 to 20)
#    0.000    0.000    3.333    8.500    0.000    1.333 
#    0.000    5.000    0.000    0.000    0.000    0.000 
#    0.000    0.000    0.000    0.000    0.000    0.000 
#
# Total GULP energy -297387.950158 kJ/mol
# GULP energy per Si atom -12391.164590 kJ/mol
# Density = 2.247161 g / cm^3
# Si number density = 22.522872 Si / 1000 Ang^3
#
#
#
# Elastic Constant Matrix: (Units=GPa)
#
#
# Indices 1 2 3 4 5 6 
#
# 1 100.8846 22.3768 54.4815 0.0000 0.0000 0.0000
# 2 22.3768 95.9393 13.8004 0.0000 0.0000 0.0000
# 3 54.4815 13.8004 137.1118 0.0000 0.0000 0.0000
# 4 0.0000 0.0000 0.0000 32.8584 0.0000 0.0000
# 5 0.0000 0.0000 0.0000 0.0000 15.3020 0.0000
# 6 0.0000 0.0000 0.0000 0.0000 0.0000 42.2032
#
#
#
# Elastic Compliance Matrix: (Units=1/GPa)
#
#
# Indices 1 2 3 4 5 6 
#
# 1 0.013120 -0.002344 -0.004977 0.000000 0.000000 0.000000
# 2 -0.002344 0.010995 -0.000175 0.000000 0.000000 0.000000
# 3 -0.004977 -0.000175 0.009289 0.000000 0.000000 0.000000
# 4 0.000000 0.000000 0.000000 0.030434 0.000000 0.000000
# 5 0.000000 0.000000 0.000000 0.000000 0.065351 0.000000
# 6 0.000000 0.000000 0.000000 0.000000 0.000000 0.023695
#
#
# Mechanical properties :
#
#
# Convention : Reuss Voigt Hill
#
# Bulk Modulus (GPa) = 54.31650 57.25034 55.78342
# Shear Modulus (GPa) = 28.73328 34.29118 31.51223
#
# Velocity S-wave (km/s) = 3.57562 3.90616 3.74454
# Velocity P-wave (km/s) = 6.41991 6.76890 6.59672
#
# Compressibility (1/GPa) = 0.01841061
#
# Stress axis : x y z
#
# Youngs Moduli (GPa) = 76.21801 90.94862 107.65733
#
# Poissons Ratio (x) = 0.21320 0.53585
# Poissons Ratio (y) = 0.17867 0.01886
# Poissons Ratio (z) = 0.37937 0.01594
#
# Static dielectric constant tensor:
#      x y z
#    x 6.476680 0.000000 0.000000 
#    y 0.000000 4.245390 0.000000 
#    z 0.000000 0.000000 4.023800 
# 
# 
# High freq. dielectric constant tensor:
#      x y z
#    x 1.887550 0.000000 0.000000 
#    y 0.000000 1.904730 0.000000 
#    z 0.000000 0.000000 1.895490 
# 
# From -- ./inp_files/17562.got.cif
#   From: 2010.03.12/outbox.cif.g09.slc.cpg/sg46_9_cif.got.tgz:17562.got - 2010.04.14 02:56:35.
