data_PCOD8193830
_publ_section_title
;
Structure prediction by ZEFSAII (Michael W. Deem and Ramdas Pophale) SiO2 
 PCOD8193830
Probable space group: P M M M
;
_chemical_formula_sum "Si O2"
_cell_formula_units_Z 28
_cell_length_a 16.616191
_cell_length_b 12.015354
_cell_length_c 9.055776
_cell_angle_alpha 90.000000
_cell_angle_beta 90.000000
_cell_angle_gamma 90.000000
_cell_volume 1807.980399
_symmetry_space_group_name_H-M "P M M M"
_symmetry_group_IT_number 47
_symmetry_cell_setting 'orthorhombic'
loop_
_space_group_symop_operation_xyz
x,y,z
-x,-y,z
x,-y,-z
-x,y,-z
-x,-y,-z
x,y,-z
-x,y,z
x,-y,z
loop_
_atom_site_type_symbol
_atom_site_label
_atom_site_fract_x
_atom_site_fract_y
_atom_site_fract_z
Si Si1 0.094984 0.130404 0.500000
Si Si2 0.809068 0.298209 0.336420
Si Si3 0.500000 0.368089 0.665835
Si Si4 0.911795 0.500000 0.323930
Si Si5 0.339628 0.629591 0.173176
O O1 0.138641 0.183856 0.645440
O O2 0.000000 0.159984 0.500000
O O3 0.110044 0.000000 0.500000
O O4 0.779407 0.336751 0.500000
O O5 0.866695 0.390889 0.265286
O O6 0.731417 0.289621 0.231608
O O7 0.500000 0.500000 0.663256
O O8 0.500000 0.319215 0.500000
O O9 0.421058 0.326406 0.751381
O O10 0.917998 0.500000 0.500000
O O11 0.000000 0.500000 0.252624
O O12 0.321931 0.500000 0.213394
O O13 0.349201 0.645632 0.000000
#
# Coordination Sequence:
#
# PCOD8193830 Si02
#       5
#     4   8   4   4   8
#     4   9  18  31  49  72  91 113 156 207 242 268
#     4   9  17  26  45  67  90 120 153 190 233 271
#     4   9  17  27  43  63  95 130 163 186 216 265
#     4   9  14  22  39  64  87 112 149 183 228 279
#     4  10  18  28  41  65 100 132 156 184 225 276
#
# _framework density 15.486893
#
# number of rings (size 3 to 8) (size 9 to 14) (size 15 to 20)
#    0.857    1.857    1.429    2.143    0.000    2.857 
#    0.000    0.000    0.000    5.143    0.000    4.000 
#    0.000    2.286    0.000    0.000    0.000    0.000 
#
# Total GULP energy -346933.294861 kJ/mol
# GULP energy per Si atom -12390.474816 kJ/mol
# Density = 1.545164 g / cm^3
# Si number density = 15.486893 Si / 1000 Ang^3
#
#
#
# Elastic Constant Matrix: (Units=GPa)
#
#
# Indices 1 2 3 4 5 6 
#
# 1 152.3588 49.7434 54.4355 0.0000 0.0000 0.0000
# 2 49.7434 74.4080 20.2401 0.0000 0.0000 0.0000
# 3 54.4355 20.2401 70.7936 0.0000 0.0000 0.0000
# 4 0.0000 0.0000 0.0000 6.6327 0.0000 0.0000
# 5 0.0000 0.0000 0.0000 0.0000 7.8033 0.0000
# 6 0.0000 0.0000 0.0000 0.0000 0.0000 16.4536
#
#
#
# Elastic Compliance Matrix: (Units=1/GPa)
#
#
# Indices 1 2 3 4 5 6 
#
# 1 0.010698 -0.005329 -0.006702 0.000000 0.000000 0.000000
# 2 -0.005329 0.017227 -0.000828 0.000000 0.000000 0.000000
# 3 -0.006702 -0.000828 0.019516 0.000000 0.000000 0.000000
# 4 0.000000 0.000000 0.000000 0.150767 0.000000 0.000000
# 5 0.000000 0.000000 0.000000 0.000000 0.128151 0.000000
# 6 0.000000 0.000000 0.000000 0.000000 0.000000 0.060777
#
#
# Mechanical properties :
#
#
# Convention : Reuss Voigt Hill
#
# Bulk Modulus (GPa) = 46.03449 60.71093 53.37271
# Shear Modulus (GPa) = 11.90208 17.72070 14.81139
#
# Velocity S-wave (km/s) = 2.77524 3.38633 3.09590
# Velocity P-wave (km/s) = 6.32919 7.38757 6.87877
#
# Compressibility (1/GPa) = 0.02172284
#
# Stress axis : x y z
#
# Youngs Moduli (GPa) = 93.47659 58.04882 51.24001
#
# Poissons Ratio (x) = 0.30932 0.34343
# Poissons Ratio (y) = 0.49810 0.04242
# Poissons Ratio (z) = 0.62652 0.04806
#
# Static dielectric constant tensor:
#      x y z
#    x 3.130980 0.000000 0.000000 
#    y 0.000000 2.516440 0.000000 
#    z 0.000000 0.000000 2.697750 
# 
# 
# High freq. dielectric constant tensor:
#      x y z
#    x 1.613320 0.000000 0.000000 
#    y 0.000000 1.536620 0.000000 
#    z 0.000000 0.000000 1.566170 
# 
# From -- ./inp_files/8544.got.cif
#   From: 2010.03.12/outbox.cif.g09.slc.cpg/sg47_5_cif.got.tgz:8544.got - 2010.04.14 03:12:58.
