data_PCOD8193164
_publ_section_title
;
Structure prediction by ZEFSAII (Michael W. Deem and Ramdas Pophale) SiO2 
 PCOD8193164
Probable space group: I M A 2
;
_chemical_formula_sum "Si O2"
_cell_formula_units_Z 64
_cell_length_a 14.582818
_cell_length_b 12.148556
_cell_length_c 16.261168
_cell_angle_alpha 90.000000
_cell_angle_beta 90.000000
_cell_angle_gamma 90.000000
_cell_volume 2880.831468
_symmetry_space_group_name_H-M "I M A 2"
_symmetry_group_IT_number 46
_symmetry_cell_setting 'orthorhombic'
loop_
_space_group_symop_operation_xyz
x,y,z
-x,-y,z
1/2-x,y,z
1/2+x,-y,z
1/2+x,1/2+y,1/2+z
1/2-x,1/2-y,1/2+z
-x,1/2+y,1/2+z
x,1/2-y,1/2+z
loop_
_atom_site_type_symbol
_atom_site_label
_atom_site_fract_x
_atom_site_fract_y
_atom_site_fract_z
Si Si1 0.897637 0.452863 0.428910
Si Si2 0.605163 0.031369 0.580250
Si Si3 0.857516 0.215290 0.066971
Si Si4 0.144218 0.235845 0.290836
Si Si5 0.350112 0.372329 0.545395
Si Si6 0.894076 0.984076 0.759040
Si Si7 0.853162 0.660842 0.964244
Si Si8 0.510683 0.614770 0.675441
O O1 0.887413 0.341065 0.481158
O O2 0.834892 0.548434 0.467579
O O3 0.865666 0.432115 0.333439
O O4 0.000000 0.500000 0.425970
O O5 0.622365 0.156217 0.554803
O O6 0.500000 0.000000 0.581991
O O7 0.652996 0.007743 0.669742
O O8 0.646685 0.958483 0.506041
O O9 0.750000 0.193815 0.085262
O O10 0.915772 0.169521 0.144747
O O11 0.250000 0.203831 0.270446
O O12 0.134242 0.366537 0.296110
O O13 0.106265 0.171202 0.372023
O O14 0.073032 0.203954 0.220111
O O15 0.250000 0.357546 0.588291
O O16 0.396878 0.253775 0.523390
O O17 0.425693 0.431092 0.601257
O O18 0.000000 0.000000 0.740000
O O19 0.750000 0.703746 0.952268
O O20 0.500000 0.500000 0.727008
#
# Coordination Sequence:
#
# PCOD8193164 Si02
#       8
#     8   8   8   8   8   8   8   8
#     4  11  21  39  69 100 136 174 223 274 334 401
#     4  11  24  42  67  95 135 181 226 275 339 403
#     4  12  25  43  66  96 135 181 225 273 339 413
#     4  11  24  42  67  98 132 171 226 285 339 399
#     4  11  19  36  66  97 127 167 217 274 333 392
#     4  10  22  41  68 101 136 173 224 281 334 398
#     4  10  22  40  64  96 129 167 220 279 337 399
#     4  12  24  41  63  94 133 175 225 273 335 401
#
# _framework density 22.215807999999999
#
# number of rings (size 3 to 8) (size 9 to 14) (size 15 to 20)
#    0.000    1.000    3.750    4.125    0.000    3.500 
#    0.000    1.250    0.000    0.000    0.000    0.000 
#    0.000    0.000    0.000    0.000    0.000    0.000 
#
# Total GULP energy -396431.761840 kJ/mol
# GULP energy per Si atom -12388.492558 kJ/mol
# Density = 2.216524 g / cm^3
# Si number density = 22.215808 Si / 1000 Ang^3
#
#
#
# Elastic Constant Matrix: (Units=GPa)
#
#
# Indices 1 2 3 4 5 6 
#
# 1 110.7488 18.5842 31.1273 0.0000 0.0000 0.0000
# 2 18.5842 150.0133 56.6586 0.0000 0.0000 0.0000
# 3 31.1273 56.6586 131.1889 0.0000 0.0000 0.0000
# 4 0.0000 0.0000 0.0000 -125.3538 0.0000 0.0000
# 5 0.0000 0.0000 0.0000 0.0000 4.0669 0.0000
# 6 0.0000 0.0000 0.0000 0.0000 0.0000 22.9708
#
#
#
# Elastic Compliance Matrix: (Units=1/GPa)
#
#
# Indices 1 2 3 4 5 6 
#
# 1 0.009694 -0.000397 -0.002129 0.000000 0.000000 0.000000
# 2 -0.000397 0.007982 -0.003353 0.000000 0.000000 0.000000
# 3 -0.002129 -0.003353 0.009576 0.000000 0.000000 0.000000
# 4 0.000000 0.000000 0.000000 -0.007977 0.000000 0.000000
# 5 0.000000 0.000000 0.000000 0.000000 0.245886 0.000000
# 6 0.000000 0.000000 0.000000 0.000000 0.000000 0.043533
#
#
# Mechanical properties :
#
#
# Convention : Reuss Voigt Hill
#
# Bulk Modulus (GPa) = 64.53934 67.18792 65.86363
# Shear Modulus (GPa) = 15.35550 -0.62447 7.36552
#
# Velocity S-wave (km/s) = 2.63191 -0.53076 1.82281
# Velocity P-wave (km/s) = 6.19275 5.47114 5.84309
#
# Compressibility (1/GPa) = 0.01549443
#
# Stress axis : x y z
#
# Youngs Moduli (GPa) = 103.15276 125.28765 104.43019
#
# Poissons Ratio (x) = 0.04974 0.22230
# Poissons Ratio (y) = 0.04095 0.35015
# Poissons Ratio (z) = 0.21959 0.42008
#
# Static dielectric constant tensor:
#      x y z
#    x 4.041250 0.000000 0.000000 
#    y 0.000000 8.552770 0.000000 
#    z 0.000000 0.000000 4.243500 
# 
# 
# High freq. dielectric constant tensor:
#      x y z
#    x 1.876680 0.000000 0.000000 
#    y 0.000000 1.868360 0.000000 
#    z 0.000000 0.000000 1.870570 
# 
# From -- ./inp_files/19658.got.cif
#   From: 2010.03.12/outbox.cif.g09.slc.cpg/sg46_10_cif.got.tgz:19658.got - 2010.04.14 02:56:35.
