data_PCOD8193462
_publ_section_title
;
Structure prediction by ZEFSAII (Michael W. Deem and Ramdas Pophale) SiO2 
 PCOD8193462
Probable space group: P M M M
;
_chemical_formula_sum "Si O2"
_cell_formula_units_Z 60
_cell_length_a 14.691971
_cell_length_b 9.418633
_cell_length_c 26.449899
_cell_angle_alpha 90.000000
_cell_angle_beta 90.000000
_cell_angle_gamma 90.000000
_cell_volume 3660.091606
_symmetry_space_group_name_H-M "P M M M"
_symmetry_group_IT_number 47
_symmetry_cell_setting 'orthorhombic'
loop_
_space_group_symop_operation_xyz
x,y,z
-x,-y,z
x,-y,-z
-x,y,-z
-x,-y,-z
x,y,-z
-x,y,z
x,-y,z
loop_
_atom_site_type_symbol
_atom_site_label
_atom_site_fract_x
_atom_site_fract_y
_atom_site_fract_z
Si Si1 0.893361 0.840354 0.362470
Si Si2 0.607600 0.154854 0.000000
Si Si3 0.716431 0.831643 0.202854
Si Si4 0.605488 0.339043 0.283046
Si Si5 0.099989 0.168375 0.249528
Si Si6 0.217527 0.332266 0.443121
Si Si7 0.401300 0.668162 0.602965
Si Si8 0.397310 0.830179 0.108529
O O1 0.873330 0.779397 0.306069
O O2 0.849318 0.739790 0.403868
O O3 0.000000 0.840425 0.372584
O O4 0.854364 0.000000 0.368289
O O5 0.633578 0.232532 0.946831
O O6 0.500000 0.134956 0.000000
O O7 0.654797 0.000000 0.000000
O O8 0.659722 0.767490 0.248161
O O9 0.822450 0.784548 0.209286
O O10 0.675272 0.774669 0.149847
O O11 0.706446 0.000000 0.206084
O O12 0.500000 0.331387 0.268502
O O13 0.641492 0.500000 0.275936
O O14 0.621539 0.284344 0.339986
O O15 0.000000 0.229074 0.233422
O O16 0.093098 0.000000 0.252182
O O17 0.189824 0.289276 0.500000
O O18 0.210552 0.500000 0.434910
O O19 0.321217 0.279088 0.433797
O O20 0.500000 0.731071 0.585897
O O21 0.408874 0.500000 0.602230
O O22 0.500000 0.778555 0.122535
O O23 0.396995 0.000000 0.105348
#
# Coordination Sequence:
#
# PCOD8193462 Si02
#       8
#     8   4   8   8   8   8   8   8
#     4   9  18  33  50  63  78 106 138 161 190 244
#     4   7  10  18  30  44  72 112 140 161 195 233
#     4  10  17  24  40  64  84 103 132 173 210 234
#     4   9  17  28  41  58  83 113 136 155 191 244
#     4   8  15  28  44  62  83 105 131 164 203 246
#     4  10  20  31  45  67  88 103 126 166 208 235
#     4   8  15  29  46  61  80 109 140 162 185 231
#     4   8  13  20  31  52  81 108 135 167 200 233
#
# _framework density 16.393032000000002
#
# number of rings (size 3 to 8) (size 9 to 14) (size 15 to 20)
#    0.000    3.267    0.000    3.600    0.000    1.867 
#    0.000    2.667    0.000    2.400    0.000    1.867 
#    0.000    6.400    0.000    0.000    0.000    1.333 
#
# Total GULP energy -743321.730606 kJ/mol
# GULP energy per Si atom -12388.695510 kJ/mol
# Density = 1.635572 g / cm^3
# Si number density = 16.393032 Si / 1000 Ang^3
#
#
#
# Elastic Constant Matrix: (Units=GPa)
#
#
# Indices 1 2 3 4 5 6 
#
# 1 88.4388 17.7715 72.3717 0.0000 0.0000 0.0000
# 2 17.7715 16.3388 18.5739 0.0000 0.0000 0.0000
# 3 72.3717 18.5739 107.9724 0.0000 0.0000 0.0000
# 4 0.0000 0.0000 0.0000 10.4516 0.0000 0.0000
# 5 0.0000 0.0000 0.0000 0.0000 23.4835 0.0000
# 6 0.0000 0.0000 0.0000 0.0000 0.0000 15.1168
#
#
#
# Elastic Compliance Matrix: (Units=1/GPa)
#
#
# Indices 1 2 3 4 5 6 
#
# 1 0.026473 -0.010719 -0.015900 0.000000 0.000000 0.000000
# 2 -0.010719 0.080422 -0.006650 0.000000 0.000000 0.000000
# 3 -0.015900 -0.006650 0.021063 0.000000 0.000000 0.000000
# 4 0.000000 0.000000 0.000000 0.095679 0.000000 0.000000
# 5 0.000000 0.000000 0.000000 0.000000 0.042583 0.000000
# 6 0.000000 0.000000 0.000000 0.000000 0.000000 0.066152
#
#
# Mechanical properties :
#
#
# Convention : Reuss Voigt Hill
#
# Bulk Modulus (GPa) = 16.28131 47.79825 32.03978
# Shear Modulus (GPa) = 11.92228 16.74591 14.33409
#
# Velocity S-wave (km/s) = 2.69973 3.19960 2.96024
# Velocity P-wave (km/s) = 4.43526 6.54759 5.59206
#
# Compressibility (1/GPa) = 0.06142012
#
# Stress axis : x y z
#
# Youngs Moduli (GPa) = 37.77476 12.43439 47.47611
#
# Poissons Ratio (x) = 0.13328 0.75488
# Poissons Ratio (y) = 0.40489 0.31572
# Poissons Ratio (z) = 0.60063 0.08269
#
# Static dielectric constant tensor:
#      x y z
#    x 3.384300 0.000000 0.000000 
#    y 0.000000 2.668140 0.000000 
#    z 0.000000 0.000000 3.353400 
# 
# 
# High freq. dielectric constant tensor:
#      x y z
#    x 1.625360 0.000000 0.000000 
#    y 0.000000 1.579920 0.000000 
#    z 0.000000 0.000000 1.626210 
# 
# From -- ./inp_files/33731.got.cif
#   From: 2010.03.12/outbox.cif.g09.slc.cpg/sg47_17_cif.got.tgz:33731.got - 2010.04.14 03:12:58.
