data_PCOD8193779
_publ_section_title
;
Structure prediction by ZEFSAII (Michael W. Deem and Ramdas Pophale) SiO2 
 PCOD8193779
Probable space group: P M M M
;
_chemical_formula_sum "Si O2"
_cell_formula_units_Z 44
_cell_length_a 8.872345
_cell_length_b 13.900378
_cell_length_c 21.852533
_cell_angle_alpha 90.000000
_cell_angle_beta 90.000000
_cell_angle_gamma 90.000000
_cell_volume 2695.049933
_symmetry_space_group_name_H-M "P M M M"
_symmetry_group_IT_number 47
_symmetry_cell_setting 'orthorhombic'
loop_
_space_group_symop_operation_xyz
x,y,z
-x,-y,z
x,-y,-z
-x,y,-z
-x,-y,-z
x,y,-z
-x,y,z
x,-y,z
loop_
_atom_site_type_symbol
_atom_site_label
_atom_site_fract_x
_atom_site_fract_y
_atom_site_fract_z
Si Si1 0.835103 0.114075 0.000000
Si Si2 0.325636 0.891181 0.644880
Si Si3 0.323563 0.714384 0.433128
Si Si4 0.180306 0.108021 0.131183
Si Si5 0.177928 0.220024 0.751296
Si Si6 0.320993 0.391270 0.685843
O O1 0.753774 0.142669 0.064425
O O2 0.000000 0.162818 0.000000
O O3 0.853260 0.000000 0.000000
O O4 0.500000 0.879309 0.664120
O O5 0.289250 0.824253 0.586533
O O6 0.224728 0.859469 0.701829
O O7 0.285968 0.000000 0.626440
O O8 0.248496 0.695205 0.500000
O O9 0.500000 0.696768 0.439067
O O10 0.259921 0.642346 0.381043
O O11 0.235829 0.182341 0.182841
O O12 0.000000 0.106338 0.127734
O O13 0.238096 0.000000 0.146896
O O14 0.252678 0.323432 0.738303
O O15 0.000000 0.232516 0.749950
O O16 0.500000 0.381332 0.688198
O O17 0.267394 0.500000 0.697696
#
# Coordination Sequence:
#
# PCOD8193779 Si02
#       6
#     4   8   8   8   8   8
#     4   7  10  18  32  52  82 115 140 162 191 229
#     4   9  17  28  41  59  85 115 143 168 197 237
#     4   8  14  25  42  64  84 100 127 170 213 248
#     4   8  13  21  35  58  87 115 139 163 194 232
#     4  10  18  27  42  64  87 109 137 172 206 243
#     4   9  18  32  47  62  81 104 132 169 213 258
#
# _framework density 16.326229000000001
#
# number of rings (size 3 to 8) (size 9 to 14) (size 15 to 20)
#    0.000    3.364    0.000    3.273    0.000    2.182 
#    0.000    3.636    0.000    8.727    0.000   13.364 
#    0.000   15.273    0.000    0.000    0.000    0.000 
#
# Total GULP energy -545108.073448 kJ/mol
# GULP energy per Si atom -12388.819851 kJ/mol
# Density = 1.628907 g / cm^3
# Si number density = 16.326229 Si / 1000 Ang^3
#
#
#
# Elastic Constant Matrix: (Units=GPa)
#
#
# Indices 1 2 3 4 5 6 
#
# 1 19.5091 20.0609 19.0757 0.0000 0.0000 0.0000
# 2 20.0609 122.3232 64.9662 0.0000 0.0000 0.0000
# 3 19.0757 64.9662 148.4923 0.0000 0.0000 0.0000
# 4 0.0000 0.0000 0.0000 18.5488 0.0000 0.0000
# 5 0.0000 0.0000 0.0000 0.0000 2.0615 0.0000
# 6 0.0000 0.0000 0.0000 0.0000 0.0000 18.3174
#
#
#
# Elastic Compliance Matrix: (Units=1/GPa)
#
#
# Indices 1 2 3 4 5 6 
#
# 1 0.064115 -0.007999 -0.004737 0.000000 0.000000 0.000000
# 2 -0.007999 0.011648 -0.004068 0.000000 0.000000 0.000000
# 3 -0.004737 -0.004068 0.009123 0.000000 0.000000 0.000000
# 4 0.000000 0.000000 0.000000 0.053912 0.000000 0.000000
# 5 0.000000 0.000000 0.000000 0.000000 0.485072 0.000000
# 6 0.000000 0.000000 0.000000 0.000000 0.000000 0.054593
#
#
# Mechanical properties :
#
#
# Convention : Reuss Voigt Hill
#
# Bulk Modulus (GPa) = 19.50187 55.39225 37.44706
# Shear Modulus (GPa) = 6.85718 20.20034 13.52876
#
# Velocity S-wave (km/s) = 2.05164 3.52133 2.88175
# Velocity P-wave (km/s) = 4.19325 7.10880 5.83603
#
# Compressibility (1/GPa) = 0.05127713
#
# Stress axis : x y z
#
# Youngs Moduli (GPa) = 15.59694 85.85449 109.61610
#
# Poissons Ratio (x) = 0.68676 0.51922
# Poissons Ratio (y) = 0.12476 0.44595
# Poissons Ratio (z) = 0.07388 0.34928
#
# Static dielectric constant tensor:
#      x y z
#    x 2.678400 0.000000 0.000000 
#    y 0.000000 3.043080 0.000000 
#    z 0.000000 0.000000 3.505500 
# 
# 
# High freq. dielectric constant tensor:
#      x y z
#    x 1.584060 0.000000 0.000000 
#    y 0.000000 1.609040 0.000000 
#    z 0.000000 0.000000 1.630770 
# 
# From -- ./inp_files/21295.got.cif
#   From: 2010.03.12/outbox.cif.g09.slc.cpg/sg47_11_cif.got.tgz:21295.got - 2010.04.14 03:12:58.
