data_PCOD8193109
_publ_section_title
;
Structure prediction by ZEFSAII (Michael W. Deem and Ramdas Pophale) SiO2 
 PCOD8193109
Probable space group: I M A 2
;
_chemical_formula_sum "Si O2"
_cell_formula_units_Z 64
_cell_length_a 8.798148
_cell_length_b 30.507640
_cell_length_c 11.833288
_cell_angle_alpha 90.000000
_cell_angle_beta 90.000000
_cell_angle_gamma 90.000000
_cell_volume 3176.181492
_symmetry_space_group_name_H-M "I M A 2"
_symmetry_group_IT_number 46
_symmetry_cell_setting 'orthorhombic'
loop_
_space_group_symop_operation_xyz
x,y,z
-x,-y,z
1/2-x,y,z
1/2+x,-y,z
1/2+x,1/2+y,1/2+z
1/2-x,1/2-y,1/2+z
-x,1/2+y,1/2+z
x,1/2-y,1/2+z
loop_
_atom_site_type_symbol
_atom_site_label
_atom_site_fract_x
_atom_site_fract_y
_atom_site_fract_z
Si Si1 0.574705 0.876403 0.165050
Si Si2 0.427930 0.370970 0.402511
Si Si3 0.071285 0.071990 0.511275
Si Si4 0.429291 0.045527 0.760096
Si Si5 0.427071 0.292535 0.812060
Si Si6 0.074387 0.796975 0.758848
Si Si7 0.428104 0.543263 0.788606
Si Si8 0.425342 0.836044 0.514184
O O1 0.750000 0.888711 0.184580
O O2 0.534378 0.829966 0.220864
O O3 0.473801 0.913572 0.221399
O O4 0.533890 0.874319 0.033859
O O5 0.250000 0.363104 0.379460
O O6 0.484287 0.415562 0.342271
O O7 0.520525 0.329862 0.355970
O O8 0.250000 0.065588 0.496161
O O9 0.013421 0.056136 0.633629
O O10 0.984856 0.043984 0.417721
O O11 0.032436 0.122648 0.492382
O O12 0.250000 0.040932 0.763898
O O13 0.500000 0.000000 0.802973
O O14 0.250000 0.291839 0.842852
O O15 0.474649 0.246625 0.758652
O O16 0.524214 0.298964 0.925870
O O17 0.250000 0.785177 0.778340
O O18 0.045858 0.819270 0.639218
O O19 0.500000 0.500000 0.730292
O O20 0.250000 0.538478 0.786482
O O21 0.250000 0.848964 0.494563
#
# Coordination Sequence:
#
# PCOD8193109 Si02
#       8
#     8   8   8   8   8   8   8   8
#     4  10  23  43  65  91 123 161 210 260 309 369
#     4  10  22  43  65  90 124 164 211 257 307 369
#     4  11  21  38  63  93 127 162 206 256 310 369
#     4  10  22  38  61  90 123 161 202 254 306 366
#     4  11  24  41  65  93 125 165 209 258 308 367
#     4  11  25  42  63  94 130 164 205 257 310 369
#     4  12  25  41  64  92 126 165 207 257 312 371
#     4  11  23  40  64  95 129 164 202 256 314 367
#
# _framework density 20.149979999999999
#
# number of rings (size 3 to 8) (size 9 to 14) (size 15 to 20)
#    0.000    1.250    2.500    3.000    1.750    5.500 
#    0.000    1.250    0.000    0.000    0.000    0.000 
#    0.000    0.000    0.000    0.000    0.000    0.000 
#
# Total GULP energy -397016.032560 kJ/mol
# GULP energy per Si atom -12406.751017 kJ/mol
# Density = 2.010412 g / cm^3
# Si number density = 20.149980 Si / 1000 Ang^3
#
#
#
# Elastic Constant Matrix: (Units=GPa)
#
#
# Indices 1 2 3 4 5 6 
#
# 1 88.8241 49.3994 49.0815 0.0003 -0.0001 0.0001
# 2 49.3994 133.5949 37.5381 0.0010 0.0007 0.0004
# 3 49.0815 37.5381 108.9199 0.0034 0.0013 0.0006
# 4 0.0003 0.0010 0.0034 13.6604 0.0006 0.0002
# 5 -0.0001 0.0007 0.0013 0.0006 23.0076 0.0006
# 6 0.0001 0.0004 0.0006 0.0002 0.0006 39.2180
#
#
#
# Elastic Compliance Matrix: (Units=1/GPa)
#
#
# Indices 1 2 3 4 5 6 
#
# 1 0.017253 -0.004645 -0.006174 0.000001 0.000001 0.000000
# 2 -0.004645 0.009538 -0.001194 0.000000 0.000000 0.000000
# 3 -0.006174 -0.001194 0.012375 -0.000003 -0.000001 0.000000
# 4 0.000001 0.000000 -0.000003 0.073204 -0.000002 0.000000
# 5 0.000001 0.000000 -0.000001 -0.000002 0.043464 -0.000001
# 6 0.000000 0.000000 0.000000 0.000000 -0.000001 0.025499
#
#
# Mechanical properties :
#
#
# Convention : Reuss Voigt Hill
#
# Bulk Modulus (GPa) = 66.04888 67.04187 66.54538
# Shear Modulus (GPa) = 23.76372 28.19853 25.98112
#
# Velocity S-wave (km/s) = 3.43788 3.74496 3.59470
# Velocity P-wave (km/s) = 6.97198 7.21410 7.09407
#
# Compressibility (1/GPa) = 0.01514030
#
# Stress axis : x y z
#
# Youngs Moduli (GPa) = 57.96156 104.83926 80.81065
#
# Poissons Ratio (x) = 0.48697 0.49890
# Poissons Ratio (y) = 0.26922 0.09651
# Poissons Ratio (z) = 0.35783 0.12520
#
# Static dielectric constant tensor:
#      x y z
#    x 3.602040 0.000000 0.000000 
#    y 0.000000 3.774470 0.000000 
#    z 0.000000 0.000000 3.749170 
# 
# 
# High freq. dielectric constant tensor:
#      x y z
#    x 1.788130 0.000000 0.000000 
#    y 0.000000 1.799500 0.000000 
#    z 0.000000 0.000000 1.790270 
# 
# From -- ./inp_files/9687.got.cif
#   From: 2010.03.12/outbox.cif.g09.slc.cpg/sg46_5_cif.got.tgz:9687.got - 2010.04.14 02:56:35.
