data_PCOD8193604
_publ_section_title
;
Structure prediction by ZEFSAII (Michael W. Deem and Ramdas Pophale) SiO2 
 PCOD8193604
Probable space group: P M M M
;
_chemical_formula_sum "Si O2"
_cell_formula_units_Z 40
_cell_length_a 20.624429
_cell_length_b 9.512969
_cell_length_c 11.808362
_cell_angle_alpha 90.000000
_cell_angle_beta 90.000000
_cell_angle_gamma 90.000000
_cell_volume 2316.795355
_symmetry_space_group_name_H-M "P M M M"
_symmetry_group_IT_number 47
_symmetry_cell_setting 'orthorhombic'
loop_
_space_group_symop_operation_xyz
x,y,z
-x,-y,z
x,-y,-z
-x,y,-z
-x,-y,-z
x,y,-z
-x,y,z
x,-y,z
loop_
_atom_site_type_symbol
_atom_site_label
_atom_site_fract_x
_atom_site_fract_y
_atom_site_fract_z
Si Si1 0.571688 0.833018 0.373089
Si Si2 0.929842 0.333143 0.256060
Si Si3 0.892610 0.334236 0.500000
Si Si4 0.198188 0.664213 0.132370
Si Si5 0.300768 0.159626 0.734379
Si Si6 0.770726 0.846933 0.500000
O O1 0.583944 0.772077 0.500000
O O2 0.500000 0.786371 0.330846
O O3 0.625425 0.782182 0.281042
O O4 0.576598 0.000000 0.380621
O O5 0.926270 0.500000 0.249369
O O6 0.928237 0.281295 0.386580
O O7 0.868303 0.272673 0.187059
O O8 0.000000 0.282482 0.206302
O O9 0.888406 0.500000 0.500000
O O10 0.820122 0.279716 0.500000
O O11 0.205688 0.500000 0.160698
O O12 0.260929 0.742846 0.180251
O O13 0.193594 0.692595 0.000000
O O14 0.273175 0.167161 0.609069
O O15 0.298948 0.000000 0.781695
O O16 0.805874 0.000000 0.500000
#
# Coordination Sequence:
#
# PCOD8193604 Si02
#       6
#     8   8   4   8   8   4
#     4   8  13  23  43  73 104 128 151 184 229 280
#     4   9  17  29  47  71  95 118 150 197 245 285
#     4  10  17  28  48  71  95 122 154 188 233 292
#     4  10  21  35  50  69  92 123 166 207 239 275
#     4  10  18  30  50  74 100 127 156 191 235 284
#     4  10  18  27  44  73 102 125 150 186 232 286
#
# _framework density 17.265228
#
# number of rings (size 3 to 8) (size 9 to 14) (size 15 to 20)
#    0.000    2.600    3.000    0.900    0.000    2.000 
#    0.000    2.000    0.000    4.200    0.000    7.000 
#    0.000    0.000    0.000    0.000    0.000    0.000 
#
# Total GULP energy -495594.493145 kJ/mol
# GULP energy per Si atom -12389.862329 kJ/mol
# Density = 1.722593 g / cm^3
# Si number density = 17.265228 Si / 1000 Ang^3
#
#
#
# Elastic Constant Matrix: (Units=GPa)
#
#
# Indices 1 2 3 4 5 6 
#
# 1 166.0890 31.8591 58.6865 0.0000 0.0000 0.0000
# 2 31.8591 22.7550 32.0143 0.0000 0.0000 0.0000
# 3 58.6865 32.0143 82.6392 0.0000 0.0000 0.0000
# 4 0.0000 0.0000 0.0000 41.5631 0.0000 0.0000
# 5 0.0000 0.0000 0.0000 0.0000 13.3916 0.0000
# 6 0.0000 0.0000 0.0000 0.0000 0.0000 20.4541
#
#
#
# Elastic Compliance Matrix: (Units=1/GPa)
#
#
# Indices 1 2 3 4 5 6 
#
# 1 0.008593 -0.007573 -0.003169 0.000000 0.000000 0.000000
# 2 -0.007573 0.103268 -0.034628 0.000000 0.000000 0.000000
# 3 -0.003169 -0.034628 0.027766 0.000000 0.000000 0.000000
# 4 0.000000 0.000000 0.000000 0.024060 0.000000 0.000000
# 5 0.000000 0.000000 0.000000 0.000000 0.074674 0.000000
# 6 0.000000 0.000000 0.000000 0.000000 0.000000 0.048890
#
#
# Mechanical properties :
#
#
# Convention : Reuss Voigt Hill
#
# Bulk Modulus (GPa) = 20.45503 57.40033 38.92768
# Shear Modulus (GPa) = 12.68118 25.00997 18.84558
#
# Velocity S-wave (km/s) = 2.71309 3.81014 3.30742
# Velocity P-wave (km/s) = 4.65701 7.25773 6.09764
#
# Compressibility (1/GPa) = 0.04888773
#
# Stress axis : x y z
#
# Youngs Moduli (GPa) = 116.37129 9.68355 36.01572
#
# Poissons Ratio (x) = 0.07334 0.11412
# Poissons Ratio (y) = 0.88132 1.24714
# Poissons Ratio (z) = 0.36873 0.33532
#
# Static dielectric constant tensor:
#      x y z
#    x 3.670200 0.000000 0.000000 
#    y 0.000000 2.898330 0.000000 
#    z 0.000000 0.000000 3.128620 
# 
# 
# High freq. dielectric constant tensor:
#      x y z
#    x 1.681760 0.000000 0.000000 
#    y 0.000000 1.615680 0.000000 
#    z 0.000000 0.000000 1.647060 
# 
# From -- ./inp_files/4042.got.cif
#   From: 2010.03.12/outbox.cif.g09.slc.cpg/sg47_3_cif.got.tgz:4042.got - 2010.04.14 03:12:58.
