data_PCOD8193188
_publ_section_title
;
Structure prediction by ZEFSAII (Michael W. Deem and Ramdas Pophale) SiO2 
 PCOD8193188
Probable space group: I M A 2
;
_chemical_formula_sum "Si O2"
_cell_formula_units_Z 64
_cell_length_a 8.490532
_cell_length_b 23.786037
_cell_length_c 15.450535
_cell_angle_alpha 90.000000
_cell_angle_beta 90.000000
_cell_angle_gamma 90.000000
_cell_volume 3120.329920
_symmetry_space_group_name_H-M "I M A 2"
_symmetry_group_IT_number 46
_symmetry_cell_setting 'orthorhombic'
loop_
_space_group_symop_operation_xyz
x,y,z
-x,-y,z
1/2-x,y,z
1/2+x,-y,z
1/2+x,1/2+y,1/2+z
1/2-x,1/2-y,1/2+z
-x,1/2+y,1/2+z
x,1/2-y,1/2+z
loop_
_atom_site_type_symbol
_atom_site_label
_atom_site_fract_x
_atom_site_fract_y
_atom_site_fract_z
Si Si1 0.063363 0.438619 0.078290
Si Si2 0.068231 0.751618 0.986899
Si Si3 0.064258 0.561241 0.588311
Si Si4 0.933476 0.860945 0.421559
Si Si5 0.435231 0.127430 0.740904
Si Si6 0.433735 0.246441 0.673831
Si Si7 0.435144 0.130845 0.933426
Si Si8 0.933178 0.356271 0.742760
O O1 0.250000 0.440134 0.080707
O O2 0.993079 0.415179 0.169348
O O3 0.000000 0.500000 0.059464
O O4 0.004236 0.397558 0.002163
O O5 0.250000 0.737915 0.969699
O O6 0.964108 0.704511 0.940363
O O7 0.028486 0.812039 0.948323
O O8 0.036153 0.753778 0.088410
O O9 0.250000 0.559921 0.574347
O O10 0.015200 0.600291 0.668601
O O11 0.000000 0.500000 0.609776
O O12 0.983620 0.583299 0.501079
O O13 0.750000 0.870608 0.405661
O O14 0.026608 0.882004 0.336550
O O15 0.250000 0.126634 0.729488
O O16 0.493383 0.190933 0.723361
O O17 0.482725 0.108574 0.837656
O O18 0.250000 0.242899 0.648996
O O19 0.465348 0.299519 0.735012
O O20 0.250000 0.143272 0.940371
O O21 0.750000 0.341892 0.735151
#
# Coordination Sequence:
#
# PCOD8193188 Si02
#       8
#     8   8   8   8   8   8   8   8
#     4  10  22  42  63  87 120 158 205 257 306 363
#     4  12  23  37  60  93 131 163 202 255 312 367
#     4  11  25  44  64  88 123 164 210 262 313 367
#     4  11  23  41  65  90 122 165 210 252 307 375
#     4   9  20  39  62  91 123 157 202 250 297 364
#     4  11  20  37  65  92 125 166 206 244 303 379
#     4  11  22  39  66  94 124 164 207 252 309 372
#     4  11  24  41  62  93 129 158 200 259 315 369
#
# _framework density 20.510652
#
# number of rings (size 3 to 8) (size 9 to 14) (size 15 to 20)
#    0.000    1.250    2.500    3.750    0.000    4.500 
#    0.000    6.875    0.000    0.000    0.000    0.000 
#    0.000    0.000    0.000    0.000    0.000    0.000 
#
# Total GULP energy -396943.389797 kJ/mol
# GULP energy per Si atom -12404.480931 kJ/mol
# Density = 2.046397 g / cm^3
# Si number density = 20.510652 Si / 1000 Ang^3
#
#
#
# Elastic Constant Matrix: (Units=GPa)
#
#
# Indices 1 2 3 4 5 6 
#
# 1 51.0010 14.3080 23.8719 -0.0006 0.0000 0.0000
# 2 14.3080 99.2801 33.8945 -0.0019 -0.0003 0.0000
# 3 23.8719 33.8945 144.6170 -0.0043 0.0002 -0.0002
# 4 -0.0006 -0.0019 -0.0043 14.9714 0.0000 -0.0001
# 5 0.0000 -0.0003 0.0002 0.0000 -4.5337 -0.0001
# 6 0.0000 0.0000 -0.0002 -0.0001 -0.0001 29.3436
#
#
#
# Elastic Compliance Matrix: (Units=1/GPa)
#
#
# Indices 1 2 3 4 5 6 
#
# 1 0.021631 -0.002064 -0.003087 0.000000 0.000000 0.000000
# 2 -0.002064 0.011145 -0.002272 0.000001 -0.000001 0.000000
# 3 -0.003087 -0.002272 0.007957 0.000002 0.000000 0.000000
# 4 0.000000 0.000001 0.000002 0.066794 -0.000001 0.000000
# 5 0.000000 -0.000001 0.000000 -0.000001 -0.220568 -0.000001
# 6 0.000000 0.000000 0.000000 0.000000 -0.000001 0.034079
#
#
# Mechanical properties :
#
#
# Convention : Reuss Voigt Hill
#
# Bulk Modulus (GPa) = 38.62607 48.78299 43.70453
# Shear Modulus (GPa) = -90.10983 22.81117 -33.64933
#
# Velocity S-wave (km/s) = -6.63540 3.33853 -4.05480
# Velocity P-wave (km/s) = 6.31123 6.22068 0.75326
#
# Compressibility (1/GPa) = 0.02588925
#
# Stress axis : x y z
#
# Youngs Moduli (GPa) = 46.22932 89.72293 125.67879
#
# Poissons Ratio (x) = 0.18514 0.38797
# Poissons Ratio (y) = 0.09539 0.28549
# Poissons Ratio (z) = 0.14271 0.20381
#
# Static dielectric constant tensor:
#      x y z
#    x 3.619120 0.000000 0.000000 
#    y 0.000000 3.760110 0.000000 
#    z 0.000000 0.000000 4.029940 
# 
# 
# High freq. dielectric constant tensor:
#      x y z
#    x 1.793260 0.000000 0.000000 
#    y 0.000000 1.796300 0.000000 
#    z 0.000000 0.000000 1.819720 
# 
# From -- ./inp_files/14533.got.cif
#   From: 2010.03.12/outbox.cif.g09.slc.cpg/sg46_8_cif.got.tgz:14533.got - 2010.04.14 02:56:35.
