data_PCOD8193082
_publ_section_title
;
Structure prediction by ZEFSAII (Michael W. Deem and Ramdas Pophale) SiO2 
 PCOD8193082
Probable space group: I M A 2
;
_chemical_formula_sum "Si O2"
_cell_formula_units_Z 64
_cell_length_a 18.158684
_cell_length_b 13.323932
_cell_length_c 12.478597
_cell_angle_alpha 90.000000
_cell_angle_beta 90.000000
_cell_angle_gamma 90.000000
_cell_volume 3019.135035
_symmetry_space_group_name_H-M "I M A 2"
_symmetry_group_IT_number 46
_symmetry_cell_setting 'orthorhombic'
loop_
_space_group_symop_operation_xyz
x,y,z
-x,-y,z
1/2-x,y,z
1/2+x,-y,z
1/2+x,1/2+y,1/2+z
1/2-x,1/2-y,1/2+z
-x,1/2+y,1/2+z
x,1/2-y,1/2+z
loop_
_atom_site_type_symbol
_atom_site_label
_atom_site_fract_x
_atom_site_fract_y
_atom_site_fract_z
Si Si1 0.165973 0.973926 0.065470
Si Si2 0.570223 0.434429 0.979458
Si Si3 0.163262 0.898858 0.838996
Si Si4 0.054325 0.907133 0.235892
Si Si5 0.598427 0.599993 0.260660
Si Si6 0.947512 0.188150 0.688515
Si Si7 0.162103 0.179921 0.961072
Si Si8 0.166280 0.110195 0.538977
O O1 0.250000 0.986441 0.098077
O O2 0.128012 0.935089 0.172705
O O3 0.135164 0.083530 0.029591
O O4 0.157603 0.892089 0.968538
O O5 0.500000 0.500000 0.010303
O O6 0.567069 0.385755 0.861940
O O7 0.579614 0.349164 0.070945
O O8 0.636362 0.514051 0.976056
O O9 0.250000 0.908147 0.805842
O O10 0.122509 0.810996 0.771804
O O11 0.110923 0.991780 0.810855
O O12 0.024023 0.803313 0.184286
O O13 0.000000 0.000000 0.218355
O O14 0.514132 0.617124 0.226891
O O15 0.624786 0.682935 0.344585
O O16 0.655131 0.599207 0.163786
O O17 0.250000 0.175179 0.949111
O O18 0.129907 0.282585 0.009898
O O19 0.250000 0.116692 0.505868
#
# Coordination Sequence:
#
# PCOD8193082 Si02
#       8
#     8   8   8   8   8   8   8   8
#     4   9  21  44  66  93 133 171 221 279 330 392
#     4  11  24  45  63  94 138 166 215 279 319 388
#     4  10  21  42  70 101 129 163 222 285 325 390
#     4  11  29  44  65  95 135 178 221 273 334 398
#     4  11  21  37  64  97 134 170 217 275 331 389
#     4  12  25  41  69  97 128 181 221 269 339 395
#     4   9  21  37  64 101 133 170 217 274 335 403
#     4  11  22  38  66  97 130 174 216 269 343 402
#
# _framework density 21.198125000000001
#
# number of rings (size 3 to 8) (size 9 to 14) (size 15 to 20)
#    0.000    1.500    2.500    2.250    7.000    3.000 
#    0.000    2.500    0.000    0.000    0.000    0.000 
#    0.000    0.000    0.000    0.000    0.000    0.000 
#
# Total GULP energy -396570.461099 kJ/mol
# GULP energy per Si atom -12392.826909 kJ/mol
# Density = 2.114988 g / cm^3
# Si number density = 21.198125 Si / 1000 Ang^3
#
#
#
# Elastic Constant Matrix: (Units=GPa)
#
#
# Indices 1 2 3 4 5 6 
#
# 1 72.6855 28.2582 28.8651 0.0000 0.0000 0.0000
# 2 28.2582 100.3772 34.8795 0.0000 0.0000 0.0000
# 3 28.8651 34.8795 96.9568 0.0000 0.0000 0.0000
# 4 0.0000 0.0000 0.0000 -59.4250 0.0000 0.0000
# 5 0.0000 0.0000 0.0000 0.0000 38.3218 0.0000
# 6 0.0000 0.0000 0.0000 0.0000 0.0000 26.6179
#
#
#
# Elastic Compliance Matrix: (Units=1/GPa)
#
#
# Indices 1 2 3 4 5 6 
#
# 1 0.016541 -0.003366 -0.003714 0.000000 0.000000 0.000000
# 2 -0.003366 0.012071 -0.003340 0.000000 0.000000 0.000000
# 3 -0.003714 -0.003340 0.012621 0.000000 0.000000 0.000000
# 4 0.000000 0.000000 0.000000 -0.016828 0.000000 0.000000
# 5 0.000000 0.000000 0.000000 0.000000 0.026095 0.000000
# 6 0.000000 0.000000 0.000000 0.000000 0.000000 0.037569
#
#
# Mechanical properties :
#
#
# Convention : Reuss Voigt Hill
#
# Bulk Modulus (GPa) = 49.03622 50.44723 49.74173
# Shear Modulus (GPa) = 43.21277 12.97073 28.09175
#
# Velocity S-wave (km/s) = 4.51989 2.47631 3.64428
# Velocity P-wave (km/s) = 7.10083 5.65913 6.42057
#
# Compressibility (1/GPa) = 0.02039309
#
# Stress axis : x y z
#
# Youngs Moduli (GPa) = 60.45444 82.84479 79.23281
#
# Poissons Ratio (x) = 0.27888 0.29423
# Poissons Ratio (y) = 0.20351 0.26465
# Poissons Ratio (z) = 0.22450 0.27672
#
# Static dielectric constant tensor:
#      x y z
#    x 3.611160 0.000000 0.000000 
#    y 0.000000 4.829590 0.000000 
#    z 0.000000 0.000000 3.995620 
# 
# 
# High freq. dielectric constant tensor:
#      x y z
#    x 1.822600 0.000000 0.000000 
#    y 0.000000 1.828570 0.000000 
#    z 0.000000 0.000000 1.834530 
# 
# From -- ./inp_files/11994.got.cif
#   From: 2010.03.12/outbox.cif.g09.slc.cpg/sg46_6_cif.got.tgz:11994.got - 2010.04.14 02:56:35.
