data_PCOD8193032
_publ_section_title
;
Structure prediction by ZEFSAII (Michael W. Deem and Ramdas Pophale) SiO2 
 PCOD8193032
Probable space group: I M A 2
;
_chemical_formula_sum "Si O2"
_cell_formula_units_Z 56
_cell_length_a 14.826579
_cell_length_b 12.977247
_cell_length_c 13.056383
_cell_angle_alpha 90.000000
_cell_angle_beta 90.000000
_cell_angle_gamma 90.000000
_cell_volume 2512.154862
_symmetry_space_group_name_H-M "I M A 2"
_symmetry_group_IT_number 46
_symmetry_cell_setting 'orthorhombic'
loop_
_space_group_symop_operation_xyz
x,y,z
-x,-y,z
1/2-x,y,z
1/2+x,-y,z
1/2+x,1/2+y,1/2+z
1/2-x,1/2-y,1/2+z
-x,1/2+y,1/2+z
x,1/2-y,1/2+z
loop_
_atom_site_type_symbol
_atom_site_label
_atom_site_fract_x
_atom_site_fract_y
_atom_site_fract_z
Si Si1 0.353616 0.978240 0.603720
Si Si2 0.848523 0.892030 0.412265
Si Si3 0.561873 0.586147 0.301213
Si Si4 0.856420 0.275896 0.992742
Si Si5 0.845458 0.830617 0.992186
Si Si6 0.022045 0.616243 0.591606
Si Si7 0.516611 0.309341 0.805554
O O1 0.250000 0.000186 0.627690
O O2 0.371357 0.855126 0.588440
O O3 0.382115 0.024304 0.494281
O O4 0.406856 0.032202 0.695638
O O5 0.750000 0.924261 0.364036
O O6 0.833141 0.788422 0.473332
O O7 0.926482 0.875655 0.329093
O O8 0.500000 0.500000 0.355525
O O9 0.638385 0.610170 0.384550
O O10 0.506900 0.690873 0.279520
O O11 0.750000 0.262022 0.968991
O O12 0.907235 0.318491 0.892208
O O13 0.901484 0.165361 0.018341
O O14 0.750000 0.873734 0.036946
O O15 0.925229 0.831073 0.074225
O O16 0.057018 0.634797 0.706189
O O17 0.000000 0.500000 0.563170
#
# Coordination Sequence:
#
# PCOD8193032 Si02
#       7
#     8   8   8   8   8   8   8
#     4  10  22  39  68 103 134 178 229 287 354 408
#     4   9  19  37  64  99 135 168 217 282 347 409
#     4  11  21  37  66 101 134 171 230 286 344 411
#     4  11  26  49  71 100 144 185 236 292 342 417
#     4  10  21  40  63  94 137 173 215 279 346 415
#     4  12  26  46  66 101 135 183 236 279 353 417
#     4  11  25  42  68 102 136 186 234 285 349 415
#
# _framework density 22.291620000000002
#
# number of rings (size 3 to 8) (size 9 to 14) (size 15 to 20)
#    0.000    1.429    2.857    2.571    4.000    2.286 
#    0.000    0.714    0.000    0.000    0.000    0.000 
#    0.000    0.000    0.000    0.000    0.000    0.000 
#
# Total GULP energy -346920.441820 kJ/mol
# GULP energy per Si atom -12390.015779 kJ/mol
# Density = 2.224088 g / cm^3
# Si number density = 22.291620 Si / 1000 Ang^3
#
#
#
# Elastic Constant Matrix: (Units=GPa)
#
#
# Indices 1 2 3 4 5 6 
#
# 1 130.6379 26.0346 37.5437 0.0000 0.0000 0.0000
# 2 26.0346 93.7456 19.8671 0.0000 0.0000 0.0000
# 3 37.5437 19.8671 87.1987 0.0000 0.0000 0.0000
# 4 0.0000 0.0000 0.0000 29.6911 0.0000 0.0000
# 5 0.0000 0.0000 0.0000 0.0000 30.1073 0.0000
# 6 0.0000 0.0000 0.0000 0.0000 0.0000 11.0905
#
#
#
# Elastic Compliance Matrix: (Units=1/GPa)
#
#
# Indices 1 2 3 4 5 6 
#
# 1 0.009005 -0.001764 -0.003475 0.000000 0.000000 0.000000
# 2 -0.001764 0.011554 -0.001873 0.000000 0.000000 0.000000
# 3 -0.003475 -0.001873 0.013391 0.000000 0.000000 0.000000
# 4 0.000000 0.000000 0.000000 0.033680 0.000000 0.000000
# 5 0.000000 0.000000 0.000000 0.000000 0.033215 0.000000
# 6 0.000000 0.000000 0.000000 0.000000 0.000000 0.090167
#
#
# Mechanical properties :
#
#
# Convention : Reuss Voigt Hill
#
# Bulk Modulus (GPa) = 50.69592 53.16368 51.92980
# Shear Modulus (GPa) = 23.60586 29.38691 26.49639
#
# Velocity S-wave (km/s) = 3.25769 3.63477 3.45138
# Velocity P-wave (km/s) = 6.07796 6.44332 6.26330
#
# Compressibility (1/GPa) = 0.01972545
#
# Stress axis : x y z
#
# Youngs Moduli (GPa) = 111.04838 86.54971 74.67705
#
# Poissons Ratio (x) = 0.15271 0.25952
# Poissons Ratio (y) = 0.19593 0.13985
# Poissons Ratio (z) = 0.38591 0.16209
#
# Static dielectric constant tensor:
#      x y z
#    x 2.689250 0.000000 0.000000 
#    y 0.000000 4.244320 0.000000 
#    z 0.000000 0.000000 3.731570 
# 
# 
# High freq. dielectric constant tensor:
#      x y z
#    x 1.882250 0.000000 0.000000 
#    y 0.000000 1.885120 0.000000 
#    z 0.000000 0.000000 1.862550 
# 
# From -- ./inp_files/15932.got.cif
#   From: 2010.03.12/outbox.cif.g09.slc.cpg/sg46_8_cif.got.tgz:15932.got - 2010.04.14 02:56:35.
