data_PCOD8193845
_publ_section_title
;
Structure prediction by ZEFSAII (Michael W. Deem and Ramdas Pophale) SiO2 
 PCOD8193845
Probable space group: P M M M
;
_chemical_formula_sum "Si O2"
_cell_formula_units_Z 34
_cell_length_a 13.256566
_cell_length_b 11.753038
_cell_length_c 15.384078
_cell_angle_alpha 90.000000
_cell_angle_beta 90.000000
_cell_angle_gamma 90.000000
_cell_volume 2396.915103
_symmetry_space_group_name_H-M "P M M M"
_symmetry_group_IT_number 47
_symmetry_cell_setting 'orthorhombic'
loop_
_space_group_symop_operation_xyz
x,y,z
-x,-y,z
x,-y,-z
-x,y,-z
-x,-y,-z
x,y,-z
-x,y,z
x,-y,z
loop_
_atom_site_type_symbol
_atom_site_label
_atom_site_fract_x
_atom_site_fract_y
_atom_site_fract_z
Si Si1 0.117001 0.000000 0.830994
Si Si2 0.756874 0.627878 0.096135
Si Si3 0.745231 0.000000 0.000000
Si Si4 0.618204 0.772323 0.000000
Si Si5 0.118089 0.242419 0.238163
Si Si6 0.880195 0.628080 0.595746
O O1 0.142864 0.109339 0.772038
O O2 0.000000 0.000000 0.859504
O O3 0.183599 0.000000 0.916631
O O4 0.730965 0.500000 0.127026
O O5 0.652864 0.701060 0.086239
O O6 0.832555 0.685414 0.162098
O O7 0.809023 0.626982 0.000000
O O8 0.673448 0.892260 0.000000
O O9 0.500000 0.791850 0.000000
O O10 0.161294 0.284959 0.331241
O O11 0.000000 0.266851 0.231797
O O12 0.839529 0.664441 0.500000
O O13 0.843511 0.500000 0.617775
O O14 0.000000 0.631264 0.594417
#
# Coordination Sequence:
#
# PCOD8193845 Si02
#       6
#     4   8   2   4   8   8
#     4  10  19  29  44  62  88 123 150 175 217 252
#     4   9  18  30  43  62  87 115 141 177 222 262
#     4  12  18  34  48  62  86 118 152 184 204 252
#     4  10  20  33  48  63  82 112 147 184 221 257
#     4  10  18  28  42  62  88 119 152 182 212 254
#     4   8  14  25  41  60  83 113 147 181 215 252
#
# _framework density 14.184900000000001
#
# number of rings (size 3 to 8) (size 9 to 14) (size 15 to 20)
#    0.706    1.882    2.353    1.765    0.000    2.824 
#    0.000    1.765    0.000    3.529    0.000    0.000 
#    0.000    0.941    0.000    7.059    0.000    0.471 
#
# Total GULP energy -421240.745440 kJ/mol
# GULP energy per Si atom -12389.433689 kJ/mol
# Density = 1.415261 g / cm^3
# Si number density = 14.184900 Si / 1000 Ang^3
#
#
#
# Elastic Constant Matrix: (Units=GPa)
#
#
# Indices 1 2 3 4 5 6 
#
# 1 44.5644 43.6033 35.6885 0.0000 0.0000 0.0000
# 2 43.6033 136.4671 63.1046 0.0000 0.0000 0.0000
# 3 35.6885 63.1046 105.9271 0.0000 0.0000 0.0000
# 4 0.0000 0.0000 0.0000 26.6817 0.0000 0.0000
# 5 0.0000 0.0000 0.0000 0.0000 -0.2552 0.0000
# 6 0.0000 0.0000 0.0000 0.0000 0.0000 -0.0055
#
#
#
# Elastic Compliance Matrix: (Units=1/GPa)
#
#
# Indices 1 2 3 4 5 6 
#
# 1 0.036375 -0.008220 -0.007359 0.000000 0.000000 0.000000
# 2 -0.008220 0.011971 -0.004362 0.000000 0.000000 0.000000
# 3 -0.007359 -0.004362 0.014519 0.000000 0.000000 0.000000
# 4 0.000000 0.000000 0.000000 0.037479 0.000000 0.000000
# 5 0.000000 0.000000 0.000000 0.000000 -3.918475 0.000000
# 6 0.000000 0.000000 0.000000 0.000000 0.000000**********
#
#
# Mechanical properties :
#
#
# Convention : Reuss Voigt Hill
#
# Bulk Modulus (GPa) = 43.50954 63.52793 53.51874
# Shear Modulus (GPa) = -0.02679 14.92168 7.44745
#
# Velocity S-wave (km/s) = -0.13757 3.24688 2.29383
# Velocity P-wave (km/s) = 5.54207 7.67718 6.69528
#
# Compressibility (1/GPa) = 0.02298347
#
# Stress axis : x y z
#
# Youngs Moduli (GPa) = 27.49167 83.53299 68.87751
#
# Poissons Ratio (x) = 0.68660 0.50684
# Poissons Ratio (y) = 0.22597 0.30047
# Poissons Ratio (z) = 0.20230 0.36441
#
# Static dielectric constant tensor:
#      x y z
#    x 2.360500 0.000000 0.000000 
#    y 0.000000 3.051660 0.000000 
#    z 0.000000 0.000000 2.955320 
# 
# 
# High freq. dielectric constant tensor:
#      x y z
#    x 1.489050 0.000000 0.000000 
#    y 0.000000 1.559220 0.000000 
#    z 0.000000 0.000000 1.533110 
# 
# From -- ./inp_files/22460.got.cif
#   From: 2010.03.12/outbox.cif.g09.slc.cpg/sg47_12_cif.got.tgz:22460.got - 2010.04.14 03:12:58.
