data_PCOD8193130
_publ_section_title
;
Structure prediction by ZEFSAII (Michael W. Deem and Ramdas Pophale) SiO2 
 PCOD8193130
Probable space group: I M A 2
;
_chemical_formula_sum "Si O2"
_cell_formula_units_Z 40
_cell_length_a 14.234266
_cell_length_b 12.893045
_cell_length_c 10.140828
_cell_angle_alpha 90.000000
_cell_angle_beta 90.000000
_cell_angle_gamma 90.000000
_cell_volume 1861.075502
_symmetry_space_group_name_H-M "I M A 2"
_symmetry_group_IT_number 46
_symmetry_cell_setting 'orthorhombic'
loop_
_space_group_symop_operation_xyz
x,y,z
-x,-y,z
1/2-x,y,z
1/2+x,-y,z
1/2+x,1/2+y,1/2+z
1/2-x,1/2-y,1/2+z
-x,1/2+y,1/2+z
x,1/2-y,1/2+z
loop_
_atom_site_type_symbol
_atom_site_label
_atom_site_fract_x
_atom_site_fract_y
_atom_site_fract_z
Si Si1 0.644933 0.579286 0.241750
Si Si2 0.857322 0.922017 0.038646
Si Si3 0.146232 0.604487 0.734479
Si Si4 0.087692 0.933775 0.509416
Si Si5 0.492938 0.251524 0.137397
O O1 0.750000 0.624730 0.224528
O O2 0.630902 0.535461 0.389522
O O3 0.632191 0.484336 0.140455
O O4 0.570280 0.670637 0.222924
O O5 0.750000 0.887023 0.065597
O O6 0.924484 0.824054 0.057971
O O7 0.886934 0.012777 0.137897
O O8 0.250000 0.644825 0.690667
O O9 0.066418 0.692145 0.731078
O O10 0.157527 0.564916 0.885057
O O11 0.056081 0.816068 0.535515
O O12 0.000000 0.000000 0.461032
#
# Coordination Sequence:
#
# PCOD8193130 Si02
#       5
#     8   8   8   8   8
#     4  10  22  41  64  90 120 155 197 245 297 353
#     4  10  22  40  63  90 120 156 197 244 297 352
#     4  11  24  40  60  87 121 161 200 243 295 350
#     4  10  22  39  61  88 119 157 197 243 297 351
#     4  11  22  38  63  91 119 155 199 247 294 350
#
# _framework density 21.492948999999999
#
# number of rings (size 3 to 8) (size 9 to 14) (size 15 to 20)
#    0.000    1.600    0.000    4.200    0.000    9.600 
#    0.000    6.000    0.000    0.000    0.000    0.000 
#    0.000    0.000    0.000    0.000    0.000    0.000 
#
# Total GULP energy -247981.751458 kJ/mol
# GULP energy per Si atom -12399.087573 kJ/mol
# Density = 2.144403 g / cm^3
# Si number density = 21.492949 Si / 1000 Ang^3
#
#
#
# Elastic Constant Matrix: (Units=GPa)
#
#
# Indices 1 2 3 4 5 6 
#
# 1 108.2397 54.8661 51.5587 0.0000 0.0000 0.0000
# 2 54.8661 113.4183 67.4380 0.0000 0.0000 0.0000
# 3 51.5587 67.4380 162.0276 0.0000 0.0000 0.0000
# 4 0.0000 0.0000 0.0000 11.8231 0.0000 0.0000
# 5 0.0000 0.0000 0.0000 0.0000 31.2585 0.0000
# 6 0.0000 0.0000 0.0000 0.0000 0.0000 26.8812
#
#
#
# Elastic Compliance Matrix: (Units=1/GPa)
#
#
# Indices 1 2 3 4 5 6 
#
# 1 0.012697 -0.004970 -0.001972 0.000000 0.000000 0.000000
# 2 -0.004970 0.013662 -0.004105 0.000000 0.000000 0.000000
# 3 -0.001972 -0.004105 0.008508 0.000000 0.000000 0.000000
# 4 0.000000 0.000000 0.000000 0.084580 0.000000 0.000000
# 5 0.000000 0.000000 0.000000 0.000000 0.031991 0.000000
# 6 0.000000 0.000000 0.000000 0.000000 0.000000 0.037201
#
#
# Mechanical properties :
#
#
# Convention : Reuss Voigt Hill
#
# Bulk Modulus (GPa) = 78.28535 81.26791 79.77663
# Shear Modulus (GPa) = 23.25696 27.98076 25.61886
#
# Velocity S-wave (km/s) = 3.29306 3.61204 3.45623
# Velocity P-wave (km/s) = 7.13875 7.43568 7.28873
#
# Compressibility (1/GPa) = 0.01277378
#
# Stress axis : x y z
#
# Youngs Moduli (GPa) = 78.75752 73.19722 117.54047
#
# Poissons Ratio (x) = 0.36378 0.23177
# Poissons Ratio (y) = 0.39141 0.48247
# Poissons Ratio (z) = 0.15530 0.30046
#
# Static dielectric constant tensor:
#      x y z
#    x 4.051790 0.000000 0.000000 
#    y 0.000000 3.709540 0.000000 
#    z 0.000000 0.000000 3.808850 
# 
# 
# High freq. dielectric constant tensor:
#      x y z
#    x 1.862390 0.000000 0.000000 
#    y 0.000000 1.826430 0.000000 
#    z 0.000000 0.000000 1.849510 
# 
# From -- ./inp_files/5399.got.cif
#   From: 2010.03.12/outbox.cif.g09.slc.cpg/sg46_3_cif.got.tgz:5399.got - 2010.04.14 02:56:35.
