data_PCOD8193692
_publ_section_title
;
Structure prediction by ZEFSAII (Michael W. Deem and Ramdas Pophale) SiO2 
 PCOD8193692
Probable space group: P M M M
;
_chemical_formula_sum "Si O2"
_cell_formula_units_Z 48
_cell_length_a 13.831250
_cell_length_b 18.967872
_cell_length_c 13.852848
_cell_angle_alpha 90.000000
_cell_angle_beta 90.000000
_cell_angle_gamma 90.000000
_cell_volume 3634.286078
_symmetry_space_group_name_H-M "P M M M"
_symmetry_group_IT_number 47
_symmetry_cell_setting 'orthorhombic'
loop_
_space_group_symop_operation_xyz
x,y,z
-x,-y,z
x,-y,-z
-x,y,-z
-x,-y,-z
x,y,-z
-x,y,z
x,-y,z
loop_
_atom_site_type_symbol
_atom_site_label
_atom_site_fract_x
_atom_site_fract_y
_atom_site_fract_z
Si Si1 0.610485 0.354160 0.887976
Si Si2 0.391188 0.077693 0.114879
Si Si3 0.893855 0.294386 0.113542
Si Si4 0.891757 0.416575 0.606014
Si Si5 0.714033 0.212370 0.887358
Si Si6 0.210898 0.582021 0.204027
O O1 0.500000 0.369191 0.859867
O O2 0.633352 0.272083 0.868999
O O3 0.676870 0.403147 0.819988
O O4 0.630512 0.372947 0.000000
O O5 0.500000 0.088720 0.154039
O O6 0.322016 0.138604 0.159571
O O7 0.352916 0.000000 0.145954
O O8 0.392980 0.083820 0.000000
O O9 0.816767 0.238064 0.157677
O O10 0.857453 0.373723 0.132689
O O11 0.000000 0.281482 0.159400
O O12 0.899075 0.284794 0.000000
O O13 0.860877 0.387191 0.500000
O O14 0.894180 0.500000 0.601677
O O15 0.814322 0.392536 0.686731
O O16 0.000000 0.389113 0.632282
O O17 0.729294 0.200340 0.000000
O O18 0.187239 0.500000 0.188930
#
# Coordination Sequence:
#
# PCOD8193692 Si02
#       6
#     8   8   8   8   8   8
#     4   9  17  27  37  49  67  94 124 147 169 203
#     4   8  12  17  28  47  65  79 101 137 175 200
#     4   9  17  26  34  46  65  90 117 141 168 204
#     4   8  14  25  40  55  68  82 102 132 174 220
#     4   8  13  22  34  45  61  86 113 140 168 199
#     4  10  18  26  37  52  68  85 110 146 182 210
#
# _framework density 13.207546000000001
#
# number of rings (size 3 to 8) (size 9 to 14) (size 15 to 20)
#    0.000    3.333    0.000    3.500    0.000    4.667 
#    0.000    1.667    0.000    1.000    0.000    5.833 
#    0.000    0.000    0.000    0.000    0.000   13.333 
#
# Total GULP energy -594636.751551 kJ/mol
# GULP energy per Si atom -12388.265657 kJ/mol
# Density = 1.317748 g / cm^3
# Si number density = 13.207546 Si / 1000 Ang^3
#
#
#
# Elastic Constant Matrix: (Units=GPa)
#
#
# Indices 1 2 3 4 5 6 
#
# 1 110.9284 42.9238 30.6743 0.0000 0.0000 0.0000
# 2 42.9238 80.6553 11.5415 0.0000 0.0000 0.0000
# 3 30.6743 11.5415 31.7171 0.0000 0.0000 0.0000
# 4 0.0000 0.0000 0.0000 1.2879 0.0000 0.0000
# 5 0.0000 0.0000 0.0000 0.0000 14.4084 0.0000
# 6 0.0000 0.0000 0.0000 0.0000 0.0000 16.0514
#
#
#
# Elastic Compliance Matrix: (Units=1/GPa)
#
#
# Indices 1 2 3 4 5 6 
#
# 1 0.014691 -0.006103 -0.011987 0.000000 0.000000 0.000000
# 2 -0.006103 0.015615 0.000220 0.000000 0.000000 0.000000
# 3 -0.011987 0.000220 0.043042 0.000000 0.000000 0.000000
# 4 0.000000 0.000000 0.000000 0.776440 0.000000 0.000000
# 5 0.000000 0.000000 0.000000 0.000000 0.069404 0.000000
# 6 0.000000 0.000000 0.000000 0.000000 0.000000 0.062300
#
#
# Mechanical properties :
#
#
# Convention : Reuss Voigt Hill
#
# Bulk Modulus (GPa) = 26.59024 43.73110 35.16067
# Shear Modulus (GPa) = 4.85546 15.56028 10.20787
#
# Velocity S-wave (km/s) = 1.91944 3.43612 2.78309
# Velocity P-wave (km/s) = 5.00886 6.99465 6.08333
#
# Compressibility (1/GPa) = 0.03760779
#
# Stress axis : x y z
#
# Youngs Moduli (GPa) = 68.06777 64.04129 23.23320
#
# Poissons Ratio (x) = 0.39085 0.27851
# Poissons Ratio (y) = 0.41543 -0.00512
# Poissons Ratio (z) = 0.81595 -0.01412
#
# Static dielectric constant tensor:
#      x y z
#    x 2.962810 0.000000 0.000000 
#    y 0.000000 2.686390 0.000000 
#    z 0.000000 0.000000 2.459980 
# 
# 
# High freq. dielectric constant tensor:
#      x y z
#    x 1.505230 0.000000 0.000000 
#    y 0.000000 1.484760 0.000000 
#    z 0.000000 0.000000 1.448970 
# 
# From -- ./inp_files/17702.got.cif
#   From: 2010.03.12/outbox.cif.g09.slc.cpg/sg47_9_cif.got.tgz:17702.got - 2010.04.14 03:12:58.
