data_PCOD8193451
_publ_section_title
;
Structure prediction by ZEFSAII (Michael W. Deem and Ramdas Pophale) SiO2 
 PCOD8193451
Probable space group: P M M M
;
_chemical_formula_sum "Si O2"
_cell_formula_units_Z 56
_cell_length_a 15.883763
_cell_length_b 13.301589
_cell_length_c 18.871997
_cell_angle_alpha 90.000000
_cell_angle_beta 90.000000
_cell_angle_gamma 90.000000
_cell_volume 3987.262074
_symmetry_space_group_name_H-M "P M M M"
_symmetry_group_IT_number 47
_symmetry_cell_setting 'orthorhombic'
loop_
_space_group_symop_operation_xyz
x,y,z
-x,-y,z
x,-y,-z
-x,y,-z
-x,-y,-z
x,y,-z
-x,y,z
x,-y,z
loop_
_atom_site_type_symbol
_atom_site_label
_atom_site_fract_x
_atom_site_fract_y
_atom_site_fract_z
Si Si1 0.100093 0.825359 0.182345
Si Si2 0.592335 0.611738 0.583914
Si Si3 0.900305 0.000000 0.078858
Si Si4 0.000000 0.120282 0.580993
Si Si5 0.905850 0.617064 0.376661
Si Si6 0.098103 0.390629 0.213038
Si Si7 0.840178 0.884169 0.666486
Si Si8 0.250806 0.263785 0.419753
O O1 0.127100 0.708108 0.167671
O O2 0.148279 0.866048 0.250766
O O3 0.000000 0.833908 0.195568
O O4 0.129101 0.897563 0.118172
O O5 0.599461 0.605493 0.500000
O O6 0.500000 0.654990 0.605819
O O7 0.602819 0.500000 0.615898
O O8 0.668088 0.679617 0.612704
O O9 0.000000 0.000000 0.074541
O O10 0.860884 0.000000 0.000000
O O11 0.081408 0.162083 0.622210
O O12 0.000000 0.157756 0.500000
O O13 0.000000 0.000000 0.585335
O O14 0.906967 0.500000 0.394271
O O15 0.882785 0.635708 0.294439
O O16 0.832298 0.666627 0.422409
O O17 0.000000 0.660916 0.394304
O O18 0.139945 0.500000 0.191451
O O19 0.000000 0.405133 0.202013
O O20 0.758990 0.829013 0.634283
O O21 0.828158 0.000000 0.650517
O O22 0.267307 0.225866 0.500000
#
# Coordination Sequence:
#
# PCOD8193451 Si02
#       8
#     8   8   4   4   8   8   8   8
#     4  10  16  26  44  57  74 108 142 177 214 255
#     4   8  15  30  49  63  74  93 129 180 232 271
#     4   9  18  28  42  64  80  94 133 192 233 241
#     4   9  18  28  36  46  69 107 149 184 207 238
#     4   9  17  27  36  50  78 108 135 167 203 248
#     4   8  14  24  37  53  72 101 137 165 192 241
#     4  11  20  29  39  53  76 108 146 174 212 253
#     4  11  21  28  39  57  78 104 139 181 219 254
#
# _framework density 14.044725
#
# number of rings (size 3 to 8) (size 9 to 14) (size 15 to 20)
#    0.000    2.571    2.857    2.143    1.000    2.000 
#    0.000    0.714    0.000    0.857    0.000    5.000 
#    0.000    0.000    0.000    0.000    0.000    1.429 
#
# Total GULP energy -693878.659470 kJ/mol
# GULP energy per Si atom -12390.690348 kJ/mol
# Density = 1.401276 g / cm^3
# Si number density = 14.044725 Si / 1000 Ang^3
#
#
#
# Elastic Constant Matrix: (Units=GPa)
#
#
# Indices 1 2 3 4 5 6 
#
# 1 66.9365 35.5827 16.0265 0.0000 0.0000 0.0000
# 2 35.5827 79.9569 36.5402 0.0000 0.0000 0.0000
# 3 16.0265 36.5402 68.0172 0.0000 0.0000 0.0000
# 4 0.0000 0.0000 0.0000 15.6551 0.0000 0.0000
# 5 0.0000 0.0000 0.0000 0.0000 3.5686 0.0000
# 6 0.0000 0.0000 0.0000 0.0000 0.0000 16.9609
#
#
#
# Elastic Compliance Matrix: (Units=1/GPa)
#
#
# Indices 1 2 3 4 5 6 
#
# 1 0.019569 -0.008750 0.000089 0.000000 0.000000 0.000000
# 2 -0.008750 0.020489 -0.008945 0.000000 0.000000 0.000000
# 3 0.000089 -0.008945 0.019487 0.000000 0.000000 0.000000
# 4 0.000000 0.000000 0.000000 0.063877 0.000000 0.000000
# 5 0.000000 0.000000 0.000000 0.000000 0.280220 0.000000
# 6 0.000000 0.000000 0.000000 0.000000 0.000000 0.058959
#
#
# Mechanical properties :
#
#
# Convention : Reuss Voigt Hill
#
# Bulk Modulus (GPa) = 41.09534 43.46771 42.28153
# Shear Modulus (GPa) = 9.88293 15.68767 12.78530
#
# Velocity S-wave (km/s) = 2.65557 3.34575 3.02044
# Velocity P-wave (km/s) = 6.22307 6.77806 6.50648
#
# Compressibility (1/GPa) = 0.02433366
#
# Stress axis : x y z
#
# Youngs Moduli (GPa) = 51.10026 48.80786 51.31735
#
# Poissons Ratio (x) = 0.42706 -0.00459
# Poissons Ratio (y) = 0.44711 0.45904
# Poissons Ratio (z) = -0.00457 0.43659
#
# Static dielectric constant tensor:
#      x y z
#    x 2.534120 0.000000 0.000000 
#    y 0.000000 2.795900 0.000000 
#    z 0.000000 0.000000 2.520640 
# 
# 
# High freq. dielectric constant tensor:
#      x y z
#    x 1.481750 0.000000 0.000000 
#    y 0.000000 1.558410 0.000000 
#    z 0.000000 0.000000 1.491640 
# 
# From -- ./inp_files/28284.got.cif
#   From: 2010.03.12/outbox.cif.g09.slc.cpg/sg47_15_cif.got.tgz:28284.got - 2010.04.14 03:12:58.
