data_PCOD8193682
_publ_section_title
;
Structure prediction by ZEFSAII (Michael W. Deem and Ramdas Pophale) SiO2 
 PCOD8193682
Probable space group: P M M M
;
_chemical_formula_sum "Si O2"
_cell_formula_units_Z 52
_cell_length_a 19.078567
_cell_length_b 13.348553
_cell_length_c 11.724906
_cell_angle_alpha 90.000000
_cell_angle_beta 90.000000
_cell_angle_gamma 90.000000
_cell_volume 2985.996617
_symmetry_space_group_name_H-M "P M M M"
_symmetry_group_IT_number 47
_symmetry_cell_setting 'orthorhombic'
loop_
_space_group_symop_operation_xyz
x,y,z
-x,-y,z
x,-y,-z
-x,y,-z
-x,-y,-z
x,y,-z
-x,y,z
x,-y,z
loop_
_atom_site_type_symbol
_atom_site_label
_atom_site_fract_x
_atom_site_fract_y
_atom_site_fract_z
Si Si1 0.791390 0.387326 0.752600
Si Si2 0.662385 0.303960 0.364267
Si Si3 0.081173 0.300148 0.367604
Si Si4 0.917821 0.195831 0.000000
Si Si5 0.421173 0.888834 0.635342
Si Si6 0.917408 0.109221 0.766106
Si Si7 0.835964 0.387532 0.000000
Si Si8 0.421228 0.500000 0.364653
O O1 0.767923 0.500000 0.722353
O O2 0.739308 0.310233 0.690907
O O3 0.870584 0.373518 0.706347
O O4 0.788338 0.369185 0.888339
O O5 0.670156 0.303871 0.500000
O O6 0.628007 0.200573 0.318284
O O7 0.617044 0.399116 0.321626
O O8 0.096734 0.316389 0.500000
O O9 0.101082 0.185940 0.334909
O O10 0.000000 0.323464 0.338067
O O11 0.884753 0.145347 0.886881
O O12 0.901699 0.313529 0.000000
O O13 0.000000 0.181910 0.000000
O O14 0.422602 0.883057 0.500000
O O15 0.500000 0.871800 0.681858
O O16 0.394233 0.000000 0.673681
O O17 0.000000 0.101921 0.781241
O O18 0.886219 0.000000 0.734595
O O19 0.866680 0.500000 0.000000
O O20 0.500000 0.500000 0.314950
O O21 0.423271 0.500000 0.500000
#
# Coordination Sequence:
#
# PCOD8193682 Si02
#       8
#     8   8   8   4   8   8   4   4
#     4  11  22  37  53  71  97 132 173 216 266 315
#     4  10  18  29  48  75 105 138 169 201 246 304
#     4  10  21  35  51  73 101 135 173 211 253 309
#     4  10  17  31  54  77  97 118 156 215 269 312
#     4   8  14  26  46  74 109 143 169 197 237 289
#     4   9  17  30  50  74  97 123 157 203 260 311
#     4  10  22  36  53  72  90 124 170 215 264 307
#     4   9  16  26  44  75 108 132 161 203 245 290
#
# _framework density 17.414621
#
# number of rings (size 3 to 8) (size 9 to 14) (size 15 to 20)
#    0.000    2.385    2.308    1.615    0.000    4.462 
#    0.000    4.615    0.000    1.846    0.000    2.692 
#    0.000    1.231    0.000    0.000    0.000    0.000 
#
# Total GULP energy -644564.177279 kJ/mol
# GULP energy per Si atom -12395.464948 kJ/mol
# Density = 1.737498 g / cm^3
# Si number density = 17.414621 Si / 1000 Ang^3
#
#
#
# Elastic Constant Matrix: (Units=GPa)
#
#
# Indices 1 2 3 4 5 6 
#
# 1 75.3432 42.9205 31.0157 0.0000 0.0000 0.0000
# 2 42.9205 118.9989 26.6758 0.0000 0.0000 0.0000
# 3 31.0157 26.6758 64.4717 0.0000 0.0000 0.0000
# 4 0.0000 0.0000 0.0000 20.2055 0.0000 0.0000
# 5 0.0000 0.0000 0.0000 0.0000 9.7164 0.0000
# 6 0.0000 0.0000 0.0000 0.0000 0.0000 27.6109
#
#
#
# Elastic Compliance Matrix: (Units=1/GPa)
#
#
# Indices 1 2 3 4 5 6 
#
# 1 0.019217 -0.005356 -0.007029 0.000000 0.000000 0.000000
# 2 -0.005356 0.010755 -0.001874 0.000000 0.000000 0.000000
# 3 -0.007029 -0.001874 0.019667 0.000000 0.000000 0.000000
# 4 0.000000 0.000000 0.000000 0.049491 0.000000 0.000000
# 5 0.000000 0.000000 0.000000 0.000000 0.102919 0.000000
# 6 0.000000 0.000000 0.000000 0.000000 0.000000 0.036218
#
#
# Mechanical properties :
#
#
# Convention : Reuss Voigt Hill
#
# Bulk Modulus (GPa) = 47.34106 51.11531 49.22818
# Shear Modulus (GPa) = 18.25987 22.05334 20.15661
#
# Velocity S-wave (km/s) = 3.24162 3.56247 3.40583
# Velocity P-wave (km/s) = 6.42297 6.80715 6.61785
#
# Compressibility (1/GPa) = 0.02112331
#
# Stress axis : x y z
#
# Youngs Moduli (GPa) = 52.03739 92.97937 50.84571
#
# Poissons Ratio (x) = 0.49795 0.35739
# Poissons Ratio (y) = 0.27869 0.09527
# Poissons Ratio (z) = 0.36577 0.17421
#
# Static dielectric constant tensor:
#      x y z
#    x 3.031800 0.000000 0.000000 
#    y 0.000000 3.564150 0.000000 
#    z 0.000000 0.000000 3.044340 
# 
# 
# High freq. dielectric constant tensor:
#      x y z
#    x 1.643860 0.000000 0.000000 
#    y 0.000000 1.685590 0.000000 
#    z 0.000000 0.000000 1.640640 
# 
# From -- ./inp_files/18604.got.cif
#   From: 2010.03.12/outbox.cif.g09.slc.cpg/sg47_10_cif.got.tgz:18604.got - 2010.04.14 03:12:58.
