data_PCOD8193066
_publ_section_title
;
Structure prediction by ZEFSAII (Michael W. Deem and Ramdas Pophale) SiO2 
 PCOD8193066
Probable space group: I M A 2
;
_chemical_formula_sum "Si O2"
_cell_formula_units_Z 48
_cell_length_a 17.431482
_cell_length_b 11.695762
_cell_length_c 11.817629
_cell_angle_alpha 90.000000
_cell_angle_beta 90.000000
_cell_angle_gamma 90.000000
_cell_volume 2409.312787
_symmetry_space_group_name_H-M "I M A 2"
_symmetry_group_IT_number 46
_symmetry_cell_setting 'orthorhombic'
loop_
_space_group_symop_operation_xyz
x,y,z
-x,-y,z
1/2-x,y,z
1/2+x,-y,z
1/2+x,1/2+y,1/2+z
1/2-x,1/2-y,1/2+z
-x,1/2+y,1/2+z
x,1/2-y,1/2+z
loop_
_atom_site_type_symbol
_atom_site_label
_atom_site_fract_x
_atom_site_fract_y
_atom_site_fract_z
Si Si1 0.412440 0.519016 0.674780
Si Si2 0.662077 0.393344 0.449841
Si Si3 0.662488 0.976392 0.524817
Si Si4 0.076454 0.664210 0.888375
Si Si5 0.900576 0.674772 0.845771
Si Si6 0.662307 0.908362 0.771722
O O1 0.500000 0.500000 0.636480
O O2 0.361095 0.547022 0.566983
O O3 0.400656 0.624386 0.761974
O O4 0.384921 0.401739 0.734142
O O5 0.750000 0.351495 0.458800
O O6 0.607732 0.288829 0.416956
O O7 0.651564 0.484114 0.351573
O O8 0.750000 0.019799 0.529811
O O9 0.657313 0.865694 0.443813
O O10 0.632456 0.942947 0.648424
O O11 0.609142 0.077804 0.480965
O O12 0.985131 0.658731 0.896692
O O13 0.889466 0.806380 0.817676
O O14 0.750000 0.866340 0.766768
#
# Coordination Sequence:
#
# PCOD8193066 Si02
#       6
#     8   8   8   8   8   8
#     4   9  22  42  62  90 122 161 207 251 307 368
#     4  11  25  40  61  92 126 163 207 256 307 366
#     4  10  21  41  66  89 124 164 203 254 307 368
#     4  10  23  42  63  92 124 160 207 254 307 371
#     4  10  22  42  64  92 122 161 207 254 309 366
#     4  10  24  40  59  92 125 160 209 255 305 364
#
# _framework density 19.922692000000001
#
# number of rings (size 3 to 8) (size 9 to 14) (size 15 to 20)
#    0.000    2.000    0.000    2.500    7.000    5.333 
#    3.000    0.000    0.000    0.000    0.000    0.000 
#    0.000    0.000    0.000    0.000    0.000    0.000 
#
# Total GULP energy -297673.473459 kJ/mol
# GULP energy per Si atom -12403.061394 kJ/mol
# Density = 1.987735 g / cm^3
# Si number density = 19.922692 Si / 1000 Ang^3
#
#
#
# Elastic Constant Matrix: (Units=GPa)
#
#
# Indices 1 2 3 4 5 6 
#
# 1 61.2351 41.7983 32.9809 0.0000 0.0000 0.0000
# 2 41.7983 107.2521 45.8288 0.0000 0.0000 0.0000
# 3 32.9809 45.8288 119.6979 0.0000 0.0000 0.0000
# 4 0.0000 0.0000 0.0000 26.6862 0.0000 0.0000
# 5 0.0000 0.0000 0.0000 0.0000 24.6004 0.0000
# 6 0.0000 0.0000 0.0000 0.0000 0.0000 34.0201
#
#
#
# Elastic Compliance Matrix: (Units=1/GPa)
#
#
# Indices 1 2 3 4 5 6 
#
# 1 0.023440 -0.007622 -0.003540 0.000000 0.000000 0.000000
# 2 -0.007622 0.013626 -0.003117 0.000000 0.000000 0.000000
# 3 -0.003540 -0.003117 0.010523 0.000000 0.000000 0.000000
# 4 0.000000 0.000000 0.000000 0.037473 0.000000 0.000000
# 5 0.000000 0.000000 0.000000 0.000000 0.040650 0.000000
# 6 0.000000 0.000000 0.000000 0.000000 0.000000 0.029394
#
#
# Mechanical properties :
#
#
# Convention : Reuss Voigt Hill
#
# Bulk Modulus (GPa) = 52.54663 58.82236 55.68449
# Shear Modulus (GPa) = 26.31458 28.23314 27.27386
#
# Velocity S-wave (km/s) = 3.63827 3.76857 3.70399
# Velocity P-wave (km/s) = 6.63942 6.96603 6.80468
#
# Compressibility (1/GPa) = 0.01903072
#
# Stress axis : x y z
#
# Youngs Moduli (GPa) = 42.66182 73.38768 95.02846
#
# Poissons Ratio (x) = 0.55939 0.33642
# Poissons Ratio (y) = 0.32518 0.29619
# Poissons Ratio (z) = 0.15103 0.22874
#
# Static dielectric constant tensor:
#      x y z
#    x 3.649060 0.000000 0.000000 
#    y 0.000000 3.588000 0.000000 
#    z 0.000000 0.000000 3.673100 
# 
# 
# High freq. dielectric constant tensor:
#      x y z
#    x 1.779160 0.000000 0.000000 
#    y 0.000000 1.780190 0.000000 
#    z 0.000000 0.000000 1.785070 
# 
# From -- ./inp_files/11778.got.cif
#   From: 2010.03.12/outbox.cif.g09.slc.cpg/sg46_6_cif.got.tgz:11778.got - 2010.04.14 02:56:35.
