data_PCOD8193774
_publ_section_title
;
Structure prediction by ZEFSAII (Michael W. Deem and Ramdas Pophale) SiO2 
 PCOD8193774
Probable space group: P M M M
;
_chemical_formula_sum "Si O2"
_cell_formula_units_Z 64
_cell_length_a 28.672012
_cell_length_b 9.667862
_cell_length_c 14.549948
_cell_angle_alpha 90.000000
_cell_angle_beta 90.000000
_cell_angle_gamma 90.000000
_cell_volume 4033.202740
_symmetry_space_group_name_H-M "P M M M"
_symmetry_group_IT_number 47
_symmetry_cell_setting 'orthorhombic'
loop_
_space_group_symop_operation_xyz
x,y,z
-x,-y,z
x,-y,-z
-x,y,-z
-x,-y,-z
x,y,-z
-x,y,z
x,-y,z
loop_
_atom_site_type_symbol
_atom_site_label
_atom_site_fract_x
_atom_site_fract_y
_atom_site_fract_z
Si Si1 0.363961 0.661229 0.106404
Si Si2 0.801291 0.156167 0.893140
Si Si3 0.873932 0.655387 0.607849
Si Si4 0.769944 0.663403 0.600725
Si Si5 0.448571 0.845045 0.890938
Si Si6 0.271898 0.337257 0.212461
Si Si7 0.052752 0.162434 0.286224
Si Si8 0.094029 0.836466 0.900472
O O1 0.374530 0.500000 0.116184
O O2 0.409251 0.740554 0.145279
O O3 0.321620 0.708422 0.171696
O O4 0.352661 0.699283 0.000000
O O5 0.768008 0.260568 0.841921
O O6 0.853599 0.211403 0.875886
O O7 0.794759 0.000000 0.854993
O O8 0.788832 0.159244 0.000000
O O9 0.882337 0.652986 0.500000
O O10 0.880145 0.500000 0.647939
O O11 0.821937 0.714390 0.629120
O O12 0.911999 0.756385 0.649905
O O13 0.755208 0.724473 0.500000
O O14 0.773245 0.500000 0.591205
O O15 0.732466 0.704655 0.679394
O O16 0.500000 0.800643 0.854277
O O17 0.436755 0.000000 0.856716
O O18 0.449217 0.841122 0.000000
O O19 0.264311 0.500000 0.198250
O O20 0.059374 0.210768 0.180211
O O21 0.000000 0.197325 0.315665
O O22 0.063315 0.000000 0.296440
O O23 0.094676 0.000000 0.909989
O O24 0.078353 0.774183 0.000000
#
# Coordination Sequence:
#
# PCOD8193774 Si02
#       8
#     8   8   8   8   8   8   8   8
#     4   9  17  26  35  54  86 117 141 166 201 246
#     4   9  17  28  42  60  82 110 141 169 200 241
#     4   9  18  33  51  67  83 107 138 168 202 249
#     4   8  15  29  48  67  84 105 138 176 209 245
#     4   8  14  25  40  56  75 105 147 186 211 234
#     4  10  18  27  42  63  87 113 139 171 210 249
#     4  10  20  31  45  67  89 107 131 166 207 247
#     4   8  15  29  46  62  82 108 138 170 201 238
#
# _framework density 15.868283
#
# number of rings (size 3 to 8) (size 9 to 14) (size 15 to 20)
#    0.000    3.125    0.000    3.000    0.000    2.500 
#    0.000    5.000    0.000    2.250    0.000    0.875 
#    0.000    0.500    0.000    6.250    0.000    1.250 
#
# Total GULP energy -793105.767674 kJ/mol
# GULP energy per Si atom -12392.277620 kJ/mol
# Density = 1.583217 g / cm^3
# Si number density = 15.868283 Si / 1000 Ang^3
#
#
#
# Elastic Constant Matrix: (Units=GPa)
#
#
# Indices 1 2 3 4 5 6 
#
# 1 96.2047 34.9118 57.1638 0.0000 0.0000 0.0000
# 2 34.9118 34.6713 26.7424 0.0000 0.0000 0.0000
# 3 57.1638 26.7424 65.0608 0.0000 0.0000 0.0000
# 4 0.0000 0.0000 0.0000 15.2851 0.0000 0.0000
# 5 0.0000 0.0000 0.0000 0.0000 17.9078 0.0000
# 6 0.0000 0.0000 0.0000 0.0000 0.0000 25.2831
#
#
#
# Elastic Compliance Matrix: (Units=1/GPa)
#
#
# Indices 1 2 3 4 5 6 
#
# 1 0.024706 -0.011910 -0.016811 0.000000 0.000000 0.000000
# 2 -0.011910 0.047973 -0.009254 0.000000 0.000000 0.000000
# 3 -0.016811 -0.009254 0.033945 0.000000 0.000000 0.000000
# 4 0.000000 0.000000 0.000000 0.065423 0.000000 0.000000
# 5 0.000000 0.000000 0.000000 0.000000 0.055841 0.000000
# 6 0.000000 0.000000 0.000000 0.000000 0.000000 0.039552
#
#
# Mechanical properties :
#
#
# Convention : Reuss Voigt Hill
#
# Bulk Modulus (GPa) = 32.60297 48.17473 40.38885
# Shear Modulus (GPa) = 14.13964 16.83647 15.48805
#
# Velocity S-wave (km/s) = 2.98831 3.26085 3.12755
# Velocity P-wave (km/s) = 5.70063 6.67852 6.20886
#
# Compressibility (1/GPa) = 0.03067206
#
# Stress axis : x y z
#
# Youngs Moduli (GPa) = 40.47631 20.84511 29.45949
#
# Poissons Ratio (x) = 0.24827 0.49526
# Poissons Ratio (y) = 0.48208 0.27262
# Poissons Ratio (z) = 0.68047 0.19290
#
# Static dielectric constant tensor:
#      x y z
#    x 3.129220 0.000000 0.000000 
#    y 0.000000 2.873290 0.000000 
#    z 0.000000 0.000000 3.228590 
# 
# 
# High freq. dielectric constant tensor:
#      x y z
#    x 1.600030 0.000000 0.000000 
#    y 0.000000 1.587170 0.000000 
#    z 0.000000 0.000000 1.592660 
# 
# From -- ./inp_files/14298.got.cif
#   From: 2010.03.12/outbox.cif.g09.slc.cpg/sg47_8_cif.got.tgz:14298.got - 2010.04.14 03:12:58.
