data_PCOD8193438
_publ_section_title
;
Structure prediction by ZEFSAII (Michael W. Deem and Ramdas Pophale) SiO2 
 PCOD8193438
Probable space group: I M A 2
;
_chemical_formula_sum "Si O2"
_cell_formula_units_Z 32
_cell_length_a 9.000000
_cell_length_b 30.000000
_cell_length_c 12.000000
_cell_angle_alpha 90.000000
_cell_angle_beta 90.000000
_cell_angle_gamma 90.000000
_cell_volume 3240.000000
_symmetry_space_group_name_H-M "I M A 2"
_symmetry_group_IT_number 46
_symmetry_cell_setting 'orthorhombic'
loop_
_space_group_symop_operation_xyz
x,y,z
-x,-y,z
1/2-x,y,z
1/2+x,-y,z
1/2+x,1/2+y,1/2+z
1/2-x,1/2-y,1/2+z
-x,1/2+y,1/2+z
x,1/2-y,1/2+z
loop_
_atom_site_type_symbol
_atom_site_label
_atom_site_fract_x
_atom_site_fract_y
_atom_site_fract_z
Si Si1 0.422902 0.455004 0.455150
Si Si2 0.925121 0.723235 0.958414
Si Si3 0.077664 0.455226 0.207521
Si Si4 0.424307 0.854293 0.326497
Si Si5 0.076037 0.811733 0.904241
Si Si6 0.412063 0.688987 0.155133
Si Si7 0.425059 0.369518 0.591164
Si Si8 0.908760 0.097867 0.535727
O O1 0.500000 0.500000 0.494641
O O2 0.250000 0.464529 0.449668
O O3 0.478637 0.440128 0.330820
O O4 0.463147 0.418499 0.546324
O O5 0.750000 0.733409 0.949369
O O6 0.966496 0.681491 0.881902
O O7 0.029280 0.760741 0.906743
O O8 0.966717 0.719308 0.090728
O O9 0.250000 0.463311 0.209749
O O10 0.000000 0.500000 0.170104
O O11 0.041406 0.421057 0.109363
O O12 0.250000 0.839843 0.323080
O O13 0.480677 0.863100 0.202254
O O14 0.443150 0.899254 0.402781
O O15 0.250000 0.818792 0.931253
O O16 0.035597 0.827156 0.777841
O O17 0.975065 0.836341 0.994244
O O18 0.250000 0.713507 0.167398
O O19 0.387266 0.648123 0.073810
O O20 0.250000 0.362819 0.613641
O O21 0.750000 0.072545 0.555044
#
# Coordination Sequence:
#
# PCOD8193438 Si02
#       8
#     8   8   8   8   8   8   8   8
#     4   9  20  37  58  86 120 154 190 238 292 350
#     4  11  23  38  58  83 114 149 189 241 294 341
#     4  10  19  32  54  84 116 148 182 228 286 343
#     4  10  22  41  61  81 112 155 198 238 288 353
#     4  11  23  38  59  84 114 152 193 237 286 347
#     4   9  20  38  58  80 107 144 187 228 278 340
#     4  11  23  39  59  88 120 152 197 248 297 349
#     4   9  18  35  57  80 107 140 184 232 278 335
#
# _framework density 9.8765429999999999
#
# number of rings (size 3 to 8) (size 9 to 14) (size 15 to 20)
#    0.000    2.000    0.000    4.125    1.750    5.000 
#    0.000    0.625    0.000    1.500    0.000    0.000 
#    0.000    0.000    0.000    0.000    0.000    0.000 
#
# Total GULP energy -396523.645683 kJ/mol
# GULP energy per Si atom -12391.363928 kJ/mol
# Density = 0.985406 g / cm^3
# Si number density = 9.876543 Si / 1000 Ang^3
#
#
#
# Elastic Constant Matrix: (Units=GPa)
#
#
# Indices 1 2 3 4 5 6 
#
# 1 63.4842 21.2135 34.7436 0.0001 0.0002 0.0000
# 2 21.2135 43.7136 25.9423 -0.0007 0.0008 0.0000
# 3 34.7436 25.9423 137.4495 -0.0010 0.0049 -0.0003
# 4 0.0001 -0.0007 -0.0010 17.5402 0.0036 0.0000
# 5 0.0002 0.0008 0.0049 0.0036 57.8344 -0.0007
# 6 0.0000 0.0000 -0.0003 0.0000 -0.0007 28.9041
#
#
#
# Elastic Compliance Matrix: (Units=1/GPa)
#
#
# Indices 1 2 3 4 5 6 
#
# 1 0.020338 -0.007679 -0.003692 -0.000001 0.000000 0.000000
# 2 -0.007679 0.028661 -0.003468 0.000001 0.000000 0.000000
# 3 -0.003692 -0.003468 0.008863 0.000000 -0.000001 0.000000
# 4 -0.000001 0.000001 0.000000 0.057012 -0.000004 0.000000
# 5 0.000000 0.000000 -0.000001 -0.000004 0.017291 0.000000
# 6 0.000000 0.000000 0.000000 0.000000 0.000000 0.034597
#
#
# Mechanical properties :
#
#
# Convention : Reuss Voigt Hill
#
# Bulk Modulus (GPa) = 35.48069 45.38290 40.43179
# Shear Modulus (GPa) = 24.29126 31.70559 27.99843
#
# Velocity S-wave (km/s) = 3.51058 4.01071 3.76895
# Velocity P-wave (km/s) = 5.86799 6.66879 6.28116
#
# Compressibility (1/GPa) = 0.02818435
#
# Stress axis : x y z
#
# Youngs Moduli (GPa) = 49.16843 34.89057 112.82626
#
# Poissons Ratio (x) = 0.26792 0.41651
# Poissons Ratio (y) = 0.37756 0.39133
# Poissons Ratio (z) = 0.18151 0.12102
#
# Static dielectric constant tensor:
#      x y z
#    x 3.579130 0.000010 0.000000 
#    y 0.000010 3.432770 0.000000 
#    z 0.000000 0.000000 3.861380 
# 
# 
# High freq. dielectric constant tensor:
#      x y z
#    x 1.777950 0.000000 0.000000 
#    y 0.000000 1.737580 0.000000 
#    z 0.000000 0.000000 1.783040 
# 
# From -- ./inp_files/9723.got.cif
#   From: 2010.03.12/outbox.ucp.g09.slc.cvg/sg46_5_cif.got.tgz:9723.got - 2010.05.04 21:24:43.
