data_PCOD8193181
_publ_section_title
;
Structure prediction by ZEFSAII (Michael W. Deem and Ramdas Pophale) SiO2 
 PCOD8193181
Probable space group: I M A 2
;
_chemical_formula_sum "Si O2"
_cell_formula_units_Z 40
_cell_length_a 13.708350
_cell_length_b 13.722598
_cell_length_c 9.827352
_cell_angle_alpha 90.000000
_cell_angle_beta 90.000000
_cell_angle_gamma 90.000000
_cell_volume 1848.664227
_symmetry_space_group_name_H-M "I M A 2"
_symmetry_group_IT_number 46
_symmetry_cell_setting 'orthorhombic'
loop_
_space_group_symop_operation_xyz
x,y,z
-x,-y,z
1/2-x,y,z
1/2+x,-y,z
1/2+x,1/2+y,1/2+z
1/2-x,1/2-y,1/2+z
-x,1/2+y,1/2+z
x,1/2-y,1/2+z
loop_
_atom_site_type_symbol
_atom_site_label
_atom_site_fract_x
_atom_site_fract_y
_atom_site_fract_z
Si Si1 0.361939 0.268374 0.285190
Si Si2 0.634544 0.149974 0.384696
Si Si3 0.051643 0.090426 0.992292
Si Si4 0.863211 0.948399 0.275848
Si Si5 0.545633 0.245765 0.633819
O O1 0.250000 0.268054 0.232329
O O2 0.373045 0.348196 0.402076
O O3 0.394099 0.158559 0.335561
O O4 0.435795 0.295654 0.162609
O O5 0.750000 0.150442 0.373890
O O6 0.605104 0.170120 0.541264
O O7 0.596693 0.232378 0.278800
O O8 0.588127 0.043372 0.347440
O O9 0.112841 0.046789 0.116727
O O10 0.000000 0.000000 0.912785
O O11 0.962788 0.156535 0.045114
O O12 0.750000 0.961300 0.298750
#
# Coordination Sequence:
#
# PCOD8193181 Si02
#       5
#     8   8   8   8   8
#     4  10  22  41  67 100 136 174 224 281 341 399
#     4  11  22  41  68 100 136 181 227 276 338 406
#     4  11  20  37  66  95 130 171 222 272 332 399
#     4   9  20  38  65  95 127 174 224 272 331 397
#     4  11  22  41  65 100 133 175 222 279 336 404
#
# _framework density 21.637245
#
# number of rings (size 3 to 8) (size 9 to 14) (size 15 to 20)
#    0.000    1.600    4.000    1.200    0.000    0.800 
#    0.000    4.000    0.000    4.800    0.000    0.000 
#    0.000    0.000    0.000    0.000    0.000    0.000 
#
# Total GULP energy -247840.979944 kJ/mol
# GULP energy per Si atom -12392.048997 kJ/mol
# Density = 2.158800 g / cm^3
# Si number density = 21.637245 Si / 1000 Ang^3
#
#
#
# Elastic Constant Matrix: (Units=GPa)
#
#
# Indices 1 2 3 4 5 6 
#
# 1 64.2527 36.5196 44.3339 0.0000 0.0000 0.0000
# 2 36.5196 110.9020 64.2479 0.0000 0.0000 0.0000
# 3 44.3339 64.2479 100.2771 0.0000 0.0000 0.0000
# 4 0.0000 0.0000 0.0000 35.2835 0.0000 0.0000
# 5 0.0000 0.0000 0.0000 0.0000 34.7911 0.0000
# 6 0.0000 0.0000 0.0000 0.0000 0.0000 28.0407
#
#
#
# Elastic Compliance Matrix: (Units=1/GPa)
#
#
# Indices 1 2 3 4 5 6 
#
# 1 0.022879 -0.002662 -0.008410 0.000000 0.000000 0.000000
# 2 -0.002662 0.014649 -0.008209 0.000000 0.000000 0.000000
# 3 -0.008410 -0.008209 0.018950 0.000000 0.000000 0.000000
# 4 0.000000 0.000000 0.000000 0.028342 0.000000 0.000000
# 5 0.000000 0.000000 0.000000 0.000000 0.028743 0.000000
# 6 0.000000 0.000000 0.000000 0.000000 0.000000 0.035662
#
#
# Mechanical properties :
#
#
# Convention : Reuss Voigt Hill
#
# Bulk Modulus (GPa) = 55.81273 62.84830 59.33051
# Shear Modulus (GPa) = 25.80531 28.31177 27.05854
#
# Velocity S-wave (km/s) = 3.45720 3.62121 3.54015
# Velocity P-wave (km/s) = 6.46429 6.82595 6.64758
#
# Compressibility (1/GPa) = 0.01791706
#
# Stress axis : x y z
#
# Youngs Moduli (GPa) = 43.70788 68.26340 52.77117
#
# Poissons Ratio (x) = 0.18173 0.44378
# Poissons Ratio (y) = 0.11636 0.43319
# Poissons Ratio (z) = 0.36756 0.56036
#
# Static dielectric constant tensor:
#      x y z
#    x 3.966400 0.000000 0.000000 
#    y 0.000000 4.289510 0.000000 
#    z 0.000000 0.000000 3.695750 
# 
# 
# High freq. dielectric constant tensor:
#      x y z
#    x 1.859660 0.000000 0.000000 
#    y 0.000000 1.849360 0.000000 
#    z 0.000000 0.000000 1.820350 
# 
# From -- ./inp_files/5404.got.cif
#   From: 2010.03.12/outbox.cif.g09.slc.cpg/sg46_3_cif.got.tgz:5404.got - 2010.04.14 02:56:35.
