data_PCOD8193962
_publ_section_title
;
Structure prediction by ZEFSAII (Michael W. Deem and Ramdas Pophale) SiO2 
 PCOD8193962
Probable space group: P M M M
;
_chemical_formula_sum "Si O2"
_cell_formula_units_Z 56
_cell_length_a 23.289039
_cell_length_b 9.371190
_cell_length_c 14.727456
_cell_angle_alpha 90.000000
_cell_angle_beta 90.000000
_cell_angle_gamma 90.000000
_cell_volume 3214.208500
_symmetry_space_group_name_H-M "P M M M"
_symmetry_group_IT_number 47
_symmetry_cell_setting 'orthorhombic'
loop_
_space_group_symop_operation_xyz
x,y,z
-x,-y,z
x,-y,-z
-x,y,-z
-x,-y,-z
x,y,-z
-x,y,z
x,-y,z
loop_
_atom_site_type_symbol
_atom_site_label
_atom_site_fract_x
_atom_site_fract_y
_atom_site_fract_z
Si Si1 0.237727 0.832134 0.105054
Si Si2 0.935157 0.169748 0.398584
Si Si3 0.431801 0.340425 0.600161
Si Si4 0.932971 0.654778 0.098956
Si Si5 0.431867 0.163329 0.231231
Si Si6 0.133016 0.832425 0.228345
Si Si7 0.647704 0.336961 0.106016
O O1 0.191417 0.776288 0.180124
O O2 0.294156 0.744912 0.131050
O O3 0.249777 0.000000 0.116890
O O4 0.218917 0.800720 0.000000
O O5 0.919322 0.224244 0.500000
O O6 0.885096 0.225478 0.329059
O O7 0.000000 0.223646 0.372686
O O8 0.935848 0.000000 0.396579
O O9 0.408943 0.296705 0.500000
O O10 0.500000 0.339168 0.599649
O O11 0.410149 0.500000 0.625002
O O12 0.408746 0.226998 0.673277
O O13 0.910453 0.500000 0.135120
O O14 0.918502 0.783633 0.164727
O O15 0.000000 0.648648 0.088779
O O16 0.905457 0.684367 0.000000
O O17 0.500000 0.175804 0.223384
O O18 0.405590 0.256227 0.150847
O O19 0.411365 0.000000 0.224492
O O20 0.135602 0.000000 0.230063
O O21 0.651680 0.500000 0.140744
O O22 0.635634 0.332075 0.000000
#
# Coordination Sequence:
#
# PCOD8193962 Si02
#       7
#     8   8   8   8   8   8   8
#     4   9  18  32  48  67  92 119 150 195 249 297
#     4   8  14  25  42  67  99 130 159 195 239 283
#     4   8  14  26  45  69  98 131 163 194 229 271
#     4   9  18  30  41  58  90 127 154 180 224 279
#     4  10  20  32  49  75 104 132 161 197 245 299
#     4  10  18  28  47  72  92 116 156 200 237 278
#     4  10  21  36  53  71  92 124 166 205 240 287
#
# _framework density 17.422640000000001
#
# number of rings (size 3 to 8) (size 9 to 14) (size 15 to 20)
#    0.000    2.857    0.000    3.000    0.000    4.571 
#    0.000    5.000    0.000    1.286    0.000    4.000 
#    0.000    0.000    0.000    0.000    0.000    0.000 
#
# Total GULP energy -693742.163960 kJ/mol
# GULP energy per Si atom -12388.252928 kJ/mol
# Density = 1.738299 g / cm^3
# Si number density = 17.422640 Si / 1000 Ang^3
#
#
#
# Elastic Constant Matrix: (Units=GPa)
#
#
# Indices 1 2 3 4 5 6 
#
# 1 53.8829 36.4079 48.5578 0.0000 0.0000 0.0000
# 2 36.4079 55.8727 36.7591 0.0000 0.0000 0.0000
# 3 48.5578 36.7591 98.3716 0.0000 0.0000 0.0000
# 4 0.0000 0.0000 0.0000 21.4484 0.0000 0.0000
# 5 0.0000 0.0000 0.0000 0.0000 21.6199 0.0000
# 6 0.0000 0.0000 0.0000 0.0000 0.0000 19.5266
#
#
#
# Elastic Compliance Matrix: (Units=1/GPa)
#
#
# Indices 1 2 3 4 5 6 
#
# 1 0.045458 -0.019702 -0.015076 0.000000 0.000000 0.000000
# 2 -0.019702 0.032272 -0.002334 0.000000 0.000000 0.000000
# 3 -0.015076 -0.002334 0.018480 0.000000 0.000000 0.000000
# 4 0.000000 0.000000 0.000000 0.046624 0.000000 0.000000
# 5 0.000000 0.000000 0.000000 0.000000 0.046254 0.000000
# 6 0.000000 0.000000 0.000000 0.000000 0.000000 0.051212
#
#
# Mechanical properties :
#
#
# Convention : Reuss Voigt Hill
#
# Bulk Modulus (GPa) = 45.48762 50.17519 47.83140
# Shear Modulus (GPa) = 15.53510 18.27915 16.90713
#
# Velocity S-wave (km/s) = 2.98931 3.24259 3.11852
# Velocity P-wave (km/s) = 6.17087 6.54832 6.36240
#
# Compressibility (1/GPa) = 0.02198401
#
# Stress axis : x y z
#
# Youngs Moduli (GPa) = 21.99837 30.98684 54.11391
#
# Poissons Ratio (x) = 0.61052 0.81584
# Poissons Ratio (y) = 0.43342 0.12629
# Poissons Ratio (z) = 0.33166 0.07231
#
# Static dielectric constant tensor:
#      x y z
#    x 3.043390 0.000000 0.000000 
#    y 0.000000 3.264230 0.000000 
#    z 0.000000 0.000000 3.604220 
# 
# 
# High freq. dielectric constant tensor:
#      x y z
#    x 1.641830 0.000000 0.000000 
#    y 0.000000 1.662750 0.000000 
#    z 0.000000 0.000000 1.674710 
# 
# From -- ./inp_files/11254.got.cif
#   From: 2010.03.12/outbox.cif.g09.slc.cpg/sg47_6_cif.got.tgz:11254.got - 2010.04.14 03:12:58.
