data_PCOD8193949
_publ_section_title
;
Structure prediction by ZEFSAII (Michael W. Deem and Ramdas Pophale) SiO2 
 PCOD8193949
Probable space group: P M M M
;
_chemical_formula_sum "Si O2"
_cell_formula_units_Z 64
_cell_length_a 20.535039
_cell_length_b 9.359148
_cell_length_c 19.871750
_cell_angle_alpha 90.000000
_cell_angle_beta 90.000000
_cell_angle_gamma 90.000000
_cell_volume 3819.160956
_symmetry_space_group_name_H-M "P M M M"
_symmetry_group_IT_number 47
_symmetry_cell_setting 'orthorhombic'
loop_
_space_group_symop_operation_xyz
x,y,z
-x,-y,z
x,-y,-z
-x,y,-z
-x,-y,-z
x,y,-z
-x,y,z
x,-y,z
loop_
_atom_site_type_symbol
_atom_site_label
_atom_site_fract_x
_atom_site_fract_y
_atom_site_fract_z
Si Si1 0.692299 0.669289 0.659839
Si Si2 0.818679 0.667261 0.422154
Si Si3 0.273440 0.160490 0.785511
Si Si4 0.074493 0.834478 0.343678
Si Si5 0.880299 0.836135 0.199824
Si Si6 0.259471 0.162107 0.928361
Si Si7 0.129137 0.333454 0.074022
Si Si8 0.428062 0.330282 0.424678
O O1 0.690147 0.500000 0.664570
O O2 0.755391 0.721000 0.618467
O O3 0.693129 0.730476 0.734895
O O4 0.627691 0.731490 0.623950
O O5 0.807361 0.704432 0.500000
O O6 0.829861 0.500000 0.411223
O O7 0.882221 0.747546 0.396019
O O8 0.196416 0.187611 0.790005
O O9 0.302910 0.188093 0.861149
O O10 0.288122 0.000000 0.760567
O O11 0.084788 0.779375 0.267343
O O12 0.000000 0.810960 0.364921
O O13 0.095058 0.000000 0.347970
O O14 0.907372 0.747553 0.135311
O O15 0.898556 0.000000 0.186740
O O16 0.202120 0.275732 0.929746
O O17 0.230386 0.000000 0.922031
O O18 0.298500 0.176047 0.000000
O O19 0.130776 0.500000 0.091632
O O20 0.096013 0.308398 0.000000
O O21 0.416202 0.271256 0.500000
O O22 0.500000 0.282918 0.399135
O O23 0.423301 0.500000 0.426330
#
# Coordination Sequence:
#
# PCOD8193949 Si02
#       8
#     8   8   8   8   8   8   8   8
#     4  10  18  28  46  71  96 122 152 186 223 266
#     4  10  21  35  50  70  95 120 146 181 228 281
#     4   9  16  26  42  64  90 119 149 184 226 270
#     4  10  21  37  54  69  86 112 151 196 236 275
#     4   9  17  30  46  63  85 114 148 185 226 273
#     4   8  14  25  39  56  83 120 155 184 219 263
#     4   9  16  24  38  63  90 114 143 180 221 266
#     4   8  14  26  45  68  93 122 157 193 223 255
#
# _framework density 16.757605999999999
#
# number of rings (size 3 to 8) (size 9 to 14) (size 15 to 20)
#    0.000    2.875    1.250    1.875    0.000    5.500 
#    0.000    1.250    0.000    1.875    0.000    3.500 
#    0.000    0.500    0.000    6.250    0.000    0.125 
#
# Total GULP energy -793022.904318 kJ/mol
# GULP energy per Si atom -12390.982880 kJ/mol
# Density = 1.671947 g / cm^3
# Si number density = 16.757606 Si / 1000 Ang^3
#
#
#
# Elastic Constant Matrix: (Units=GPa)
#
#
# Indices 1 2 3 4 5 6 
#
# 1 67.9323 19.9041 46.3402 0.0000 0.0000 0.0000
# 2 19.9041 42.4668 38.8131 0.0000 0.0000 0.0000
# 3 46.3402 38.8131 136.2152 0.0000 0.0000 0.0000
# 4 0.0000 0.0000 0.0000 30.0780 0.0000 0.0000
# 5 0.0000 0.0000 0.0000 0.0000 16.2088 0.0000
# 6 0.0000 0.0000 0.0000 0.0000 0.0000 10.0979
#
#
#
# Elastic Compliance Matrix: (Units=1/GPa)
#
#
# Indices 1 2 3 4 5 6 
#
# 1 0.019709 -0.004204 -0.005507 0.000000 0.000000 0.000000
# 2 -0.004204 0.032736 -0.007898 0.000000 0.000000 0.000000
# 3 -0.005507 -0.007898 0.011465 0.000000 0.000000 0.000000
# 4 0.000000 0.000000 0.000000 0.033247 0.000000 0.000000
# 5 0.000000 0.000000 0.000000 0.000000 0.061695 0.000000
# 6 0.000000 0.000000 0.000000 0.000000 0.000000 0.099031
#
#
# Mechanical properties :
#
#
# Convention : Reuss Voigt Hill
#
# Bulk Modulus (GPa) = 34.85205 50.74769 42.79987
# Shear Modulus (GPa) = 16.51991 20.71408 18.61699
#
# Velocity S-wave (km/s) = 3.14318 3.51964 3.33672
# Velocity P-wave (km/s) = 5.83229 6.84589 6.35932
#
# Compressibility (1/GPa) = 0.02869271
#
# Stress axis : x y z
#
# Youngs Moduli (GPa) = 50.73824 30.54695 87.22100
#
# Poissons Ratio (x) = 0.12843 0.48032
# Poissons Ratio (y) = 0.21332 0.68884
# Poissons Ratio (z) = 0.27941 0.24125
#
# Static dielectric constant tensor:
#      x y z
#    x 2.854170 0.000000 0.000000 
#    y 0.000000 2.981810 0.000000 
#    z 0.000000 0.000000 3.605420 
# 
# 
# High freq. dielectric constant tensor:
#      x y z
#    x 1.592080 0.000000 0.000000 
#    y 0.000000 1.630330 0.000000 
#    z 0.000000 0.000000 1.665620 
# 
# From -- ./inp_files/10036.got.cif
#   From: 2010.03.12/outbox.cif.g09.slc.cpg/sg47_6_cif.got.tgz:10036.got - 2010.04.14 03:12:58.
