data_PCOD8193753
_publ_section_title
;
Structure prediction by ZEFSAII (Michael W. Deem and Ramdas Pophale) SiO2 
 PCOD8193753
Probable space group: P M M M
;
_chemical_formula_sum "Si O2"
_cell_formula_units_Z 48
_cell_length_a 19.715980
_cell_length_b 22.343436
_cell_length_c 8.100546
_cell_angle_alpha 90.000000
_cell_angle_beta 90.000000
_cell_angle_gamma 90.000000
_cell_volume 3568.474698
_symmetry_space_group_name_H-M "P M M M"
_symmetry_group_IT_number 47
_symmetry_cell_setting 'orthorhombic'
loop_
_space_group_symop_operation_xyz
x,y,z
-x,-y,z
x,-y,-z
-x,y,-z
-x,-y,-z
x,y,-z
-x,y,z
x,-y,z
loop_
_atom_site_type_symbol
_atom_site_label
_atom_site_fract_x
_atom_site_fract_y
_atom_site_fract_z
Si Si1 0.919570 0.860019 0.316493
Si Si2 0.923118 0.500000 0.197250
Si Si3 0.080885 0.068132 0.000000
Si Si4 0.426852 0.570837 0.811837
Si Si5 0.152064 0.615837 0.809097
Si Si6 0.921647 0.732095 0.193462
Si Si7 0.285883 0.568001 0.310659
O O1 0.893712 0.880326 0.500000
O O2 0.897612 0.791460 0.288224
O O3 0.000000 0.864788 0.310168
O O4 0.889940 0.900977 0.167663
O O5 0.885428 0.558408 0.270826
O O6 0.000000 0.500000 0.260717
O O7 0.919381 0.500000 0.000000
O O8 0.000000 0.072671 0.000000
O O9 0.106107 0.000000 0.000000
O O10 0.500000 0.595680 0.744966
O O11 0.428834 0.500000 0.795850
O O12 0.361837 0.595042 0.711327
O O13 0.417504 0.590907 0.000000
O O14 0.123332 0.677537 0.733475
O O15 0.232823 0.610123 0.784268
O O16 0.133571 0.617665 0.000000
O O17 0.000000 0.716936 0.229044
O O18 0.909703 0.743269 0.000000
O O19 0.265763 0.568638 0.500000
O O20 0.282260 0.500000 0.239482
#
# Coordination Sequence:
#
# PCOD8193753 Si02
#       7
#     8   4   4   8   8   8   8
#     4   9  16  26  40  56  74  97 122 148 182 223
#     4   9  16  26  39  55  68  81 114 159 197 236
#     4   9  16  26  40  58  80  99 115 143 180 220
#     4   8  14  25  41  57  69  83 106 134 166 213
#     4  10  18  27  41  55  67  89 119 153 194 234
#     4   9  16  27  41  55  70  90 121 160 197 232
#     4  10  19  28  37  50  72  95 112 139 182 229
#
# _framework density 13.451124999999999
#
# number of rings (size 3 to 8) (size 9 to 14) (size 15 to 20)
#    0.000    2.833    1.667    1.500    0.000    4.000 
#    0.000    3.333    0.000    2.000    0.000    0.000 
#    0.000    0.000    0.000    0.000    0.000    0.000 
#
# Total GULP energy -594806.723093 kJ/mol
# GULP energy per Si atom -12391.806731 kJ/mol
# Density = 1.342051 g / cm^3
# Si number density = 13.451125 Si / 1000 Ang^3
#
#
#
# Elastic Constant Matrix: (Units=GPa)
#
#
# Indices 1 2 3 4 5 6 
#
# 1 68.3055 26.2875 13.2235 0.0000 0.0000 0.0000
# 2 26.2875 76.5098 35.5240 0.0000 0.0000 0.0000
# 3 13.2235 35.5240 55.0037 0.0000 0.0000 0.0000
# 4 0.0000 0.0000 0.0000 9.5161 0.0000 0.0000
# 5 0.0000 0.0000 0.0000 0.0000 7.7414 0.0000
# 6 0.0000 0.0000 0.0000 0.0000 0.0000 4.1400
#
#
#
# Elastic Compliance Matrix: (Units=1/GPa)
#
#
# Indices 1 2 3 4 5 6 
#
# 1 0.016879 -0.005592 -0.000446 0.000000 0.000000 0.000000
# 2 -0.005592 0.020521 -0.011909 0.000000 0.000000 0.000000
# 3 -0.000446 -0.011909 0.025979 0.000000 0.000000 0.000000
# 4 0.000000 0.000000 0.000000 0.105086 0.000000 0.000000
# 5 0.000000 0.000000 0.000000 0.000000 0.129176 0.000000
# 6 0.000000 0.000000 0.000000 0.000000 0.000000 0.241544
#
#
# Mechanical properties :
#
#
# Convention : Reuss Voigt Hill
#
# Bulk Modulus (GPa) = 36.38440 38.87659 37.63049
# Shear Modulus (GPa) = 8.55812 12.59842 10.57827
#
# Velocity S-wave (km/s) = 2.52511 3.06372 2.80737
# Velocity P-wave (km/s) = 5.96738 6.44050 6.20845
#
# Compressibility (1/GPa) = 0.02748431
#
# Stress axis : x y z
#
# Youngs Moduli (GPa) = 59.24660 48.73053 38.49216
#
# Poissons Ratio (x) = 0.27250 0.01718
# Poissons Ratio (y) = 0.33131 0.45841
# Poissons Ratio (z) = 0.02644 0.58034
#
# Static dielectric constant tensor:
#      x y z
#    x 1.524610 0.000000 0.000000 
#    y 0.000000 2.531110 0.000000 
#    z 0.000000 0.000000 2.687530 
# 
# 
# High freq. dielectric constant tensor:
#      x y z
#    x 1.477870 0.000000 0.000000 
#    y 0.000000 1.471660 0.000000 
#    z 0.000000 0.000000 1.513740 
# 
# From -- ./inp_files/11710.got.cif
#   From: 2010.03.12/outbox.cif.g09.slc.cpg/sg47_6_cif.got.tgz:11710.got - 2010.04.14 03:12:58.
