data_PCOD8193701
_publ_section_title
;
Structure prediction by ZEFSAII (Michael W. Deem and Ramdas Pophale) SiO2 
 PCOD8193701
Probable space group: P M M M
;
_chemical_formula_sum "Si O2"
_cell_formula_units_Z 64
_cell_length_a 19.069313
_cell_length_b 9.206330
_cell_length_c 24.062311
_cell_angle_alpha 90.000000
_cell_angle_beta 90.000000
_cell_angle_gamma 90.000000
_cell_volume 4224.340539
_symmetry_space_group_name_H-M "P M M M"
_symmetry_group_IT_number 47
_symmetry_cell_setting 'orthorhombic'
loop_
_space_group_symop_operation_xyz
x,y,z
-x,-y,z
x,-y,-z
-x,y,-z
-x,-y,-z
x,y,-z
-x,y,z
x,-y,z
loop_
_atom_site_type_symbol
_atom_site_label
_atom_site_fract_x
_atom_site_fract_y
_atom_site_fract_z
Si Si1 0.921626 0.832556 0.733521
Si Si2 0.288335 0.671017 0.233216
Si Si3 0.078908 0.327488 0.938918
Si Si4 0.712647 0.827890 0.438873
Si Si5 0.576118 0.827526 0.379438
Si Si6 0.847866 0.670537 0.830227
Si Si7 0.421170 0.830193 0.252369
Si Si8 0.787780 0.169110 0.669131
O O1 0.901375 0.740998 0.787125
O O2 0.869297 0.798931 0.682209
O O3 0.000000 0.791114 0.714053
O O4 0.916227 0.000000 0.750905
O O5 0.296517 0.500000 0.240861
O O6 0.232678 0.709633 0.184419
O O7 0.363529 0.740534 0.216925
O O8 0.261839 0.738819 0.290830
O O9 0.079404 0.500000 0.939729
O O10 0.132922 0.270448 0.891854
O O11 0.000000 0.272782 0.925423
O O12 0.102243 0.269326 0.000000
O O13 0.730115 0.762828 0.500000
O O14 0.637872 0.763815 0.417973
O O15 0.772959 0.784166 0.394671
O O16 0.707120 0.000000 0.443063
O O17 0.500000 0.771894 0.401112
O O18 0.586799 0.778220 0.315979
O O19 0.577578 0.000000 0.380787
O O20 0.860630 0.500000 0.825944
O O21 0.500000 0.794773 0.230969
O O22 0.405414 0.000000 0.245751
O O23 0.768470 0.000000 0.678202
#
# Coordination Sequence:
#
# PCOD8193701 Si02
#       8
#     8   8   8   8   8   8   8   8
#     4   9  17  27  40  58  78 103 133 164 201 242
#     4  10  18  26  39  60  84 106 130 161 198 237
#     4   8  13  22  38  59  82 110 142 170 194 224
#     4   9  15  22  36  56  73  93 125 163 198 231
#     4   8  13  21  34  53  74  93 117 151 186 222
#     4   9  17  27  40  61  86 109 134 166 199 231
#     4   9  16  27  43  59  77 105 137 163 192 235
#     4   9  16  28  42  54  75 102 128 161 199 241
#
# _framework density 15.150295
#
# number of rings (size 3 to 8) (size 9 to 14) (size 15 to 20)
#    0.000    3.125    1.250    1.875    0.000    1.750 
#    0.000    1.250    0.000    1.125    0.000    4.375 
#    0.000    2.500    0.000   12.500    0.000    7.500 
#
# Total GULP energy -793028.726268 kJ/mol
# GULP energy per Si atom -12391.073848 kJ/mol
# Density = 1.511581 g / cm^3
# Si number density = 15.150295 Si / 1000 Ang^3
#
#
#
# Elastic Constant Matrix: (Units=GPa)
#
#
# Indices 1 2 3 4 5 6 
#
# 1 131.8977 32.2568 69.1829 0.0000 0.0000 0.0000
# 2 32.2568 26.9691 19.6270 0.0000 0.0000 0.0000
# 3 69.1829 19.6270 106.8166 0.0000 0.0000 0.0000
# 4 0.0000 0.0000 0.0000 11.8194 0.0000 0.0000
# 5 0.0000 0.0000 0.0000 0.0000 23.5352 0.0000
# 6 0.0000 0.0000 0.0000 0.0000 0.0000 17.6783
#
#
#
# Elastic Compliance Matrix: (Units=1/GPa)
#
#
# Indices 1 2 3 4 5 6 
#
# 1 0.014137 -0.011826 -0.006983 0.000000 0.000000 0.000000
# 2 -0.011826 0.052697 -0.002023 0.000000 0.000000 0.000000
# 3 -0.006983 -0.002023 0.014256 0.000000 0.000000 0.000000
# 4 0.000000 0.000000 0.000000 0.084607 0.000000 0.000000
# 5 0.000000 0.000000 0.000000 0.000000 0.042489 0.000000
# 6 0.000000 0.000000 0.000000 0.000000 0.000000 0.056567
#
#
# Mechanical properties :
#
#
# Convention : Reuss Voigt Hill
#
# Bulk Modulus (GPa) = 25.36466 56.42410 40.89438
# Shear Modulus (GPa) = 15.64656 20.24769 17.94713
#
# Velocity S-wave (km/s) = 3.21714 3.65972 3.44554
# Velocity P-wave (km/s) = 5.52977 7.42845 6.54829
#
# Compressibility (1/GPa) = 0.03942493
#
# Stress axis : x y z
#
# Youngs Moduli (GPa) = 70.73859 18.97646 70.14457
#
# Poissons Ratio (x) = 0.22442 0.48981
# Poissons Ratio (y) = 0.83658 0.14191
# Poissons Ratio (z) = 0.49396 0.03839
#
# Static dielectric constant tensor:
#      x y z
#    x 3.177480 0.000000 0.000000 
#    y 0.000000 2.621190 0.000000 
#    z 0.000000 0.000000 3.012930 
# 
# 
# High freq. dielectric constant tensor:
#      x y z
#    x 1.584040 0.000000 0.000000 
#    y 0.000000 1.546500 0.000000 
#    z 0.000000 0.000000 1.550760 
# 
# From -- ./inp_files/32269.got.cif
#   From: 2010.03.12/outbox.cif.g09.slc.cpg/sg47_17_cif.got.tgz:32269.got - 2010.04.14 03:12:58.
