data_PCOD8193185
_publ_section_title
;
Structure prediction by ZEFSAII (Michael W. Deem and Ramdas Pophale) SiO2 
 PCOD8193185
Probable space group: I M A 2
;
_chemical_formula_sum "Si O2"
_cell_formula_units_Z 44
_cell_length_a 22.386291
_cell_length_b 9.205065
_cell_length_c 10.884727
_cell_angle_alpha 90.000000
_cell_angle_beta 90.000000
_cell_angle_gamma 90.000000
_cell_volume 2242.985910
_symmetry_space_group_name_H-M "I M A 2"
_symmetry_group_IT_number 46
_symmetry_cell_setting 'orthorhombic'
loop_
_space_group_symop_operation_xyz
x,y,z
-x,-y,z
1/2-x,y,z
1/2+x,-y,z
1/2+x,1/2+y,1/2+z
1/2-x,1/2-y,1/2+z
-x,1/2+y,1/2+z
x,1/2-y,1/2+z
loop_
_atom_site_type_symbol
_atom_site_label
_atom_site_fract_x
_atom_site_fract_y
_atom_site_fract_z
Si Si1 0.876379 0.461845 0.420140
Si Si2 0.250000 0.616367 0.705121
Si Si3 0.442429 0.825261 0.374533
Si Si4 0.500000 0.500000 0.068581
Si Si5 0.623526 0.525658 0.693848
Si Si6 0.250000 0.857185 0.920373
Si Si7 0.057811 0.305859 0.264685
O O1 0.895291 0.294829 0.413453
O O2 0.892175 0.528239 0.551074
O O3 0.805795 0.462313 0.395490
O O4 0.910768 0.552921 0.319138
O O5 0.307653 0.513350 0.719749
O O6 0.250000 0.727434 0.820132
O O7 0.250000 0.692001 0.567345
O O8 0.420010 0.906489 0.253126
O O9 0.508105 0.759056 0.354896
O O10 0.445800 0.940523 0.485165
O O11 0.475162 0.362893 0.143603
O O12 0.608924 0.686743 0.741617
#
# Coordination Sequence:
#
# PCOD8193185 Si02
#       7
#     8   4   8   4   8   4   8
#     4  11  24  42  65  93 130 167 216 272 321 388
#     4  10  22  45  68 100 126 176 221 274 326 394
#     4  12  22  40  65  94 125 173 213 261 327 389
#     4  12  24  38  64  96 132 166 222 254 330 398
#     4  11  24  42  67  92 133 166 217 273 326 385
#     4  10  22  41  70  94 128 172 227 266 328 396
#     4  12  24  41  62  96 132 172 210 269 327 381
#
# _framework density 19.616707999999999
#
# number of rings (size 3 to 8) (size 9 to 14) (size 15 to 20)
#    0.000    0.727    5.455    2.182    0.000    2.182 
#    0.000    0.000    0.000    1.091    0.000    0.000 
#    0.000    0.000    0.000    0.000    0.000    0.000 
#
# Total GULP energy -272836.304337 kJ/mol
# GULP energy per Si atom -12401.650197 kJ/mol
# Density = 1.957206 g / cm^3
# Si number density = 19.616708 Si / 1000 Ang^3
#
#
#
# Elastic Constant Matrix: (Units=GPa)
#
#
# Indices 1 2 3 4 5 6 
#
# 1 104.5122 32.0338 33.8111 0.0000 0.0000 0.0000
# 2 32.0338 75.1590 14.1136 0.0000 0.0000 0.0000
# 3 33.8111 14.1136 75.6157 0.0000 0.0000 0.0000
# 4 0.0000 0.0000 0.0000 28.7419 0.0000 0.0000
# 5 0.0000 0.0000 0.0000 0.0000 27.2938 0.0000
# 6 0.0000 0.0000 0.0000 0.0000 0.0000 31.2045
#
#
#
# Elastic Compliance Matrix: (Units=1/GPa)
#
#
# Indices 1 2 3 4 5 6 
#
# 1 0.012458 -0.004419 -0.004746 0.000000 0.000000 0.000000
# 2 -0.004419 0.015356 -0.000890 0.000000 0.000000 0.000000
# 3 -0.004746 -0.000890 0.015513 0.000000 0.000000 0.000000
# 4 0.000000 0.000000 0.000000 0.034792 0.000000 0.000000
# 5 0.000000 0.000000 0.000000 0.000000 0.036638 0.000000
# 6 0.000000 0.000000 0.000000 0.000000 0.000000 0.032047
#
#
# Mechanical properties :
#
#
# Convention : Reuss Voigt Hill
#
# Bulk Modulus (GPa) = 43.07170 46.13375 44.60273
# Shear Modulus (GPa) = 28.62833 29.13662 28.88247
#
# Velocity S-wave (km/s) = 3.82433 3.85813 3.84127
# Velocity P-wave (km/s) = 6.44244 6.58905 6.51616
#
# Compressibility (1/GPa) = 0.02321710
#
# Stress axis : x y z
#
# Youngs Moduli (GPa) = 80.27038 65.12298 64.46207
#
# Poissons Ratio (x) = 0.28775 0.30592
# Poissons Ratio (y) = 0.35468 0.05740
# Poissons Ratio (z) = 0.38094 0.05798
#
# Static dielectric constant tensor:
#      x y z
#    x 3.688220 0.000000 0.000000 
#    y 0.000000 3.502770 0.000000 
#    z 0.000000 0.000000 3.705860 
# 
# 
# High freq. dielectric constant tensor:
#      x y z
#    x 1.770370 0.000000 0.000000 
#    y 0.000000 1.762410 0.000000 
#    z 0.000000 0.000000 1.776030 
# 
# From -- ./inp_files/12676.got.cif
#   From: 2010.03.12/outbox.cif.g09.slc.cpg/sg46_7_cif.got.tgz:12676.got - 2010.04.14 02:56:35.
