data_PCOD8193110
_publ_section_title
;
Structure prediction by ZEFSAII (Michael W. Deem and Ramdas Pophale) SiO2 
 PCOD8193110
Probable space group: I M A 2
;
_chemical_formula_sum "Si O2"
_cell_formula_units_Z 64
_cell_length_a 8.779065
_cell_length_b 15.379160
_cell_length_c 23.635033
_cell_angle_alpha 90.000000
_cell_angle_beta 90.000000
_cell_angle_gamma 90.000000
_cell_volume 3191.075597
_symmetry_space_group_name_H-M "I M A 2"
_symmetry_group_IT_number 46
_symmetry_cell_setting 'orthorhombic'
loop_
_space_group_symop_operation_xyz
x,y,z
-x,-y,z
1/2-x,y,z
1/2+x,-y,z
1/2+x,1/2+y,1/2+z
1/2-x,1/2-y,1/2+z
-x,1/2+y,1/2+z
x,1/2-y,1/2+z
loop_
_atom_site_type_symbol
_atom_site_label
_atom_site_fract_x
_atom_site_fract_y
_atom_site_fract_z
Si Si1 0.070603 0.410026 0.432640
Si Si2 0.069806 0.838265 0.548118
Si Si3 0.570891 0.087655 0.168649
Si Si4 0.070068 0.349629 0.555683
Si Si5 0.425495 0.253315 0.729678
Si Si6 0.428981 0.592327 0.925998
Si Si7 0.929949 0.586992 0.156247
Si Si8 0.072838 0.253095 0.860906
O O1 0.250000 0.417313 0.427067
O O2 0.018677 0.392584 0.496860
O O3 0.009303 0.331093 0.394097
O O4 0.000000 0.500000 0.410738
O O5 0.250000 0.822832 0.551679
O O6 0.018916 0.877608 0.488181
O O7 0.982516 0.749112 0.558139
O O8 0.013629 0.903898 0.596065
O O9 0.750000 0.078403 0.166473
O O10 0.508953 0.097076 0.105227
O O11 0.527888 0.168123 0.208059
O O12 0.500000 0.000000 0.195250
O O13 0.250000 0.352273 0.564375
O O14 0.250000 0.276966 0.717908
O O15 0.473097 0.166471 0.696895
O O16 0.457543 0.236833 0.795208
O O17 0.500000 0.500000 0.910535
O O18 0.250000 0.583032 0.922182
O O19 0.483239 0.661737 0.879974
O O20 0.750000 0.578479 0.147592
O O21 0.000000 0.500000 0.184369
O O22 0.250000 0.267390 0.874671
#
# Coordination Sequence:
#
# PCOD8193110 Si02
#       8
#     8   8   8   8   8   8   8   8
#     4  10  22  38  61  91 123 161 200 245 299 357
#     4  11  22  37  61  93 125 160 201 247 305 368
#     4  12  25  41  64  92 125 161 204 250 305 367
#     4  11  21  37  62  92 126 162 200 245 305 364
#     4  10  23  43  65  88 119 161 208 256 306 360
#     4  11  24  40  62  92 124 160 202 249 304 365
#     4  11  23  39  62  91 125 162 203 250 304 363
#     4  10  22  43  65  87 119 161 208 255 305 359
#
# _framework density 20.055934000000001
#
# number of rings (size 3 to 8) (size 9 to 14) (size 15 to 20)
#    0.000    1.250    2.500    3.375    0.000    7.000 
#    0.000    0.000    0.000    0.000    0.000    0.000 
#    0.000    0.000    0.000    0.000    0.000    0.000 
#
# Total GULP energy -397007.510109 kJ/mol
# GULP energy per Si atom -12406.484691 kJ/mol
# Density = 2.001029 g / cm^3
# Si number density = 20.055934 Si / 1000 Ang^3
#
#
#
# Elastic Constant Matrix: (Units=GPa)
#
#
# Indices 1 2 3 4 5 6 
#
# 1 79.9918 40.2237 32.1373 0.0000 0.0000 0.0000
# 2 40.2237 144.7323 34.4595 0.0000 0.0000 0.0000
# 3 32.1373 34.4595 84.7472 0.0000 0.0000 0.0000
# 4 0.0000 0.0000 0.0000 7.6749 0.0000 0.0000
# 5 0.0000 0.0000 0.0000 0.0000 17.1109 0.0000
# 6 0.0000 0.0000 0.0000 0.0000 0.0000 40.0465
#
#
#
# Elastic Compliance Matrix: (Units=1/GPa)
#
#
# Indices 1 2 3 4 5 6 
#
# 1 0.016087 -0.003342 -0.004741 0.000000 0.000000 0.000000
# 2 -0.003342 0.008344 -0.002126 0.000000 0.000000 0.000000
# 3 -0.004741 -0.002126 0.014462 0.000000 0.000000 0.000000
# 4 0.000000 0.000000 0.000000 0.130295 0.000000 0.000000
# 5 0.000000 0.000000 0.000000 0.000000 0.058442 0.000000
# 6 0.000000 0.000000 0.000000 0.000000 0.000000 0.024971
#
#
# Mechanical properties :
#
#
# Convention : Reuss Voigt Hill
#
# Bulk Modulus (GPa) = 54.12675 58.12360 56.12518
# Shear Modulus (GPa) = 17.90979 26.47652 22.19315
#
# Velocity S-wave (km/s) = 2.99154 3.63731 3.33011
# Velocity P-wave (km/s) = 6.24331 6.83254 6.54456
#
# Compressibility (1/GPa) = 0.01847515
#
# Stress axis : x y z
#
# Youngs Moduli (GPa) = 62.16340 119.84443 69.14626
#
# Poissons Ratio (x) = 0.40050 0.32785
# Poissons Ratio (y) = 0.20774 0.14698
# Poissons Ratio (z) = 0.29474 0.25474
#
# Static dielectric constant tensor:
#      x y z
#    x 3.633620 0.000000 0.000000 
#    y 0.000000 3.762330 0.000000 
#    z 0.000000 0.000000 3.707050 
# 
# 
# High freq. dielectric constant tensor:
#      x y z
#    x 1.784390 0.000000 0.000000 
#    y 0.000000 1.799990 0.000000 
#    z 0.000000 0.000000 1.779860 
# 
# From -- ./inp_files/23138.got.cif
#   From: 2010.03.12/outbox.cif.g09.slc.cpg/sg46_12_cif.got.tgz:23138.got - 2010.04.14 02:56:35.
