data_PCOD8193769
_publ_section_title
;
Structure prediction by ZEFSAII (Michael W. Deem and Ramdas Pophale) SiO2 
 PCOD8193769
Probable space group: P M M M
;
_chemical_formula_sum "Si O2"
_cell_formula_units_Z 64
_cell_length_a 9.400761
_cell_length_b 28.980983
_cell_length_c 14.508758
_cell_angle_alpha 90.000000
_cell_angle_beta 90.000000
_cell_angle_gamma 90.000000
_cell_volume 3952.813832
_symmetry_space_group_name_H-M "P M M M"
_symmetry_group_IT_number 47
_symmetry_cell_setting 'orthorhombic'
loop_
_space_group_symop_operation_xyz
x,y,z
-x,-y,z
x,-y,-z
-x,y,-z
-x,-y,-z
x,y,-z
-x,y,z
x,-y,z
loop_
_atom_site_type_symbol
_atom_site_label
_atom_site_fract_x
_atom_site_fract_y
_atom_site_fract_z
Si Si1 0.334032 0.724211 0.280818
Si Si2 0.665615 0.087920 0.606227
Si Si3 0.158352 0.548739 0.390928
Si Si4 0.170139 0.351176 0.393789
Si Si5 0.664696 0.224311 0.104218
Si Si6 0.834021 0.866001 0.105840
Si Si7 0.331453 0.190522 0.399016
Si Si8 0.835851 0.948769 0.766240
O O1 0.500000 0.714545 0.301512
O O2 0.242121 0.682803 0.321205
O O3 0.305432 0.731959 0.171596
O O4 0.278872 0.771267 0.327779
O O5 0.695487 0.075590 0.500000
O O6 0.500000 0.082835 0.628870
O O7 0.722052 0.139674 0.629151
O O8 0.751716 0.053190 0.670286
O O9 0.147486 0.549665 0.500000
O O10 0.236141 0.500000 0.359929
O O11 0.228787 0.597725 0.362821
O O12 0.000000 0.547426 0.349133
O O13 0.214386 0.339944 0.500000
O O14 0.000000 0.348763 0.384631
O O15 0.500000 0.210227 0.111076
O O16 0.751906 0.179830 0.138070
O O17 0.706855 0.238986 0.000000
O O18 0.778841 0.910382 0.162397
O O19 0.000000 0.856855 0.121560
O O20 0.799092 0.876806 0.000000
O O21 0.271341 0.203775 0.500000
O O22 0.500000 0.188625 0.403323
O O23 0.000000 0.939726 0.744333
O O24 0.813301 0.000000 0.808673
#
# Coordination Sequence:
#
# PCOD8193769 Si02
#       8
#     8   8   8   8   8   8   8   8
#     4  10  18  27  42  62  86 117 145 170 209 259
#     4   9  18  33  51  67  83 108 145 183 211 239
#     4   7  10  19  36  55  76 108 149 185 214 247
#     4   9  17  27  39  60  90 119 148 183 217 248
#     4   9  18  32  49  68  88 111 142 178 213 251
#     4   9  18  33  52  71  89 110 137 169 207 253
#     4   8  14  25  41  60  80 104 136 168 196 235
#     4  10  21  34  47  66  91 115 137 165 206 254
#
# _framework density 16.190998
#
# number of rings (size 3 to 8) (size 9 to 14) (size 15 to 20)
#    0.000    3.125    0.000    3.000    0.000    3.750 
#    0.000    3.125    0.000    1.125    0.000    4.375 
#    0.000    0.500    0.000    6.250    0.000    0.250 
#
# Total GULP energy -792905.912855 kJ/mol
# GULP energy per Si atom -12389.154888 kJ/mol
# Density = 1.615415 g / cm^3
# Si number density = 16.190998 Si / 1000 Ang^3
#
#
#
# Elastic Constant Matrix: (Units=GPa)
#
#
# Indices 1 2 3 4 5 6 
#
# 1 32.2514 34.2468 28.1034 0.0000 0.0000 0.0000
# 2 34.2468 111.3963 54.6536 0.0000 0.0000 0.0000
# 3 28.1034 54.6536 74.1284 0.0000 0.0000 0.0000
# 4 0.0000 0.0000 0.0000 17.2378 0.0000 0.0000
# 5 0.0000 0.0000 0.0000 0.0000 19.9555 0.0000
# 6 0.0000 0.0000 0.0000 0.0000 0.0000 13.7074
#
#
#
# Elastic Compliance Matrix: (Units=1/GPa)
#
#
# Indices 1 2 3 4 5 6 
#
# 1 0.052567 -0.010001 -0.012556 0.000000 0.000000 0.000000
# 2 -0.010001 0.015967 -0.007981 0.000000 0.000000 0.000000
# 3 -0.012556 -0.007981 0.024134 0.000000 0.000000 0.000000
# 4 0.000000 0.000000 0.000000 0.058012 0.000000 0.000000
# 5 0.000000 0.000000 0.000000 0.000000 0.050111 0.000000
# 6 0.000000 0.000000 0.000000 0.000000 0.000000 0.072953
#
#
# Mechanical properties :
#
#
# Convention : Reuss Voigt Hill
#
# Bulk Modulus (GPa) = 31.65178 50.19819 40.92498
# Shear Modulus (GPa) = 14.47805 16.89828 15.68816
#
# Velocity S-wave (km/s) = 2.99357 3.23411 3.11616
# Velocity P-wave (km/s) = 5.61605 6.70948 6.18697
#
# Compressibility (1/GPa) = 0.03159380
#
# Stress axis : x y z
#
# Youngs Moduli (GPa) = 19.02348 62.62892 41.43472
#
# Poissons Ratio (x) = 0.62633 0.52024
# Poissons Ratio (y) = 0.19025 0.33068
# Poissons Ratio (z) = 0.23885 0.49983
#
# Static dielectric constant tensor:
#      x y z
#    x 2.776670 0.000000 0.000000 
#    y 0.000000 3.370780 0.000000 
#    z 0.000000 0.000000 3.016100 
# 
# 
# High freq. dielectric constant tensor:
#      x y z
#    x 1.593540 0.000000 0.000000 
#    y 0.000000 1.619530 0.000000 
#    z 0.000000 0.000000 1.603840 
# 
# From -- ./inp_files/22131.got.cif
#   From: 2010.03.12/outbox.cif.g09.slc.cpg/sg47_12_cif.got.tgz:22131.got - 2010.04.14 03:12:58.
