data_PCOD8193827
_publ_section_title
;
Structure prediction by ZEFSAII (Michael W. Deem and Ramdas Pophale) SiO2 
 PCOD8193827
Probable space group: P M M M
;
_chemical_formula_sum "Si O2"
_cell_formula_units_Z 60
_cell_length_a 12.882638
_cell_length_b 21.642625
_cell_length_c 14.058370
_cell_angle_alpha 90.000000
_cell_angle_beta 90.000000
_cell_angle_gamma 90.000000
_cell_volume 3919.671825
_symmetry_space_group_name_H-M "P M M M"
_symmetry_group_IT_number 47
_symmetry_cell_setting 'orthorhombic'
loop_
_space_group_symop_operation_xyz
x,y,z
-x,-y,z
x,-y,-z
-x,y,-z
-x,-y,-z
x,y,-z
-x,y,z
x,-y,z
loop_
_atom_site_type_symbol
_atom_site_label
_atom_site_fract_x
_atom_site_fract_y
_atom_site_fract_z
Si Si1 0.697427 0.238179 0.233670
Si Si2 0.378307 0.568235 0.259688
Si Si3 0.881977 0.805299 0.110279
Si Si4 0.791429 0.067074 0.890893
Si Si5 0.620818 0.897581 0.750667
Si Si6 0.621363 0.676611 0.390324
Si Si7 0.377500 0.000000 0.604967
Si Si8 0.380016 0.339691 0.895808
O O1 0.811619 0.231021 0.186827
O O2 0.645913 0.174086 0.264489
O O3 0.696753 0.278360 0.330350
O O4 0.630291 0.272810 0.153304
O O5 0.500000 0.561062 0.243077
O O6 0.326749 0.500000 0.266308
O O7 0.357887 0.606143 0.356887
O O8 0.329928 0.606757 0.170767
O O9 0.872944 0.878648 0.132434
O O10 0.000000 0.784634 0.127575
O O11 0.849364 0.791741 0.000000
O O12 0.681690 0.077468 0.841009
O O13 0.839341 0.000000 0.862062
O O14 0.761522 0.068108 0.000000
O O15 0.500000 0.907623 0.770533
O O16 0.657613 0.937549 0.659333
O O17 0.651950 0.682614 0.500000
O O18 0.500000 0.693882 0.372580
O O19 0.500000 0.000000 0.594726
O O20 0.325826 0.000000 0.500000
O O21 0.500000 0.353758 0.908409
O O22 0.325913 0.340388 0.000000
#
# Coordination Sequence:
#
# PCOD8193827 Si02
#       8
#     8   8   8   8   8   8   4   8
#     4  10  18  29  44  61  84 111 145 180 220 260
#     4   8  14  24  37  56  85 121 156 183 203 230
#     4   9  18  31  46  64  84 107 138 177 220 266
#     4   9  17  28  42  61  84 107 133 165 205 254
#     4  10  18  28  41  58  83 112 141 173 211 254
#     4   9  17  28  42  63  90 118 149 182 215 254
#     4   9  18  30  41  55  76 103 137 175 211 248
#     4   9  16  25  38  59  88 120 149 175 207 251
#
# _framework density 15.307404999999999
#
# number of rings (size 3 to 8) (size 9 to 14) (size 15 to 20)
#    0.000    2.867    0.667    2.400    0.000    2.133 
#    0.000    6.000    0.000    0.400    0.000    0.000 
#    0.000   11.200    0.000   34.133    0.000    1.067 
#
# Total GULP energy -743418.351180 kJ/mol
# GULP energy per Si atom -12390.305853 kJ/mol
# Density = 1.527256 g / cm^3
# Si number density = 15.307405 Si / 1000 Ang^3
#
#
#
# Elastic Constant Matrix: (Units=GPa)
#
#
# Indices 1 2 3 4 5 6 
#
# 1 41.5698 19.1730 27.1396 0.0000 0.0000 0.0000
# 2 19.1730 112.5549 55.4991 0.0000 0.0000 0.0000
# 3 27.1396 55.4991 107.0065 0.0000 0.0000 0.0000
# 4 0.0000 0.0000 0.0000 17.8140 0.0000 0.0000
# 5 0.0000 0.0000 0.0000 0.0000 13.6925 0.0000
# 6 0.0000 0.0000 0.0000 0.0000 0.0000 8.3843
#
#
#
# Elastic Compliance Matrix: (Units=1/GPa)
#
#
# Indices 1 2 3 4 5 6 
#
# 1 0.029090 -0.001770 -0.006460 0.000000 0.000000 0.000000
# 2 -0.001770 0.012045 -0.005798 0.000000 0.000000 0.000000
# 3 -0.006460 -0.005798 0.013991 0.000000 0.000000 0.000000
# 4 0.000000 0.000000 0.000000 0.056136 0.000000 0.000000
# 5 0.000000 0.000000 0.000000 0.000000 0.073033 0.000000
# 6 0.000000 0.000000 0.000000 0.000000 0.000000 0.119270
#
#
# Mechanical properties :
#
#
# Convention : Reuss Voigt Hill
#
# Bulk Modulus (GPa) = 36.94204 51.63938 44.29071
# Shear Modulus (GPa) = 14.67810 18.59947 16.63878
#
# Velocity S-wave (km/s) = 3.09995 3.48956 3.30051
# Velocity P-wave (km/s) = 6.08266 7.07419 6.59708
#
# Compressibility (1/GPa) = 0.02706943
#
# Stress axis : x y z
#
# Youngs Moduli (GPa) = 34.37635 83.02124 71.47490
#
# Poissons Ratio (x) = 0.14695 0.46172
# Poissons Ratio (y) = 0.06085 0.41443
# Poissons Ratio (z) = 0.22207 0.48138
#
# Static dielectric constant tensor:
#      x y z
#    x 2.491250 0.000000 0.000000 
#    y 0.000000 3.228020 0.000000 
#    z 0.000000 0.000000 3.093160 
# 
# 
# High freq. dielectric constant tensor:
#      x y z
#    x 1.528080 0.000000 0.000000 
#    y 0.000000 1.594970 0.000000 
#    z 0.000000 0.000000 1.586950 
# 
# From -- ./inp_files/23077.got.cif
#   From: 2010.03.12/outbox.cif.g09.slc.cpg/sg47_12_cif.got.tgz:23077.got - 2010.04.14 03:12:58.
