data_PCOD8193675
_publ_section_title
;
Structure prediction by ZEFSAII (Michael W. Deem and Ramdas Pophale) SiO2 
 PCOD8193675
Probable space group: P M M M
;
_chemical_formula_sum "Si O2"
_cell_formula_units_Z 64
_cell_length_a 15.557247
_cell_length_b 9.146782
_cell_length_c 24.027656
_cell_angle_alpha 90.000000
_cell_angle_beta 90.000000
_cell_angle_gamma 90.000000
_cell_volume 3419.105338
_symmetry_space_group_name_H-M "P M M M"
_symmetry_group_IT_number 47
_symmetry_cell_setting 'orthorhombic'
loop_
_space_group_symop_operation_xyz
x,y,z
-x,-y,z
x,-y,-z
-x,y,-z
-x,-y,-z
x,y,-z
-x,y,z
x,-y,z
loop_
_atom_site_type_symbol
_atom_site_label
_atom_site_fract_x
_atom_site_fract_y
_atom_site_fract_z
Si Si1 0.094084 0.328048 0.633257
Si Si2 0.745656 0.673101 0.436145
Si Si3 0.094051 0.327413 0.869388
Si Si4 0.596073 0.332152 0.856947
Si Si5 0.166318 0.670138 0.248601
Si Si6 0.254989 0.674385 0.937575
Si Si7 0.654566 0.828112 0.750731
Si Si8 0.597864 0.830747 0.628713
O O1 0.092554 0.500000 0.623559
O O2 0.170253 0.261509 0.595259
O O3 0.109818 0.291283 0.697746
O O4 0.000000 0.263284 0.616691
O O5 0.752604 0.720728 0.500000
O O6 0.740922 0.500000 0.428939
O O7 0.659159 0.737372 0.410539
O O8 0.093262 0.500000 0.876754
O O9 0.111633 0.287094 0.805399
O O10 0.168070 0.262195 0.909317
O O11 0.000000 0.263709 0.885891
O O12 0.500000 0.317650 0.881747
O O13 0.618982 0.500000 0.843240
O O14 0.663062 0.269799 0.902369
O O15 0.600169 0.242472 0.800133
O O16 0.193538 0.500000 0.247806
O O17 0.249923 0.768089 0.249387
O O18 0.253562 0.500000 0.938655
O O19 0.261634 0.737421 0.000000
O O20 0.609467 0.785551 0.692897
O O21 0.656406 0.000000 0.760192
O O22 0.500000 0.798135 0.610973
O O23 0.621216 0.000000 0.620432
#
# Coordination Sequence:
#
# PCOD8193675 Si02
#       8
#     8   8   8   8   8   8   8   8
#     4   9  17  30  52  81 110 140 173 212 260 312
#     4  10  21  36  55  81 110 139 176 221 261 300
#     4   9  16  26  45  74 105 134 166 210 260 307
#     4  10  20  34  53  77 104 136 172 210 258 312
#     4  10  17  30  53  78 106 137 173 214 259 313
#     4   9  17  29  46  72 105 137 172 214 255 299
#     4  11  21  34  55  80 107 136 169 213 265 316
#     4  10  22  39  57  77 103 138 177 215 262 320
#
# _framework density 18.718347999999999
#
# number of rings (size 3 to 8) (size 9 to 14) (size 15 to 20)
#    0.000    2.250    2.500    1.125    0.000    4.250 
#    0.000    5.000    0.000    3.000    0.000    1.750 
#    0.000    1.000    0.000    0.000    0.000    0.000 
#
# Total GULP energy -793499.824177 kJ/mol
# GULP energy per Si atom -12398.434753 kJ/mol
# Density = 1.867574 g / cm^3
# Si number density = 18.718348 Si / 1000 Ang^3
#
#
#
# Elastic Constant Matrix: (Units=GPa)
#
#
# Indices 1 2 3 4 5 6 
#
# 1 157.3570 22.4407 72.8305 0.0000 0.0000 0.0000
# 2 22.4407 22.3077 28.8972 0.0000 0.0000 0.0000
# 3 72.8305 28.8972 145.1146 0.0000 0.0000 0.0000
# 4 0.0000 0.0000 0.0000 13.1895 0.0000 0.0000
# 5 0.0000 0.0000 0.0000 0.0000 16.0295 0.0000
# 6 0.0000 0.0000 0.0000 0.0000 0.0000 7.3496
#
#
#
# Elastic Compliance Matrix: (Units=1/GPa)
#
#
# Indices 1 2 3 4 5 6 
#
# 1 0.008547 -0.004099 -0.003474 0.000000 0.000000 0.000000
# 2 -0.004099 0.062376 -0.010364 0.000000 0.000000 0.000000
# 3 -0.003474 -0.010364 0.010698 0.000000 0.000000 0.000000
# 4 0.000000 0.000000 0.000000 0.075818 0.000000 0.000000
# 5 0.000000 0.000000 0.000000 0.000000 0.062385 0.000000
# 6 0.000000 0.000000 0.000000 0.000000 0.000000 0.136063
#
#
# Mechanical properties :
#
#
# Convention : Reuss Voigt Hill
#
# Bulk Modulus (GPa) = 21.85839 63.67956 42.76898
# Shear Modulus (GPa) = 12.28474 20.68778 16.48626
#
# Velocity S-wave (km/s) = 2.56460 3.32808 2.97097
# Velocity P-wave (km/s) = 4.52465 6.99013 5.88788
#
# Compressibility (1/GPa) = 0.04574903
#
# Stress axis : x y z
#
# Youngs Moduli (GPa) = 116.99836 16.03178 93.47306
#
# Poissons Ratio (x) = 0.06571 0.32468
# Poissons Ratio (y) = 0.47952 0.96878
# Poissons Ratio (z) = 0.40639 0.16616
#
# Static dielectric constant tensor:
#      x y z
#    x 4.635410 0.000000 0.000000 
#    y 0.000000 2.987730 0.000000 
#    z 0.000000 0.000000 3.614330 
# 
# 
# High freq. dielectric constant tensor:
#      x y z
#    x 1.745180 0.000000 0.000000 
#    y 0.000000 1.672960 0.000000 
#    z 0.000000 0.000000 1.728280 
# 
# From -- ./inp_files/12679.got.cif
#   From: 2010.03.12/outbox.cif.g09.slc.cpg/sg47_7_cif.got.tgz:12679.got - 2010.04.14 03:12:58.
