data_PCOD8193594
_publ_section_title
;
Structure prediction by ZEFSAII (Michael W. Deem and Ramdas Pophale) SiO2 
 PCOD8193594
Probable space group: P M M M
;
_chemical_formula_sum "Si O2"
_cell_formula_units_Z 64
_cell_length_a 9.438527
_cell_length_b 14.330573
_cell_length_c 31.586412
_cell_angle_alpha 90.000000
_cell_angle_beta 90.000000
_cell_angle_gamma 90.000000
_cell_volume 4272.362300
_symmetry_space_group_name_H-M "P M M M"
_symmetry_group_IT_number 47
_symmetry_cell_setting 'orthorhombic'
loop_
_space_group_symop_operation_xyz
x,y,z
-x,-y,z
x,-y,-z
-x,y,-z
-x,-y,-z
x,y,-z
-x,y,z
x,-y,z
loop_
_atom_site_type_symbol
_atom_site_label
_atom_site_fract_x
_atom_site_fract_y
_atom_site_fract_z
Si Si1 0.658648 0.110891 0.953541
Si Si2 0.168318 0.772081 0.292861
Si Si3 0.335048 0.393802 0.324061
Si Si4 0.168543 0.895245 0.372772
Si Si5 0.838669 0.396080 0.408352
Si Si6 0.168661 0.896273 0.215145
Si Si7 0.833657 0.212601 0.546237
Si Si8 0.157129 0.888840 0.122485
O O1 0.500000 0.149501 0.948534
O O2 0.750614 0.154937 0.915575
O O3 0.658476 0.000000 0.949836
O O4 0.718885 0.139920 0.000000
O O5 0.250635 0.673846 0.292248
O O6 0.217684 0.831970 0.333535
O O7 0.221328 0.825905 0.251100
O O8 0.000000 0.754993 0.292723
O O9 0.500000 0.366545 0.325892
O O10 0.314838 0.500000 0.308161
O O11 0.268975 0.380776 0.370265
O O12 0.230606 0.852209 0.416548
O O13 0.000000 0.896980 0.374098
O O14 0.228443 0.000000 0.367295
O O15 0.822614 0.500000 0.427616
O O16 0.801700 0.321459 0.444502
O O17 0.000000 0.379707 0.391604
O O18 0.220698 0.861398 0.168685
O O19 0.000000 0.901573 0.214629
O O20 0.228578 0.000000 0.225023
O O21 0.767343 0.188142 0.500000
O O22 0.000000 0.194774 0.544370
O O23 0.000000 0.847323 0.117145
O O24 0.152230 0.000000 0.119503
#
# Coordination Sequence:
#
# PCOD8193594 Si02
#       8
#     8   8   8   8   8   8   8   8
#     4   8  13  20  29  42  62  91 129 171 210 242
#     4  10  17  28  47  66  82 103 134 167 196 234
#     4  10  20  32  46  64  85 106 126 155 198 240
#     4   9  16  25  39  61  85 107 132 163 197 229
#     4   9  16  28  46  65  83 103 129 159 192 234
#     4   8  14  24  39  60  83 106 133 168 207 241
#     4   9  16  25  38  61  89 109 128 158 196 234
#     4   8  13  21  32  47  69  96 127 163 202 241
#
# _framework density 14.980002000000001
#
# number of rings (size 3 to 8) (size 9 to 14) (size 15 to 20)
#    0.000    3.125    1.250    1.875    0.000    3.000 
#    0.000    4.375    0.000    2.625    0.000    1.750 
#    0.000    1.000    0.000    0.000    0.000    0.625 
#
# Total GULP energy -793054.150701 kJ/mol
# GULP energy per Si atom -12391.471105 kJ/mol
# Density = 1.494591 g / cm^3
# Si number density = 14.980002 Si / 1000 Ang^3
#
#
#
# Elastic Constant Matrix: (Units=GPa)
#
#
# Indices 1 2 3 4 5 6 
#
# 1 42.4599 25.1675 36.7892 0.0000 0.0000 0.0000
# 2 25.1675 69.2935 44.0720 0.0000 0.0000 0.0000
# 3 36.7892 44.0720 132.6272 0.0000 0.0000 0.0000
# 4 0.0000 0.0000 0.0000 8.1835 0.0000 0.0000
# 5 0.0000 0.0000 0.0000 0.0000 6.6582 0.0000
# 6 0.0000 0.0000 0.0000 0.0000 0.0000 10.5514
#
#
#
# Elastic Compliance Matrix: (Units=1/GPa)
#
#
# Indices 1 2 3 4 5 6 
#
# 1 0.034259 -0.008114 -0.006807 0.000000 0.000000 0.000000
# 2 -0.008114 0.020220 -0.004469 0.000000 0.000000 0.000000
# 3 -0.006807 -0.004469 0.010913 0.000000 0.000000 0.000000
# 4 0.000000 0.000000 0.000000 0.122197 0.000000 0.000000
# 5 0.000000 0.000000 0.000000 0.000000 0.150191 0.000000
# 6 0.000000 0.000000 0.000000 0.000000 0.000000 0.094774
#
#
# Mechanical properties :
#
#
# Convention : Reuss Voigt Hill
#
# Bulk Modulus (GPa) = 37.57422 50.71532 44.14477
# Shear Modulus (GPa) = 10.41227 14.30209 12.35718
#
# Velocity S-wave (km/s) = 2.63929 3.09325 2.87524
# Velocity P-wave (km/s) = 5.86730 6.83275 6.36834
#
# Compressibility (1/GPa) = 0.02661399
#
# Stress axis : x y z
#
# Youngs Moduli (GPa) = 29.18982 49.45516 91.63408
#
# Poissons Ratio (x) = 0.40126 0.62373
# Poissons Ratio (y) = 0.23683 0.40948
# Poissons Ratio (z) = 0.19869 0.22100
#
# Static dielectric constant tensor:
#      x y z
#    x 2.669490 0.000000 0.000000 
#    y 0.000000 2.821030 0.000000 
#    z 0.000000 0.000000 3.137010 
# 
# 
# High freq. dielectric constant tensor:
#      x y z
#    x 1.536950 0.000000 0.000000 
#    y 0.000000 1.540370 0.000000 
#    z 0.000000 0.000000 1.570480 
# 
# From -- ./inp_files/34462.got.cif
#   From: 2010.03.12/outbox.cif.g09.slc.cpg/sg47_18_cif.got.tgz:34462.got - 2010.04.14 03:12:58.
