data_PCOD8193044
_publ_section_title
;
Structure prediction by ZEFSAII (Michael W. Deem and Ramdas Pophale) SiO2 
 PCOD8193044
Probable space group: I M A 2
;
_chemical_formula_sum "Si O2"
_cell_formula_units_Z 40
_cell_length_a 24.363702
_cell_length_b 14.640633
_cell_length_c 4.736828
_cell_angle_alpha 90.000000
_cell_angle_beta 90.000000
_cell_angle_gamma 90.000000
_cell_volume 1689.626640
_symmetry_space_group_name_H-M "I M A 2"
_symmetry_group_IT_number 46
_symmetry_cell_setting 'orthorhombic'
loop_
_space_group_symop_operation_xyz
x,y,z
-x,-y,z
1/2-x,y,z
1/2+x,-y,z
1/2+x,1/2+y,1/2+z
1/2-x,1/2-y,1/2+z
-x,1/2+y,1/2+z
x,1/2-y,1/2+z
loop_
_atom_site_type_symbol
_atom_site_label
_atom_site_fract_x
_atom_site_fract_y
_atom_site_fract_z
Si Si1 0.906792 0.555521 0.157170
Si Si2 0.188894 0.312441 0.204084
Si Si3 0.008209 0.184929 0.341613
Si Si4 0.189577 0.812243 0.083015
Si Si5 0.092487 0.933976 0.166264
O O1 0.857744 0.615616 0.286104
O O2 0.933861 0.500978 0.424189
O O3 0.950721 0.611230 0.970764
O O4 0.880750 0.488347 0.926160
O O5 0.250000 0.353952 0.254587
O O6 0.181119 0.219567 0.382757
O O7 0.015762 0.278251 0.522758
O O8 0.949623 0.135398 0.318638
O O9 0.250000 0.856171 0.030611
O O10 0.182825 0.780635 0.405188
O O11 0.141996 0.883287 0.006669
#
# Coordination Sequence:
#
# PCOD8193044 Si02
#       5
#     8   8   8   8   8
#     4  12  25  41  64  96 131 164 211 274 333 382
#     4  10  21  40  65  93 128 171 216 257 310 388
#     4  12  25  44  67  88 122 172 222 264 319 392
#     4  10  21  40  65  93 128 171 216 257 310 388
#     4  12  25  41  64  96 131 164 211 274 333 382
#
# _framework density 23.673869
#
# number of rings (size 3 to 8) (size 9 to 14) (size 15 to 20)
#    0.000    0.800    0.000    7.800    0.000    3.200 
#    0.000    0.000    0.000    0.000    0.000    0.000 
#    0.000    0.000    0.000    0.000    0.000    0.000 
#
# Total GULP energy -247863.639222 kJ/mol
# GULP energy per Si atom -12393.181961 kJ/mol
# Density = 2.361999 g / cm^3
# Si number density = 23.673869 Si / 1000 Ang^3
#
#
#
# Elastic Constant Matrix: (Units=GPa)
#
#
# Indices 1 2 3 4 5 6 
#
# 1 124.2143 40.0982 24.4639 0.0000 0.0000 0.0000
# 2 40.0982 69.4356 25.6404 0.0000 0.0000 0.0000
# 3 24.4639 25.6404 98.7221 0.0000 0.0000 0.0000
# 4 0.0000 0.0000 0.0000 47.1280 0.0000 0.0000
# 5 0.0000 0.0000 0.0000 0.0000 32.0561 0.0000
# 6 0.0000 0.0000 0.0000 0.0000 0.0000 11.7678
#
#
#
# Elastic Compliance Matrix: (Units=1/GPa)
#
#
# Indices 1 2 3 4 5 6 
#
# 1 0.009999 -0.005375 -0.001082 0.000000 0.000000 0.000000
# 2 -0.005375 0.018819 -0.003556 0.000000 0.000000 0.000000
# 3 -0.001082 -0.003556 0.011321 0.000000 0.000000 0.000000
# 4 0.000000 0.000000 0.000000 0.021219 0.000000 0.000000
# 5 0.000000 0.000000 0.000000 0.000000 0.031195 0.000000
# 6 0.000000 0.000000 0.000000 0.000000 0.000000 0.084978
#
#
# Mechanical properties :
#
#
# Convention : Reuss Voigt Hill
#
# Bulk Modulus (GPa) = 49.71678 52.53078 51.12378
# Shear Modulus (GPa) = 24.47869 31.66836 28.07352
#
# Velocity S-wave (km/s) = 3.21907 3.66142 3.44735
# Velocity P-wave (km/s) = 5.90448 6.33341 6.12270
#
# Compressibility (1/GPa) = 0.02011393
#
# Stress axis : x y z
#
# Youngs Moduli (GPa) = 100.01327 53.13880 88.33113
#
# Poissons Ratio (x) = 0.28560 0.09556
# Poissons Ratio (y) = 0.53753 0.31408
# Poissons Ratio (z) = 0.10820 0.18895
#
# Static dielectric constant tensor:
#      x y z
#    x 4.122200 0.000000 0.000000 
#    y 0.000000 4.349110 0.000000 
#    z 0.000000 0.000000 4.384720 
# 
# 
# High freq. dielectric constant tensor:
#      x y z
#    x 1.929670 0.000000 0.000000 
#    y 0.000000 1.929180 0.000000 
#    z 0.000000 0.000000 1.960600 
# 
# From -- ./inp_files/2309.got.cif
#   From: 2010.03.12/outbox.cif.g09.slc.cpg/sg46_2_cif.got.tgz:2309.got - 2010.04.14 02:56:35.
