data_PCOD8193294
_publ_section_title
;
Structure prediction by ZEFSAII (Michael W. Deem and Ramdas Pophale) SiO2 
 PCOD8193294
Probable space group: I M A 2
;
_chemical_formula_sum "Si O2"
_cell_formula_units_Z 64
_cell_length_a 8.882045
_cell_length_b 26.850271
_cell_length_c 18.443904
_cell_angle_alpha 90.000000
_cell_angle_beta 90.000000
_cell_angle_gamma 90.000000
_cell_volume 4398.600261
_symmetry_space_group_name_H-M "I M A 2"
_symmetry_group_IT_number 46
_symmetry_cell_setting 'orthorhombic'
loop_
_space_group_symop_operation_xyz
x,y,z
-x,-y,z
1/2-x,y,z
1/2+x,-y,z
1/2+x,1/2+y,1/2+z
1/2-x,1/2-y,1/2+z
-x,1/2+y,1/2+z
x,1/2-y,1/2+z
loop_
_atom_site_type_symbol
_atom_site_label
_atom_site_fract_x
_atom_site_fract_y
_atom_site_fract_z
Si Si1 0.083762 0.702349 0.432690
Si Si2 0.430798 0.849502 0.382632
Si Si3 0.914184 0.303012 0.022060
Si Si4 0.572080 0.050574 0.142999
Si Si5 0.930967 0.252290 0.656663
Si Si6 0.927731 0.744520 0.809387
Si Si7 0.070839 0.650920 0.571990
Si Si8 0.072952 0.550146 0.808958
O O1 0.250000 0.686600 0.403776
O O2 0.102443 0.751985 0.478733
O O3 0.016608 0.661188 0.488967
O O4 0.972850 0.711414 0.365182
O O5 0.250000 0.843941 0.379764
O O6 0.493594 0.841562 0.465636
O O7 0.498146 0.808063 0.329601
O O8 0.485480 0.903337 0.356043
O O9 0.750000 0.324992 0.039869
O O10 0.991425 0.290050 0.099182
O O11 0.750000 0.046399 0.135924
O O12 0.508188 0.097431 0.097655
O O13 0.522114 0.058524 0.226150
O O14 0.500000 0.000000 0.111575
O O15 0.750000 0.250256 0.664263
O O16 0.984313 0.306519 0.628053
O O17 0.011475 0.239451 0.731266
O O18 0.750000 0.738738 0.808472
O O19 0.250000 0.651302 0.572779
O O20 0.250000 0.544782 0.815129
O O21 0.000000 0.500000 0.840890
#
# Coordination Sequence:
#
# PCOD8193294 Si02
#       8
#     8   8   8   8   8   8   8   8
#     4   8  14  27  43  56  71  97 130 163 193 226
#     4   9  16  29  45  57  72 103 139 165 190 224
#     4   7  12  23  41  59  71  89 127 167 192 218
#     4   9  16  26  38  56  79 103 130 161 192 223
#     4   9  15  26  42  57  74 100 131 163 193 226
#     4  11  20  26  35  57  84 106 127 157 193 233
#     4   8  14  26  45  60  71  96 138 172 191 218
#     4   9  17  27  41  58  79 104 130 160 192 222
#
# _framework density 14.550083000000001
#
# number of rings (size 3 to 8) (size 9 to 14) (size 15 to 20)
#    0.000    3.250    0.000    4.125    0.000    2.500 
#    0.000    9.375    0.000    0.000    0.000    0.000 
#    0.000    1.000    0.000    3.750    0.000    2.875 
#
# Total GULP energy -396421.853609 kJ/mol
# GULP energy per Si atom -12388.182925 kJ/mol
# Density = 1.451697 g / cm^3
# Si number density = 14.550083 Si / 1000 Ang^3
#
#
#
# Elastic Constant Matrix: (Units=GPa)
#
#
# Indices 1 2 3 4 5 6 
#
# 1 31.6109 18.0192 26.9335 0.0000 0.0000 0.0000
# 2 18.0192 93.3732 60.2692 0.0000 0.0000 0.0000
# 3 26.9335 60.2692 110.9967 0.0000 -0.0003 0.0000
# 4 0.0000 0.0000 0.0000 26.4198 -0.0001 0.0000
# 5 0.0000 0.0000 -0.0003 -0.0001 6.4608 0.0000
# 6 0.0000 0.0000 0.0000 0.0000 0.0000 16.8075
#
#
#
# Elastic Compliance Matrix: (Units=1/GPa)
#
#
# Indices 1 2 3 4 5 6 
#
# 1 0.040184 -0.002249 -0.008529 0.000000 0.000000 0.000000
# 2 -0.002249 0.016614 -0.008476 0.000000 -0.000001 0.000000
# 3 -0.008529 -0.008476 0.015681 0.000000 0.000001 0.000000
# 4 0.000000 0.000000 0.000000 0.037850 0.000001 0.000000
# 5 0.000000 -0.000001 0.000001 0.000001 0.154780 0.000000
# 6 0.000000 0.000000 0.000000 0.000000 0.000000 0.059497
#
#
# Mechanical properties :
#
#
# Convention : Reuss Voigt Hill
#
# Bulk Modulus (GPa) = 29.43677 49.60273 39.51975
# Shear Modulus (GPa) = 13.35330 18.65489 16.00410
#
# Velocity S-wave (km/s) = 3.03272 3.58455 3.32012
# Velocity P-wave (km/s) = 5.70425 7.16219 6.47439
#
# Compressibility (1/GPa) = 0.03397111
#
# Stress axis : x y z
#
# Youngs Moduli (GPa) = 24.88542 60.18855 63.77141
#
# Poissons Ratio (x) = 0.13538 0.54393
# Poissons Ratio (y) = 0.05598 0.54050
# Poissons Ratio (z) = 0.21226 0.51013
#
# Static dielectric constant tensor:
#      x y z
#    x 2.567560 0.000000 0.000000 
#    y 0.000000 2.899030 0.000000 
#    z 0.000000 0.000000 3.090270 
# 
# 
# High freq. dielectric constant tensor:
#      x y z
#    x 1.530230 0.000000 0.000000 
#    y 0.000000 1.526790 0.000000 
#    z 0.000000 0.000000 1.550100 
# 
# From -- ./inp_files/18680.got.cif
#   From: 2010.03.12/outbox.cif.g09.slc.cpg/sg46_10_cif.got.tgz:18680.got - 2010.04.14 02:56:35.
