data_PCOD8193974
_publ_section_title
;
Structure prediction by ZEFSAII (Michael W. Deem and Ramdas Pophale) SiO2 
 PCOD8193974
Probable space group: P M M M
;
_chemical_formula_sum "Si O2"
_cell_formula_units_Z 40
_cell_length_a 21.486057
_cell_length_b 9.047691
_cell_length_c 10.850966
_cell_angle_alpha 90.000000
_cell_angle_beta 90.000000
_cell_angle_gamma 90.000000
_cell_volume 2109.419159
_symmetry_space_group_name_H-M "P M M M"
_symmetry_group_IT_number 47
_symmetry_cell_setting 'orthorhombic'
loop_
_space_group_symop_operation_xyz
x,y,z
-x,-y,z
x,-y,-z
-x,y,-z
-x,-y,-z
x,y,-z
-x,y,z
x,-y,z
loop_
_atom_site_type_symbol
_atom_site_label
_atom_site_fract_x
_atom_site_fract_y
_atom_site_fract_z
Si Si1 0.877829 0.828951 0.271526
Si Si2 0.221743 0.334187 0.140930
Si Si3 0.000000 0.324674 0.641992
Si Si4 0.429478 0.323527 0.000000
Si Si5 0.352479 0.675718 0.232522
Si Si6 0.338942 0.325364 0.500000
Si Si7 0.789768 0.167727 0.500000
O O1 0.839181 0.768203 0.155034
O O2 0.832893 0.798136 0.384848
O O3 0.940673 0.738094 0.287246
O O4 0.894842 0.000000 0.253917
O O5 0.205747 0.500000 0.186770
O O6 0.281491 0.269148 0.213852
O O7 0.242321 0.336315 0.000000
O O8 0.000000 0.500000 0.650586
O O9 0.000000 0.270535 0.500000
O O10 0.397027 0.259802 0.875101
O O11 0.426893 0.500000 0.000000
O O12 0.500000 0.265637 0.000000
O O13 0.354150 0.500000 0.221713
O O14 0.372617 0.728060 0.371997
O O15 0.338179 0.500000 0.500000
O O16 0.267777 0.276554 0.500000
O O17 0.765148 0.000000 0.500000
#
# Coordination Sequence:
#
# PCOD8193974 Si02
#       7
#     8   8   4   4   8   4   4
#     4  11  22  36  53  76 109 140 171 217 271 325
#     4  10  19  33  54  77 103 135 178 225 267 320
#     4  11  23  37  56  79 104 139 183 221 263 326
#     4   9  16  28  46  70 107 150 183 212 259 323
#     4   9  16  27  45  73 103 138 178 217 264 315
#     4  10  18  28  48  75 106 136 172 224 273 320
#     4  10  20  31  47  75 108 137 167 210 267 324
#
# _framework density 18.962567
#
# number of rings (size 3 to 8) (size 9 to 14) (size 15 to 20)
#    0.000    2.000    4.000    0.900    0.000    1.600 
#    0.000    1.000    0.000    6.000    0.000    0.000 
#    0.000    7.200    0.000    0.000    0.000    0.000 
#
# Total GULP energy -495774.289983 kJ/mol
# GULP energy per Si atom -12394.357250 kJ/mol
# Density = 1.891941 g / cm^3
# Si number density = 18.962567 Si / 1000 Ang^3
#
#
#
# Elastic Constant Matrix: (Units=GPa)
#
#
# Indices 1 2 3 4 5 6 
#
# 1 109.9463 23.8852 57.9420 0.0000 0.0000 0.0000
# 2 23.8852 40.2608 21.5395 0.0000 0.0000 0.0000
# 3 57.9420 21.5395 132.0166 0.0000 0.0000 0.0000
# 4 0.0000 0.0000 0.0000 16.6066 0.0000 0.0000
# 5 0.0000 0.0000 0.0000 0.0000 30.6210 0.0000
# 6 0.0000 0.0000 0.0000 0.0000 0.0000 8.6145
#
#
#
# Elastic Compliance Matrix: (Units=1/GPa)
#
#
# Indices 1 2 3 4 5 6 
#
# 1 0.012683 -0.004981 -0.004754 0.000000 0.000000 0.000000
# 2 -0.004981 0.029170 -0.002573 0.000000 0.000000 0.000000
# 3 -0.004754 -0.002573 0.010081 0.000000 0.000000 0.000000
# 4 0.000000 0.000000 0.000000 0.060217 0.000000 0.000000
# 5 0.000000 0.000000 0.000000 0.000000 0.032657 0.000000
# 6 0.000000 0.000000 0.000000 0.000000 0.000000 0.116083
#
#
# Mechanical properties :
#
#
# Convention : Reuss Voigt Hill
#
# Bulk Modulus (GPa) = 36.60615 54.32859 45.46737
# Shear Modulus (GPa) = 16.97144 23.09220 20.03182
#
# Velocity S-wave (km/s) = 2.99490 3.49345 3.25374
# Velocity P-wave (km/s) = 5.59514 6.70708 6.17618
#
# Compressibility (1/GPa) = 0.02731781
#
# Stress axis : x y z
#
# Youngs Moduli (GPa) = 78.84783 34.28218 99.19601
#
# Poissons Ratio (x) = 0.17076 0.47155
# Poissons Ratio (y) = 0.39273 0.25525
# Poissons Ratio (z) = 0.37482 0.08821
#
# Static dielectric constant tensor:
#      x y z
#    x 3.344240 0.000000 0.000000 
#    y 0.000000 3.118290 0.000000 
#    z 0.000000 0.000000 3.770470 
# 
# 
# High freq. dielectric constant tensor:
#      x y z
#    x 1.720060 0.000000 0.000000 
#    y 0.000000 1.698360 0.000000 
#    z 0.000000 0.000000 1.747800 
# 
# From -- ./inp_files/19007.got.cif
#   From: 2010.03.12/outbox.cif.g09.slc.cpg/sg47_10_cif.got.tgz:19007.got - 2010.04.14 03:12:58.
