data_PCOD8193435
_publ_section_title
;
Structure prediction by ZEFSAII (Michael W. Deem and Ramdas Pophale) SiO2 
 PCOD8193435
Probable space group: I M A 2
;
_chemical_formula_sum "Si O2"
_cell_formula_units_Z 32
_cell_length_a 9.000000
_cell_length_b 24.000000
_cell_length_c 15.000000
_cell_angle_alpha 90.000000
_cell_angle_beta 90.000000
_cell_angle_gamma 90.000000
_cell_volume 3240.000000
_symmetry_space_group_name_H-M "I M A 2"
_symmetry_group_IT_number 46
_symmetry_cell_setting 'orthorhombic'
loop_
_space_group_symop_operation_xyz
x,y,z
-x,-y,z
1/2-x,y,z
1/2+x,-y,z
1/2+x,1/2+y,1/2+z
1/2-x,1/2-y,1/2+z
-x,1/2+y,1/2+z
x,1/2-y,1/2+z
loop_
_atom_site_type_symbol
_atom_site_label
_atom_site_fract_x
_atom_site_fract_y
_atom_site_fract_z
Si Si1 0.926677 0.441309 0.078130
Si Si2 0.074941 0.742841 0.963208
Si Si3 0.077569 0.557363 0.549868
Si Si4 0.425396 0.876070 0.408713
Si Si5 0.074340 0.140481 0.716163
Si Si6 0.574545 0.251435 0.667582
Si Si7 0.576500 0.140825 0.889990
Si Si8 0.925580 0.374061 0.713276
O O1 0.750000 0.445851 0.089109
O O2 0.000000 0.500000 0.102039
O O3 0.988484 0.393537 0.141193
O O4 0.976623 0.422906 0.978777
O O5 0.250000 0.741675 0.951906
O O6 0.003767 0.685089 0.927338
O O7 0.016667 0.796773 0.910317
O O8 0.030712 0.749089 0.065088
O O9 0.250000 0.544451 0.561746
O O10 0.047593 0.602319 0.474290
O O11 0.007462 0.583675 0.640339
O O12 0.000000 0.500000 0.524900
O O13 0.250000 0.868696 0.416145
O O14 0.472812 0.896583 0.310563
O O15 0.250000 0.135662 0.702107
O O16 0.018525 0.204075 0.717252
O O17 0.023893 0.115425 0.811070
O O18 0.750000 0.241958 0.684690
O O19 0.517768 0.310747 0.703985
O O20 0.750000 0.140677 0.863224
O O21 0.750000 0.372123 0.698555
#
# Coordination Sequence:
#
# PCOD8193435 Si02
#       8
#     8   8   8   8   8   8   8   8
#     4  11  23  41  62  83 112 151 198 245 290 340
#     4   9  15  29  58  91 112 140 187 237 287 340
#     4  10  21  37  58  84 114 150 194 239 286 337
#     4   9  17  30  55  88 116 142 180 232 287 340
#     4  12  25  39  57  86 121 155 191 233 292 352
#     4  10  17  33  62  89 115 148 193 240 284 337
#     4  10  20  37  61  86 113 150 197 242 284 338
#     4   9  17  32  58  89 116 149 193 236 277 339
#
# _framework density 9.8765429999999999
#
# number of rings (size 3 to 8) (size 9 to 14) (size 15 to 20)
#    0.000    2.000    2.500    2.250    0.000    3.500 
#    0.000    2.500    0.000    1.500    0.000    0.000 
#    0.000    0.000    0.000    0.000    0.000    0.000 
#
# Total GULP energy -396714.163371 kJ/mol
# GULP energy per Si atom -12397.317605 kJ/mol
# Density = 0.985406 g / cm^3
# Si number density = 9.876543 Si / 1000 Ang^3
#
#
#
# Elastic Constant Matrix: (Units=GPa)
#
#
# Indices 1 2 3 4 5 6 
#
# 1 60.3455 26.4064 31.3404 0.0000 0.0000 0.0000
# 2 26.4064 57.7011 15.6458 -0.0002 0.0002 0.0001
# 3 31.3404 15.6458 100.6842 -0.0003 -0.0001 0.0000
# 4 0.0000 -0.0002 -0.0003 7.6231 0.0001 0.0000
# 5 0.0000 0.0002 -0.0001 0.0001 5.7493 -0.0001
# 6 0.0000 0.0001 0.0000 0.0000 -0.0001 21.9351
#
#
#
# Elastic Compliance Matrix: (Units=1/GPa)
#
#
# Indices 1 2 3 4 5 6 
#
# 1 0.023698 -0.009234 -0.005942 0.000000 0.000000 0.000000
# 2 -0.009234 0.021691 -0.000496 0.000000 -0.000001 0.000000
# 3 -0.005942 -0.000496 0.011859 0.000000 0.000000 0.000000
# 4 0.000000 0.000000 0.000000 0.131180 -0.000002 0.000000
# 5 0.000000 -0.000001 0.000000 -0.000002 0.173935 0.000000
# 6 0.000000 0.000000 0.000000 0.000000 0.000000 0.045589
#
#
# Mechanical properties :
#
#
# Convention : Reuss Voigt Hill
#
# Bulk Modulus (GPa) = 38.60467 40.61288 39.60878
# Shear Modulus (GPa) = 11.16248 16.75072 13.95660
#
# Velocity S-wave (km/s) = 2.37976 2.91521 2.66099
# Velocity P-wave (km/s) = 5.20933 5.65121 5.43476
#
# Compressibility (1/GPa) = 0.02590360
#
# Stress axis : x y z
#
# Youngs Moduli (GPa) = 42.19832 46.10178 84.32673
#
# Poissons Ratio (x) = 0.42570 0.50103
# Poissons Ratio (y) = 0.38966 0.04186
# Poissons Ratio (z) = 0.25072 0.02288
#
# Static dielectric constant tensor:
#      x y z
#    x 3.115120 0.000000 0.000000 
#    y 0.000000 3.640350 0.000000 
#    z 0.000000 0.000000 3.807120 
# 
# 
# High freq. dielectric constant tensor:
#      x y z
#    x 1.715540 0.000000 0.000000 
#    y 0.000000 1.772390 0.000000 
#    z 0.000000 0.000000 1.783190 
# 
# From -- ./inp_files/14519.got.cif
#   From: 2010.03.12/outbox.ucp.g09.slc.cvg/sg46_8_cif.got.tgz:14519.got - 2010.05.04 21:24:43.
