data_PCOD8193619
_publ_section_title
;
Structure prediction by ZEFSAII (Michael W. Deem and Ramdas Pophale) SiO2 
 PCOD8193619
Probable space group: P M M M
;
_chemical_formula_sum "Si O2"
_cell_formula_units_Z 40
_cell_length_a 9.157704
_cell_length_b 20.293656
_cell_length_c 11.867868
_cell_angle_alpha 90.000000
_cell_angle_beta 90.000000
_cell_angle_gamma 90.000000
_cell_volume 2205.563690
_symmetry_space_group_name_H-M "P M M M"
_symmetry_group_IT_number 47
_symmetry_cell_setting 'orthorhombic'
loop_
_space_group_symop_operation_xyz
x,y,z
-x,-y,z
x,-y,-z
-x,y,-z
-x,-y,-z
x,y,-z
-x,y,z
x,-y,z
loop_
_atom_site_type_symbol
_atom_site_label
_atom_site_fract_x
_atom_site_fract_y
_atom_site_fract_z
Si Si1 0.171591 0.106439 0.500000
Si Si2 0.338763 0.235144 0.500000
Si Si3 0.333033 0.690016 0.269300
Si Si4 0.826375 0.071526 0.742332
Si Si5 0.170545 0.200811 0.868349
Si Si6 0.169391 0.575707 0.628621
O O1 0.210429 0.182803 0.500000
O O2 0.234539 0.073876 0.386051
O O3 0.000000 0.098599 0.500000
O O4 0.500000 0.201887 0.500000
O O5 0.317840 0.279158 0.608487
O O6 0.500000 0.681362 0.231011
O O7 0.253270 0.735531 0.178048
O O8 0.258131 0.618579 0.279948
O O9 0.764656 0.133262 0.813464
O O10 0.000000 0.076582 0.742923
O O11 0.777988 0.000000 0.793028
O O12 0.000000 0.208729 0.840362
O O13 0.200204 0.195539 0.000000
O O14 0.222310 0.588343 0.500000
O O15 0.196247 0.500000 0.661225
O O16 0.000000 0.594278 0.638721
#
# Coordination Sequence:
#
# PCOD8193619 Si02
#       6
#     4   4   8   8   8   8
#     4  10  17  28  50  75 101 133 168 210 261 320
#     4  10  20  31  46  74 106 136 170 211 256 308
#     4  11  21  34  53  77 108 142 176 215 260 309
#     4   9  17  29  48  76 105 131 165 214 269 320
#     4  10  21  36  54  76 100 133 181 228 267 310
#     4   9  18  32  52  81 115 146 173 204 249 307
#
# _framework density 18.135954000000002
#
# number of rings (size 3 to 8) (size 9 to 14) (size 15 to 20)
#    0.000    2.200    3.000    1.500    0.000    3.200 
#    0.000    3.000    0.000    3.600    0.000    5.600 
#    0.000    0.000    0.000    0.000    0.000    0.000 
#
# Total GULP energy -495812.286211 kJ/mol
# GULP energy per Si atom -12395.307155 kJ/mol
# Density = 1.809468 g / cm^3
# Si number density = 18.135954 Si / 1000 Ang^3
#
#
#
# Elastic Constant Matrix: (Units=GPa)
#
#
# Indices 1 2 3 4 5 6 
#
# 1 51.4133 48.1485 39.3004 0.0000 0.0000 0.0000
# 2 48.1485 137.6287 50.9066 0.0000 0.0000 0.0000
# 3 39.3004 50.9066 84.7620 0.0000 0.0000 0.0000
# 4 0.0000 0.0000 0.0000 14.3046 0.0000 0.0000
# 5 0.0000 0.0000 0.0000 0.0000 -1.2087 0.0000
# 6 0.0000 0.0000 0.0000 0.0000 0.0000 8.3550
#
#
#
# Elastic Compliance Matrix: (Units=1/GPa)
#
#
# Indices 1 2 3 4 5 6 
#
# 1 0.036280 -0.008318 -0.011825 0.000000 0.000000 0.000000
# 2 -0.008318 0.011248 -0.002899 0.000000 0.000000 0.000000
# 3 -0.011825 -0.002899 0.019022 0.000000 0.000000 0.000000
# 4 0.000000 0.000000 0.000000 0.069908 0.000000 0.000000
# 5 0.000000 0.000000 0.000000 0.000000 -0.827335 0.000000
# 6 0.000000 0.000000 0.000000 0.000000 0.000000 0.119689
#
#
# Mechanical properties :
#
#
# Convention : Reuss Voigt Hill
#
# Bulk Modulus (GPa) = 48.86470 61.16833 55.01651
# Shear Modulus (GPa) = -9.64724 13.32007 1.83641
#
# Velocity S-wave (km/s) = -2.30888 2.71303 1.00736
# Velocity P-wave (km/s) = 4.46028 6.60416 5.63511
#
# Compressibility (1/GPa) = 0.02046467
#
# Stress axis : x y z
#
# Youngs Moduli (GPa) = 27.56377 88.90359 52.57180
#
# Poissons Ratio (x) = 0.73951 0.62169
# Poissons Ratio (y) = 0.22928 0.15239
# Poissons Ratio (z) = 0.32596 0.25771
#
# Static dielectric constant tensor:
#      x y z
#    x 3.172310 0.000000 0.000000 
#    y 0.000000 3.445690 0.000000 
#    z 0.000000 0.000000 3.247560 
# 
# 
# High freq. dielectric constant tensor:
#      x y z
#    x 1.674570 0.000000 0.000000 
#    y 0.000000 1.711400 0.000000 
#    z 0.000000 0.000000 1.681610 
# 
# From -- ./inp_files/15082.got.cif
#   From: 2010.03.12/outbox.cif.g09.slc.cpg/sg47_8_cif.got.tgz:15082.got - 2010.04.14 03:12:58.
