data_PCOD8193093
_publ_section_title
;
Structure prediction by ZEFSAII (Michael W. Deem and Ramdas Pophale) SiO2 
 PCOD8193093
Probable space group: I M A 2
;
_chemical_formula_sum "Si O2"
_cell_formula_units_Z 24
_cell_length_a 15.377408
_cell_length_b 9.244029
_cell_length_c 8.491890
_cell_angle_alpha 90.000000
_cell_angle_beta 90.000000
_cell_angle_gamma 90.000000
_cell_volume 1207.115417
_symmetry_space_group_name_H-M "I M A 2"
_symmetry_group_IT_number 46
_symmetry_cell_setting 'orthorhombic'
loop_
_space_group_symop_operation_xyz
x,y,z
-x,-y,z
1/2-x,y,z
1/2+x,-y,z
1/2+x,1/2+y,1/2+z
1/2-x,1/2-y,1/2+z
-x,1/2+y,1/2+z
x,1/2-y,1/2+z
loop_
_atom_site_type_symbol
_atom_site_label
_atom_site_fract_x
_atom_site_fract_y
_atom_site_fract_z
Si Si1 0.592657 0.435436 0.753980
Si Si2 0.653094 0.154802 0.924776
Si Si3 0.250000 0.433947 0.244642
Si Si4 0.750000 0.881054 0.375806
O O1 0.500000 0.500000 0.798786
O O2 0.603248 0.288405 0.850109
O O3 0.596711 0.403460 0.568826
O O4 0.665296 0.551445 0.797382
O O5 0.750000 0.204031 0.984770
O O6 0.664415 0.027259 0.794428
O O7 0.250000 0.288661 0.345384
O O8 0.250000 0.405395 0.061241
#
# Coordination Sequence:
#
# PCOD8193093 Si02
#       4
#     8   8   4   4
#     4  12  25  41  72 100 136 180 235 281 340 411
#     4  10  21  45  67  95 132 190 219 276 347 405
#     4  10  23  38  75  88 134 186 226 276 349 406
#     4  12  21  44  63 102 134 178 232 288 339 398
#
# _framework density 19.882109
#
# number of rings (size 3 to 8) (size 9 to 14) (size 15 to 20)
#    1.000    0.000    3.333    4.000    0.000    5.333 
#    0.000    3.333    0.000    0.000    0.000    0.000 
#    0.000    0.000    0.000    0.000    0.000    0.000 
#
# Total GULP energy -148817.364020 kJ/mol
# GULP energy per Si atom -12401.447002 kJ/mol
# Density = 1.983686 g / cm^3
# Si number density = 19.882109 Si / 1000 Ang^3
#
#
#
# Elastic Constant Matrix: (Units=GPa)
#
#
# Indices 1 2 3 4 5 6 
#
# 1 134.6364 71.6065 34.1080 0.0000 0.0000 0.0000
# 2 71.6065 165.7969 43.4126 0.0000 0.0000 0.0000
# 3 34.1080 43.4126 81.1641 0.0000 0.0000 0.0000
# 4 0.0000 0.0000 0.0000 44.8754 0.0000 0.0000
# 5 0.0000 0.0000 0.0000 0.0000 43.4523 0.0000
# 6 0.0000 0.0000 0.0000 0.0000 0.0000 30.8932
#
#
#
# Elastic Compliance Matrix: (Units=1/GPa)
#
#
# Indices 1 2 3 4 5 6 
#
# 1 0.009967 -0.003730 -0.002193 0.000000 0.000000 0.000000
# 2 -0.003730 0.008410 -0.002931 0.000000 0.000000 0.000000
# 3 -0.002193 -0.002931 0.014810 0.000000 0.000000 0.000000
# 4 0.000000 0.000000 0.000000 0.022284 0.000000 0.000000
# 5 0.000000 0.000000 0.000000 0.000000 0.023014 0.000000
# 6 0.000000 0.000000 0.000000 0.000000 0.000000 0.032370
#
#
# Mechanical properties :
#
#
# Convention : Reuss Voigt Hill
#
# Bulk Modulus (GPa) = 64.60603 75.53905 70.07254
# Shear Modulus (GPa) = 37.39096 39.34219 38.36658
#
# Velocity S-wave (km/s) = 4.34133 4.45317 4.39760
# Velocity P-wave (km/s) = 7.59570 8.03224 7.81702
#
# Compressibility (1/GPa) = 0.01547843
#
# Stress axis : x y z
#
# Youngs Moduli (GPa) = 100.33053 118.90630 67.52244
#
# Poissons Ratio (x) = 0.44357 0.14809
# Poissons Ratio (y) = 0.37428 0.19788
# Poissons Ratio (z) = 0.22004 0.34847
#
# Static dielectric constant tensor:
#      x y z
#    x 3.353490 0.000000 0.000000 
#    y 0.000000 3.824380 0.000000 
#    z 0.000000 0.000000 3.631280 
# 
# 
# High freq. dielectric constant tensor:
#      x y z
#    x 1.751310 0.000000 0.000000 
#    y 0.000000 1.793320 0.000000 
#    z 0.000000 0.000000 1.787370 
# 
# From -- ./inp_files/5127.got.cif
#   From: 2010.03.12/outbox.cif.g09.slc.cpg/sg46_3_cif.got.tgz:5127.got - 2010.04.14 02:56:35.
