data_PCOD8193329
_publ_section_title
;
Structure prediction by ZEFSAII (Michael W. Deem and Ramdas Pophale) SiO2 
 PCOD8193329
Probable space group: I M A 2
;
_chemical_formula_sum "Si O2"
_cell_formula_units_Z 48
_cell_length_a 25.247078
_cell_length_b 9.445945
_cell_length_c 9.464426
_cell_angle_alpha 90.000000
_cell_angle_beta 90.000000
_cell_angle_gamma 90.000000
_cell_volume 2257.100070
_symmetry_space_group_name_H-M "I M A 2"
_symmetry_group_IT_number 46
_symmetry_cell_setting 'orthorhombic'
loop_
_space_group_symop_operation_xyz
x,y,z
-x,-y,z
1/2-x,y,z
1/2+x,-y,z
1/2+x,1/2+y,1/2+z
1/2-x,1/2-y,1/2+z
-x,1/2+y,1/2+z
x,1/2-y,1/2+z
loop_
_atom_site_type_symbol
_atom_site_label
_atom_site_fract_x
_atom_site_fract_y
_atom_site_fract_z
Si Si1 0.314101 0.924406 0.024050
Si Si2 0.126629 0.305781 0.615793
Si Si3 0.537542 0.383408 0.929893
Si Si4 0.496081 0.342137 0.621092
Si Si5 0.142332 0.064440 0.413326
Si Si6 0.190767 0.806122 0.314442
O O1 0.250000 0.947851 0.027240
O O2 0.334493 0.837378 0.161761
O O3 0.335427 0.828639 0.893805
O O4 0.344892 0.073259 0.021566
O O5 0.063974 0.294933 0.593230
O O6 0.147481 0.154145 0.557205
O O7 0.140603 0.326654 0.780671
O O8 0.500000 0.500000 0.002503
O O9 0.510853 0.332278 0.784700
O O10 0.538630 0.250909 0.035270
O O11 0.594085 0.452697 0.902869
O O12 0.500000 0.500000 0.562438
O O13 0.190960 0.954463 0.403320
O O14 0.250000 0.756643 0.292546
#
# Coordination Sequence:
#
# PCOD8193329 Si02
#       6
#     8   8   8   8   8   8
#     4   9  20  38  60  85 115 147 187 235 284 336
#     4  11  21  39  58  82 114 152 187 234 283 334
#     4  11  22  40  57  83 116 151 185 236 280 331
#     4  11  22  39  58  82 116 150 190 235 278 331
#     4  11  23  39  59  82 118 150 191 234 283 336
#     4   9  20  38  60  86 115 147 186 235 284 338
#
# _framework density 21.266226
#
# number of rings (size 3 to 8) (size 9 to 14) (size 15 to 20)
#    0.000    1.667    5.000    0.000    2.333    2.667 
#    3.000    0.000    0.000    0.000    0.000    0.000 
#    0.000    0.000    0.000    0.000    0.000    0.000 
#
# Total GULP energy -297411.749815 kJ/mol
# GULP energy per Si atom -12392.156242 kJ/mol
# Density = 2.121782 g / cm^3
# Si number density = 21.266226 Si / 1000 Ang^3
#
#
#
# Elastic Constant Matrix: (Units=GPa)
#
#
# Indices 1 2 3 4 5 6 
#
# 1 32.2127 6.1666 14.0584 0.0000 0.0000 0.0000
# 2 6.1666 86.8881 41.0362 0.0000 0.0000 0.0000
# 3 14.0584 41.0362 50.7665 0.0000 0.0000 0.0000
# 4 0.0000 0.0000 0.0000 45.7395 0.0000 0.0000
# 5 0.0000 0.0000 0.0000 0.0000 17.3402 0.0000
# 6 0.0000 0.0000 0.0000 0.0000 0.0000 31.9283
#
#
#
# Elastic Compliance Matrix: (Units=1/GPa)
#
#
# Indices 1 2 3 4 5 6 
#
# 1 0.035950 0.003478 -0.012767 0.000000 0.000000 0.000000
# 2 0.003478 0.018953 -0.016283 0.000000 0.000000 0.000000
# 3 -0.012767 -0.016283 0.036396 0.000000 0.000000 0.000000
# 4 0.000000 0.000000 0.000000 0.021863 0.000000 0.000000
# 5 0.000000 0.000000 0.000000 0.000000 0.057670 0.000000
# 6 0.000000 0.000000 0.000000 0.000000 0.000000 0.031320
#
#
# Mechanical properties :
#
#
# Convention : Reuss Voigt Hill
#
# Bulk Modulus (GPa) = 24.90393 32.48773 28.69583
# Shear Modulus (GPa) = 18.74915 26.24199 22.49557
#
# Velocity S-wave (km/s) = 2.97246 3.51661 3.25592
# Velocity P-wave (km/s) = 4.84940 5.63902 5.25905
#
# Compressibility (1/GPa) = 0.04015431
#
# Stress axis : x y z
#
# Youngs Moduli (GPa) = 27.81675 52.76332 27.47582
#
# Poissons Ratio (x) = -0.18352 0.35078
# Poissons Ratio (y) = -0.09675 0.44739
# Poissons Ratio (z) = 0.35513 0.85915
#
# Static dielectric constant tensor:
#      x y z
#    x 3.821550 0.000000 0.000000 
#    y 0.000000 3.933390 0.000000 
#    z 0.000000 0.000000 3.782400 
# 
# 
# High freq. dielectric constant tensor:
#      x y z
#    x 1.826630 0.000000 0.000000 
#    y 0.000000 1.836660 0.000000 
#    z 0.000000 0.000000 1.822740 
# 
# From -- ./inp_files/8385.got.cif
#   From: 2010.03.12/outbox.cif.g09.slc.cpg/sg46_5_cif.got.tgz:8385.got - 2010.04.14 02:56:35.
