data_PCOD8193198
_publ_section_title
;
Structure prediction by ZEFSAII (Michael W. Deem and Ramdas Pophale) SiO2 
 PCOD8193198
Probable space group: I M A 2
;
_chemical_formula_sum "Si O2"
_cell_formula_units_Z 48
_cell_length_a 14.442529
_cell_length_b 15.173288
_cell_length_c 9.501961
_cell_angle_alpha 90.000000
_cell_angle_beta 90.000000
_cell_angle_gamma 90.000000
_cell_volume 2082.265928
_symmetry_space_group_name_H-M "I M A 2"
_symmetry_group_IT_number 46
_symmetry_cell_setting 'orthorhombic'
loop_
_space_group_symop_operation_xyz
x,y,z
-x,-y,z
1/2-x,y,z
1/2+x,-y,z
1/2+x,1/2+y,1/2+z
1/2-x,1/2-y,1/2+z
-x,1/2+y,1/2+z
x,1/2-y,1/2+z
loop_
_atom_site_type_symbol
_atom_site_label
_atom_site_fract_x
_atom_site_fract_y
_atom_site_fract_z
Si Si1 0.098733 0.037947 0.469450
Si Si2 0.147718 0.849704 0.386420
Si Si3 0.140489 0.702514 0.585429
Si Si4 0.019558 0.406117 0.500258
Si Si5 0.647352 0.878500 0.757882
Si Si6 0.641600 0.672025 0.734029
O O1 0.148901 0.078695 0.603550
O O2 0.090343 0.116147 0.355814
O O3 0.152294 0.954698 0.403428
O O4 0.000000 0.000000 0.512802
O O5 0.250000 0.813472 0.360701
O O6 0.114225 0.801347 0.530591
O O7 0.097851 0.815800 0.242307
O O8 0.250000 0.679925 0.573621
O O9 0.080553 0.640063 0.482611
O O10 0.067229 0.423840 0.349317
O O11 0.094087 0.349982 0.586688
O O12 0.000000 0.500000 0.573738
O O13 0.750000 0.894707 0.821240
O O14 0.626586 0.774826 0.757327
O O15 0.750000 0.646628 0.730233
#
# Coordination Sequence:
#
# PCOD8193198 Si02
#       6
#     8   8   8   8   8   8
#     4  12  25  42  69 106 137 182 239 293 363 421
#     4  10  22  42  67  96 136 185 234 289 354 431
#     4  10  24  43  67 100 140 187 234 290 365 430
#     4  12  26  42  66 102 137 179 232 287 352 412
#     4  11  26  46  69 100 139 186 235 291 352 416
#     4  11  24  45  72  99 136 186 235 291 350 418
#
# _framework density 23.051811000000001
#
# number of rings (size 3 to 8) (size 9 to 14) (size 15 to 20)
#    0.000    1.000    0.000    6.000    7.000    6.667 
#    0.000    1.667    0.000    0.000    0.000    0.000 
#    0.000    0.000    0.000    0.000    0.000    0.000 
#
# Total GULP energy -297499.707951 kJ/mol
# GULP energy per Si atom -12395.821165 kJ/mol
# Density = 2.299934 g / cm^3
# Si number density = 23.051811 Si / 1000 Ang^3
#
#
#
# Elastic Constant Matrix: (Units=GPa)
#
#
# Indices 1 2 3 4 5 6 
#
# 1 90.0515 35.7941 27.1015 0.0000 0.0000 0.0000
# 2 35.7941 129.1210 46.5166 0.0000 0.0000 0.0000
# 3 27.1015 46.5166 122.6623 0.0000 0.0000 0.0000
# 4 0.0000 0.0000 0.0000 41.3374 0.0000 0.0000
# 5 0.0000 0.0000 0.0000 0.0000 34.6327 0.0000
# 6 0.0000 0.0000 0.0000 0.0000 0.0000 32.5825
#
#
#
# Elastic Compliance Matrix: (Units=1/GPa)
#
#
# Indices 1 2 3 4 5 6 
#
# 1 0.012784 -0.002926 -0.001715 0.000000 0.000000 0.000000
# 2 -0.002926 0.009640 -0.003009 0.000000 0.000000 0.000000
# 3 -0.001715 -0.003009 0.009673 0.000000 0.000000 0.000000
# 4 0.000000 0.000000 0.000000 0.024191 0.000000 0.000000
# 5 0.000000 0.000000 0.000000 0.000000 0.028874 0.000000
# 6 0.000000 0.000000 0.000000 0.000000 0.000000 0.030691
#
#
# Mechanical properties :
#
#
# Convention : Reuss Voigt Hill
#
# Bulk Modulus (GPa) = 59.53788 62.29548 60.91668
# Shear Modulus (GPa) = 36.56247 37.20537 36.88392
#
# Velocity S-wave (km/s) = 3.98691 4.02181 4.00439
# Velocity P-wave (km/s) = 6.86133 6.97491 6.91835
#
# Compressibility (1/GPa) = 0.01679603
#
# Stress axis : x y z
#
# Youngs Moduli (GPa) = 78.22319 103.73551 103.38564
#
# Poissons Ratio (x) = 0.30354 0.17729
# Poissons Ratio (y) = 0.22889 0.31111
# Poissons Ratio (z) = 0.13414 0.31216
#
# Static dielectric constant tensor:
#      x y z
#    x 4.261630 0.000000 0.000000 
#    y 0.000000 4.165040 0.000000 
#    z 0.000000 0.000000 4.097480 
# 
# 
# High freq. dielectric constant tensor:
#      x y z
#    x 1.924680 0.000000 0.000000 
#    y 0.000000 1.913050 0.000000 
#    z 0.000000 0.000000 1.905620 
# 
# From -- ./inp_files/5727.got.cif
#   From: 2010.03.12/outbox.cif.g09.slc.cpg/sg46_3_cif.got.tgz:5727.got - 2010.04.14 02:56:35.
