data_PCOD8193499
_publ_section_title
;
Structure prediction by ZEFSAII (Michael W. Deem and Ramdas Pophale) SiO2 
 PCOD8193499
Probable space group: P M M M
;
_chemical_formula_sum "Si O2"
_cell_formula_units_Z 64
_cell_length_a 18.493806
_cell_length_b 25.880057
_cell_length_c 8.947123
_cell_angle_alpha 90.000000
_cell_angle_beta 90.000000
_cell_angle_gamma 90.000000
_cell_volume 4282.278751
_symmetry_space_group_name_H-M "P M M M"
_symmetry_group_IT_number 47
_symmetry_cell_setting 'orthorhombic'
loop_
_space_group_symop_operation_xyz
x,y,z
-x,-y,z
x,-y,-z
-x,y,-z
-x,-y,-z
x,y,-z
-x,y,z
x,-y,z
loop_
_atom_site_type_symbol
_atom_site_label
_atom_site_fract_x
_atom_site_fract_y
_atom_site_fract_z
Si Si1 0.715262 0.208737 0.671749
Si Si2 0.084989 0.256406 0.172840
Si Si3 0.915394 0.558748 0.169779
Si Si4 0.830100 0.846735 0.824235
Si Si5 0.707210 0.689753 0.823759
Si Si6 0.419550 0.734218 0.671491
Si Si7 0.919158 0.942878 0.822583
Si Si8 0.162957 0.648620 0.324709
O O1 0.739250 0.214499 0.500000
O O2 0.751256 0.157964 0.744011
O O3 0.746376 0.257034 0.768957
O O4 0.626938 0.211904 0.685094
O O5 0.120271 0.201852 0.220952
O O6 0.114547 0.303899 0.268445
O O7 0.000000 0.250976 0.201992
O O8 0.101971 0.268380 0.000000
O O9 0.890189 0.500000 0.197075
O O10 0.874962 0.594801 0.286998
O O11 0.000000 0.564094 0.199172
O O12 0.897244 0.575728 0.000000
O O13 0.866279 0.898812 0.758785
O O14 0.817616 0.850862 0.000000
O O15 0.624440 0.689309 0.760477
O O16 0.757704 0.645587 0.753632
O O17 0.705017 0.685177 0.000000
O O18 0.424390 0.716732 0.500000
O O19 0.500000 0.742031 0.738814
O O20 0.000000 0.933980 0.759277
O O21 0.891196 0.000000 0.774906
O O22 0.921973 0.938329 0.000000
O O23 0.174135 0.653782 0.500000
#
# Coordination Sequence:
#
# PCOD8193499 Si02
#       8
#     8   8   8   8   8   8   8   8
#     4   9  17  28  41  60  86 116 142 171 214 261
#     4  10  19  28  39  57  81 110 144 180 219 267
#     4   9  19  36  54  68  84 112 151 193 236 277
#     4  10  17  26  42  61  83 113 146 182 223 267
#     4  10  18  29  44  63  87 117 149 180 211 251
#     4   8  15  28  44  63  91 123 148 172 207 255
#     4   8  14  25  41  61  83 108 145 192 235 273
#     4  12  22  31  44  63  89 119 148 182 224 267
#
# _framework density 14.945313000000001
#
# number of rings (size 3 to 8) (size 9 to 14) (size 15 to 20)
#    0.750    1.750    1.250    3.750    0.000    4.000 
#    0.000    0.625    0.000    1.500    0.000    0.875 
#    0.000    1.000    0.000   11.500    0.000    2.250 
#
# Total GULP energy -792916.900227 kJ/mol
# GULP energy per Si atom -12389.326566 kJ/mol
# Density = 1.491130 g / cm^3
# Si number density = 14.945313 Si / 1000 Ang^3
#
#
#
# Elastic Constant Matrix: (Units=GPa)
#
#
# Indices 1 2 3 4 5 6 
#
# 1 95.1245 42.4865 40.9366 0.0000 0.0000 0.0000
# 2 42.4865 75.5870 30.4697 0.0000 0.0000 0.0000
# 3 40.9366 30.4697 75.5282 0.0000 0.0000 0.0000
# 4 0.0000 0.0000 0.0000 9.1186 0.0000 0.0000
# 5 0.0000 0.0000 0.0000 0.0000 21.1639 0.0000
# 6 0.0000 0.0000 0.0000 0.0000 0.0000 15.8790
#
#
#
# Elastic Compliance Matrix: (Units=1/GPa)
#
#
# Indices 1 2 3 4 5 6 
#
# 1 0.016057 -0.006588 -0.006045 0.000000 0.000000 0.000000
# 2 -0.006588 0.018503 -0.003893 0.000000 0.000000 0.000000
# 3 -0.006045 -0.003893 0.018087 0.000000 0.000000 0.000000
# 4 0.000000 0.000000 0.000000 0.109666 0.000000 0.000000
# 5 0.000000 0.000000 0.000000 0.000000 0.047250 0.000000
# 6 0.000000 0.000000 0.000000 0.000000 0.000000 0.062976
#
#
# Mechanical properties :
#
#
# Convention : Reuss Voigt Hill
#
# Bulk Modulus (GPa) = 51.03886 52.66949 51.85418
# Shear Modulus (GPa) = 16.01933 18.05543 17.03738
#
# Velocity S-wave (km/s) = 3.27748 3.47954 3.38002
# Velocity P-wave (km/s) = 6.96757 7.17363 7.07135
#
# Compressibility (1/GPa) = 0.01959291
#
# Stress axis : x y z
#
# Youngs Moduli (GPa) = 62.27971 54.04671 55.28816
#
# Poissons Ratio (x) = 0.35609 0.33421
# Poissons Ratio (y) = 0.41033 0.21526
# Poissons Ratio (z) = 0.37647 0.21042
#
# Static dielectric constant tensor:
#      x y z
#    x 2.951720 0.000000 0.000000 
#    y 0.000000 2.781010 0.000000 
#    z 0.000000 0.000000 2.747650 
# 
# 
# High freq. dielectric constant tensor:
#      x y z
#    x 1.560700 0.000000 0.000000 
#    y 0.000000 1.540080 0.000000 
#    z 0.000000 0.000000 1.566270 
# 
# From -- ./inp_files/11939.got.cif
#   From: 2010.03.12/outbox.cif.g09.slc.cpg/sg47_6_cif.got.tgz:11939.got - 2010.04.14 03:12:58.
