data_PCOD8193837
_publ_section_title
;
Structure prediction by ZEFSAII (Michael W. Deem and Ramdas Pophale) SiO2 
 PCOD8193837
Probable space group: P M M M
;
_chemical_formula_sum "Si O2"
_cell_formula_units_Z 64
_cell_length_a 26.418958
_cell_length_b 9.171253
_cell_length_c 18.206161
_cell_angle_alpha 90.000000
_cell_angle_beta 90.000000
_cell_angle_gamma 90.000000
_cell_volume 4411.260829
_symmetry_space_group_name_H-M "P M M M"
_symmetry_group_IT_number 47
_symmetry_cell_setting 'orthorhombic'
loop_
_space_group_symop_operation_xyz
x,y,z
-x,-y,z
x,-y,-z
-x,y,-z
-x,-y,-z
x,y,-z
-x,y,z
x,-y,z
loop_
_atom_site_type_symbol
_atom_site_label
_atom_site_fract_x
_atom_site_fract_y
_atom_site_fract_z
Si Si1 0.655228 0.669494 0.916425
Si Si2 0.757476 0.328773 0.168406
Si Si3 0.153138 0.169102 0.086546
Si Si4 0.707271 0.165234 0.706785
Si Si5 0.396181 0.836412 0.796006
Si Si6 0.055722 0.336734 0.087103
Si Si7 0.443680 0.332292 0.672037
Si Si8 0.346046 0.671280 0.415886
O O1 0.642772 0.500000 0.909420
O O2 0.710263 0.704974 0.884185
O O3 0.611352 0.755242 0.873359
O O4 0.654601 0.723514 0.000000
O O5 0.765178 0.500000 0.180861
O O6 0.806130 0.262532 0.129846
O O7 0.749745 0.252952 0.247686
O O8 0.098047 0.222965 0.114302
O O9 0.159174 0.000000 0.106355
O O10 0.160208 0.197043 0.000000
O O11 0.655946 0.168243 0.752244
O O12 0.697314 0.243978 0.629044
O O13 0.725841 0.000000 0.693058
O O14 0.438560 0.757470 0.747360
O O15 0.414260 0.000000 0.811916
O O16 0.068747 0.500000 0.115378
O O17 0.000000 0.289129 0.116608
O O18 0.054535 0.337419 0.000000
O O19 0.500000 0.305533 0.639566
O O20 0.435171 0.500000 0.693084
O O21 0.402355 0.284156 0.611590
O O22 0.341592 0.719771 0.500000
O O23 0.336842 0.500000 0.405629
#
# Coordination Sequence:
#
# PCOD8193837 Si02
#       8
#     8   8   8   8   8   8   8   8
#     4   9  17  28  42  59  77  98 125 158 196 237
#     4  10  18  28  42  58  78 104 134 166 201 241
#     4  10  19  27  36  54  80 107 136 174 217 254
#     4   9  17  29  43  59  80 105 132 159 190 231
#     4   9  17  28  42  59  78 101 127 155 188 228
#     4   8  14  25  39  52  68  96 136 178 216 253
#     4   9  17  29  45  63  82 105 130 155 186 223
#     4   9  17  29  45  65  87 108 131 158 185 218
#
# _framework density 14.508323000000001
#
# number of rings (size 3 to 8) (size 9 to 14) (size 15 to 20)
#    0.000    2.875    0.000    2.250    0.000    6.000 
#    0.000    2.500    0.000    0.375    0.000    6.125 
#    0.000    0.000    0.000    0.000    0.000    0.625 
#
# Total GULP energy -793428.687487 kJ/mol
# GULP energy per Si atom -12397.323242 kJ/mol
# Density = 1.447530 g / cm^3
# Si number density = 14.508323 Si / 1000 Ang^3
#
#
#
# Elastic Constant Matrix: (Units=GPa)
#
#
# Indices 1 2 3 4 5 6 
#
# 1 51.7966 34.8280 33.4286 0.0000 0.0000 0.0000
# 2 34.8280 77.9603 46.3899 0.0000 0.0000 0.0000
# 3 33.4286 46.3899 92.3485 0.0000 0.0000 0.0000
# 4 0.0000 0.0000 0.0000 18.3165 0.0000 0.0000
# 5 0.0000 0.0000 0.0000 0.0000 10.7560 0.0000
# 6 0.0000 0.0000 0.0000 0.0000 0.0000 19.4583
#
#
#
# Elastic Compliance Matrix: (Units=1/GPa)
#
#
# Indices 1 2 3 4 5 6 
#
# 1 0.029634 -0.009779 -0.005815 0.000000 0.000000 0.000000
# 2 -0.009779 0.021523 -0.007272 0.000000 0.000000 0.000000
# 3 -0.005815 -0.007272 0.016586 0.000000 0.000000 0.000000
# 4 0.000000 0.000000 0.000000 0.054596 0.000000 0.000000
# 5 0.000000 0.000000 0.000000 0.000000 0.092971 0.000000
# 6 0.000000 0.000000 0.000000 0.000000 0.000000 0.051392
#
#
# Mechanical properties :
#
#
# Convention : Reuss Voigt Hill
#
# Bulk Modulus (GPa) = 45.42904 50.15539 47.79221
# Shear Modulus (GPa) = 15.63620 16.87010 16.25315
#
# Velocity S-wave (km/s) = 3.28646 3.41367 3.35067
# Velocity P-wave (km/s) = 6.76620 7.08397 6.92691
#
# Compressibility (1/GPa) = 0.02201235
#
# Stress axis : x y z
#
# Youngs Moduli (GPa) = 33.74458 46.46268 60.29052
#
# Poissons Ratio (x) = 0.45435 0.35059
# Poissons Ratio (y) = 0.32998 0.43842
# Poissons Ratio (z) = 0.19622 0.33787
#
# Static dielectric constant tensor:
#      x y z
#    x 2.764820 0.000000 0.000000 
#    y 0.000000 2.958740 0.000000 
#    z 0.000000 0.000000 2.684340 
# 
# 
# High freq. dielectric constant tensor:
#      x y z
#    x 1.528740 0.000000 0.000000 
#    y 0.000000 1.565250 0.000000 
#    z 0.000000 0.000000 1.523020 
# 
# From -- ./inp_files/10196.got.cif
#   From: 2010.03.12/outbox.cif.g09.slc.cpg/sg47_6_cif.got.tgz:10196.got - 2010.04.14 03:12:58.
