data_PCOD8193713
_publ_section_title
;
Structure prediction by ZEFSAII (Michael W. Deem and Ramdas Pophale) SiO2 
 PCOD8193713
Probable space group: P M M M
;
_chemical_formula_sum "Si O2"
_cell_formula_units_Z 64
_cell_length_a 20.575709
_cell_length_b 8.925141
_cell_length_c 19.834482
_cell_angle_alpha 90.000000
_cell_angle_beta 90.000000
_cell_angle_gamma 90.000000
_cell_volume 3642.426172
_symmetry_space_group_name_H-M "P M M M"
_symmetry_group_IT_number 47
_symmetry_cell_setting 'orthorhombic'
loop_
_space_group_symop_operation_xyz
x,y,z
-x,-y,z
x,-y,-z
-x,y,-z
-x,-y,-z
x,y,-z
-x,y,z
x,-y,z
loop_
_atom_site_type_symbol
_atom_site_label
_atom_site_fract_x
_atom_site_fract_y
_atom_site_fract_z
Si Si1 0.880848 0.320640 0.784867
Si Si2 0.187093 0.675510 0.422442
Si Si3 0.304566 0.172685 0.346803
Si Si4 0.113196 0.331242 0.929013
Si Si5 0.926498 0.828320 0.346318
Si Si6 0.428590 0.177905 0.424178
Si Si7 0.267826 0.668535 0.926298
Si Si8 0.255830 0.828555 0.203920
O O1 0.882234 0.500000 0.781712
O O2 0.910464 0.261997 0.857485
O O3 0.923948 0.252454 0.725969
O O4 0.806824 0.268514 0.776639
O O5 0.200750 0.715066 0.500000
O O6 0.179555 0.500000 0.410250
O O7 0.245835 0.734222 0.377715
O O8 0.119837 0.751524 0.400628
O O9 0.372705 0.239115 0.374426
O O10 0.305917 0.188136 0.265882
O O11 0.295283 0.000000 0.368691
O O12 0.087279 0.500000 0.932955
O O13 0.190508 0.330104 0.925816
O O14 0.090656 0.250152 0.000000
O O15 0.000000 0.816124 0.373560
O O16 0.904808 0.000000 0.336934
O O17 0.412916 0.233098 0.500000
O O18 0.500000 0.238496 0.401919
O O19 0.429748 0.000000 0.422040
O O20 0.293532 0.500000 0.914778
O O21 0.291900 0.771700 0.864288
O O22 0.292440 0.727267 0.000000
O O23 0.234339 0.000000 0.193458
#
# Coordination Sequence:
#
# PCOD8193713 Si02
#       8
#     8   8   8   8   8   8   8   8
#     4  10  18  30  50  71  94 125 161 201 242 289
#     4  11  24  39  56  78 100 124 158 200 246 300
#     4  10  19  31  50  76 106 136 165 202 246 292
#     4   7  11  21  39  64  90 116 149 188 229 274
#     4  11  24  40  56  73  94 123 160 203 253 307
#     4   8  14  26  46  72 100 133 174 211 240 278
#     4   8  14  25  40  59  87 125 165 201 241 290
#     4  10  18  26  41  68 100 130 161 198 245 296
#
# _framework density 17.570706000000001
#
# number of rings (size 3 to 8) (size 9 to 14) (size 15 to 20)
#    0.000    2.625    1.250    3.750    0.000    3.500 
#    0.000    1.250    0.000    1.875    0.000    4.375 
#    0.000    0.500    0.000    6.250    0.000    1.125 
#
# Total GULP energy -792945.490294 kJ/mol
# GULP energy per Si atom -12389.773286 kJ/mol
# Density = 1.753071 g / cm^3
# Si number density = 17.570706 Si / 1000 Ang^3
#
#
#
# Elastic Constant Matrix: (Units=GPa)
#
#
# Indices 1 2 3 4 5 6 
#
# 1 71.9995 24.9300 41.5495 0.0000 0.0000 0.0000
# 2 24.9300 71.3670 46.5599 0.0000 0.0000 0.0000
# 3 41.5495 46.5599 123.0692 0.0000 0.0000 0.0000
# 4 0.0000 0.0000 0.0000 24.3618 0.0000 0.0000
# 5 0.0000 0.0000 0.0000 0.0000 15.3981 0.0000
# 6 0.0000 0.0000 0.0000 0.0000 0.0000 0.9625
#
#
#
# Elastic Compliance Matrix: (Units=1/GPa)
#
#
# Indices 1 2 3 4 5 6 
#
# 1 0.017733 -0.003039 -0.004837 0.000000 0.000000 0.000000
# 2 -0.003039 0.019125 -0.006209 0.000000 0.000000 0.000000
# 3 -0.004837 -0.006209 0.012108 0.000000 0.000000 0.000000
# 4 0.000000 0.000000 0.000000 0.041048 0.000000 0.000000
# 5 0.000000 0.000000 0.000000 0.000000 0.064943 0.000000
# 6 0.000000 0.000000 0.000000 0.000000 0.000000 1.038951
#
#
# Mechanical properties :
#
#
# Convention : Reuss Voigt Hill
#
# Bulk Modulus (GPa) = 48.08946 54.72385 51.40665
# Shear Modulus (GPa) = 4.06832 18.37090 11.21961
#
# Velocity S-wave (km/s) = 1.52329 3.23699 2.52968
# Velocity P-wave (km/s) = 5.52471 6.72186 6.15247
#
# Compressibility (1/GPa) = 0.02079458
#
# Stress axis : x y z
#
# Youngs Moduli (GPa) = 56.39355 52.28879 82.59182
#
# Poissons Ratio (x) = 0.15888 0.39951
# Poissons Ratio (y) = 0.17136 0.51285
# Poissons Ratio (z) = 0.27278 0.32468
#
# Static dielectric constant tensor:
#      x y z
#    x 3.033360 0.000000 0.000000 
#    y 0.000000 3.154460 0.000000 
#    z 0.000000 0.000000 3.886730 
# 
# 
# High freq. dielectric constant tensor:
#      x y z
#    x 1.628890 0.000000 0.000000 
#    y 0.000000 1.658820 0.000000 
#    z 0.000000 0.000000 1.699090 
# 
# From -- ./inp_files/31548.got.cif
#   From: 2010.03.12/outbox.cif.g09.slc.cpg/sg47_16_cif.got.tgz:31548.got - 2010.04.14 03:12:58.
