data_PCOD8193552
_publ_section_title
;
Structure prediction by ZEFSAII (Michael W. Deem and Ramdas Pophale) SiO2 
 PCOD8193552
Probable space group: P M M M
;
_chemical_formula_sum "Si O2"
_cell_formula_units_Z 64
_cell_length_a 19.183444
_cell_length_b 23.602151
_cell_length_c 9.054428
_cell_angle_alpha 90.000000
_cell_angle_beta 90.000000
_cell_angle_gamma 90.000000
_cell_volume 4099.578273
_symmetry_space_group_name_H-M "P M M M"
_symmetry_group_IT_number 47
_symmetry_cell_setting 'orthorhombic'
loop_
_space_group_symop_operation_xyz
x,y,z
-x,-y,z
x,-y,-z
-x,y,-z
-x,-y,-z
x,y,-z
-x,y,z
x,-y,z
loop_
_atom_site_type_symbol
_atom_site_label
_atom_site_fract_x
_atom_site_fract_y
_atom_site_fract_z
Si Si1 0.578882 0.616065 0.671100
Si Si2 0.424792 0.743000 0.674563
Si Si3 0.277833 0.222861 0.325354
Si Si4 0.839743 0.161145 0.174736
Si Si5 0.788509 0.670892 0.173631
Si Si6 0.079761 0.065410 0.329869
Si Si7 0.076325 0.729939 0.173309
Si Si8 0.705116 0.437114 0.827407
O O1 0.598891 0.614853 0.500000
O O2 0.500000 0.594438 0.696400
O O3 0.587270 0.679563 0.736895
O O4 0.631030 0.574294 0.753468
O O5 0.429007 0.736846 0.500000
O O6 0.500000 0.766863 0.733066
O O7 0.360033 0.783617 0.717374
O O8 0.265602 0.219486 0.500000
O O9 0.236065 0.172211 0.246412
O O10 0.254644 0.284180 0.267897
O O11 0.869025 0.101230 0.227401
O O12 0.891437 0.210812 0.230795
O O13 0.831056 0.160867 0.000000
O O14 0.870867 0.678493 0.212030
O O15 0.764374 0.608106 0.221044
O O16 0.776062 0.683259 0.000000
O O17 0.091539 0.081950 0.500000
O O18 0.000000 0.077447 0.284072
O O19 0.098115 0.000000 0.303444
O O20 0.000000 0.719692 0.246866
O O21 0.066665 0.735015 0.000000
O O22 0.731168 0.500000 0.782270
O O23 0.692455 0.432605 0.000000
#
# Coordination Sequence:
#
# PCOD8193552 Si02
#       8
#     8   8   8   8   8   8   8   8
#     4   9  17  30  46  62  80 104 138 178 214 252
#     4   8  14  25  42  63  85 109 138 174 218 267
#     4  10  17  27  46  66  86 113 144 181 225 266
#     4  10  19  29  43  66  96 125 154 185 217 262
#     4   9  17  29  43  59  81 106 136 174 217 267
#     4   9  18  32  48  67  95 130 165 199 229 255
#     4   8  14  25  42  62  81 104 135 173 214 252
#     4  10  20  31  42  57  81 111 139 171 215 268
#
# _framework density 15.611361
#
# number of rings (size 3 to 8) (size 9 to 14) (size 15 to 20)
#    0.000    2.875    1.250    3.000    0.000    1.750 
#    0.000    1.875    0.000    5.250    0.000    2.625 
#    0.000    0.500    0.000   11.375    0.000    7.875 
#
# Total GULP energy -793137.338630 kJ/mol
# GULP energy per Si atom -12392.770916 kJ/mol
# Density = 1.557583 g / cm^3
# Si number density = 15.611361 Si / 1000 Ang^3
#
#
#
# Elastic Constant Matrix: (Units=GPa)
#
#
# Indices 1 2 3 4 5 6 
#
# 1 124.7218 54.7106 34.2457 0.0000 0.0000 0.0000
# 2 54.7106 79.7803 30.4495 0.0000 0.0000 0.0000
# 3 34.2457 30.4495 42.1656 0.0000 0.0000 0.0000
# 4 0.0000 0.0000 0.0000 20.0411 0.0000 0.0000
# 5 0.0000 0.0000 0.0000 0.0000 18.6878 0.0000
# 6 0.0000 0.0000 0.0000 0.0000 0.0000 26.1284
#
#
#
# Elastic Compliance Matrix: (Units=1/GPa)
#
#
# Indices 1 2 3 4 5 6 
#
# 1 0.012292 -0.006377 -0.005378 0.000000 0.000000 0.000000
# 2 -0.006377 0.020612 -0.009706 0.000000 0.000000 0.000000
# 3 -0.005378 -0.009706 0.035093 0.000000 0.000000 0.000000
# 4 0.000000 0.000000 0.000000 0.049897 0.000000 0.000000
# 5 0.000000 0.000000 0.000000 0.000000 0.053511 0.000000
# 6 0.000000 0.000000 0.000000 0.000000 0.000000 0.038273
#
#
# Mechanical properties :
#
#
# Convention : Reuss Voigt Hill
#
# Bulk Modulus (GPa) = 39.87973 53.94214 46.91094
# Shear Modulus (GPa) = 19.16031 21.45559 20.30795
#
# Velocity S-wave (km/s) = 3.50713 3.71125 3.61063
# Velocity P-wave (km/s) = 6.48080 7.27961 6.89179
#
# Compressibility (1/GPa) = 0.02507539
#
# Stress axis : x y z
#
# Youngs Moduli (GPa) = 81.35559 48.51643 28.49584
#
# Poissons Ratio (x) = 0.30937 0.15326
# Poissons Ratio (y) = 0.51877 0.27657
# Poissons Ratio (z) = 0.43755 0.47088
#
# Static dielectric constant tensor:
#      x y z
#    x 3.351230 0.000000 0.000000 
#    y 0.000000 2.823910 0.000000 
#    z 0.000000 0.000000 2.793340 
# 
# 
# High freq. dielectric constant tensor:
#      x y z
#    x 1.601580 0.000000 0.000000 
#    y 0.000000 1.566380 0.000000 
#    z 0.000000 0.000000 1.583470 
# 
# From -- ./inp_files/11951.got.cif
#   From: 2010.03.12/outbox.cif.g09.slc.cpg/sg47_6_cif.got.tgz:11951.got - 2010.04.14 03:12:58.
