data_PCOD8193572
_publ_section_title
;
Structure prediction by ZEFSAII (Michael W. Deem and Ramdas Pophale) SiO2 
 PCOD8193572
Probable space group: P M M M
;
_chemical_formula_sum "Si O2"
_cell_formula_units_Z 52
_cell_length_a 27.191382
_cell_length_b 9.070027
_cell_length_c 12.222543
_cell_angle_alpha 90.000000
_cell_angle_beta 90.000000
_cell_angle_gamma 90.000000
_cell_volume 3014.403843
_symmetry_space_group_name_H-M "P M M M"
_symmetry_group_IT_number 47
_symmetry_cell_setting 'orthorhombic'
loop_
_space_group_symop_operation_xyz
x,y,z
-x,-y,z
x,-y,-z
-x,y,-z
-x,-y,-z
x,y,-z
-x,y,z
x,-y,z
loop_
_atom_site_type_symbol
_atom_site_label
_atom_site_fract_x
_atom_site_fract_y
_atom_site_fract_z
Si Si1 0.219830 0.670701 0.627266
Si Si2 0.555470 0.174248 0.000000
Si Si3 0.500000 0.674818 0.372728
Si Si4 0.946307 0.175288 0.120795
Si Si5 0.681123 0.170827 0.375161
Si Si6 0.944600 0.174880 0.500000
Si Si7 0.876157 0.174755 0.304380
Si Si8 0.414549 0.173182 0.760628
O O1 0.210814 0.700810 0.500000
O O2 0.219803 0.500000 0.656955
O O3 0.271912 0.736875 0.663635
O O4 0.176658 0.749999 0.692533
O O5 0.582997 0.225992 0.888231
O O6 0.500000 0.239113 0.000000
O O7 0.553116 0.000000 0.000000
O O8 0.500000 0.500000 0.361362
O O9 0.500000 0.723134 0.500000
O O10 0.452518 0.738600 0.313200
O O11 0.901498 0.231811 0.193702
O O12 0.000000 0.227099 0.165290
O O13 0.945859 0.000000 0.119845
O O14 0.937899 0.239340 0.000000
O O15 0.665360 0.212621 0.500000
O O16 0.638618 0.209992 0.289004
O O17 0.695220 0.000000 0.369278
O O18 0.913579 0.230857 0.396898
O O19 0.000000 0.242141 0.500000
O O20 0.948965 0.000000 0.500000
O O21 0.868428 0.000000 0.311212
O O22 0.426865 0.000000 0.751412
#
# Coordination Sequence:
#
# PCOD8193572 Si02
#       8
#     8   4   4   8   8   4   8   8
#     4  10  20  33  49  69  96 130 163 198 246 301
#     4   9  16  30  54  82 108 136 168 204 243 292
#     4  11  23  34  47  74 112 145 172 207 250 295
#     4   8  14  25  43  69  97 122 152 194 241 284
#     4   9  18  32  52  76  98 123 164 212 253 293
#     4   9  16  24  39  69 101 125 153 192 239 284
#     4  10  17  27  47  71  96 125 158 198 238 285
#     4  10  19  34  56  79 104 136 172 209 249 296
#
# _framework density 17.250509999999998
#
# number of rings (size 3 to 8) (size 9 to 14) (size 15 to 20)
#    0.000    2.538    1.538    2.077    0.000    4.308 
#    0.000    2.308    1.692    2.769    0.000    1.077 
#    0.000    0.000    0.000    0.000    0.000    0.000 
#
# Total GULP energy -644573.553024 kJ/mol
# GULP energy per Si atom -12395.645250 kJ/mol
# Density = 1.721125 g / cm^3
# Si number density = 17.250510 Si / 1000 Ang^3
#
#
#
# Elastic Constant Matrix: (Units=GPa)
#
#
# Indices 1 2 3 4 5 6 
#
# 1 153.3561 50.1189 85.7798 0.0000 0.0000 0.0000
# 2 50.1189 46.1964 36.3339 0.0000 0.0000 0.0000
# 3 85.7798 36.3339 127.6015 0.0000 0.0000 0.0000
# 4 0.0000 0.0000 0.0000 11.6469 0.0000 0.0000
# 5 0.0000 0.0000 0.0000 0.0000 19.2670 0.0000
# 6 0.0000 0.0000 0.0000 0.0000 0.0000 1.8463
#
#
#
# Elastic Compliance Matrix: (Units=1/GPa)
#
#
# Indices 1 2 3 4 5 6 
#
# 1 0.012941 -0.009274 -0.006058 0.000000 0.000000 0.000000
# 2 -0.009274 0.034540 -0.003601 0.000000 0.000000 0.000000
# 3 -0.006058 -0.003601 0.012935 0.000000 0.000000 0.000000
# 4 0.000000 0.000000 0.000000 0.085860 0.000000 0.000000
# 5 0.000000 0.000000 0.000000 0.000000 0.051902 0.000000
# 6 0.000000 0.000000 0.000000 0.000000 0.000000 0.541638
#
#
# Mechanical properties :
#
#
# Convention : Reuss Voigt Hill
#
# Bulk Modulus (GPa) = 44.34745 74.62437 59.48591
# Shear Modulus (GPa) = 6.36781 16.88012 11.62397
#
# Velocity S-wave (km/s) = 1.92338 3.13154 2.59865
# Velocity P-wave (km/s) = 5.54042 7.51189 6.60018
#
# Compressibility (1/GPa) = 0.02254921
#
# Stress axis : x y z
#
# Youngs Moduli (GPa) = 77.27667 28.95160 77.31020
#
# Poissons Ratio (x) = 0.26851 0.46838
# Poissons Ratio (y) = 0.71669 0.27836
# Poissons Ratio (z) = 0.46817 0.10424
#
# Static dielectric constant tensor:
#      x y z
#    x 3.299340 0.000000 0.000000 
#    y 0.000000 2.881900 0.000000 
#    z 0.000000 0.000000 3.457960 
# 
# 
# High freq. dielectric constant tensor:
#      x y z
#    x 1.671290 0.000000 0.000000 
#    y 0.000000 1.630470 0.000000 
#    z 0.000000 0.000000 1.661080 
# 
# From -- ./inp_files/19842.got.cif
#   From: 2010.03.12/outbox.cif.g09.slc.cpg/sg47_10_cif.got.tgz:19842.got - 2010.04.14 03:12:58.
