data_PCOD8193323
_publ_section_title
;
Structure prediction by ZEFSAII (Michael W. Deem and Ramdas Pophale) SiO2 
 PCOD8193323
Probable space group: I M A 2
;
_chemical_formula_sum "Si O2"
_cell_formula_units_Z 48
_cell_length_a 8.389226
_cell_length_b 27.917758
_cell_length_c 10.252951
_cell_angle_alpha 90.000000
_cell_angle_beta 90.000000
_cell_angle_gamma 90.000000
_cell_volume 2401.327057
_symmetry_space_group_name_H-M "I M A 2"
_symmetry_group_IT_number 46
_symmetry_cell_setting 'orthorhombic'
loop_
_space_group_symop_operation_xyz
x,y,z
-x,-y,z
1/2-x,y,z
1/2+x,-y,z
1/2+x,1/2+y,1/2+z
1/2-x,1/2-y,1/2+z
-x,1/2+y,1/2+z
x,1/2-y,1/2+z
loop_
_atom_site_type_symbol
_atom_site_label
_atom_site_fract_x
_atom_site_fract_y
_atom_site_fract_z
Si Si1 0.435246 0.147664 0.152030
Si Si2 0.934180 0.358329 0.175604
Si Si3 0.063530 0.551504 0.570475
Si Si4 0.564459 0.950401 0.785411
Si Si5 0.933673 0.690845 0.927883
Si Si6 0.065467 0.794431 0.916600
O O1 0.250000 0.156608 0.122238
O O2 0.473105 0.091232 0.156293
O O3 0.486854 0.170599 0.288555
O O4 0.541353 0.171728 0.040556
O O5 0.750000 0.370736 0.196152
O O6 0.993176 0.321696 0.286930
O O7 0.033565 0.407567 0.184291
O O8 0.959563 0.334884 0.035650
O O9 0.250000 0.555122 0.596978
O O10 0.000000 0.500000 0.616143
O O11 0.029227 0.560660 0.418403
O O12 0.750000 0.955293 0.818057
O O13 0.500000 0.000000 0.723649
O O14 0.750000 0.679523 0.957224
O O15 0.959390 0.747471 0.931981
O O16 0.250000 0.779764 0.905871
#
# Coordination Sequence:
#
# PCOD8193323 Si02
#       6
#     8   8   8   8   8   8
#     4  11  23  40  62  89 121 158 201 248 300 356
#     4  11  23  40  62  90 122 158 202 247 299 356
#     4  11  21  36  60  90 121 154 197 245 297 352
#     4  11  21  36  61  90 122 155 196 246 296 350
#     4  11  25  41  59  86 122 161 202 247 302 358
#     4  11  23  39  62  89 118 156 204 251 298 354
#
# _framework density 19.988947
#
# number of rings (size 3 to 8) (size 9 to 14) (size 15 to 20)
#    0.000    1.000    1.667    7.000    0.000    7.333 
#    0.000    0.833    0.000    4.000    0.000    0.000 
#    0.000    0.000    0.000    0.000    0.000    0.000 
#
# Total GULP energy -297797.720270 kJ/mol
# GULP energy per Si atom -12408.238345 kJ/mol
# Density = 1.994345 g / cm^3
# Si number density = 19.988947 Si / 1000 Ang^3
#
#
#
# Elastic Constant Matrix: (Units=GPa)
#
#
# Indices 1 2 3 4 5 6 
#
# 1 63.2959 17.1026 21.4296 0.0021 0.0008 0.0001
# 2 17.1026 129.5133 38.0680 -0.0048 -0.0034 -0.0011
# 3 21.4296 38.0680 90.4476 -0.0010 -0.0051 -0.0030
# 4 0.0021 -0.0048 -0.0010 -4.4480 -0.0009 -0.0009
# 5 0.0008 -0.0034 -0.0051 -0.0009 22.7813 -0.0001
# 6 0.0001 -0.0011 -0.0030 -0.0009 -0.0001 35.5337
#
#
#
# Elastic Compliance Matrix: (Units=1/GPa)
#
#
# Indices 1 2 3 4 5 6 
#
# 1 0.017348 -0.001236 -0.003590 0.000010 -0.000002 0.000000
# 2 -0.001236 0.008899 -0.003453 -0.000009 0.000001 0.000000
# 3 -0.003590 -0.003453 0.013360 -0.000001 0.000003 0.000001
# 4 0.000010 -0.000009 -0.000001 -0.224821 -0.000008 -0.000006
# 5 -0.000002 0.000001 0.000003 -0.000008 0.043896 0.000000
# 6 0.000000 0.000000 0.000001 -0.000006 0.000000 0.028142
#
#
# Mechanical properties :
#
#
# Convention : Reuss Voigt Hill
#
# Bulk Modulus (GPa) = 43.38364 48.49524 45.93944
# Shear Modulus (GPa) = -56.22075 24.55051 -15.83512
#
# Velocity S-wave (km/s) = -5.30914 3.50838 -2.81765
# Velocity P-wave (km/s) = 3.97891 6.38164 3.52800
#
# Compressibility (1/GPa) = 0.02305016
#
# Stress axis : x y z
#
# Youngs Moduli (GPa) = 57.64288 112.36878 74.85038
#
# Poissons Ratio (x) = 0.13884 0.26873
# Poissons Ratio (y) = 0.07122 0.25844
# Poissons Ratio (z) = 0.20695 0.38799
#
# Static dielectric constant tensor:
#      x y z
#    x 3.573100 0.000000 0.000000 
#    y 0.000000 3.906670 0.000000 
#    z 0.000000 0.000000 3.417580 
# 
# 
# High freq. dielectric constant tensor:
#      x y z
#    x 1.792420 0.000000 0.000000 
#    y 0.000000 1.796160 0.000000 
#    z 0.000000 0.000000 1.757450 
# 
# From -- ./inp_files/3908.got.cif
#   From: 2010.03.12/outbox.cif.g09.slc.cpg/sg46_2_cif.got.tgz:3908.got - 2010.04.14 02:56:35.
