data_PCOD8193850
_publ_section_title
;
Structure prediction by ZEFSAII (Michael W. Deem and Ramdas Pophale) SiO2 
 PCOD8193850
Probable space group: P M M M
;
_chemical_formula_sum "Si O2"
_cell_formula_units_Z 56
_cell_length_a 16.777457
_cell_length_b 9.182265
_cell_length_c 29.069116
_cell_angle_alpha 90.000000
_cell_angle_beta 90.000000
_cell_angle_gamma 90.000000
_cell_volume 4478.244299
_symmetry_space_group_name_H-M "P M M M"
_symmetry_group_IT_number 47
_symmetry_cell_setting 'orthorhombic'
loop_
_space_group_symop_operation_xyz
x,y,z
-x,-y,z
x,-y,-z
-x,y,-z
-x,-y,-z
x,y,-z
-x,y,z
x,-y,z
loop_
_atom_site_type_symbol
_atom_site_label
_atom_site_fract_x
_atom_site_fract_y
_atom_site_fract_z
Si Si1 0.000000 0.664565 0.554527
Si Si2 0.595494 0.664237 0.852889
Si Si3 0.309725 0.328286 0.413689
Si Si4 0.588432 0.672602 0.500000
Si Si5 0.594872 0.836498 0.234334
Si Si6 0.591113 0.330326 0.676039
Si Si7 0.157762 0.171264 0.553760
Si Si8 0.589404 0.673130 0.048710
O O1 0.077436 0.751832 0.571592
O O2 0.000000 0.500000 0.574617
O O3 0.000000 0.659264 0.500000
O O4 0.500000 0.668229 0.854234
O O5 0.625136 0.500000 0.843864
O O6 0.629948 0.762776 0.811786
O O7 0.628659 0.724975 0.902677
O O8 0.291707 0.500000 0.417713
O O9 0.365835 0.273174 0.454889
O O10 0.353844 0.287665 0.366674
O O11 0.228142 0.239157 0.415936
O O12 0.582105 0.500000 0.500000
O O13 0.500000 0.741244 0.500000
O O14 0.500000 0.830878 0.232688
O O15 0.625067 0.752947 0.279549
O O16 0.627508 0.000000 0.236465
O O17 0.500000 0.285108 0.664673
O O18 0.595751 0.500000 0.687192
O O19 0.173138 0.204737 0.500000
O O20 0.150851 0.000000 0.562940
O O21 0.500000 0.735191 0.046473
O O22 0.586376 0.500000 0.051390
O O23 0.632561 0.721019 0.000000
#
# Coordination Sequence:
#
# PCOD8193850 Si02
#       8
#     4   8   8   4   8   8   8   8
#     4   9  17  29  47  65  79  95 117 139 159 185
#     4   8  12  18  29  42  54  70  93 122 154 189
#     4  10  18  28  43  59  74  92 116 143 170 202
#     4   9  16  26  41  58  73  90 115 145 172 199
#     4   9  16  24  33  44  58  77 101 131 167 204
#     4   9  17  28  40  53  67  85 113 147 178 205
#     4  10  19  30  43  60  82 101 115 132 160 197
#     4   7   9  13  22  37  54  69  87 113 146 185
#
# _framework density 12.504901
#
# number of rings (size 3 to 8) (size 9 to 14) (size 15 to 20)
#    0.000    3.143    0.714    2.786    0.000    5.429 
#    0.000    0.000    0.000    2.143    0.000    3.000 
#    0.000    0.000    0.000    0.000    0.000    0.000 
#
# Total GULP energy -693840.174152 kJ/mol
# GULP energy per Si atom -12390.003110 kJ/mol
# Density = 1.247644 g / cm^3
# Si number density = 12.504901 Si / 1000 Ang^3
#
#
#
# Elastic Constant Matrix: (Units=GPa)
#
#
# Indices 1 2 3 4 5 6 
#
# 1 56.6112 28.1206 32.5912 0.0000 0.0000 0.0000
# 2 28.1206 57.8683 46.1152 0.0000 0.0000 0.0000
# 3 32.5912 46.1152 120.0652 0.0000 0.0000 0.0000
# 4 0.0000 0.0000 0.0000 7.6864 0.0000 0.0000
# 5 0.0000 0.0000 0.0000 0.0000 1.1428 0.0000
# 6 0.0000 0.0000 0.0000 0.0000 0.0000 10.5935
#
#
#
# Elastic Compliance Matrix: (Units=1/GPa)
#
#
# Indices 1 2 3 4 5 6 
#
# 1 0.023980 -0.009317 -0.002931 0.000000 0.000000 0.000000
# 2 -0.009317 0.028523 -0.008426 0.000000 0.000000 0.000000
# 3 -0.002931 -0.008426 0.012361 0.000000 0.000000 0.000000
# 4 0.000000 0.000000 0.000000 0.130100 0.000000 0.000000
# 5 0.000000 0.000000 0.000000 0.000000 0.875008 0.000000
# 6 0.000000 0.000000 0.000000 0.000000 0.000000 0.094398
#
#
# Mechanical properties :
#
#
# Convention : Reuss Voigt Hill
#
# Bulk Modulus (GPa) = 42.52542 49.79987 46.16264
# Shear Modulus (GPa) = 4.12012 12.39904 8.25958
#
# Velocity S-wave (km/s) = 1.81713 3.15228 2.57282
# Velocity P-wave (km/s) = 6.20350 7.29108 6.76917
#
# Compressibility (1/GPa) = 0.02351535
#
# Stress axis : x y z
#
# Youngs Moduli (GPa) = 41.70194 35.05925 80.90198
#
# Poissons Ratio (x) = 0.32666 0.23708
# Poissons Ratio (y) = 0.38855 0.68169
# Poissons Ratio (z) = 0.12221 0.29541
#
# Static dielectric constant tensor:
#      x y z
#    x 2.190280 0.000000 0.000000 
#    y 0.000000 2.488690 0.000000 
#    z 0.000000 0.000000 2.774050 
# 
# 
# High freq. dielectric constant tensor:
#      x y z
#    x 1.412850 0.000000 0.000000 
#    y 0.000000 1.467320 0.000000 
#    z 0.000000 0.000000 1.474340 
# 
# From -- ./inp_files/34645.got.cif
#   From: 2010.03.12/outbox.cif.g09.slc.cpg/sg47_18_cif.got.tgz:34645.got - 2010.04.14 03:12:58.
