data_PCOD8193937
_publ_section_title
;
Structure prediction by ZEFSAII (Michael W. Deem and Ramdas Pophale) SiO2 
 PCOD8193937
Probable space group: P M M M
;
_chemical_formula_sum "Si O2"
_cell_formula_units_Z 52
_cell_length_a 24.472379
_cell_length_b 8.912054
_cell_length_c 13.348545
_cell_angle_alpha 90.000000
_cell_angle_beta 90.000000
_cell_angle_gamma 90.000000
_cell_volume 2911.306494
_symmetry_space_group_name_H-M "P M M M"
_symmetry_group_IT_number 47
_symmetry_cell_setting 'orthorhombic'
loop_
_space_group_symop_operation_xyz
x,y,z
-x,-y,z
x,-y,-z
-x,y,-z
-x,-y,-z
x,y,-z
-x,y,z
x,-y,z
loop_
_atom_site_type_symbol
_atom_site_label
_atom_site_fract_x
_atom_site_fract_y
_atom_site_fract_z
Si Si1 0.739007 0.829656 0.611469
Si Si2 0.559569 0.822039 0.887109
Si Si3 0.937995 0.821341 0.000000
Si Si4 0.670443 0.824563 0.798896
Si Si5 0.769708 0.669861 0.885329
Si Si6 0.872707 0.176694 0.193473
Si Si7 0.852534 0.676106 0.612354
O O1 0.715307 0.809039 0.500000
O O2 0.689189 0.790313 0.685484
O O3 0.789477 0.719319 0.630008
O O4 0.760033 0.000000 0.628750
O O5 0.500000 0.761116 0.850382
O O6 0.608315 0.765903 0.814364
O O7 0.557918 0.000000 0.886661
O O8 0.571057 0.764790 0.000000
O O9 0.909309 0.759597 0.898508
O O10 0.000000 0.763215 0.000000
O O11 0.934662 0.000000 0.000000
O O12 0.708786 0.733028 0.874568
O O13 0.675052 0.000000 0.825572
O O14 0.773573 0.500000 0.844054
O O15 0.809987 0.777223 0.823652
O O16 0.787450 0.675317 0.000000
O O17 0.890143 0.245914 0.301675
O O18 0.878508 0.000000 0.200277
O O19 0.870887 0.727345 0.500000
O O20 0.859075 0.500000 0.624314
#
# Coordination Sequence:
#
# PCOD8193937 Si02
#       7
#     8   8   4   8   8   8   8
#     4   9  17  28  42  64  95 127 161 201 246 297
#     4   8  14  25  41  62  87 116 156 207 253 295
#     4   9  20  38  59  83 109 139 176 217 256 295
#     4  10  18  28  46  68  90 123 165 205 249 302
#     4  11  22  32  44  68 104 136 160 198 253 306
#     4  11  20  33  55  79 105 137 172 210 252 301
#     4  10  20  33  50  74 106 141 174 210 255 305
#
# _framework density 17.861398000000001
#
# number of rings (size 3 to 8) (size 9 to 14) (size 15 to 20)
#    0.000    2.231    2.308    2.308    0.000    2.462 
#    0.000    0.000    0.000    5.077    0.000    8.615 
#    0.000    0.000    0.000    5.231    0.000    5.692 
#
# Total GULP energy -644529.182154 kJ/mol
# GULP energy per Si atom -12394.791965 kJ/mol
# Density = 1.782074 g / cm^3
# Si number density = 17.861398 Si / 1000 Ang^3
#
#
#
# Elastic Constant Matrix: (Units=GPa)
#
#
# Indices 1 2 3 4 5 6 
#
# 1 82.4503 19.0266 50.7245 0.0000 0.0000 0.0000
# 2 19.0266 49.6479 38.1170 0.0000 0.0000 0.0000
# 3 50.7245 38.1170 140.2582 0.0000 0.0000 0.0000
# 4 0.0000 0.0000 0.0000 24.6355 0.0000 0.0000
# 5 0.0000 0.0000 0.0000 0.0000 18.6008 0.0000
# 6 0.0000 0.0000 0.0000 0.0000 0.0000 2.8285
#
#
#
# Elastic Compliance Matrix: (Units=1/GPa)
#
#
# Indices 1 2 3 4 5 6 
#
# 1 0.015771 -0.002104 -0.005132 0.000000 0.000000 0.000000
# 2 -0.002104 0.025733 -0.006232 0.000000 0.000000 0.000000
# 3 -0.005132 -0.006232 0.010679 0.000000 0.000000 0.000000
# 4 0.000000 0.000000 0.000000 0.040592 0.000000 0.000000
# 5 0.000000 0.000000 0.000000 0.000000 0.053761 0.000000
# 6 0.000000 0.000000 0.000000 0.000000 0.000000 0.353544
#
#
# Mechanical properties :
#
#
# Convention : Reuss Voigt Hill
#
# Bulk Modulus (GPa) = 39.60848 54.23249 46.92049
# Shear Modulus (GPa) = 9.33825 20.17886 14.75856
#
# Velocity S-wave (km/s) = 2.28900 3.36482 2.87763
# Velocity P-wave (km/s) = 5.40459 6.74721 6.11288
#
# Compressibility (1/GPa) = 0.02524712
#
# Stress axis : x y z
#
# Youngs Moduli (GPa) = 63.40646 38.86057 93.63836
#
# Poissons Ratio (x) = 0.08176 0.48054
# Poissons Ratio (y) = 0.13341 0.58359
# Poissons Ratio (z) = 0.32540 0.24219
#
# Static dielectric constant tensor:
#      x y z
#    x 3.247820 0.000000 0.000000 
#    y 0.000000 3.100240 0.000000 
#    z 0.000000 0.000000 3.646190 
# 
# 
# High freq. dielectric constant tensor:
#      x y z
#    x 1.658240 0.000000 0.000000 
#    y 0.000000 1.670010 0.000000 
#    z 0.000000 0.000000 1.701670 
# 
# From -- ./inp_files/25452.got.cif
#   From: 2010.03.12/outbox.cif.g09.slc.cpg/sg47_13_cif.got.tgz:25452.got - 2010.04.14 03:12:58.
