data_PCOD8193847
_publ_section_title
;
Structure prediction by ZEFSAII (Michael W. Deem and Ramdas Pophale) SiO2 
 PCOD8193847
Probable space group: P M M M
;
_chemical_formula_sum "Si O2"
_cell_formula_units_Z 52
_cell_length_a 9.504603
_cell_length_b 28.546082
_cell_length_c 11.859670
_cell_angle_alpha 90.000000
_cell_angle_beta 90.000000
_cell_angle_gamma 90.000000
_cell_volume 3217.755899
_symmetry_space_group_name_H-M "P M M M"
_symmetry_group_IT_number 47
_symmetry_cell_setting 'orthorhombic'
loop_
_space_group_symop_operation_xyz
x,y,z
-x,-y,z
x,-y,-z
-x,y,-z
-x,-y,-z
x,y,-z
-x,y,z
x,-y,z
loop_
_atom_site_type_symbol
_atom_site_label
_atom_site_fract_x
_atom_site_fract_y
_atom_site_fract_z
Si Si1 0.167110 0.640035 0.242843
Si Si2 0.835256 0.733394 0.368270
Si Si3 0.654271 0.000000 0.866103
Si Si4 0.834296 0.335207 0.000000
Si Si5 0.660523 0.193670 0.232886
Si Si6 0.331411 0.899624 0.126701
Si Si7 0.832631 0.551338 0.373005
Si Si8 0.654689 0.754009 0.000000
O O1 0.222892 0.686970 0.304504
O O2 0.232621 0.593253 0.298604
O O3 0.000000 0.639257 0.253998
O O4 0.216765 0.638254 0.112649
O O5 0.803168 0.727196 0.500000
O O6 0.756563 0.779207 0.322385
O O7 0.000000 0.740177 0.345119
O O8 0.729291 0.049352 0.831466
O O9 0.500000 0.000000 0.810027
O O10 0.639315 0.000000 0.000000
O O11 0.776694 0.283383 0.000000
O O12 0.000000 0.329946 0.000000
O O13 0.500000 0.195579 0.276958
O O14 0.714954 0.140102 0.216996
O O15 0.673071 0.214758 0.109217
O O16 0.500000 0.901548 0.121800
O O17 0.275288 0.888406 0.000000
O O18 0.777990 0.558275 0.500000
O O19 0.784092 0.500000 0.327622
O O20 0.000000 0.553946 0.370779
O O21 0.500000 0.730024 0.000000
#
# Coordination Sequence:
#
# PCOD8193847 Si02
#       8
#     8   8   4   4   8   8   8   4
#     4   9  16  26  40  59  83 110 141 174 210 253
#     4  10  20  32  45  61  84 115 148 181 216 254
#     4   7  10  16  30  54  84 113 138 164 199 248
#     4  10  18  28  43  62  85 115 145 174 209 254
#     4  10  18  28  44  65  90 116 143 176 213 253
#     4   8  12  20  35  58  87 115 139 166 205 253
#     4   8  13  22  37  56  79 109 142 173 209 255
#     4  10  18  28  42  62  89 119 146 172 205 250
#
# _framework density 16.160330999999999
#
# number of rings (size 3 to 8) (size 9 to 14) (size 15 to 20)
#    0.000    3.000    2.308    1.846    0.000    2.154 
#    0.000    0.385    0.000    2.308    0.000    1.077 
#    0.000    9.231    0.000    8.462    0.000    7.692 
#
# Total GULP energy -644194.875806 kJ/mol
# GULP energy per Si atom -12388.362996 kJ/mol
# Density = 1.612355 g / cm^3
# Si number density = 16.160331 Si / 1000 Ang^3
#
#
#
# Elastic Constant Matrix: (Units=GPa)
#
#
# Indices 1 2 3 4 5 6 
#
# 1 16.3916 23.0186 23.0060 0.0000 0.0000 0.0000
# 2 23.0186 162.5029 65.6993 0.0000 0.0000 0.0000
# 3 23.0060 65.6993 92.8711 0.0000 0.0000 0.0000
# 4 0.0000 0.0000 0.0000 34.6241 0.0000 0.0000
# 5 0.0000 0.0000 0.0000 0.0000 19.6163 0.0000
# 6 0.0000 0.0000 0.0000 0.0000 0.0000 12.9168
#
#
#
# Elastic Compliance Matrix: (Units=1/GPa)
#
#
# Indices 1 2 3 4 5 6 
#
# 1 0.097082 -0.005643 -0.020058 0.000000 0.000000 0.000000
# 2 -0.005643 0.008947 -0.004931 0.000000 0.000000 0.000000
# 3 -0.020058 -0.004931 0.019225 0.000000 0.000000 0.000000
# 4 0.000000 0.000000 0.000000 0.028882 0.000000 0.000000
# 5 0.000000 0.000000 0.000000 0.000000 0.050978 0.000000
# 6 0.000000 0.000000 0.000000 0.000000 0.000000 0.077418
#
#
# Mechanical properties :
#
#
# Convention : Reuss Voigt Hill
#
# Bulk Modulus (GPa) = 15.62725 55.02372 35.32549
# Shear Modulus (GPa) = 13.69395 24.10090 18.89742
#
# Velocity S-wave (km/s) = 2.91414 3.86600 3.42332
# Velocity P-wave (km/s) = 4.58411 7.35191 6.12636
#
# Compressibility (1/GPa) = 0.06399078
#
# Stress axis : x y z
#
# Youngs Moduli (GPa) = 10.30056 111.77262 52.01607
#
# Poissons Ratio (x) = 0.63068 1.04331
# Poissons Ratio (y) = 0.05812 0.25651
# Poissons Ratio (z) = 0.20660 0.55119
#
# Static dielectric constant tensor:
#      x y z
#    x 2.579060 0.000000 0.000000 
#    y 0.000000 3.568280 0.000000 
#    z 0.000000 0.000000 3.015190 
# 
# 
# High freq. dielectric constant tensor:
#      x y z
#    x 1.559210 0.000000 0.000000 
#    y 0.000000 1.635240 0.000000 
#    z 0.000000 0.000000 1.601110 
# 
# From -- ./inp_files/15713.got.cif
#   From: 2010.03.12/outbox.cif.g09.slc.cpg/sg47_8_cif.got.tgz:15713.got - 2010.04.14 03:12:58.
