data_PCOD8193793
_publ_section_title
;
Structure prediction by ZEFSAII (Michael W. Deem and Ramdas Pophale) SiO2 
 PCOD8193793
Probable space group: P M M M
;
_chemical_formula_sum "Si O2"
_cell_formula_units_Z 48
_cell_length_a 8.844076
_cell_length_b 24.166678
_cell_length_c 13.894031
_cell_angle_alpha 90.000000
_cell_angle_beta 90.000000
_cell_angle_gamma 90.000000
_cell_volume 2969.598157
_symmetry_space_group_name_H-M "P M M M"
_symmetry_group_IT_number 47
_symmetry_cell_setting 'orthorhombic'
loop_
_space_group_symop_operation_xyz
x,y,z
-x,-y,z
x,-y,-z
-x,y,-z
-x,-y,-z
x,y,-z
-x,y,z
x,-y,z
loop_
_atom_site_type_symbol
_atom_site_label
_atom_site_fract_x
_atom_site_fract_y
_atom_site_fract_z
Si Si1 0.820433 0.061037 0.892276
Si Si2 0.677737 0.332841 0.711834
Si Si3 0.679260 0.223068 0.608839
Si Si4 0.179110 0.832789 0.217718
Si Si5 0.676849 0.733308 0.891026
Si Si6 0.320052 0.439199 0.608970
O O1 0.759851 0.107898 0.819679
O O2 0.000000 0.063225 0.895167
O O3 0.766454 0.000000 0.857363
O O4 0.758180 0.072533 0.000000
O O5 0.500000 0.337534 0.698093
O O6 0.737296 0.283240 0.643828
O O7 0.719810 0.318917 0.822728
O O8 0.749644 0.391495 0.678461
O O9 0.734090 0.213092 0.500000
O O10 0.500000 0.219143 0.617993
O O11 0.751512 0.176346 0.676647
O O12 0.231175 0.786886 0.141282
O O13 0.000000 0.831067 0.225232
O O14 0.500000 0.747276 0.879796
O O15 0.719849 0.717347 0.000000
O O16 0.267274 0.426864 0.500000
O O17 0.500000 0.439042 0.613591
O O18 0.260518 0.500000 0.641703
#
# Coordination Sequence:
#
# PCOD8193793 Si02
#       6
#     8   8   8   8   8   8
#     4   8  14  25  41  61  84 108 132 159 196 243
#     4   8  13  22  36  53  74 103 137 166 194 235
#     4   9  17  29  44  60  81 112 143 166 195 241
#     4  10  18  27  43  66  87 105 130 168 209 242
#     4   9  17  28  41  57  80 111 141 166 197 242
#     4   8  12  17  28  49  75 100 127 163 205 243
#
# _framework density 16.163802
#
# number of rings (size 3 to 8) (size 9 to 14) (size 15 to 20)
#    0.000    3.333    0.000    3.500    0.000    3.333 
#    0.000    0.000    0.000    3.000    0.000   12.833 
#    0.000   10.667    0.000   42.667    0.000   40.000 
#
# Total GULP energy -594785.303658 kJ/mol
# GULP energy per Si atom -12391.360493 kJ/mol
# Density = 1.612701 g / cm^3
# Si number density = 16.163802 Si / 1000 Ang^3
#
#
#
# Elastic Constant Matrix: (Units=GPa)
#
#
# Indices 1 2 3 4 5 6 
#
# 1 17.6555 15.7900 20.1341 0.0000 0.0000 0.0000
# 2 15.7900 147.3248 87.5828 0.0000 0.0000 0.0000
# 3 20.1341 87.5828 148.0308 0.0000 0.0000 0.0000
# 4 0.0000 0.0000 0.0000 30.3260 0.0000 0.0000
# 5 0.0000 0.0000 0.0000 0.0000 16.9170 0.0000
# 6 0.0000 0.0000 0.0000 0.0000 0.0000 1.6354
#
#
#
# Elastic Compliance Matrix: (Units=1/GPa)
#
#
# Indices 1 2 3 4 5 6 
#
# 1 0.067753 -0.002751 -0.007588 0.000000 0.000000 0.000000
# 2 -0.002751 0.010582 -0.005887 0.000000 0.000000 0.000000
# 3 -0.007588 -0.005887 0.011270 0.000000 0.000000 0.000000
# 4 0.000000 0.000000 0.000000 0.032975 0.000000 0.000000
# 5 0.000000 0.000000 0.000000 0.000000 0.059112 0.000000
# 6 0.000000 0.000000 0.000000 0.000000 0.000000 0.611476
#
#
# Mechanical properties :
#
#
# Convention : Reuss Voigt Hill
#
# Bulk Modulus (GPa) = 17.49641 62.22501 39.86071
# Shear Modulus (GPa) = 5.91947 22.40930 14.16438
#
# Velocity S-wave (km/s) = 1.91576 3.72746 2.96345
# Velocity P-wave (km/s) = 3.96755 7.55681 6.03518
#
# Compressibility (1/GPa) = 0.05715459
#
# Stress axis : x y z
#
# Youngs Moduli (GPa) = 14.75953 94.49827 88.72837
#
# Poissons Ratio (x) = 0.25994 0.67325
# Poissons Ratio (y) = 0.04060 0.52233
# Poissons Ratio (z) = 0.11199 0.55630
#
# Static dielectric constant tensor:
#      x y z
#    x 2.618980 0.000000 0.000000 
#    y 0.000000 3.412700 0.000000 
#    z 0.000000 0.000000 3.198330 
# 
# 
# High freq. dielectric constant tensor:
#      x y z
#    x 1.576360 0.000000 0.000000 
#    y 0.000000 1.617180 0.000000 
#    z 0.000000 0.000000 1.616060 
# 
# From -- ./inp_files/6735.got.cif
#   From: 2010.03.12/outbox.cif.g09.slc.cpg/sg47_4_cif.got.tgz:6735.got - 2010.04.14 03:12:58.
