data_PCOD8193243
_publ_section_title
;
Structure prediction by ZEFSAII (Michael W. Deem and Ramdas Pophale) SiO2 
 PCOD8193243
Probable space group: I M A 2
;
_chemical_formula_sum "Si O2"
_cell_formula_units_Z 56
_cell_length_a 20.179941
_cell_length_b 14.273266
_cell_length_c 8.934996
_cell_angle_alpha 90.000000
_cell_angle_beta 90.000000
_cell_angle_gamma 90.000000
_cell_volume 2573.579651
_symmetry_space_group_name_H-M "I M A 2"
_symmetry_group_IT_number 46
_symmetry_cell_setting 'orthorhombic'
loop_
_space_group_symop_operation_xyz
x,y,z
-x,-y,z
1/2-x,y,z
1/2+x,-y,z
1/2+x,1/2+y,1/2+z
1/2-x,1/2-y,1/2+z
-x,1/2+y,1/2+z
x,1/2-y,1/2+z
loop_
_atom_site_type_symbol
_atom_site_label
_atom_site_fract_x
_atom_site_fract_y
_atom_site_fract_z
Si Si1 0.564362 0.952417 0.869020
Si Si2 0.114966 0.304109 0.587063
Si Si3 0.322808 0.940472 0.464151
Si Si4 0.174880 0.895586 0.800122
Si Si5 0.993519 0.298516 0.181883
Si Si6 0.825655 0.646713 0.901214
Si Si7 0.404034 0.780127 0.413494
O O1 0.531191 0.894098 0.731103
O O2 0.500000 0.000000 0.949523
O O3 0.618122 0.026329 0.814298
O O4 0.609775 0.893264 0.980963
O O5 0.131943 0.332343 0.754851
O O6 0.166748 0.228340 0.523843
O O7 0.042671 0.260610 0.581702
O O8 0.250000 0.943397 0.390720
O O9 0.318095 0.885986 0.622035
O O10 0.369026 0.876286 0.356983
O O11 0.349146 0.047673 0.473012
O O12 0.250000 0.919878 0.861308
O O13 0.148344 0.804859 0.891247
O O14 0.972071 0.240388 0.327823
O O15 0.926167 0.306587 0.084370
O O16 0.750000 0.642975 0.851283
#
# Coordination Sequence:
#
# PCOD8193243 Si02
#       7
#     8   8   8   8   8   8   8
#     4  12  23  43  69 101 141 181 241 293 356 430
#     4  12  24  44  67 102 136 175 235 293 355 421
#     4  10  23  43  67 100 139 181 234 290 355 431
#     4  11  24  43  70 103 142 193 238 295 367 432
#     4  12  23  41  69  97 138 181 231 291 351 417
#     4  11  25  45  70  99 138 186 235 291 359 430
#     4  12  22  44  68 102 137 182 235 288 357 423
#
# _framework density 21.759574000000001
#
# number of rings (size 3 to 8) (size 9 to 14) (size 15 to 20)
#    0.000    0.571    5.714    1.714    0.000    3.429 
#    0.000    2.857    0.000    0.000    0.000    0.000 
#    0.000    0.000    0.000    0.000    0.000    0.000 
#
# Total GULP energy -346895.050008 kJ/mol
# GULP energy per Si atom -12389.108929 kJ/mol
# Density = 2.171005 g / cm^3
# Si number density = 21.759574 Si / 1000 Ang^3
#
#
#
# Elastic Constant Matrix: (Units=GPa)
#
#
# Indices 1 2 3 4 5 6 
#
# 1 118.7858 46.1812 18.1915 0.0000 0.0000 0.0000
# 2 46.1812 130.8448 30.3590 0.0000 0.0000 0.0000
# 3 18.1915 30.3590 65.0135 0.0000 0.0000 0.0000
# 4 0.0000 0.0000 0.0000 18.4224 0.0000 0.0000
# 5 0.0000 0.0000 0.0000 0.0000 24.8261 0.0000
# 6 0.0000 0.0000 0.0000 0.0000 0.0000 39.2282
#
#
#
# Elastic Compliance Matrix: (Units=1/GPa)
#
#
# Indices 1 2 3 4 5 6 
#
# 1 0.009850 -0.003182 -0.001270 0.000000 0.000000 0.000000
# 2 -0.003182 0.009599 -0.003592 0.000000 0.000000 0.000000
# 3 -0.001270 -0.003592 0.017414 0.000000 0.000000 0.000000
# 4 0.000000 0.000000 0.000000 0.054282 0.000000 0.000000
# 5 0.000000 0.000000 0.000000 0.000000 0.040280 0.000000
# 6 0.000000 0.000000 0.000000 0.000000 0.000000 0.025492
#
#
# Mechanical properties :
#
#
# Convention : Reuss Voigt Hill
#
# Bulk Modulus (GPa) = 48.13514 56.01196 52.07355
# Shear Modulus (GPa) = 27.78844 31.15615 29.47230
#
# Velocity S-wave (km/s) = 3.57748 3.78807 3.68428
# Velocity P-wave (km/s) = 6.26370 6.70297 6.48705
#
# Compressibility (1/GPa) = 0.02077484
#
# Stress axis : x y z
#
# Youngs Moduli (GPa) = 101.52210 104.17640 57.42412
#
# Poissons Ratio (x) = 0.33147 0.07295
# Poissons Ratio (y) = 0.32302 0.20628
# Poissons Ratio (z) = 0.12897 0.37422
#
# Static dielectric constant tensor:
#      x y z
#    x 4.141880 0.000000 0.000000 
#    y 0.000000 4.140860 0.000000 
#    z 0.000000 0.000000 3.594700 
# 
# 
# High freq. dielectric constant tensor:
#      x y z
#    x 1.879250 0.000000 0.000000 
#    y 0.000000 1.859650 0.000000 
#    z 0.000000 0.000000 1.833500 
# 
# From -- ./inp_files/7393.got.cif
#   From: 2010.03.12/outbox.cif.g09.slc.cpg/sg46_4_cif.got.tgz:7393.got - 2010.04.14 02:56:35.
