data_PCOD8194512
_publ_section_title
;
Structure prediction by ZEFSAII (Michael W. Deem and Ramdas Pophale) SiO2 
 PCOD8194512
Probable space group: P M M M
;
_chemical_formula_sum "Si O2"
_cell_formula_units_Z 52
_cell_length_a 8.540591
_cell_length_b 28.274473
_cell_length_c 11.815370
_cell_angle_alpha 90.000000
_cell_angle_beta 90.000000
_cell_angle_gamma 90.000000
_cell_volume 2853.183932
_symmetry_space_group_name_H-M "P M M M"
_symmetry_group_IT_number 47
_symmetry_cell_setting 'orthorhombic'
loop_
_space_group_symop_operation_xyz
x,y,z
-x,-y,z
x,-y,-z
-x,y,-z
-x,-y,-z
x,y,-z
-x,y,z
x,-y,z
loop_
_atom_site_type_symbol
_atom_site_label
_atom_site_fract_x
_atom_site_fract_y
_atom_site_fract_z
Si Si1 0.816098 0.317474 0.272281
Si Si2 0.186714 0.859363 0.264224
Si Si3 0.813678 0.052445 0.872737
Si Si4 0.682560 0.716018 0.500000
Si Si5 0.813649 0.229916 0.874074
Si Si6 0.683028 0.598306 0.131502
Si Si7 0.824644 0.500000 0.866160
Si Si8 0.185798 0.178774 0.500000
O O1 0.729991 0.315266 0.392162
O O2 0.751439 0.274433 0.196376
O O3 0.779676 0.365800 0.208172
O O4 0.000000 0.312973 0.293374
O O5 0.253454 0.909080 0.216080
O O6 0.249005 0.817890 0.183151
O O7 0.250955 0.849187 0.390394
O O8 0.000000 0.860029 0.264894
O O9 0.000000 0.054023 0.871902
O O10 0.755433 0.000000 0.836723
O O11 0.754878 0.064246 0.000000
O O12 0.500000 0.725579 0.500000
O O13 0.766354 0.766668 0.500000
O O14 0.000000 0.230123 0.877809
O O15 0.743405 0.233041 0.000000
O O16 0.500000 0.605946 0.150678
O O17 0.730387 0.546153 0.174167
O O18 0.728898 0.605893 0.000000
O O19 0.000000 0.500000 0.814416
O O20 0.834362 0.500000 0.000000
O O21 0.000000 0.178514 0.500000
#
# Coordination Sequence:
#
# PCOD8194512 Si02
#       8
#     8   8   8   4   8   8   4   4
#     4  11  21  35  54  76 103 135 177 221 260 311
#     4   9  15  24  40  61  90 126 167 206 247 300
#     4   8  13  21  34  56  90 129 163 198 249 312
#     4  12  24  38  54  72  98 135 176 216 267 322
#     4   9  16  25  42  69  96 123 159 204 251 301
#     4  10  20  34  53  81 117 150 178 217 271 320
#     4   9  17  31  53  80 109 146 191 229 262 309
#     4  10  18  32  49  68  91 127 170 212 255 304
#
# _framework density 18.225252999999999
#
# number of rings (size 3 to 8) (size 9 to 14) (size 15 to 20)
#    0.000    2.385    1.538    3.231    0.000    4.308 
#    0.000    0.385    0.000    2.769    0.000    3.231 
#    0.000    1.231    0.000    1.692    0.000    1.538 
#
# Total GULP energy -644699.452037 kJ/mol
# GULP energy per Si atom -12398.066385 kJ/mol
# Density = 1.818377 g / cm^3
# Si number density = 18.225253 Si / 1000 Ang^3
#
#
#
# Elastic Constant Matrix: (Units=GPa)
#
#
# Indices 1 2 3 4 5 6 
#
# 1 24.5913 3.8571 13.0923 0.0000 0.0000 0.0000
# 2 3.8571 136.5567 63.6864 0.0000 0.0000 0.0000
# 3 13.0923 63.6864 131.1739 0.0000 0.0000 0.0000
# 4 0.0000 0.0000 0.0000 16.8412 0.0000 0.0000
# 5 0.0000 0.0000 0.0000 0.0000 13.3068 0.0000
# 6 0.0000 0.0000 0.0000 0.0000 0.0000 5.0435
#
#
#
# Elastic Compliance Matrix: (Units=1/GPa)
#
#
# Indices 1 2 3 4 5 6 
#
# 1 0.043056 0.001019 -0.004792 0.000000 0.000000 0.000000
# 2 0.001019 0.009491 -0.004709 0.000000 0.000000 0.000000
# 3 -0.004792 -0.004709 0.010388 0.000000 0.000000 0.000000
# 4 0.000000 0.000000 0.000000 0.059378 0.000000 0.000000
# 5 0.000000 0.000000 0.000000 0.000000 0.075150 0.000000
# 6 0.000000 0.000000 0.000000 0.000000 0.000000 0.198276
#
#
# Mechanical properties :
#
#
# Convention : Reuss Voigt Hill
#
# Bulk Modulus (GPa) = 21.75352 50.39928 36.07640
# Shear Modulus (GPa) = 11.68151 21.15071 16.41611
#
# Velocity S-wave (km/s) = 2.53445 3.41033 3.00448
# Velocity P-wave (km/s) = 4.53061 6.57425 5.64567
#
# Compressibility (1/GPa) = 0.04596956
#
# Stress axis : x y z
#
# Youngs Moduli (GPa) = 23.22548 105.36792 96.26270
#
# Poissons Ratio (x) = -0.10734 0.46129
# Poissons Ratio (y) = -0.02366 0.45334
# Poissons Ratio (z) = 0.11130 0.49623
#
# Static dielectric constant tensor:
#      x y z
#    x 2.943850 0.000000 0.000000 
#    y 0.000000 3.566850 0.000000 
#    z 0.000000 0.000000 3.518920 
# 
# 
# High freq. dielectric constant tensor:
#      x y z
#    x 1.665460 0.000000 0.000000 
#    y 0.000000 1.712440 0.000000 
#    z 0.000000 0.000000 1.698220 
# 
# From -- ./inp_files/15513.got.cif
#   From: 2010.03.12/outbox.cif.g09.slc.cpg/sg47_8_cif.got.tgz:15513.got - 2010.04.14 03:12:58.
