data_PCOD8194553
_publ_section_title
;
Structure prediction by ZEFSAII (Michael W. Deem and Ramdas Pophale) SiO2 
 PCOD8194553
Probable space group: P M M M
;
_chemical_formula_sum "Si O2"
_cell_formula_units_Z 64
_cell_length_a 25.843242
_cell_length_b 9.276584
_cell_length_c 14.470649
_cell_angle_alpha 90.000000
_cell_angle_beta 90.000000
_cell_angle_gamma 90.000000
_cell_volume 3469.150055
_symmetry_space_group_name_H-M "P M M M"
_symmetry_group_IT_number 47
_symmetry_cell_setting 'orthorhombic'
loop_
_space_group_symop_operation_xyz
x,y,z
-x,-y,z
x,-y,-z
-x,y,-z
-x,-y,-z
x,y,-z
-x,y,z
x,-y,z
loop_
_atom_site_type_symbol
_atom_site_label
_atom_site_fract_x
_atom_site_fract_y
_atom_site_fract_z
Si Si1 0.438545 0.161157 0.600826
Si Si2 0.651652 0.671016 0.897585
Si Si3 0.441607 0.330371 0.224244
Si Si4 0.252496 0.671189 0.776393
Si Si5 0.845899 0.328454 0.895951
Si Si6 0.113028 0.335376 0.397107
Si Si7 0.056697 0.330163 0.215831
Si Si8 0.218108 0.831342 0.604697
O O1 0.418071 0.213097 0.500000
O O2 0.500000 0.162385 0.599789
O O3 0.418538 0.266121 0.680811
O O4 0.418165 0.000000 0.620889
O O5 0.654623 0.500000 0.903176
O O6 0.595949 0.720137 0.858023
O O7 0.697858 0.726872 0.833077
O O8 0.657584 0.737622 0.000000
O O9 0.500000 0.275795 0.202473
O O10 0.440789 0.500000 0.236884
O O11 0.253172 0.500000 0.761346
O O12 0.201903 0.722498 0.832978
O O13 0.255002 0.748903 0.676914
O O14 0.846920 0.500000 0.898197
O O15 0.899212 0.266551 0.852074
O O16 0.839814 0.267421 0.000000
O O17 0.089275 0.318857 0.500000
O O18 0.132405 0.500000 0.380244
O O19 0.069592 0.293705 0.322570
O O20 0.160675 0.229338 0.383227
O O21 0.054427 0.500000 0.201276
O O22 0.000000 0.263474 0.192824
O O23 0.238086 0.803122 0.500000
O O24 0.217512 0.000000 0.627599
#
# Coordination Sequence:
#
# PCOD8194553 Si02
#       8
#     8   8   8   8   8   8   8   8
#     4   8  14  26  45  68  94 127 166 203 239 282
#     4   9  18  32  51  76 102 128 162 205 247 285
#     4   9  17  29  47  73 103 133 164 199 242 291
#     4  10  18  32  54  75  95 123 162 203 239 282
#     4   9  16  26  43  68  94 121 156 199 245 286
#     4   9  16  28  47  70  96 127 163 200 239 287
#     4   9  16  25  39  66 101 129 157 198 245 288
#     4  10  20  33  51  75 101 128 157 193 242 295
#
# _framework density 18.448322999999998
#
# number of rings (size 3 to 8) (size 9 to 14) (size 15 to 20)
#    0.000    2.875    1.250    1.125    0.000    3.250 
#    0.000    6.250    0.000    6.750    0.000    3.500 
#    0.000    1.000    0.000    0.000    0.000    0.000 
#
# Total GULP energy -793227.461608 kJ/mol
# GULP energy per Si atom -12394.179088 kJ/mol
# Density = 1.840633 g / cm^3
# Si number density = 18.448323 Si / 1000 Ang^3
#
#
#
# Elastic Constant Matrix: (Units=GPa)
#
#
# Indices 1 2 3 4 5 6 
#
# 1 109.2669 24.5538 68.8670 0.0000 0.0000 0.0000
# 2 24.5538 33.8007 37.0252 0.0000 0.0000 0.0000
# 3 68.8670 37.0252 149.3401 0.0000 0.0000 0.0000
# 4 0.0000 0.0000 0.0000 10.6052 0.0000 0.0000
# 5 0.0000 0.0000 0.0000 0.0000 28.1695 0.0000
# 6 0.0000 0.0000 0.0000 0.0000 0.0000 6.4844
#
#
#
# Elastic Compliance Matrix: (Units=1/GPa)
#
#
# Indices 1 2 3 4 5 6 
#
# 1 0.013291 -0.004038 -0.005128 0.000000 0.000000 0.000000
# 2 -0.004038 0.041842 -0.008512 0.000000 0.000000 0.000000
# 3 -0.005128 -0.008512 0.011171 0.000000 0.000000 0.000000
# 4 0.000000 0.000000 0.000000 0.094293 0.000000 0.000000
# 5 0.000000 0.000000 0.000000 0.000000 0.035499 0.000000
# 6 0.000000 0.000000 0.000000 0.000000 0.000000 0.154215
#
#
# Mechanical properties :
#
#
# Convention : Reuss Voigt Hill
#
# Bulk Modulus (GPa) = 32.31095 61.47774 46.89434
# Shear Modulus (GPa) = 12.62678 19.84930 16.23804
#
# Velocity S-wave (km/s) = 2.61902 3.28371 2.97002
# Velocity P-wave (km/s) = 5.16701 6.91185 6.10212
#
# Compressibility (1/GPa) = 0.03094926
#
# Stress axis : x y z
#
# Youngs Moduli (GPa) = 75.23710 23.89938 89.51629
#
# Poissons Ratio (x) = 0.09650 0.45905
# Poissons Ratio (y) = 0.30380 0.76193
# Poissons Ratio (z) = 0.38582 0.20342
#
# Static dielectric constant tensor:
#      x y z
#    x 3.392550 0.000000 0.000000 
#    y 0.000000 2.984470 0.000000 
#    z 0.000000 0.000000 3.819150 
# 
# 
# High freq. dielectric constant tensor:
#      x y z
#    x 1.700460 0.000000 0.000000 
#    y 0.000000 1.661810 0.000000 
#    z 0.000000 0.000000 1.729980 
# 
# From -- ./inp_files/25560.got.cif
#   From: 2010.03.12/outbox.cif.g09.slc.cpg/sg47_13_cif.got.tgz:25560.got - 2010.04.14 03:12:58.
