data_PCOD8194962
_publ_section_title
;
Structure prediction by ZEFSAII (Michael W. Deem and Ramdas Pophale) SiO2 
 PCOD8194962
Probable space group: P M M M
;
_chemical_formula_sum "Si O2"
_cell_formula_units_Z 52
_cell_length_a 8.926413
_cell_length_b 24.980448
_cell_length_c 18.024492
_cell_angle_alpha 90.000000
_cell_angle_beta 90.000000
_cell_angle_gamma 90.000000
_cell_volume 4019.205692
_symmetry_space_group_name_H-M "P M M M"
_symmetry_group_IT_number 47
_symmetry_cell_setting 'orthorhombic'
loop_
_space_group_symop_operation_xyz
x,y,z
-x,-y,z
x,-y,-z
-x,y,-z
-x,-y,-z
x,y,-z
-x,y,z
x,-y,z
loop_
_atom_site_type_symbol
_atom_site_label
_atom_site_fract_x
_atom_site_fract_y
_atom_site_fract_z
Si Si1 0.331701 0.329064 0.911484
Si Si2 0.321911 0.443320 0.083152
Si Si3 0.172530 0.936902 0.727263
Si Si4 0.173289 0.777160 0.912854
Si Si5 0.830311 0.063286 0.000000
Si Si6 0.323102 0.881444 0.862832
Si Si7 0.667968 0.936503 0.581399
O O1 0.500000 0.317172 0.882767
O O2 0.269775 0.386768 0.879517
O O3 0.223777 0.281462 0.884909
O O4 0.332376 0.333137 0.000000
O O5 0.500000 0.440400 0.080138
O O6 0.272564 0.500000 0.123304
O O7 0.257363 0.445833 0.000000
O O8 0.275911 0.905701 0.784570
O O9 0.218753 0.916651 0.645097
O O10 0.000000 0.922364 0.741245
O O11 0.201031 0.000000 0.736691
O O12 0.267888 0.820518 0.867757
O O13 0.000000 0.784583 0.894213
O O14 0.206163 0.784847 0.000000
O O15 0.748616 0.083222 0.072911
O O16 0.000000 0.085808 0.000000
O O17 0.829626 0.000000 0.000000
O O18 0.500000 0.883291 0.871256
O O19 0.720491 0.915352 0.500000
O O20 0.500000 0.915595 0.598548
O O21 0.667022 0.000000 0.580033
#
# Coordination Sequence:
#
# PCOD8194962 Si02
#       7
#     8   8   8   8   4   8   8
#     4   8  13  21  34  50  66  83 109 142 172 209
#     4   7   9  14  26  45  66  85 104 130 166 205
#     4  10  20  32  45  61  81 101 119 143 178 220
#     4  10  19  30  42  52  67  89 115 149 188 225
#     4  11  23  37  49  59  73  91 112 143 186 231
#     4  12  23  33  46  59  72  92 121 154 185 221
#     4   8  14  26  44  64  84 103 121 141 166 201
#
# _framework density 12.93788
#
# number of rings (size 3 to 8) (size 9 to 14) (size 15 to 20)
#    0.000    2.692    0.769    4.846    0.000    4.308 
#    0.000    1.538    0.000    0.462    0.000    3.231 
#    0.000    0.000    0.000    0.000    0.000    0.000 
#
# Total GULP energy -644244.832402 kJ/mol
# GULP energy per Si atom -12389.323700 kJ/mol
# Density = 1.290843 g / cm^3
# Si number density = 12.937880 Si / 1000 Ang^3
#
#
#
# Elastic Constant Matrix: (Units=GPa)
#
#
# Indices 1 2 3 4 5 6 
#
# 1 78.4412 39.5602 28.1757 0.0000 0.0000 0.0000
# 2 39.5602 83.7042 26.8211 0.0000 0.0000 0.0000
# 3 28.1757 26.8211 54.8669 0.0000 0.0000 0.0000
# 4 0.0000 0.0000 0.0000 1191.7518 0.0000 0.0000
# 5 0.0000 0.0000 0.0000 0.0000 17.9791 0.0000
# 6 0.0000 0.0000 0.0000 0.0000 0.0000 10.6636
#
#
#
# Elastic Compliance Matrix: (Units=1/GPa)
#
#
# Indices 1 2 3 4 5 6 
#
# 1 0.018331 -0.006696 -0.006140 0.000000 0.000000 0.000000
# 2 -0.006696 0.016612 -0.004682 0.000000 0.000000 0.000000
# 3 -0.006140 -0.004682 0.023668 0.000000 0.000000 0.000000
# 4 0.000000 0.000000 0.000000 0.000839 0.000000 0.000000
# 5 0.000000 0.000000 0.000000 0.000000 0.055620 0.000000
# 6 0.000000 0.000000 0.000000 0.000000 0.000000 0.093777
#
#
# Mechanical properties :
#
#
# Convention : Reuss Voigt Hill
#
# Bulk Modulus (GPa) = 42.41914 45.12514 43.77214
# Shear Modulus (GPa) = 19.86173 252.24260 136.05217
#
# Velocity S-wave (km/s) = 3.92236 13.97811 10.26578
# Velocity P-wave (km/s) = 7.30556 17.18927 13.20686
#
# Compressibility (1/GPa) = 0.02357427
#
# Stress axis : x y z
#
# Youngs Moduli (GPa) = 54.55260 60.19859 42.25160
#
# Poissons Ratio (x) = 0.40309 0.25943
# Poissons Ratio (y) = 0.36529 0.19781
# Poissons Ratio (z) = 0.33496 0.28184
#
# Static dielectric constant tensor:
#      x y z
#    x 2.620590 0.000000 0.000000 
#    y 0.000000 2.851510 0.000000 
#    z 0.000000 0.000000 2.543260 
# 
# 
# High freq. dielectric constant tensor:
#      x y z
#    x 1.492920 0.000000 0.000000 
#    y 0.000000 1.484340 0.000000 
#    z 0.000000 0.000000 1.439080 
# 
# From -- ./inp_files/10106.got.cif
#   From: 2010.03.12/outbox.cif.g09.slc.cpg/sg47_6_cif.got.tgz:10106.got - 2010.04.14 03:12:58.
