data_PCOD8194090
_publ_section_title
;
Structure prediction by ZEFSAII (Michael W. Deem and Ramdas Pophale) SiO2 
 PCOD8194090
Probable space group: P M M M
;
_chemical_formula_sum "Si O2"
_cell_formula_units_Z 56
_cell_length_a 9.034946
_cell_length_b 20.571051
_cell_length_c 15.662470
_cell_angle_alpha 90.000000
_cell_angle_beta 90.000000
_cell_angle_gamma 90.000000
_cell_volume 2911.000595
_symmetry_space_group_name_H-M "P M M M"
_symmetry_group_IT_number 47
_symmetry_cell_setting 'orthorhombic'
loop_
_space_group_symop_operation_xyz
x,y,z
-x,-y,z
x,-y,-z
-x,y,-z
-x,-y,-z
x,y,-z
-x,y,z
x,-y,z
loop_
_atom_site_type_symbol
_atom_site_label
_atom_site_fract_x
_atom_site_fract_y
_atom_site_fract_z
Si Si1 0.329502 0.135053 0.406219
Si Si2 0.324311 0.927998 0.767821
Si Si3 0.324729 0.826008 0.094371
Si Si4 0.174274 0.428100 0.225060
Si Si5 0.673640 0.301490 0.185934
Si Si6 0.832180 0.741747 0.646665
Si Si7 0.832286 0.600851 0.409571
O O1 0.310825 0.101341 0.500000
O O2 0.500000 0.154796 0.391055
O O3 0.275247 0.088758 0.329194
O O4 0.230158 0.199167 0.408003
O O5 0.500000 0.927702 0.774071
O O6 0.256792 0.875977 0.835493
O O7 0.263008 0.000000 0.789625
O O8 0.500000 0.833582 0.096834
O O9 0.283494 0.750694 0.113043
O O10 0.263363 0.843450 0.000000
O O11 0.205931 0.500000 0.186479
O O12 0.249919 0.371769 0.168354
O O13 0.241276 0.426085 0.322163
O O14 0.000000 0.412611 0.227547
O O15 0.500000 0.313937 0.190416
O O16 0.727732 0.268804 0.272451
O O17 0.826708 0.678599 0.587736
O O18 0.000000 0.755893 0.676979
O O19 0.758017 0.576915 0.500000
O O20 0.000000 0.575614 0.409247
#
# Coordination Sequence:
#
# PCOD8194090 Si02
#       7
#     8   8   8   8   8   8   8
#     4  10  19  30  46  71 103 137 174 216 260 302
#     4   9  17  30  48  73 107 141 171 207 257 314
#     4   9  17  30  51  79 106 130 163 212 266 316
#     4   9  18  31  47  70 100 135 174 212 253 306
#     4  10  18  31  52  75 102 131 166 212 264 314
#     4  10  18  29  47  70  98 133 174 214 258 306
#     4   8  14  24  39  62  90 119 157 204 246 284
#
# _framework density 19.237371
#
# number of rings (size 3 to 8) (size 9 to 14) (size 15 to 20)
#    0.000    2.714    1.429    2.143    0.000    2.000 
#    0.000    4.286    0.000    6.429    0.000    8.000 
#    0.000    1.143    0.000    0.000    0.000    0.000 
#
# Total GULP energy -693748.313605 kJ/mol
# GULP energy per Si atom -12388.362743 kJ/mol
# Density = 1.919359 g / cm^3
# Si number density = 19.237371 Si / 1000 Ang^3
#
#
#
# Elastic Constant Matrix: (Units=GPa)
#
#
# Indices 1 2 3 4 5 6 
#
# 1 35.8940 34.8805 14.0812 0.0000 0.0000 0.0000
# 2 34.8805 138.2707 61.5284 0.0000 0.0000 0.0000
# 3 14.0812 61.5284 110.6186 0.0000 0.0000 0.0000
# 4 0.0000 0.0000 0.0000 8.6979 0.0000 0.0000
# 5 0.0000 0.0000 0.0000 0.0000 9.3863 0.0000
# 6 0.0000 0.0000 0.0000 0.0000 0.0000 14.4811
#
#
#
# Elastic Compliance Matrix: (Units=1/GPa)
#
#
# Indices 1 2 3 4 5 6 
#
# 1 0.036941 -0.009603 0.000639 0.000000 0.000000 0.000000
# 2 -0.009603 0.012107 -0.005512 0.000000 0.000000 0.000000
# 3 0.000639 -0.005512 0.012025 0.000000 0.000000 0.000000
# 4 0.000000 0.000000 0.000000 0.114970 0.000000 0.000000
# 5 0.000000 0.000000 0.000000 0.000000 0.106538 0.000000
# 6 0.000000 0.000000 0.000000 0.000000 0.000000 0.069056
#
#
# Mechanical properties :
#
#
# Convention : Reuss Voigt Hill
#
# Bulk Modulus (GPa) = 31.13226 56.19596 43.66411
# Shear Modulus (GPa) = 12.77802 18.13260 15.45531
#
# Velocity S-wave (km/s) = 2.58006 3.07346 2.83751
# Velocity P-wave (km/s) = 5.00939 6.47072 5.78637
#
# Compressibility (1/GPa) = 0.03212102
#
# Stress axis : x y z
#
# Youngs Moduli (GPa) = 27.06999 82.59346 83.16287
#
# Poissons Ratio (x) = 0.79317 -0.05315
# Poissons Ratio (y) = 0.25996 0.45839
# Poissons Ratio (z) = -0.01730 0.45525
#
# Static dielectric constant tensor:
#      x y z
#    x 3.090150 0.000000 0.000000 
#    y 0.000000 3.666920 0.000000 
#    z 0.000000 0.000000 3.545520 
# 
# 
# High freq. dielectric constant tensor:
#      x y z
#    x 1.694550 0.000000 0.000000 
#    y 0.000000 1.749560 0.000000 
#    z 0.000000 0.000000 1.734250 
# 
# From -- ./inp_files/11276.got.cif
#   From: 2010.03.12/outbox.cif.g09.slc.cpg/sg47_6_cif.got.tgz:11276.got - 2010.04.14 03:12:58.
