data_PCOD8194979
_publ_section_title
;
Structure prediction by ZEFSAII (Michael W. Deem and Ramdas Pophale) SiO2 
 PCOD8194979
Probable space group: P M M M
;
_chemical_formula_sum "Si O2"
_cell_formula_units_Z 56
_cell_length_a 9.353148
_cell_length_b 30.597774
_cell_length_c 12.534459
_cell_angle_alpha 90.000000
_cell_angle_beta 90.000000
_cell_angle_gamma 90.000000
_cell_volume 3587.180525
_symmetry_space_group_name_H-M "P M M M"
_symmetry_group_IT_number 47
_symmetry_cell_setting 'orthorhombic'
loop_
_space_group_symop_operation_xyz
x,y,z
-x,-y,z
x,-y,-z
-x,y,-z
-x,-y,-z
x,y,-z
-x,y,z
x,-y,z
loop_
_atom_site_type_symbol
_atom_site_label
_atom_site_fract_x
_atom_site_fract_y
_atom_site_fract_z
Si Si1 0.336168 0.122227 0.164974
Si Si2 0.332652 0.049294 0.000000
Si Si3 0.338432 0.712559 0.127318
Si Si4 0.838758 0.370650 0.127195
Si Si5 0.842557 0.000000 0.626264
Si Si6 0.841647 0.207141 0.122346
Si Si7 0.339480 0.451600 0.126863
Si Si8 0.661975 0.918701 0.619348
O O1 0.500000 0.133398 0.133115
O O2 0.233226 0.160487 0.128885
O O3 0.321506 0.119306 0.293492
O O4 0.288508 0.077349 0.105253
O O5 0.500000 0.041978 0.000000
O O6 0.261921 0.000000 0.000000
O O7 0.500000 0.711897 0.172756
O O8 0.254148 0.670056 0.169105
O O9 0.257028 0.755182 0.174599
O O10 0.343192 0.713462 0.000000
O O11 0.768497 0.415225 0.172768
O O12 0.000000 0.366834 0.171578
O O13 0.839957 0.371136 0.000000
O O14 0.759851 0.957305 0.663929
O O15 0.850462 0.000000 0.500000
O O16 0.000000 0.000000 0.677698
O O17 0.000000 0.205724 0.176239
O O18 0.861941 0.219801 0.000000
O O19 0.500000 0.441689 0.168023
O O20 0.290523 0.500000 0.165087
O O21 0.339009 0.449743 0.000000
O O22 0.706793 0.902444 0.500000
O O23 0.500000 0.936259 0.616691
#
# Coordination Sequence:
#
# PCOD8194979 Si02
#       8
#     8   4   8   8   4   8   8   8
#     4  10  19  31  49  65  83 109 136 163 194 235
#     4   9  18  30  45  65  85 107 137 165 188 225
#     4   9  16  25  38  52  67  89 119 151 185 229
#     4   9  15  21  29  43  62  82 108 144 189 233
#     4   9  17  29  45  64  85 108 132 158 189 225
#     4  10  19  30  43  59  81 102 124 156 196 236
#     4   8  13  20  28  37  52  77 109 144 183 229
#     4   9  18  31  47  67  87 107 134 166 196 226
#
# _framework density 15.611146
#
# number of rings (size 3 to 8) (size 9 to 14) (size 15 to 20)
#    0.000    2.857    0.714    1.929    1.000    5.714 
#    0.000    1.429    0.000    0.429    0.000    0.000 
#    0.000    0.000    0.000    0.000    0.000    0.000 
#
# Total GULP energy -693946.743532 kJ/mol
# GULP energy per Si atom -12391.906135 kJ/mol
# Density = 1.557561 g / cm^3
# Si number density = 15.611146 Si / 1000 Ang^3
#
#
#
# Elastic Constant Matrix: (Units=GPa)
#
#
# Indices 1 2 3 4 5 6 
#
# 1 118.8527 68.5992 10.1064 0.0000 0.0000 0.0000
# 2 68.5992 126.0699 11.3266 0.0000 0.0000 0.0000
# 3 10.1064 11.3266 35.3409 0.0000 0.0000 0.0000
# 4 0.0000 0.0000 0.0000 2.1362 0.0000 0.0000
# 5 0.0000 0.0000 0.0000 0.0000 6.3228 0.0000
# 6 0.0000 0.0000 0.0000 0.0000 0.0000 56.4715
#
#
#
# Elastic Compliance Matrix: (Units=1/GPa)
#
#
# Indices 1 2 3 4 5 6 
#
# 1 0.012335 -0.006584 -0.001417 0.000000 0.000000 0.000000
# 2 -0.006584 0.011682 -0.001861 0.000000 0.000000 0.000000
# 3 -0.001417 -0.001861 0.029298 0.000000 0.000000 0.000000
# 4 0.000000 0.000000 0.000000 0.468112 0.000000 0.000000
# 5 0.000000 0.000000 0.000000 0.000000 0.158157 0.000000
# 6 0.000000 0.000000 0.000000 0.000000 0.000000 0.017708
#
#
# Mechanical properties :
#
#
# Convention : Reuss Voigt Hill
#
# Bulk Modulus (GPa) = 29.77153 51.14754 40.45953
# Shear Modulus (GPa) = 6.86613 25.66820 16.26716
#
# Velocity S-wave (km/s) = 2.09947 4.05930 3.23154
# Velocity P-wave (km/s) = 4.99891 7.40305 6.31642
#
# Compressibility (1/GPa) = 0.03358914
#
# Stress axis : x y z
#
# Youngs Moduli (GPa) = 81.07236 85.60072 34.13254
#
# Poissons Ratio (x) = 0.56363 0.04837
# Poissons Ratio (y) = 0.53381 0.06352
# Poissons Ratio (z) = 0.11488 0.15931
#
# Static dielectric constant tensor:
#      x y z
#    x 3.225600 0.000000 0.000000 
#    y 0.000000 3.074510 0.000000 
#    z 0.000000 0.000000 2.482650 
# 
# 
# High freq. dielectric constant tensor:
#      x y z
#    x 1.607060 0.000000 0.000000 
#    y 0.000000 1.599930 0.000000 
#    z 0.000000 0.000000 1.517440 
# 
# From -- ./inp_files/22110.got.cif
#   From: 2010.03.12/outbox.cif.g09.slc.cpg/sg47_12_cif.got.tgz:22110.got - 2010.04.14 03:12:58.
