data_PCOD8194727
_publ_section_title
;
Structure prediction by ZEFSAII (Michael W. Deem and Ramdas Pophale) SiO2 
 PCOD8194727
Probable space group: P M M M
;
_chemical_formula_sum "Si O2"
_cell_formula_units_Z 64
_cell_length_a 9.210900
_cell_length_b 18.706413
_cell_length_c 23.737823
_cell_angle_alpha 90.000000
_cell_angle_beta 90.000000
_cell_angle_gamma 90.000000
_cell_volume 4090.095731
_symmetry_space_group_name_H-M "P M M M"
_symmetry_group_IT_number 47
_symmetry_cell_setting 'orthorhombic'
loop_
_space_group_symop_operation_xyz
x,y,z
-x,-y,z
x,-y,-z
-x,y,-z
-x,-y,-z
x,y,-z
-x,y,z
x,-y,z
loop_
_atom_site_type_symbol
_atom_site_label
_atom_site_fract_x
_atom_site_fract_y
_atom_site_fract_z
Si Si1 0.833120 0.579622 0.627527
Si Si2 0.171006 0.851855 0.164017
Si Si3 0.667046 0.917571 0.266234
Si Si4 0.834917 0.290169 0.775208
Si Si5 0.331167 0.420097 0.743658
Si Si6 0.172068 0.715718 0.437989
Si Si7 0.666976 0.082540 0.935298
Si Si8 0.168561 0.196010 0.332710
O O1 0.815730 0.500000 0.601905
O O2 0.737845 0.588505 0.682655
O O3 0.779129 0.636343 0.581113
O O4 0.000000 0.594950 0.644812
O O5 0.249507 0.904052 0.207955
O O6 0.207116 0.769542 0.178650
O O7 0.228992 0.867695 0.101722
O O8 0.000000 0.866454 0.167994
O O9 0.500000 0.894858 0.258294
O O10 0.736878 0.872989 0.317308
O O11 0.681452 0.000000 0.282766
O O12 0.737282 0.360581 0.785028
O O13 0.807938 0.258339 0.713013
O O14 0.000000 0.314281 0.782823
O O15 0.500000 0.404707 0.738069
O O16 0.301416 0.500000 0.767650
O O17 0.238640 0.731614 0.500000
O O18 0.224934 0.774856 0.392964
O O19 0.000000 0.718434 0.440956
O O20 0.500000 0.096558 0.918921
O O21 0.706382 0.000000 0.924610
O O22 0.694926 0.102960 0.000000
O O23 0.000000 0.173300 0.334153
#
# Coordination Sequence:
#
# PCOD8194727 Si02
#       8
#     8   8   8   8   8   8   8   8
#     4   9  16  27  43  61  84 114 144 175 213 258
#     4  10  20  31  46  70  97 122 153 192 227 261
#     4  10  20  32  47  67  89 114 144 180 224 272
#     4   9  17  30  45  63  88 117 148 183 225 268
#     4  10  19  28  41  63  88 115 148 183 219 263
#     4   9  16  27  44  65  87 109 139 181 221 261
#     4   9  18  32  48  67  96 134 169 195 219 253
#     4   9  17  30  46  65  87 110 140 178 222 269
#
# _framework density 15.647555000000001
#
# number of rings (size 3 to 8) (size 9 to 14) (size 15 to 20)
#    0.000    2.625    1.250    2.625    0.000    6.500 
#    0.000    1.875    0.000    1.875    0.000    4.375 
#    0.000    0.500    0.000    5.500    0.000    4.000 
#
# Total GULP energy -793467.247495 kJ/mol
# GULP energy per Si atom -12397.925742 kJ/mol
# Density = 1.561194 g / cm^3
# Si number density = 15.647555 Si / 1000 Ang^3
#
#
#
# Elastic Constant Matrix: (Units=GPa)
#
#
# Indices 1 2 3 4 5 6 
#
# 1 79.8344 57.7775 39.4508 0.0000 0.0000 0.0000
# 2 57.7775 100.2206 53.1052 0.0000 0.0000 0.0000
# 3 39.4508 53.1052 87.5188 0.0000 0.0000 0.0000
# 4 0.0000 0.0000 0.0000 22.8600 0.0000 0.0000
# 5 0.0000 0.0000 0.0000 0.0000 15.0181 0.0000
# 6 0.0000 0.0000 0.0000 0.0000 0.0000 24.9981
#
#
#
# Elastic Compliance Matrix: (Units=1/GPa)
#
#
# Indices 1 2 3 4 5 6 
#
# 1 0.022119 -0.011007 -0.003291 0.000000 0.000000 0.000000
# 2 -0.011007 0.020184 -0.007286 0.000000 0.000000 0.000000
# 3 -0.003291 -0.007286 0.017331 0.000000 0.000000 0.000000
# 4 0.000000 0.000000 0.000000 0.043745 0.000000 0.000000
# 5 0.000000 0.000000 0.000000 0.000000 0.066586 0.000000
# 6 0.000000 0.000000 0.000000 0.000000 0.000000 0.040003
#
#
# Mechanical properties :
#
#
# Convention : Reuss Voigt Hill
#
# Bulk Modulus (GPa) = 60.73607 63.13786 61.93696
# Shear Modulus (GPa) = 19.33303 20.39127 19.86215
#
# Velocity S-wave (km/s) = 3.51882 3.61385 3.56665
# Velocity P-wave (km/s) = 7.44371 7.60597 7.52528
#
# Compressibility (1/GPa) = 0.01646468
#
# Stress axis : x y z
#
# Youngs Moduli (GPa) = 45.21082 49.54308 57.70134
#
# Poissons Ratio (x) = 0.54534 0.18991
# Poissons Ratio (y) = 0.49766 0.42040
# Poissons Ratio (z) = 0.14880 0.36096
#
# Static dielectric constant tensor:
#      x y z
#    x 2.944090 0.000000 0.000000 
#    y 0.000000 3.070050 0.000000 
#    z 0.000000 0.000000 2.877270 
# 
# 
# High freq. dielectric constant tensor:
#      x y z
#    x 1.595510 0.000000 0.000000 
#    y 0.000000 1.598310 0.000000 
#    z 0.000000 0.000000 1.569050 
# 
# From -- ./inp_files/10193.got.cif
#   From: 2010.03.12/outbox.cif.g09.slc.cpg/sg47_6_cif.got.tgz:10193.got - 2010.04.14 03:12:58.
