data_PCOD8194667
_publ_section_title
;
Structure prediction by ZEFSAII (Michael W. Deem and Ramdas Pophale) SiO2 
 PCOD8194667
Probable space group: P M M M
;
_chemical_formula_sum "Si O2"
_cell_formula_units_Z 56
_cell_length_a 13.939930
_cell_length_b 29.347474
_cell_length_c 9.163357
_cell_angle_alpha 90.000000
_cell_angle_beta 90.000000
_cell_angle_gamma 90.000000
_cell_volume 3748.745231
_symmetry_space_group_name_H-M "P M M M"
_symmetry_group_IT_number 47
_symmetry_cell_setting 'orthorhombic'
loop_
_space_group_symop_operation_xyz
x,y,z
-x,-y,z
x,-y,-z
-x,y,-z
-x,-y,-z
x,y,-z
-x,y,z
x,-y,z
loop_
_atom_site_type_symbol
_atom_site_label
_atom_site_fract_x
_atom_site_fract_y
_atom_site_fract_z
Si Si1 0.114079 0.550244 0.663935
Si Si2 0.288181 0.050296 0.825780
Si Si3 0.889346 0.273743 0.327824
Si Si4 0.789909 0.192003 0.828545
Si Si5 0.895097 0.899378 0.172419
Si Si6 0.113892 0.635918 0.163056
Si Si7 0.394072 0.138346 0.826708
O O1 0.152485 0.558250 0.500000
O O2 0.146304 0.500000 0.720025
O O3 0.157144 0.589480 0.767951
O O4 0.000000 0.553196 0.663066
O O5 0.181682 0.063853 0.768709
O O6 0.363000 0.088221 0.767643
O O7 0.315007 0.000000 0.765439
O O8 0.288529 0.050221 0.000000
O O9 0.876321 0.276406 0.500000
O O10 0.820083 0.235470 0.263751
O O11 0.854155 0.321390 0.260497
O O12 0.000000 0.263564 0.285106
O O13 0.862132 0.151468 0.787083
O O14 0.682243 0.177013 0.780178
O O15 0.794583 0.203589 0.000000
O O16 0.000000 0.908638 0.242434
O O17 0.901070 0.903719 0.000000
O O18 0.000000 0.632705 0.159036
O O19 0.155461 0.641549 0.000000
O O20 0.500000 0.150201 0.764805
O O21 0.395351 0.135808 0.000000
#
# Coordination Sequence:
#
# PCOD8194667 Si02
#       7
#     8   8   8   8   8   8   8
#     4   8  13  21  32  45  64  93 128 165 202 233
#     4   8  13  19  27  44  71 100 126 148 175 217
#     4  10  19  28  38  53  74  98 123 155 195 234
#     4   9  16  26  40  55  71  94 125 156 185 224
#     4   8  13  20  30  45  66  93 123 153 183 215
#     4   9  16  24  34  49  69  94 126 162 196 230
#     4   8  14  24  37  53  72  94 121 153 188 225
#
# _framework density 14.938332000000001
#
# number of rings (size 3 to 8) (size 9 to 14) (size 15 to 20)
#    0.000    3.429    0.000    3.429    0.000    4.000 
#    0.000    4.286    0.000    0.429    0.000    0.000 
#    0.000    9.143    0.000   36.571    0.000   32.714 
#
# Total GULP energy -693871.702463 kJ/mol
# GULP energy per Si atom -12390.566115 kJ/mol
# Density = 1.490433 g / cm^3
# Si number density = 14.938332 Si / 1000 Ang^3
#
#
#
# Elastic Constant Matrix: (Units=GPa)
#
#
# Indices 1 2 3 4 5 6 
#
# 1 78.0595 39.9024 18.3789 0.0000 0.0000 0.0000
# 2 39.9024 126.9155 45.6723 0.0000 0.0000 0.0000
# 3 18.3789 45.6723 49.5064 0.0000 0.0000 0.0000
# 4 0.0000 0.0000 0.0000 3.9964 0.0000 0.0000
# 5 0.0000 0.0000 0.0000 0.0000 6.1093 0.0000
# 6 0.0000 0.0000 0.0000 0.0000 0.0000 8.5598
#
#
#
# Elastic Compliance Matrix: (Units=1/GPa)
#
#
# Indices 1 2 3 4 5 6 
#
# 1 0.015379 -0.004162 -0.001869 0.000000 0.000000 0.000000
# 2 -0.004162 0.012922 -0.010376 0.000000 0.000000 0.000000
# 3 -0.001869 -0.010376 0.030466 0.000000 0.000000 0.000000
# 4 0.000000 0.000000 0.000000 0.250223 0.000000 0.000000
# 5 0.000000 0.000000 0.000000 0.000000 0.163684 0.000000
# 6 0.000000 0.000000 0.000000 0.000000 0.000000 0.116825
#
#
# Mechanical properties :
#
#
# Convention : Reuss Voigt Hill
#
# Bulk Modulus (GPa) = 38.53379 51.37650 44.95515
# Shear Modulus (GPa) = 7.92438 13.76830 10.84634
#
# Velocity S-wave (km/s) = 2.30570 3.03920 2.69750
# Velocity P-wave (km/s) = 5.73930 6.83979 6.31357
#
# Compressibility (1/GPa) = 0.02595125
#
# Stress axis : x y z
#
# Youngs Moduli (GPa) = 65.02564 77.38854 32.82394
#
# Poissons Ratio (x) = 0.32212 0.06135
# Poissons Ratio (y) = 0.27066 0.34058
# Poissons Ratio (z) = 0.12154 0.80297
#
# Static dielectric constant tensor:
#      x y z
#    x 2.925460 0.000000 0.000000 
#    y 0.000000 3.037830 0.000000 
#    z 0.000000 0.000000 2.598680 
# 
# 
# High freq. dielectric constant tensor:
#      x y z
#    x 1.525340 0.000000 0.000000 
#    y 0.000000 1.576540 0.000000 
#    z 0.000000 0.000000 1.536080 
# 
# From -- ./inp_files/8175.got.cif
#   From: 2010.03.12/outbox.cif.g09.slc.cpg/sg47_5_cif.got.tgz:8175.got - 2010.04.14 03:12:58.
