data_PCOD8194563
_publ_section_title
;
Structure prediction by ZEFSAII (Michael W. Deem and Ramdas Pophale) SiO2 
 PCOD8194563
Probable space group: P M M M
;
_chemical_formula_sum "Si O2"
_cell_formula_units_Z 44
_cell_length_a 13.932392
_cell_length_b 11.574509
_cell_length_c 15.469217
_cell_angle_alpha 90.000000
_cell_angle_beta 90.000000
_cell_angle_gamma 90.000000
_cell_volume 2494.575162
_symmetry_space_group_name_H-M "P M M M"
_symmetry_group_IT_number 47
_symmetry_cell_setting 'orthorhombic'
loop_
_space_group_symop_operation_xyz
x,y,z
-x,-y,z
x,-y,-z
-x,y,-z
-x,-y,-z
x,y,-z
-x,y,z
x,-y,z
loop_
_atom_site_type_symbol
_atom_site_label
_atom_site_fract_x
_atom_site_fract_y
_atom_site_fract_z
Si Si1 0.607041 0.693439 0.775724
Si Si2 0.185670 0.500000 0.406032
Si Si3 0.107005 0.863007 0.905234
Si Si4 0.887197 0.259002 0.601585
Si Si5 0.227964 0.136096 0.255496
Si Si6 0.602636 0.500000 0.364460
Si Si7 0.385324 0.500000 0.902372
O O1 0.500000 0.737241 0.799419
O O2 0.668850 0.804689 0.751058
O O3 0.604167 0.614140 0.692185
O O4 0.651114 0.616637 0.854514
O O5 0.136552 0.500000 0.500000
O O6 0.146971 0.383786 0.360308
O O7 0.300827 0.500000 0.420606
O O8 0.170576 0.814425 0.827324
O O9 0.000000 0.812474 0.894525
O O10 0.103280 0.000000 0.898558
O O11 0.148232 0.826678 0.000000
O O12 0.860830 0.244958 0.500000
O O13 0.829296 0.164066 0.656277
O O14 0.000000 0.241930 0.616891
O O15 0.244473 0.000000 0.251851
O O16 0.500000 0.500000 0.416878
O O17 0.500000 0.500000 0.897006
O O18 0.346268 0.500000 0.000000
#
# Coordination Sequence:
#
# PCOD8194563 Si02
#       7
#     8   4   8   8   8   4   4
#     4   9  18  32  50  73 102 133 170 216 262 309
#     4  10  18  32  54  78 101 126 160 210 273 322
#     4   8  15  29  47  67  93 125 165 211 249 286
#     4  10  21  36  54  77 104 133 169 219 273 322
#     4  11  21  32  51  75 102 142 183 213 252 310
#     4   9  16  31  53  73  95 124 162 211 260 300
#     4   8  15  30  53  77 100 131 171 216 267 316
#
# _framework density 17.638273000000002
#
# number of rings (size 3 to 8) (size 9 to 14) (size 15 to 20)
#    0.000    2.636    1.818    2.455    0.000    3.818 
#    0.000    0.909    0.000    0.545    0.000    6.364 
#    0.000    7.636    0.000    0.000    0.000    0.000 
#
# Total GULP energy -545201.951653 kJ/mol
# GULP energy per Si atom -12390.953447 kJ/mol
# Density = 1.759813 g / cm^3
# Si number density = 17.638273 Si / 1000 Ang^3
#
#
#
# Elastic Constant Matrix: (Units=GPa)
#
#
# Indices 1 2 3 4 5 6 
#
# 1 98.4711 45.7978 38.6167 0.0000 0.0000 0.0000
# 2 45.7978 85.8547 34.8266 0.0000 0.0000 0.0000
# 3 38.6167 34.8266 91.5821 0.0000 0.0000 0.0000
# 4 0.0000 0.0000 0.0000 9.5431 0.0000 0.0000
# 5 0.0000 0.0000 0.0000 0.0000 20.3091 0.0000
# 6 0.0000 0.0000 0.0000 0.0000 0.0000 34.1579
#
#
#
# Elastic Compliance Matrix: (Units=1/GPa)
#
#
# Indices 1 2 3 4 5 6 
#
# 1 0.014523 -0.006223 -0.003757 0.000000 0.000000 0.000000
# 2 -0.006223 0.016438 -0.003627 0.000000 0.000000 0.000000
# 3 -0.003757 -0.003627 0.013883 0.000000 0.000000 0.000000
# 4 0.000000 0.000000 0.000000 0.104788 0.000000 0.000000
# 5 0.000000 0.000000 0.000000 0.000000 0.049239 0.000000
# 6 0.000000 0.000000 0.000000 0.000000 0.000000 0.029276
#
#
# Mechanical properties :
#
#
# Convention : Reuss Voigt Hill
#
# Bulk Modulus (GPa) = 56.72362 57.15445 56.93903
# Shear Modulus (GPa) = 19.13963 23.24648 21.19305
#
# Velocity S-wave (km/s) = 3.29769 3.63431 3.47008
# Velocity P-wave (km/s) = 6.83585 7.07707 6.95751
#
# Compressibility (1/GPa) = 0.01762934
#
# Stress axis : x y z
#
# Youngs Moduli (GPa) = 68.85647 60.83296 72.03130
#
# Poissons Ratio (x) = 0.37856 0.27065
# Poissons Ratio (y) = 0.42849 0.26127
# Poissons Ratio (z) = 0.25872 0.22065
#
# Static dielectric constant tensor:
#      x y z
#    x 3.356520 0.000000 0.000000 
#    y 0.000000 3.053170 0.000000 
#    z 0.000000 0.000000 3.342290 
# 
# 
# High freq. dielectric constant tensor:
#      x y z
#    x 1.676840 0.000000 0.000000 
#    y 0.000000 1.657780 0.000000 
#    z 0.000000 0.000000 1.678620 
# 
# From -- ./inp_files/27918.got.cif
#   From: 2010.03.12/outbox.cif.g09.slc.cpg/sg47_14_cif.got.tgz:27918.got - 2010.04.14 03:12:58.
