data_PCOD8194757
_publ_section_title
;
Structure prediction by ZEFSAII (Michael W. Deem and Ramdas Pophale) SiO2 
 PCOD8194757
Probable space group: P M M M
;
_chemical_formula_sum "Si O2"
_cell_formula_units_Z 44
_cell_length_a 18.961194
_cell_length_b 9.644147
_cell_length_c 13.456626
_cell_angle_alpha 90.000000
_cell_angle_beta 90.000000
_cell_angle_gamma 90.000000
_cell_volume 2460.739753
_symmetry_space_group_name_H-M "P M M M"
_symmetry_group_IT_number 47
_symmetry_cell_setting 'orthorhombic'
loop_
_space_group_symop_operation_xyz
x,y,z
-x,-y,z
x,-y,-z
-x,y,-z
-x,-y,-z
x,y,-z
-x,y,z
x,-y,z
loop_
_atom_site_type_symbol
_atom_site_label
_atom_site_fract_x
_atom_site_fract_y
_atom_site_fract_z
Si Si1 0.308853 0.846882 0.609158
Si Si2 0.315887 0.660438 0.216189
Si Si3 0.141724 0.156788 0.389454
Si Si4 0.150678 0.338248 0.203978
Si Si5 0.080001 0.335498 0.000000
Si Si6 0.577204 0.847677 0.115860
O O1 0.339716 0.817827 0.500000
O O2 0.339600 0.729144 0.680132
O O3 0.225174 0.838731 0.606481
O O4 0.331927 0.000000 0.645741
O O5 0.334251 0.500000 0.220025
O O6 0.233972 0.687546 0.193505
O O7 0.363284 0.732808 0.133688
O O8 0.113526 0.203732 0.500000
O O9 0.117074 0.257262 0.299091
O O10 0.115323 0.000000 0.367394
O O11 0.133569 0.500000 0.220670
O O12 0.117227 0.281168 0.101024
O O13 0.084174 0.500000 0.000000
O O14 0.000000 0.281365 0.000000
O O15 0.500000 0.805526 0.160424
O O16 0.599412 0.000000 0.158037
O O17 0.569011 0.859579 0.000000
#
# Coordination Sequence:
#
# PCOD8194757 Si02
#       6
#     8   8   8   8   4   8
#     4   8  14  26  44  65  92 126 160 192 228 276
#     4  10  19  28  45  73 101 124 148 193 246 288
#     4   8  14  26  45  69  97 126 156 195 243 291
#     4   9  18  30  47  73  99 126 163 204 242 283
#     4   9  18  34  53  69  94 135 172 200 235 281
#     4   9  19  35  51  66  88 122 162 198 231 276
#
# _framework density 17.880801000000002
#
# number of rings (size 3 to 8) (size 9 to 14) (size 15 to 20)
#    0.000    3.182    0.000    2.182    1.273    2.182 
#    0.000    5.000    0.000    2.182    0.000    7.636 
#    0.000    0.000    0.000    0.000    0.000    0.000 
#
# Total GULP energy -545127.195101 kJ/mol
# GULP energy per Si atom -12389.254434 kJ/mol
# Density = 1.784010 g / cm^3
# Si number density = 17.880801 Si / 1000 Ang^3
#
#
#
# Elastic Constant Matrix: (Units=GPa)
#
#
# Indices 1 2 3 4 5 6 
#
# 1 49.5246 40.5064 37.9412 0.0000 0.0000 0.0000
# 2 40.5064 101.6122 63.5487 0.0000 0.0000 0.0000
# 3 37.9412 63.5487 134.9118 0.0000 0.0000 0.0000
# 4 0.0000 0.0000 0.0000 31.8113 0.0000 0.0000
# 5 0.0000 0.0000 0.0000 0.0000 3.3697 0.0000
# 6 0.0000 0.0000 0.0000 0.0000 0.0000 12.9768
#
#
#
# Elastic Compliance Matrix: (Units=1/GPa)
#
#
# Indices 1 2 3 4 5 6 
#
# 1 0.031539 -0.009959 -0.004178 0.000000 0.000000 0.000000
# 2 -0.009959 0.017096 -0.005252 0.000000 0.000000 0.000000
# 3 -0.004178 -0.005252 0.011061 0.000000 0.000000 0.000000
# 4 0.000000 0.000000 0.000000 0.031435 0.000000 0.000000
# 5 0.000000 0.000000 0.000000 0.000000 0.296760 0.000000
# 6 0.000000 0.000000 0.000000 0.000000 0.000000 0.077060
#
#
# Mechanical properties :
#
#
# Convention : Reuss Voigt Hill
#
# Bulk Modulus (GPa) = 47.80891 63.33792 55.57341
# Shear Modulus (GPa) = 9.79039 19.23506 14.51273
#
# Velocity S-wave (km/s) = 2.34249 3.28340 2.85202
# Velocity P-wave (km/s) = 5.84054 7.06212 6.48018
#
# Compressibility (1/GPa) = 0.02091660
#
# Stress axis : x y z
#
# Youngs Moduli (GPa) = 31.70683 58.49253 90.40542
#
# Poissons Ratio (x) = 0.58255 0.37775
# Poissons Ratio (y) = 0.31578 0.47482
# Poissons Ratio (z) = 0.13248 0.30721
#
# Static dielectric constant tensor:
#      x y z
#    x 2.996860 0.000000 0.000000 
#    y 0.000000 3.313230 0.000000 
#    z 0.000000 0.000000 3.657210 
# 
# 
# High freq. dielectric constant tensor:
#      x y z
#    x 1.653730 0.000000 0.000000 
#    y 0.000000 1.680930 0.000000 
#    z 0.000000 0.000000 1.698210 
# 
# From -- ./inp_files/24317.got.cif
#   From: 2010.03.12/outbox.cif.g09.slc.cpg/sg47_13_cif.got.tgz:24317.got - 2010.04.14 03:12:58.
