data_PCOD8194620
_publ_section_title
;
Structure prediction by ZEFSAII (Michael W. Deem and Ramdas Pophale) SiO2 
 PCOD8194620
Probable space group: P M M M
;
_chemical_formula_sum "Si O2"
_cell_formula_units_Z 44
_cell_length_a 13.988032
_cell_length_b 11.857811
_cell_length_c 14.985008
_cell_angle_alpha 90.000000
_cell_angle_beta 90.000000
_cell_angle_gamma 90.000000
_cell_volume 2485.524911
_symmetry_space_group_name_H-M "P M M M"
_symmetry_group_IT_number 47
_symmetry_cell_setting 'orthorhombic'
loop_
_space_group_symop_operation_xyz
x,y,z
-x,-y,z
x,-y,-z
-x,y,-z
-x,-y,-z
x,y,-z
-x,y,z
x,-y,z
loop_
_atom_site_type_symbol
_atom_site_label
_atom_site_fract_x
_atom_site_fract_y
_atom_site_fract_z
Si Si1 0.886098 0.128220 0.500000
Si Si2 0.730477 0.633686 0.240640
Si Si3 0.894440 0.000000 0.803623
Si Si4 0.393638 0.633862 0.597325
Si Si5 0.698299 0.000000 0.104086
Si Si6 0.611003 0.767814 0.105544
Si Si7 0.108454 0.220889 0.312403
O O1 0.851695 0.197574 0.587545
O O2 0.000000 0.119136 0.500000
O O3 0.844312 0.000000 0.500000
O O4 0.739326 0.500000 0.237287
O O5 0.671085 0.682425 0.324355
O O6 0.677464 0.673193 0.150779
O O7 0.835141 0.684882 0.255919
O O8 0.883032 0.105813 0.740487
O O9 0.811566 0.000000 0.877335
O O10 0.000000 0.000000 0.849931
O O11 0.353591 0.670589 0.500000
O O12 0.500000 0.682591 0.610025
O O13 0.396211 0.500000 0.604037
O O14 0.645908 0.110772 0.142806
O O15 0.681980 0.000000 0.000000
O O16 0.500000 0.749368 0.130718
O O17 0.626699 0.757035 0.000000
O O18 0.000000 0.264812 0.317294
#
# Coordination Sequence:
#
# PCOD8194620 Si02
#       7
#     4   8   4   8   4   8   8
#     4   9  16  30  53  79 104 135 177 226 276 324
#     4  11  22  34  52  76 106 146 187 223 262 316
#     4  10  18  33  57  82 106 135 176 224 272 319
#     4   8  15  29  47  67  94 129 171 216 256 298
#     4  10  19  35  57  84 112 135 165 215 282 336
#     4  10  21  37  58  83 109 138 175 223 276 328
#     4  10  20  34  53  79 109 140 180 227 274 322
#
# _framework density 17.702497000000001
#
# number of rings (size 3 to 8) (size 9 to 14) (size 15 to 20)
#    0.000    2.273    2.727    1.364    1.273    3.091 
#    0.000    0.909    0.000    2.182    0.000    1.273 
#    0.000    7.273    0.000    0.000    0.000    0.000 
#
# Total GULP energy -545397.345272 kJ/mol
# GULP energy per Si atom -12395.394211 kJ/mol
# Density = 1.766221 g / cm^3
# Si number density = 17.702497 Si / 1000 Ang^3
#
#
#
# Elastic Constant Matrix: (Units=GPa)
#
#
# Indices 1 2 3 4 5 6 
#
# 1 96.9957 47.9714 39.6660 0.0000 0.0000 0.0000
# 2 47.9714 94.4041 35.3929 0.0000 0.0000 0.0000
# 3 39.6660 35.3929 59.2911 0.0000 0.0000 0.0000
# 4 0.0000 0.0000 0.0000 27.8597 0.0000 0.0000
# 5 0.0000 0.0000 0.0000 0.0000 31.5333 0.0000
# 6 0.0000 0.0000 0.0000 0.0000 0.0000 37.5753
#
#
#
# Elastic Compliance Matrix: (Units=1/GPa)
#
#
# Indices 1 2 3 4 5 6 
#
# 1 0.016024 -0.005313 -0.007549 0.000000 0.000000 0.000000
# 2 -0.005313 0.015408 -0.005644 0.000000 0.000000 0.000000
# 3 -0.007549 -0.005644 0.025285 0.000000 0.000000 0.000000
# 4 0.000000 0.000000 0.000000 0.035894 0.000000 0.000000
# 5 0.000000 0.000000 0.000000 0.000000 0.031712 0.000000
# 6 0.000000 0.000000 0.000000 0.000000 0.000000 0.026613
#
#
# Mechanical properties :
#
#
# Convention : Reuss Voigt Hill
#
# Bulk Modulus (GPa) = 50.74276 55.19463 52.96870
# Shear Modulus (GPa) = 25.70471 27.90438 26.80455
#
# Velocity S-wave (km/s) = 3.81470 3.97457 3.89545
# Velocity P-wave (km/s) = 6.93750 7.23254 7.08656
#
# Compressibility (1/GPa) = 0.01970724
#
# Stress axis : x y z
#
# Youngs Moduli (GPa) = 62.40497 64.90084 39.54893
#
# Poissons Ratio (x) = 0.34479 0.29856
# Poissons Ratio (y) = 0.33153 0.22319
# Poissons Ratio (z) = 0.47110 0.36627
#
# Static dielectric constant tensor:
#      x y z
#    x 3.384380 0.000000 0.000000 
#    y 0.000000 3.106590 0.000000 
#    z 0.000000 0.000000 3.343250 
# 
# 
# High freq. dielectric constant tensor:
#      x y z
#    x 1.681670 0.000000 0.000000 
#    y 0.000000 1.666480 0.000000 
#    z 0.000000 0.000000 1.683000 
# 
# From -- ./inp_files/23523.got.cif
#   From: 2010.03.12/outbox.cif.g09.slc.cpg/sg47_12_cif.got.tgz:23523.got - 2010.04.14 03:12:58.
