data_PCOD8194537
_publ_section_title
;
Structure prediction by ZEFSAII (Michael W. Deem and Ramdas Pophale) SiO2 
 PCOD8194537
Probable space group: P M M M
;
_chemical_formula_sum "Si O2"
_cell_formula_units_Z 40
_cell_length_a 9.058991
_cell_length_b 12.742812
_cell_length_c 19.096106
_cell_angle_alpha 90.000000
_cell_angle_beta 90.000000
_cell_angle_gamma 90.000000
_cell_volume 2204.397555
_symmetry_space_group_name_H-M "P M M M"
_symmetry_group_IT_number 47
_symmetry_cell_setting 'orthorhombic'
loop_
_space_group_symop_operation_xyz
x,y,z
-x,-y,z
x,-y,-z
-x,y,-z
-x,-y,-z
x,y,-z
-x,y,z
x,-y,z
loop_
_atom_site_type_symbol
_atom_site_label
_atom_site_fract_x
_atom_site_fract_y
_atom_site_fract_z
Si Si1 0.324817 0.617672 0.187324
Si Si2 0.675205 0.884299 0.421744
Si Si3 0.166661 0.000000 0.916791
Si Si4 0.326326 0.791540 0.080545
Si Si5 0.832047 0.500000 0.582676
Si Si6 0.324607 0.684830 0.339830
O O1 0.500000 0.612229 0.186160
O O2 0.259874 0.500000 0.177721
O O3 0.268144 0.691795 0.124546
O O4 0.270130 0.666382 0.260601
O O5 0.733078 0.856243 0.500000
O O6 0.500000 0.884945 0.423008
O O7 0.730715 0.799368 0.365194
O O8 0.733612 0.000000 0.399669
O O9 0.248716 0.104102 0.889362
O O10 0.000000 0.000000 0.888341
O O11 0.172265 0.000000 0.000000
O O12 0.500000 0.808466 0.089849
O O13 0.283959 0.770207 0.000000
O O14 0.824713 0.500000 0.500000
O O15 0.749086 0.601911 0.609501
O O16 0.000000 0.500000 0.609906
O O17 0.500000 0.672213 0.345791
#
# Coordination Sequence:
#
# PCOD8194537 Si02
#       6
#     8   8   4   8   4   8
#     4   9  17  30  48  73 102 127 161 209 251 291
#     4   8  14  25  43  70  99 121 148 192 242 289
#     4   9  17  31  51  73  99 129 164 211 254 287
#     4   9  17  30  50  75 102 133 167 202 247 303
#     4  11  23  35  49  73 102 131 166 206 247 293
#     4  10  18  32  53  74  97 128 166 206 247 294
#
# _framework density 18.145547000000001
#
# number of rings (size 3 to 8) (size 9 to 14) (size 15 to 20)
#    0.000    2.800    1.000    1.800    0.000    3.200 
#    1.800    3.000    0.000    0.600    0.000    5.600 
#    0.000    0.000    0.000    0.000    0.000    0.000 
#
# Total GULP energy -495852.763823 kJ/mol
# GULP energy per Si atom -12396.319096 kJ/mol
# Density = 1.810425 g / cm^3
# Si number density = 18.145547 Si / 1000 Ang^3
#
#
#
# Elastic Constant Matrix: (Units=GPa)
#
#
# Indices 1 2 3 4 5 6 
#
# 1 32.3230 31.8606 23.2368 0.0000 0.0000 0.0000
# 2 31.8606 195.9864 88.7807 0.0000 0.0000 0.0000
# 3 23.2368 88.7807 98.2857 0.0000 0.0000 0.0000
# 4 0.0000 0.0000 0.0000 27.6859 0.0000 0.0000
# 5 0.0000 0.0000 0.0000 0.0000 10.6994 0.0000
# 6 0.0000 0.0000 0.0000 0.0000 0.0000 1.1674
#
#
#
# Elastic Compliance Matrix: (Units=1/GPa)
#
#
# Indices 1 2 3 4 5 6 
#
# 1 0.038747 -0.003638 -0.005875 0.000000 0.000000 0.000000
# 2 -0.003638 0.008978 -0.007250 0.000000 0.000000 0.000000
# 3 -0.005875 -0.007250 0.018112 0.000000 0.000000 0.000000
# 4 0.000000 0.000000 0.000000 0.036120 0.000000 0.000000
# 5 0.000000 0.000000 0.000000 0.000000 0.093464 0.000000
# 6 0.000000 0.000000 0.000000 0.000000 0.000000 0.856602
#
#
# Mechanical properties :
#
#
# Convention : Reuss Voigt Hill
#
# Bulk Modulus (GPa) = 30.94779 68.26126 49.60453
# Shear Modulus (GPa) = 4.56073 20.09164 12.32619
#
# Velocity S-wave (km/s) = 1.58710 3.33115 2.60916
# Velocity P-wave (km/s) = 4.52226 7.24540 6.03931
#
# Compressibility (1/GPa) = 0.03231248
#
# Stress axis : x y z
#
# Youngs Moduli (GPa) = 25.80866 111.38660 55.21280
#
# Poissons Ratio (x) = 0.40519 0.32436
# Poissons Ratio (y) = 0.09388 0.40027
# Poissons Ratio (z) = 0.15162 0.80750
#
# Static dielectric constant tensor:
#      x y z
#    x 2.955700 0.000000 0.000000 
#    y 0.000000 4.020190 0.000000 
#    z 0.000000 0.000000 3.374700 
# 
# 
# High freq. dielectric constant tensor:
#      x y z
#    x 1.654100 0.000000 0.000000 
#    y 0.000000 1.719240 0.000000 
#    z 0.000000 0.000000 1.693250 
# 
# From -- ./inp_files/18927.got.cif
#   From: 2010.03.12/outbox.cif.g09.slc.cpg/sg47_10_cif.got.tgz:18927.got - 2010.04.14 03:12:58.
