data_PCOD8194490
_publ_section_title
;
Structure prediction by ZEFSAII (Michael W. Deem and Ramdas Pophale) SiO2 
 PCOD8194490
Probable space group: P M M M
;
_chemical_formula_sum "Si O2"
_cell_formula_units_Z 48
_cell_length_a 16.861394
_cell_length_b 15.963199
_cell_length_c 9.138459
_cell_angle_alpha 90.000000
_cell_angle_beta 90.000000
_cell_angle_gamma 90.000000
_cell_volume 2459.723963
_symmetry_space_group_name_H-M "P M M M"
_symmetry_group_IT_number 47
_symmetry_cell_setting 'orthorhombic'
loop_
_space_group_symop_operation_xyz
x,y,z
-x,-y,z
x,-y,-z
-x,y,-z
-x,-y,-z
x,y,-z
-x,y,z
x,-y,z
loop_
_atom_site_type_symbol
_atom_site_label
_atom_site_fract_x
_atom_site_fract_y
_atom_site_fract_z
Si Si1 0.908657 0.743939 0.326943
Si Si2 0.822127 0.593883 0.831953
Si Si3 0.822926 0.091540 0.330306
Si Si4 0.654325 0.339479 0.168528
Si Si5 0.500000 0.401295 0.665725
Si Si6 0.661652 0.174216 0.669347
Si Si7 0.500000 0.907548 0.326318
O O1 0.896060 0.741745 0.500000
O O2 0.866780 0.661552 0.265565
O O3 0.871167 0.830132 0.260738
O O4 0.000000 0.741989 0.281169
O O5 0.849493 0.500000 0.787163
O O6 0.727038 0.596696 0.810567
O O7 0.843850 0.612617 0.000000
O O8 0.845129 0.088295 0.500000
O O9 0.728770 0.104031 0.309203
O O10 0.845008 0.000000 0.260685
O O11 0.578115 0.368734 0.256466
O O12 0.685941 0.252153 0.231620
O O13 0.629944 0.330268 0.000000
O O14 0.500000 0.500000 0.670725
O O15 0.500000 0.366985 0.500000
O O16 0.656342 0.201982 0.500000
O O17 0.577886 0.140329 0.728445
O O18 0.500000 0.914133 0.500000
O O19 0.500000 0.000000 0.257104
#
# Coordination Sequence:
#
# PCOD8194490 Si02
#       7
#     8   8   8   8   4   8   4
#     4  10  21  37  58  86 118 149 186 239 297 347
#     4  10  22  40  61  84 112 151 195 236 285 348
#     4   9  17  31  54  83 115 152 192 234 283 341
#     4  11  22  37  58  82 113 151 191 235 286 340
#     4  11  24  39  56  82 114 149 192 238 283 333
#     4  10  18  31  53  79 110 147 189 235 283 337
#     4   9  17  28  46  76 108 139 182 232 275 323
#
# _framework density 19.514384
#
# number of rings (size 3 to 8) (size 9 to 14) (size 15 to 20)
#    0.000    2.000    1.667    2.250    0.000    6.000 
#    0.000    3.333    0.000    4.000    0.000    1.167 
#    0.000    0.000    0.000    0.000    0.000    0.000 
#
# Total GULP energy -595104.890599 kJ/mol
# GULP energy per Si atom -12398.018554 kJ/mol
# Density = 1.946997 g / cm^3
# Si number density = 19.514384 Si / 1000 Ang^3
#
#
#
# Elastic Constant Matrix: (Units=GPa)
#
#
# Indices 1 2 3 4 5 6 
#
# 1 116.6985 57.0837 36.8016 0.0000 0.0000 0.0000
# 2 57.0837 143.7526 39.4249 0.0000 0.0000 0.0000
# 3 36.8016 39.4249 63.4569 0.0000 0.0000 0.0000
# 4 0.0000 0.0000 0.0000 11.8955 0.0000 0.0000
# 5 0.0000 0.0000 0.0000 0.0000 22.8887 0.0000
# 6 0.0000 0.0000 0.0000 0.0000 0.0000 20.8935
#
#
#
# Elastic Compliance Matrix: (Units=1/GPa)
#
#
# Indices 1 2 3 4 5 6 
#
# 1 0.011691 -0.003355 -0.004696 0.000000 0.000000 0.000000
# 2 -0.003355 0.009348 -0.003862 0.000000 0.000000 0.000000
# 3 -0.004696 -0.003862 0.020882 0.000000 0.000000 0.000000
# 4 0.000000 0.000000 0.000000 0.084065 0.000000 0.000000
# 5 0.000000 0.000000 0.000000 0.000000 0.043690 0.000000
# 6 0.000000 0.000000 0.000000 0.000000 0.000000 0.047862
#
#
# Mechanical properties :
#
#
# Convention : Reuss Voigt Hill
#
# Bulk Modulus (GPa) = 55.26408 65.61425 60.43916
# Shear Modulus (GPa) = 20.21071 23.84207 22.02639
#
# Velocity S-wave (km/s) = 3.22169 3.49917 3.36330
# Velocity P-wave (km/s) = 6.49771 7.07263 6.79126
#
# Compressibility (1/GPa) = 0.01809494
#
# Stress axis : x y z
#
# Youngs Moduli (GPa) = 85.53678 106.97851 47.88896
#
# Poissons Ratio (x) = 0.35886 0.22489
# Poissons Ratio (y) = 0.28693 0.18495
# Poissons Ratio (z) = 0.40168 0.41317
#
# Static dielectric constant tensor:
#      x y z
#    x 3.580520 0.000000 0.000000 
#    y 0.000000 3.833690 0.000000 
#    z 0.000000 0.000000 3.264230 
# 
# 
# High freq. dielectric constant tensor:
#      x y z
#    x 1.765400 0.000000 0.000000 
#    y 0.000000 1.775070 0.000000 
#    z 0.000000 0.000000 1.722070 
# 
# From -- ./inp_files/9233.got.cif
#   From: 2010.03.12/outbox.cif.g09.slc.cpg/sg47_5_cif.got.tgz:9233.got - 2010.04.14 03:12:58.
