data_PCOD8194442
_publ_section_title
;
Structure prediction by ZEFSAII (Michael W. Deem and Ramdas Pophale) SiO2 
 PCOD8194442
Probable space group: P M M M
;
_chemical_formula_sum "Si O2"
_cell_formula_units_Z 56
_cell_length_a 25.917246
_cell_length_b 8.945111
_cell_length_c 14.099938
_cell_angle_alpha 90.000000
_cell_angle_beta 90.000000
_cell_angle_gamma 90.000000
_cell_volume 3268.825883
_symmetry_space_group_name_H-M "P M M M"
_symmetry_group_IT_number 47
_symmetry_cell_setting 'orthorhombic'
loop_
_space_group_symop_operation_xyz
x,y,z
-x,-y,z
x,-y,-z
-x,y,-z
-x,-y,-z
x,y,-z
-x,y,z
x,-y,z
loop_
_atom_site_type_symbol
_atom_site_label
_atom_site_fract_x
_atom_site_fract_y
_atom_site_fract_z
Si Si1 0.802185 0.823197 0.282675
Si Si2 0.241547 0.673399 0.108306
Si Si3 0.640213 0.674976 0.893202
Si Si4 0.298584 0.177689 0.393804
Si Si5 0.896008 0.676150 0.609836
Si Si6 0.000000 0.831839 0.387532
Si Si7 0.601105 0.822598 0.285095
Si Si8 0.500000 0.821923 0.607290
O O1 0.795612 0.772938 0.173821
O O2 0.752186 0.766055 0.339936
O O3 0.851341 0.744942 0.327116
O O4 0.809337 0.000000 0.288730
O O5 0.235268 0.500000 0.135111
O O6 0.300649 0.724859 0.123152
O O7 0.224731 0.701308 0.000000
O O8 0.634593 0.500000 0.875349
O O9 0.602533 0.761949 0.822046
O O10 0.623181 0.716217 0.000000
O O11 0.297553 0.243109 0.500000
O O12 0.349249 0.239982 0.341371
O O13 0.300285 0.000000 0.395992
O O14 0.886349 0.718565 0.500000
O O15 0.898249 0.500000 0.624320
O O16 0.949444 0.744920 0.648149
O O17 0.000000 0.834757 0.500000
O O18 0.000000 0.000000 0.346154
O O19 0.550313 0.761713 0.337904
O O20 0.600975 0.000000 0.281640
O O21 0.500000 0.759057 0.500000
O O22 0.500000 0.000000 0.604752
#
# Coordination Sequence:
#
# PCOD8194442 Si02
#       8
#     8   8   8   8   8   4   8   4
#     4  11  20  30  47  74 104 132 164 207 255 301
#     4   9  18  33  51  70  96 130 165 203 250 305
#     4   9  18  33  52  72  96 127 159 196 248 305
#     4   9  17  28  43  66  97 128 158 195 243 296
#     4  10  20  33  49  71 103 142 179 213 250 297
#     4   9  17  31  51  73  98 133 178 223 261 295
#     4  10  18  31  51  74  95 123 164 207 247 291
#     4   9  18  32  52  75  98 126 163 205 248 297
#
# _framework density 17.131533999999998
#
# number of rings (size 3 to 8) (size 9 to 14) (size 15 to 20)
#    0.000    2.429    1.429    2.786    0.000    4.571 
#    0.000    2.143    0.000    5.143    0.000    0.500 
#    0.000    4.000    0.000    0.000    0.000    0.000 
#
# Total GULP energy -694442.162036 kJ/mol
# GULP energy per Si atom -12400.752894 kJ/mol
# Density = 1.709254 g / cm^3
# Si number density = 17.131534 Si / 1000 Ang^3
#
#
#
# Elastic Constant Matrix: (Units=GPa)
#
#
# Indices 1 2 3 4 5 6 
#
# 1 137.9925 39.3731 66.5525 0.0000 0.0000 0.0000
# 2 39.3731 49.8483 36.5377 0.0000 0.0000 0.0000
# 3 66.5525 36.5377 118.6109 0.0000 0.0000 0.0000
# 4 0.0000 0.0000 0.0000 25.0514 0.0000 0.0000
# 5 0.0000 0.0000 0.0000 0.0000 22.8894 0.0000
# 6 0.0000 0.0000 0.0000 0.0000 0.0000 21.1664
#
#
#
# Elastic Compliance Matrix: (Units=1/GPa)
#
#
# Indices 1 2 3 4 5 6 
#
# 1 0.010938 -0.005349 -0.004490 0.000000 0.000000 0.000000
# 2 -0.005349 0.028527 -0.005786 0.000000 0.000000 0.000000
# 3 -0.004490 -0.005786 0.012733 0.000000 0.000000 0.000000
# 4 0.000000 0.000000 0.000000 0.039918 0.000000 0.000000
# 5 0.000000 0.000000 0.000000 0.000000 0.043688 0.000000
# 6 0.000000 0.000000 0.000000 0.000000 0.000000 0.047245
#
#
# Mechanical properties :
#
#
# Convention : Reuss Voigt Hill
#
# Bulk Modulus (GPa) = 47.73750 65.70869 56.72309
# Shear Modulus (GPa) = 22.59562 24.75399 23.67481
#
# Velocity S-wave (km/s) = 3.63567 3.80536 3.72148
# Velocity P-wave (km/s) = 6.74907 7.59910 7.18666
#
# Compressibility (1/GPa) = 0.02094789
#
# Stress axis : x y z
#
# Youngs Moduli (GPa) = 91.42160 35.05448 78.53826
#
# Poissons Ratio (x) = 0.18750 0.35262
# Poissons Ratio (y) = 0.48900 0.45446
# Poissons Ratio (z) = 0.41047 0.20284
#
# Static dielectric constant tensor:
#      x y z
#    x 3.208530 0.000000 0.000000 
#    y 0.000000 2.975270 0.000000 
#    z 0.000000 0.000000 3.197100 
# 
# 
# High freq. dielectric constant tensor:
#      x y z
#    x 1.651000 0.000000 0.000000 
#    y 0.000000 1.644780 0.000000 
#    z 0.000000 0.000000 1.655980 
# 
# From -- ./inp_files/25181.got.cif
#   From: 2010.03.12/outbox.cif.g09.slc.cpg/sg47_13_cif.got.tgz:25181.got - 2010.04.14 03:12:58.
