data_PCOD8194831
_publ_section_title
;
Structure prediction by ZEFSAII (Michael W. Deem and Ramdas Pophale) SiO2 
 PCOD8194831
Probable space group: P M M M
;
_chemical_formula_sum "Si O2"
_cell_formula_units_Z 48
_cell_length_a 20.397851
_cell_length_b 11.723350
_cell_length_c 12.703239
_cell_angle_alpha 90.000000
_cell_angle_beta 90.000000
_cell_angle_gamma 90.000000
_cell_volume 3037.740107
_symmetry_space_group_name_H-M "P M M M"
_symmetry_group_IT_number 47
_symmetry_cell_setting 'orthorhombic'
loop_
_space_group_symop_operation_xyz
x,y,z
-x,-y,z
x,-y,-z
-x,y,-z
-x,-y,-z
x,y,-z
-x,y,z
x,-y,z
loop_
_atom_site_type_symbol
_atom_site_label
_atom_site_fract_x
_atom_site_fract_y
_atom_site_fract_z
Si Si1 0.245058 0.125138 0.121923
Si Si2 0.000000 0.372210 0.878885
Si Si3 0.371160 0.255455 0.873628
Si Si4 0.500000 0.871892 0.874681
Si Si5 0.923643 0.130834 0.621584
Si Si6 0.868132 0.725566 0.800992
Si Si7 0.347982 0.500000 0.118068
Si Si8 0.806904 0.500000 0.122615
O O1 0.305537 0.195868 0.172191
O O2 0.174827 0.184260 0.134484
O O3 0.243202 0.000000 0.174936
O O4 0.260174 0.112328 0.000000
O O5 0.061430 0.293678 0.851635
O O6 0.000000 0.500000 0.823905
O O7 0.000000 0.397676 0.000000
O O8 0.435138 0.190240 0.831728
O O9 0.373960 0.384437 0.826874
O O10 0.368203 0.258937 0.000000
O O11 0.500000 0.000000 0.830652
O O12 0.500000 0.871547 0.000000
O O13 0.905695 0.147625 0.500000
O O14 0.878925 0.221826 0.684603
O O15 0.000000 0.157873 0.641318
O O16 0.908694 0.000000 0.656056
O O17 0.830097 0.606194 0.807125
O O18 0.270096 0.500000 0.115822
O O19 0.375559 0.500000 0.000000
O O20 0.834704 0.500000 0.000000
#
# Coordination Sequence:
#
# PCOD8194831 Si02
#       8
#     8   4   8   4   8   8   4   4
#     4  10  19  29  42  62  89 120 153 190 232 280
#     4  11  22  32  44  65  94 124 156 190 230 280
#     4   9  16  26  40  57  81 115 155 195 228 268
#     4   9  16  25  37  55  81 114 154 199 240 267
#     4   9  19  37  56  70  87 114 150 195 246 295
#     4  12  20  32  49  68  88 118 158 193 234 284
#     4   9  16  27  41  58  81 117 160 192 222 266
#     4  11  20  31  48  67  95 131 159 189 232 284
#
# _framework density 15.801220000000001
#
# number of rings (size 3 to 8) (size 9 to 14) (size 15 to 20)
#    0.000    2.000    3.333    3.000    0.000    2.333 
#    0.000    2.083    0.000    3.500    0.000    0.000 
#    0.000    0.000    0.000    0.750    0.000   10.250 
#
# Total GULP energy -594766.268082 kJ/mol
# GULP energy per Si atom -12390.963918 kJ/mol
# Density = 1.576526 g / cm^3
# Si number density = 15.801220 Si / 1000 Ang^3
#
#
#
# Elastic Constant Matrix: (Units=GPa)
#
#
# Indices 1 2 3 4 5 6 
#
# 1 104.1071 64.1574 10.0040 0.0000 0.0000 0.0000
# 2 64.1574 159.4939 27.8503 0.0000 0.0000 0.0000
# 3 10.0040 27.8503 37.6136 0.0000 0.0000 0.0000
# 4 0.0000 0.0000 0.0000 18.4586 0.0000 0.0000
# 5 0.0000 0.0000 0.0000 0.0000 1.3874 0.0000
# 6 0.0000 0.0000 0.0000 0.0000 0.0000 35.5775
#
#
#
# Elastic Compliance Matrix: (Units=1/GPa)
#
#
# Indices 1 2 3 4 5 6 
#
# 1 0.012779 -0.005222 0.000468 0.000000 0.000000 0.000000
# 2 -0.005222 0.009335 -0.005523 0.000000 0.000000 0.000000
# 3 0.000468 -0.005523 0.030551 0.000000 0.000000 0.000000
# 4 0.000000 0.000000 0.000000 0.054175 0.000000 0.000000
# 5 0.000000 0.000000 0.000000 0.000000 0.720777 0.000000
# 6 0.000000 0.000000 0.000000 0.000000 0.000000 0.028108
#
#
# Mechanical properties :
#
#
# Convention : Reuss Voigt Hill
#
# Bulk Modulus (GPa) = 31.14260 56.13755 43.64007
# Shear Modulus (GPa) = 5.63709 24.36489 15.00099
#
# Velocity S-wave (km/s) = 1.89083 3.93104 3.08451
# Velocity P-wave (km/s) = 4.95164 7.49724 6.35324
#
# Compressibility (1/GPa) = 0.03211036
#
# Stress axis : x y z
#
# Youngs Moduli (GPa) = 78.25543 107.12597 32.73212
#
# Poissons Ratio (x) = 0.55941 -0.01531
# Poissons Ratio (y) = 0.40865 0.18078
# Poissons Ratio (z) = -0.03661 0.59165
#
# Static dielectric constant tensor:
#      x y z
#    x 3.052380 0.000000 0.000000 
#    y 0.000000 3.412260 0.000000 
#    z 0.000000 0.000000 2.460750 
# 
# 
# High freq. dielectric constant tensor:
#      x y z
#    x 1.611980 0.000000 0.000000 
#    y 0.000000 1.631170 0.000000 
#    z 0.000000 0.000000 1.524460 
# 
# From -- ./inp_files/19129.got.cif
#   From: 2010.03.12/outbox.cif.g09.slc.cpg/sg47_10_cif.got.tgz:19129.got - 2010.04.14 03:12:58.
