data_PCOD8194630
_publ_section_title
;
Structure prediction by ZEFSAII (Michael W. Deem and Ramdas Pophale) SiO2 
 PCOD8194630
Probable space group: P M M M
;
_chemical_formula_sum "Si O2"
_cell_formula_units_Z 56
_cell_length_a 22.873341
_cell_length_b 8.099344
_cell_length_c 15.261121
_cell_angle_alpha 90.000000
_cell_angle_beta 90.000000
_cell_angle_gamma 90.000000
_cell_volume 2827.260888
_symmetry_space_group_name_H-M "P M M M"
_symmetry_group_IT_number 47
_symmetry_cell_setting 'orthorhombic'
loop_
_space_group_symop_operation_xyz
x,y,z
-x,-y,z
x,-y,-z
-x,y,-z
-x,-y,-z
x,y,-z
-x,y,z
x,-y,z
loop_
_atom_site_type_symbol
_atom_site_label
_atom_site_fract_x
_atom_site_fract_y
_atom_site_fract_z
Si Si1 0.566945 0.305525 0.098204
Si Si2 0.338206 0.191652 0.769789
Si Si3 0.125224 0.813173 0.832566
Si Si4 0.713858 0.693443 0.595781
Si Si5 0.066285 0.694386 0.500000
Si Si6 0.067262 0.500000 0.904690
Si Si7 0.751719 0.193285 0.905629
Si Si8 0.843395 0.303793 0.351859
O O1 0.500000 0.251611 0.110420
O O2 0.573862 0.500000 0.105672
O O3 0.601431 0.224194 0.179195
O O4 0.588039 0.248209 0.000000
O O5 0.333355 0.261496 0.671095
O O6 0.286928 0.275736 0.828812
O O7 0.328216 0.000000 0.759185
O O8 0.079442 0.668458 0.851594
O O9 0.180290 0.772448 0.893365
O O10 0.145385 0.804153 0.733184
O O11 0.101176 0.000000 0.851470
O O12 0.694320 0.765057 0.500000
O O13 0.716127 0.500000 0.589126
O O14 0.779928 0.755299 0.614213
O O15 0.059750 0.500000 0.500000
O O16 0.104157 0.749302 0.416359
O O17 0.000000 0.771882 0.500000
O O18 0.000000 0.500000 0.921681
O O19 0.098950 0.500000 0.000000
O O20 0.738323 0.000000 0.904995
O O21 0.733458 0.268704 0.000000
O O22 0.844357 0.500000 0.333140
#
# Coordination Sequence:
#
# PCOD8194630 Si02
#       8
#     8   8   8   8   4   4   8   8
#     4   9  19  37  59  84 119 161 200 238 283 342
#     4  11  21  33  54  85 118 153 195 242 294 348
#     4  11  22  39  62  87 116 151 189 237 299 360
#     4  10  20  35  56  80 114 159 204 247 294 352
#     4   9  18  32  55  85 113 146 188 237 297 357
#     4  11  26  46  64  83 109 147 198 249 296 357
#     4   9  18  32  51  79 116 151 182 225 282 343
#     4  10  18  34  57  84 117 152 191 238 293 356
#
# _framework density 19.807158000000001
#
# number of rings (size 3 to 8) (size 9 to 14) (size 15 to 20)
#    0.000    2.000    2.857    1.714    0.000    3.143 
#    1.286    1.786    0.000    0.857    0.000    3.000 
#    0.000    0.000    0.000    0.000    0.000    0.000 
#
# Total GULP energy -693903.282688 kJ/mol
# GULP energy per Si atom -12391.130048 kJ/mol
# Density = 1.976208 g / cm^3
# Si number density = 19.807158 Si / 1000 Ang^3
#
#
#
# Elastic Constant Matrix: (Units=GPa)
#
#
# Indices 1 2 3 4 5 6 
#
# 1 76.6155 19.6449 52.0920 0.0000 0.0000 0.0000
# 2 19.6449 57.7998 26.5009 0.0000 0.0000 0.0000
# 3 52.0920 26.5009 169.1107 0.0000 0.0000 0.0000
# 4 0.0000 0.0000 0.0000 18.5155 0.0000 0.0000
# 5 0.0000 0.0000 0.0000 0.0000 21.2532 0.0000
# 6 0.0000 0.0000 0.0000 0.0000 0.0000 14.6475
#
#
#
# Elastic Compliance Matrix: (Units=1/GPa)
#
#
# Indices 1 2 3 4 5 6 
#
# 1 0.017208 -0.003683 -0.004724 0.000000 0.000000 0.000000
# 2 -0.003683 0.019429 -0.001910 0.000000 0.000000 0.000000
# 3 -0.004724 -0.001910 0.007668 0.000000 0.000000 0.000000
# 4 0.000000 0.000000 0.000000 0.054009 0.000000 0.000000
# 5 0.000000 0.000000 0.000000 0.000000 0.047052 0.000000
# 6 0.000000 0.000000 0.000000 0.000000 0.000000 0.068271
#
#
# Mechanical properties :
#
#
# Convention : Reuss Voigt Hill
#
# Bulk Modulus (GPa) = 42.24556 55.55574 48.90065
# Shear Modulus (GPa) = 20.64751 24.56910 22.60831
#
# Velocity S-wave (km/s) = 3.23217 3.52577 3.38216
# Velocity P-wave (km/s) = 5.94171 6.68461 6.32408
#
# Compressibility (1/GPa) = 0.02367113
#
# Stress axis : x y z
#
# Youngs Moduli (GPa) = 58.11195 51.47040 130.41816
#
# Poissons Ratio (x) = 0.18956 0.61604
# Poissons Ratio (y) = 0.21402 0.24912
# Poissons Ratio (z) = 0.27450 0.09832
#
# Static dielectric constant tensor:
#      x y z
#    x 3.532690 0.000000 0.000000 
#    y 0.000000 3.335430 0.000000 
#    z 0.000000 0.000000 4.219850 
# 
# 
# High freq. dielectric constant tensor:
#      x y z
#    x 1.748230 0.000000 0.000000 
#    y 0.000000 1.753130 0.000000 
#    z 0.000000 0.000000 1.784360 
# 
# From -- ./inp_files/25178.got.cif
#   From: 2010.03.12/outbox.cif.g09.slc.cpg/sg47_13_cif.got.tgz:25178.got - 2010.04.14 03:12:58.
