data_PCOD8194367
_publ_section_title
;
Structure prediction by ZEFSAII (Michael W. Deem and Ramdas Pophale) SiO2 
 PCOD8194367
Probable space group: P M M M
;
_chemical_formula_sum "Si O2"
_cell_formula_units_Z 64
_cell_length_a 10.000706
_cell_length_b 14.441087
_cell_length_c 23.878493
_cell_angle_alpha 90.000000
_cell_angle_beta 90.000000
_cell_angle_gamma 90.000000
_cell_volume 3448.557399
_symmetry_space_group_name_H-M "P M M M"
_symmetry_group_IT_number 47
_symmetry_cell_setting 'orthorhombic'
loop_
_space_group_symop_operation_xyz
x,y,z
-x,-y,z
x,-y,-z
-x,y,-z
-x,-y,-z
x,y,-z
-x,y,z
x,-y,z
loop_
_atom_site_type_symbol
_atom_site_label
_atom_site_fract_x
_atom_site_fract_y
_atom_site_fract_z
Si Si1 0.343886 0.606756 0.835338
Si Si2 0.655193 0.899950 0.126580
Si Si3 0.846770 0.607539 0.366583
Si Si4 0.653462 0.899965 0.367928
Si Si5 0.344704 0.274656 0.565577
Si Si6 0.657845 0.725360 0.938022
Si Si7 0.852675 0.700935 0.250391
Si Si8 0.758922 0.896532 0.247864
O O1 0.500000 0.624856 0.822297
O O2 0.305621 0.500000 0.829036
O O3 0.308482 0.637879 0.898661
O O4 0.257487 0.666814 0.792968
O O5 0.500000 0.901754 0.112981
O O6 0.721822 0.818226 0.089782
O O7 0.671064 0.882150 0.192485
O O8 0.718895 0.000000 0.109914
O O9 0.822690 0.500000 0.354126
O O10 0.745579 0.638692 0.415448
O O11 0.809756 0.664527 0.311081
O O12 0.000000 0.626115 0.385138
O O13 0.500000 0.903712 0.384901
O O14 0.716729 0.816326 0.403662
O O15 0.663984 0.883867 0.301498
O O16 0.719921 0.000000 0.383756
O O17 0.328344 0.259932 0.500000
O O18 0.500000 0.293119 0.581747
O O19 0.500000 0.737356 0.942780
O O20 0.719745 0.709753 0.000000
O O21 0.865252 0.812972 0.250279
O O22 0.000000 0.662093 0.234677
O O23 0.826085 0.000000 0.247963
#
# Coordination Sequence:
#
# PCOD8194367 Si02
#       8
#     8   8   8   8   8   8   8   8
#     4  10  21  36  55  80 108 140 180 225 273 323
#     4   9  16  26  44  73 107 139 173 218 268 317
#     4  10  22  40  59  79 105 140 181 222 269 325
#     4   9  17  30  51  80 112 145 178 215 264 320
#     4  10  21  36  56  83 112 142 180 226 268 309
#     4   9  17  29  47  73 105 141 180 221 265 315
#     4  11  22  37  58  83 112 142 173 218 271 325
#     4  10  18  30  52  80 107 139 177 216 262 322
#
# _framework density 18.558485000000001
#
# number of rings (size 3 to 8) (size 9 to 14) (size 15 to 20)
#    0.000    2.250    2.500    0.750    0.000    5.000 
#    0.000    5.000    0.000    0.750    0.000    1.750 
#    0.000    2.000    0.000    0.000    0.000    0.000 
#
# Total GULP energy -793140.443328 kJ/mol
# GULP energy per Si atom -12392.819427 kJ/mol
# Density = 1.851624 g / cm^3
# Si number density = 18.558485 Si / 1000 Ang^3
#
#
#
# Elastic Constant Matrix: (Units=GPa)
#
#
# Indices 1 2 3 4 5 6 
#
# 1 47.8590 35.9106 33.8864 0.0000 0.0000 0.0000
# 2 35.9106 124.8304 47.9535 0.0000 0.0000 0.0000
# 3 33.8864 47.9535 105.2275 0.0000 0.0000 0.0000
# 4 0.0000 0.0000 0.0000 22.3328 0.0000 0.0000
# 5 0.0000 0.0000 0.0000 0.0000 12.2254 0.0000
# 6 0.0000 0.0000 0.0000 0.0000 0.0000 17.2621
#
#
#
# Elastic Compliance Matrix: (Units=1/GPa)
#
#
# Indices 1 2 3 4 5 6 
#
# 1 0.030415 -0.006045 -0.007040 0.000000 0.000000 0.000000
# 2 -0.006045 0.010912 -0.003026 0.000000 0.000000 0.000000
# 3 -0.007040 -0.003026 0.013149 0.000000 0.000000 0.000000
# 4 0.000000 0.000000 0.000000 0.044777 0.000000 0.000000
# 5 0.000000 0.000000 0.000000 0.000000 0.081797 0.000000
# 6 0.000000 0.000000 0.000000 0.000000 0.000000 0.057930
#
#
# Mechanical properties :
#
#
# Convention : Reuss Voigt Hill
#
# Bulk Modulus (GPa) = 44.93464 57.04643 50.99053
# Shear Modulus (GPa) = 17.94546 21.04182 19.49364
#
# Velocity S-wave (km/s) = 3.11298 3.37086 3.24449
# Velocity P-wave (km/s) = 6.09803 6.77907 6.44755
#
# Compressibility (1/GPa) = 0.02225454
#
# Stress axis : x y z
#
# Youngs Moduli (GPa) = 32.87826 91.63817 76.05000
#
# Poissons Ratio (x) = 0.55399 0.53536
# Poissons Ratio (y) = 0.19876 0.23014
# Poissons Ratio (z) = 0.23145 0.27731
#
# Static dielectric constant tensor:
#      x y z
#    x 2.976030 0.000000 0.000000 
#    y 0.000000 3.798350 0.000000 
#    z 0.000000 0.000000 3.447770 
# 
# 
# High freq. dielectric constant tensor:
#      x y z
#    x 1.671250 0.000000 0.000000 
#    y 0.000000 1.739220 0.000000 
#    z 0.000000 0.000000 1.715810 
# 
# From -- ./inp_files/27626.got.cif
#   From: 2010.03.12/outbox.cif.g09.slc.cpg/sg47_14_cif.got.tgz:27626.got - 2010.04.14 03:12:58.
