data_PCOD8194525
_publ_section_title
;
Structure prediction by ZEFSAII (Michael W. Deem and Ramdas Pophale) SiO2 
 PCOD8194525
Probable space group: P M M M
;
_chemical_formula_sum "Si O2"
_cell_formula_units_Z 52
_cell_length_a 15.034888
_cell_length_b 20.023060
_cell_length_c 9.176473
_cell_angle_alpha 90.000000
_cell_angle_beta 90.000000
_cell_angle_gamma 90.000000
_cell_volume 2762.526400
_symmetry_space_group_name_H-M "P M M M"
_symmetry_group_IT_number 47
_symmetry_cell_setting 'orthorhombic'
loop_
_space_group_symop_operation_xyz
x,y,z
-x,-y,z
x,-y,-z
-x,y,-z
-x,-y,-z
x,y,-z
-x,y,z
x,-y,z
loop_
_atom_site_type_symbol
_atom_site_label
_atom_site_fract_x
_atom_site_fract_y
_atom_site_fract_z
Si Si1 0.396822 0.000000 0.825984
Si Si2 0.327499 0.639704 0.672599
Si Si3 0.902530 0.824667 0.172591
Si Si4 0.598205 0.753908 0.835054
Si Si5 0.148650 0.323929 0.827854
Si Si6 0.400633 0.500000 0.327009
Si Si7 0.000000 0.425145 0.827358
Si Si8 0.716712 0.874966 0.173313
O O1 0.340080 0.937112 0.764613
O O2 0.500000 0.000000 0.768698
O O3 0.399213 0.000000 0.000000
O O4 0.322836 0.642977 0.500000
O O5 0.403502 0.689157 0.731555
O O6 0.238365 0.666357 0.742392
O O7 0.348132 0.565052 0.728199
O O8 0.891668 0.747392 0.218086
O O9 0.819680 0.870322 0.231246
O O10 0.000000 0.849395 0.231485
O O11 0.902107 0.829690 0.000000
O O12 0.500000 0.786234 0.831977
O O13 0.667966 0.807799 0.774564
O O14 0.623989 0.732976 0.000000
O O15 0.085590 0.384032 0.774804
O O16 0.165710 0.326502 0.000000
O O17 0.500000 0.500000 0.260990
O O18 0.406949 0.500000 0.500000
O O19 0.000000 0.500000 0.759206
O O20 0.000000 0.429719 0.000000
O O21 0.716212 0.879541 0.000000
#
# Coordination Sequence:
#
# PCOD8194525 Si02
#       8
#     4   8   8   8   8   4   4   8
#     4   9  16  26  41  65 102 144 172 197 246 306
#     4  11  22  35  52  73  99 131 169 209 257 310
#     4   9  15  26  46  69  93 128 167 201 248 303
#     4  10  19  32  52  76 100 128 167 215 258 297
#     4  10  18  32  52  73  99 130 166 209 256 306
#     4   9  20  38  53  64  89 132 170 199 245 311
#     4   9  18  30  49  77 101 128 168 211 258 315
#     4   9  16  27  44  70 102 132 167 206 246 298
#
# _framework density 18.823347999999999
#
# number of rings (size 3 to 8) (size 9 to 14) (size 15 to 20)
#    0.000    2.385    2.308    1.385    1.077    2.769 
#    0.000    1.923    0.000    5.538    0.000    0.538 
#    0.000    1.846    0.000    1.385    0.000    1.538 
#
# Total GULP energy -644392.973526 kJ/mol
# GULP energy per Si atom -12392.172568 kJ/mol
# Density = 1.878051 g / cm^3
# Si number density = 18.823348 Si / 1000 Ang^3
#
#
#
# Elastic Constant Matrix: (Units=GPa)
#
#
# Indices 1 2 3 4 5 6 
#
# 1 156.0772 63.3267 15.5020 0.0000 0.0000 0.0000
# 2 63.3267 120.4870 17.4997 0.0000 0.0000 0.0000
# 3 15.5020 17.4997 23.3952 0.0000 0.0000 0.0000
# 4 0.0000 0.0000 0.0000 9.9511 0.0000 0.0000
# 5 0.0000 0.0000 0.0000 0.0000 2.5326 0.0000
# 6 0.0000 0.0000 0.0000 0.0000 0.0000 36.4189
#
#
#
# Elastic Compliance Matrix: (Units=1/GPa)
#
#
# Indices 1 2 3 4 5 6 
#
# 1 0.008272 -0.003985 -0.002501 0.000000 0.000000 0.000000
# 2 -0.003985 0.011231 -0.005760 0.000000 0.000000 0.000000
# 3 -0.002501 -0.005760 0.048710 0.000000 0.000000 0.000000
# 4 0.000000 0.000000 0.000000 0.100491 0.000000 0.000000
# 5 0.000000 0.000000 0.000000 0.000000 0.394854 0.000000
# 6 0.000000 0.000000 0.000000 0.000000 0.000000 0.027458
#
#
# Mechanical properties :
#
#
# Convention : Reuss Voigt Hill
#
# Bulk Modulus (GPa) = 22.87229 54.73514 38.80372
# Shear Modulus (GPa) = 7.93550 23.35592 15.64571
#
# Velocity S-wave (km/s) = 2.05546 3.52631 2.88616
# Velocity P-wave (km/s) = 4.22027 6.76175 5.63613
#
# Compressibility (1/GPa) = 0.04372102
#
# Stress axis : x y z
#
# Youngs Moduli (GPa) = 120.88743 89.04319 20.52986
#
# Poissons Ratio (x) = 0.35480 0.05134
# Poissons Ratio (y) = 0.48168 0.11826
# Poissons Ratio (z) = 0.30232 0.51291
#
# Static dielectric constant tensor:
#      x y z
#    x 3.838970 0.000000 0.000000 
#    y 0.000000 3.695590 0.000000 
#    z 0.000000 0.000000 2.834090 
# 
# 
# High freq. dielectric constant tensor:
#      x y z
#    x 1.753470 0.000000 0.000000 
#    y 0.000000 1.727840 0.000000 
#    z 0.000000 0.000000 1.658980 
# 
# From -- ./inp_files/7115.got.cif
#   From: 2010.03.12/outbox.cif.g09.slc.cpg/sg47_4_cif.got.tgz:7115.got - 2010.04.14 03:12:58.
