data_PCOD8194887
_publ_section_title
;
Structure prediction by ZEFSAII (Michael W. Deem and Ramdas Pophale) SiO2 
 PCOD8194887
Probable space group: P M M M
;
_chemical_formula_sum "Si O2"
_cell_formula_units_Z 64
_cell_length_a 23.838195
_cell_length_b 8.995769
_cell_length_c 18.738737
_cell_angle_alpha 90.000000
_cell_angle_beta 90.000000
_cell_angle_gamma 90.000000
_cell_volume 4018.389022
_symmetry_space_group_name_H-M "P M M M"
_symmetry_group_IT_number 47
_symmetry_cell_setting 'orthorhombic'
loop_
_space_group_symop_operation_xyz
x,y,z
-x,-y,z
x,-y,-z
-x,y,-z
-x,-y,-z
x,y,-z
-x,y,z
x,-y,z
loop_
_atom_site_type_symbol
_atom_site_label
_atom_site_fract_x
_atom_site_fract_y
_atom_site_fract_z
Si Si1 0.770260 0.670579 0.420372
Si Si2 0.842431 0.172184 0.799467
Si Si3 0.438538 0.823524 0.919872
Si Si4 0.327000 0.824050 0.848416
Si Si5 0.223925 0.328108 0.082544
Si Si6 0.267623 0.830413 0.708093
Si Si7 0.111948 0.172100 0.580746
Si Si8 0.935713 0.329244 0.711690
O O1 0.744966 0.689916 0.500000
O O2 0.785659 0.500000 0.405286
O O3 0.725312 0.728140 0.362138
O O4 0.825342 0.768816 0.411369
O O5 0.825765 0.251448 0.873034
O O6 0.793714 0.194843 0.741421
O O7 0.899160 0.243084 0.769856
O O8 0.852721 0.000000 0.815724
O O9 0.500000 0.766624 0.893632
O O10 0.389573 0.766559 0.867240
O O11 0.438366 0.000000 0.920753
O O12 0.426973 0.764478 0.000000
O O13 0.283756 0.745924 0.901446
O O14 0.314232 0.781980 0.766223
O O15 0.319588 0.000000 0.859665
O O16 0.227342 0.500000 0.104096
O O17 0.209272 0.306169 0.000000
O O18 0.276630 0.000000 0.684915
O O19 0.089959 0.194178 0.500000
O O20 0.070803 0.259999 0.632940
O O21 0.112476 0.000000 0.603035
O O22 0.916459 0.500000 0.708984
O O23 0.000000 0.313956 0.735367
#
# Coordination Sequence:
#
# PCOD8194887 Si02
#       8
#     8   8   8   8   8   8   8   8
#     4  10  19  29  44  65  88 117 150 184 227 277
#     4  10  20  34  52  71  91 117 149 185 227 276
#     4   8  13  22  39  64  93 126 163 199 231 263
#     4   9  17  28  44  67  95 125 159 196 229 268
#     4  10  20  32  48  71  97 123 150 185 230 276
#     4   9  17  28  43  65  90 117 148 184 229 275
#     4  10  20  33  49  68  91 120 153 188 224 265
#     4  11  23  36  51  70  92 119 150 186 227 273
#
# _framework density 15.926781
#
# number of rings (size 3 to 8) (size 9 to 14) (size 15 to 20)
#    0.000    2.375    1.250    3.375    0.000    6.250 
#    0.000    1.250    0.000    0.750    0.000    4.375 
#    0.000    0.500    0.000    6.250    0.000    1.000 
#
# Total GULP energy -793523.175084 kJ/mol
# GULP energy per Si atom -12398.799611 kJ/mol
# Density = 1.589053 g / cm^3
# Si number density = 15.926781 Si / 1000 Ang^3
#
#
#
# Elastic Constant Matrix: (Units=GPa)
#
#
# Indices 1 2 3 4 5 6 
#
# 1 93.6111 37.4326 54.0132 0.0000 0.0000 0.0000
# 2 37.4326 84.0022 50.0629 0.0000 0.0000 0.0000
# 3 54.0132 50.0629 98.5127 0.0000 0.0000 0.0000
# 4 0.0000 0.0000 0.0000 27.5973 0.0000 0.0000
# 5 0.0000 0.0000 0.0000 0.0000 25.1620 0.0000
# 6 0.0000 0.0000 0.0000 0.0000 0.0000 10.0171
#
#
#
# Elastic Compliance Matrix: (Units=1/GPa)
#
#
# Indices 1 2 3 4 5 6 
#
# 1 0.016053 -0.002737 -0.007411 0.000000 0.000000 0.000000
# 2 -0.002737 0.017543 -0.007415 0.000000 0.000000 0.000000
# 3 -0.007411 -0.007415 0.017982 0.000000 0.000000 0.000000
# 4 0.000000 0.000000 0.000000 0.036235 0.000000 0.000000
# 5 0.000000 0.000000 0.000000 0.000000 0.039742 0.000000
# 6 0.000000 0.000000 0.000000 0.000000 0.000000 0.099829
#
#
# Mechanical properties :
#
#
# Convention : Reuss Voigt Hill
#
# Bulk Modulus (GPa) = 60.77647 62.12705 61.45176
# Shear Modulus (GPa) = 18.65715 21.52977 20.09346
#
# Velocity S-wave (km/s) = 3.42633 3.68067 3.55577
# Velocity P-wave (km/s) = 7.34137 7.56014 7.45156
#
# Compressibility (1/GPa) = 0.01645374
#
# Stress axis : x y z
#
# Youngs Moduli (GPa) = 62.29435 57.00334 55.61068
#
# Poissons Ratio (x) = 0.15600 0.41212
# Poissons Ratio (y) = 0.17048 0.41233
# Poissons Ratio (z) = 0.46165 0.42265
#
# Static dielectric constant tensor:
#      x y z
#    x 2.939730 0.000000 0.000000 
#    y 0.000000 3.040170 0.000000 
#    z 0.000000 0.000000 3.127860 
# 
# 
# High freq. dielectric constant tensor:
#      x y z
#    x 1.578240 0.000000 0.000000 
#    y 0.000000 1.614610 0.000000 
#    z 0.000000 0.000000 1.608890 
# 
# From -- ./inp_files/28938.got.cif
#   From: 2010.03.12/outbox.cif.g09.slc.cpg/sg47_15_cif.got.tgz:28938.got - 2010.04.14 03:12:58.
