data_PCOD8194899
_publ_section_title
;
Structure prediction by ZEFSAII (Michael W. Deem and Ramdas Pophale) SiO2 
 PCOD8194899
Probable space group: P M M M
;
_chemical_formula_sum "Si O2"
_cell_formula_units_Z 64
_cell_length_a 23.434017
_cell_length_b 9.167543
_cell_length_c 18.930542
_cell_angle_alpha 90.000000
_cell_angle_beta 90.000000
_cell_angle_gamma 90.000000
_cell_volume 4066.892986
_symmetry_space_group_name_H-M "P M M M"
_symmetry_group_IT_number 47
_symmetry_cell_setting 'orthorhombic'
loop_
_space_group_symop_operation_xyz
x,y,z
-x,-y,z
x,-y,-z
-x,y,-z
-x,-y,-z
x,y,-z
-x,y,z
x,-y,z
loop_
_atom_site_type_symbol
_atom_site_label
_atom_site_fract_x
_atom_site_fract_y
_atom_site_fract_z
Si Si1 0.225604 0.673594 0.421640
Si Si2 0.934908 0.832091 0.795354
Si Si3 0.764107 0.831578 0.920820
Si Si4 0.272786 0.333413 0.794599
Si Si5 0.663131 0.671776 0.343773
Si Si6 0.157119 0.331724 0.290157
Si Si7 0.434798 0.829280 0.420081
Si Si8 0.882981 0.331481 0.079745
O O1 0.212847 0.734883 0.500000
O O2 0.228120 0.500000 0.420500
O O3 0.287012 0.731574 0.395346
O O4 0.175678 0.723576 0.368220
O O5 0.895599 0.765973 0.734070
O O6 0.927555 0.746446 0.868892
O O7 0.000000 0.815494 0.770468
O O8 0.918293 0.000000 0.807467
O O9 0.719365 0.768328 0.863658
O O10 0.821917 0.742224 0.912171
O O11 0.776702 0.000000 0.904576
O O12 0.739154 0.811642 0.000000
O O13 0.281512 0.500000 0.817853
O O14 0.320303 0.288942 0.736875
O O15 0.209920 0.310590 0.762601
O O16 0.655962 0.500000 0.352727
O O17 0.604074 0.747185 0.363537
O O18 0.137871 0.500000 0.291786
O O19 0.420186 0.778909 0.500000
O O20 0.500000 0.789679 0.402333
O O21 0.424213 0.000000 0.412410
O O22 0.876597 0.500000 0.101933
O O23 0.906213 0.315932 0.000000
#
# Coordination Sequence:
#
# PCOD8194899 Si02
#       8
#     8   8   8   8   8   8   8   8
#     4   8  14  26  46  71  95 115 138 179 230 269
#     4  11  23  35  47  64  86 112 144 184 225 266
#     4  10  19  29  44  67  93 121 151 181 217 263
#     4   9  17  29  45  67  93 119 148 185 228 268
#     4   9  17  28  45  70  96 121 154 193 228 266
#     4   9  17  30  48  67  86 112 145 177 217 272
#     4   9  18  31  44  61  92 133 170 200 229 263
#     4  10  20  33  49  67  87 113 145 180 217 261
#
# _framework density 15.736829
#
# number of rings (size 3 to 8) (size 9 to 14) (size 15 to 20)
#    0.000    2.625    1.250    3.375    0.000    4.250 
#    0.000    3.750    0.000    1.500    0.000    2.625 
#    0.000    0.500    0.000    5.500    0.000    4.000 
#
# Total GULP energy -793450.628375 kJ/mol
# GULP energy per Si atom -12397.666068 kJ/mol
# Density = 1.570101 g / cm^3
# Si number density = 15.736829 Si / 1000 Ang^3
#
#
#
# Elastic Constant Matrix: (Units=GPa)
#
#
# Indices 1 2 3 4 5 6 
#
# 1 82.0137 45.8570 53.3776 0.0000 0.0000 0.0000
# 2 45.8570 82.6051 53.4820 0.0000 0.0000 0.0000
# 3 53.3776 53.4820 116.9928 0.0000 0.0000 0.0000
# 4 0.0000 0.0000 0.0000 22.1399 0.0000 0.0000
# 5 0.0000 0.0000 0.0000 0.0000 25.3466 0.0000
# 6 0.0000 0.0000 0.0000 0.0000 0.0000 24.1975
#
#
#
# Elastic Compliance Matrix: (Units=1/GPa)
#
#
# Indices 1 2 3 4 5 6 
#
# 1 0.020103 -0.007417 -0.005781 0.000000 0.000000 0.000000
# 2 -0.007417 0.019931 -0.005728 0.000000 0.000000 0.000000
# 3 -0.005781 -0.005728 0.013804 0.000000 0.000000 0.000000
# 4 0.000000 0.000000 0.000000 0.045167 0.000000 0.000000
# 5 0.000000 0.000000 0.000000 0.000000 0.039453 0.000000
# 6 0.000000 0.000000 0.000000 0.000000 0.000000 0.041327
#
#
# Mechanical properties :
#
#
# Convention : Reuss Voigt Hill
#
# Bulk Modulus (GPa) = 62.55298 65.22721 63.89010
# Shear Modulus (GPa) = 22.42511 22.92981 22.67746
#
# Velocity S-wave (km/s) = 3.77902 3.82131 3.80023
# Velocity P-wave (km/s) = 7.67314 7.81080 7.74228
#
# Compressibility (1/GPa) = 0.01598645
#
# Stress axis : x y z
#
# Youngs Moduli (GPa) = 49.74448 50.17241 72.44504
#
# Poissons Ratio (x) = 0.37211 0.41883
# Poissons Ratio (y) = 0.36894 0.41493
# Poissons Ratio (z) = 0.28759 0.28737
#
# Static dielectric constant tensor:
#      x y z
#    x 2.721880 0.000000 0.000000 
#    y 0.000000 2.920790 0.000000 
#    z 0.000000 0.000000 3.252030 
# 
# 
# High freq. dielectric constant tensor:
#      x y z
#    x 1.568290 0.000000 0.000000 
#    y 0.000000 1.599780 0.000000 
#    z 0.000000 0.000000 1.605660 
# 
# From -- ./inp_files/31514.got.cif
#   From: 2010.03.12/outbox.cif.g09.slc.cpg/sg47_16_cif.got.tgz:31514.got - 2010.04.14 03:12:58.
