data_PCOD8194014
_publ_section_title
;
Structure prediction by ZEFSAII (Michael W. Deem and Ramdas Pophale) SiO2 
 PCOD8194014
Probable space group: P M M M
;
_chemical_formula_sum "Si O2"
_cell_formula_units_Z 40
_cell_length_a 10.332335
_cell_length_b 13.897898
_cell_length_c 19.595614
_cell_angle_alpha 90.000000
_cell_angle_beta 90.000000
_cell_angle_gamma 90.000000
_cell_volume 2813.885844
_symmetry_space_group_name_H-M "P M M M"
_symmetry_group_IT_number 47
_symmetry_cell_setting 'orthorhombic'
loop_
_space_group_symop_operation_xyz
x,y,z
-x,-y,z
x,-y,-z
-x,y,-z
-x,-y,-z
x,y,-z
-x,y,z
x,-y,z
loop_
_atom_site_type_symbol
_atom_site_label
_atom_site_fract_x
_atom_site_fract_y
_atom_site_fract_z
Si Si1 0.355554 0.114478 0.423445
Si Si2 0.500000 0.608571 0.918996
Si Si3 0.000000 0.393115 0.919041
Si Si4 0.150527 0.889588 0.165643
Si Si5 0.751309 0.276887 0.919105
Si Si6 0.856818 0.885557 0.320116
O O1 0.321946 0.149694 0.500000
O O2 0.500000 0.149535 0.402908
O O3 0.250416 0.158913 0.371194
O O4 0.350642 0.000000 0.420748
O O5 0.500000 0.500000 0.888760
O O6 0.374800 0.666418 0.893383
O O7 0.500000 0.601857 0.000000
O O8 0.126644 0.338225 0.893255
O O9 0.000000 0.500000 0.887509
O O10 0.000000 0.399209 0.000000
O O11 0.241119 0.827429 0.115843
O O12 0.175117 0.854108 0.242959
O O13 0.000000 0.877342 0.145893
O O14 0.193176 0.000000 0.156539
O O15 0.750497 0.261628 0.000000
O O16 0.000000 0.847835 0.341152
O O17 0.856568 0.000000 0.323871
#
# Coordination Sequence:
#
# PCOD8194014 Si02
#       6
#     8   4   4   8   8   8
#     4   8  13  21  33  50  71  92 120 163 204 231
#     4   9  18  32  47  61  81 103 121 158 218 268
#     4   9  16  26  43  65  81  93 123 170 210 250
#     4   9  17  29  42  57  81 111 142 175 204 230
#     4  10  18  29  44  62  80 103 136 170 207 248
#     4   8  14  24  36  49  69 100 134 163 192 229
#
# _framework density 14.215218999999999
#
# number of rings (size 3 to 8) (size 9 to 14) (size 15 to 20)
#    0.000    3.200    1.000    2.400    0.000    3.200 
#    1.800    3.500    0.000    1.800    0.000    0.000 
#    0.000    0.000    0.000    0.000    0.000    6.000 
#
# Total GULP energy -495784.358018 kJ/mol
# GULP energy per Si atom -12394.608950 kJ/mol
# Density = 1.418286 g / cm^3
# Si number density = 14.215219 Si / 1000 Ang^3
#
#
#
# Elastic Constant Matrix: (Units=GPa)
#
#
# Indices 1 2 3 4 5 6 
#
# 1 115.5733 43.1866 47.2579 0.0000 0.0000 0.0000
# 2 43.1866 61.6942 29.7904 0.0000 0.0000 0.0000
# 3 47.2579 29.7904 56.9621 0.0000 0.0000 0.0000
# 4 0.0000 0.0000 0.0000 0.9754 0.0000 0.0000
# 5 0.0000 0.0000 0.0000 0.0000 20.0866 0.0000
# 6 0.0000 0.0000 0.0000 0.0000 0.0000 18.3031
#
#
#
# Elastic Compliance Matrix: (Units=1/GPa)
#
#
# Indices 1 2 3 4 5 6 
#
# 1 0.014500 -0.005808 -0.008992 0.000000 0.000000 0.000000
# 2 -0.005808 0.024012 -0.007739 0.000000 0.000000 0.000000
# 3 -0.008992 -0.007739 0.029063 0.000000 0.000000 0.000000
# 4 0.000000 0.000000 0.000000 1.025207 0.000000 0.000000
# 5 0.000000 0.000000 0.000000 0.000000 0.049784 0.000000
# 6 0.000000 0.000000 0.000000 0.000000 0.000000 0.054636
#
#
# Mechanical properties :
#
#
# Convention : Reuss Voigt Hill
#
# Bulk Modulus (GPa) = 44.45220 52.74436 48.59828
# Shear Modulus (GPa) = 4.00071 15.47267 9.73669
#
# Velocity S-wave (km/s) = 1.67943 3.30276 2.61999
# Velocity P-wave (km/s) = 5.92447 7.19229 6.58894
#
# Compressibility (1/GPa) = 0.02249607
#
# Stress axis : x y z
#
# Youngs Moduli (GPa) = 68.96757 41.64640 34.40790
#
# Poissons Ratio (x) = 0.24188 0.30939
# Poissons Ratio (y) = 0.40056 0.26629
# Poissons Ratio (z) = 0.62015 0.32231
#
# Static dielectric constant tensor:
#      x y z
#    x 3.033260 0.000000 0.000000 
#    y 0.000000 2.482510 0.000000 
#    z 0.000000 0.000000 2.692520 
# 
# 
# High freq. dielectric constant tensor:
#      x y z
#    x 1.550430 0.000000 0.000000 
#    y 0.000000 1.496690 0.000000 
#    z 0.000000 0.000000 1.518170 
# 
# From -- ./inp_files/29416.got.cif
#   From: 2010.03.12/outbox.cif.g09.slc.cpg/sg47_15_cif.got.tgz:29416.got - 2010.04.14 03:12:58.
