data_PCOD8194147
_publ_section_title
;
Structure prediction by ZEFSAII (Michael W. Deem and Ramdas Pophale) SiO2 
 PCOD8194147
Probable space group: P M M M
;
_chemical_formula_sum "Si O2"
_cell_formula_units_Z 52
_cell_length_a 8.980941
_cell_length_b 23.559559
_cell_length_c 14.280907
_cell_angle_alpha 90.000000
_cell_angle_beta 90.000000
_cell_angle_gamma 90.000000
_cell_volume 3021.654403
_symmetry_space_group_name_H-M "P M M M"
_symmetry_group_IT_number 47
_symmetry_cell_setting 'orthorhombic'
loop_
_space_group_symop_operation_xyz
x,y,z
-x,-y,z
x,-y,-z
-x,y,-z
-x,-y,-z
x,y,-z
-x,y,z
x,-y,z
loop_
_atom_site_type_symbol
_atom_site_label
_atom_site_fract_x
_atom_site_fract_y
_atom_site_fract_z
Si Si1 0.172427 0.226592 0.894231
Si Si2 0.674512 0.838146 0.607649
Si Si3 0.325625 0.893096 0.894373
Si Si4 0.828785 0.936250 0.280071
Si Si5 0.336719 0.500000 0.388721
Si Si6 0.678238 0.621625 0.395098
Si Si7 0.323816 0.272589 0.275935
O O1 0.261333 0.169014 0.877086
O O2 0.241136 0.272733 0.823942
O O3 0.000000 0.215635 0.872104
O O4 0.194927 0.248877 0.000000
O O5 0.720160 0.829262 0.500000
O O6 0.500000 0.848621 0.618539
O O7 0.756060 0.893366 0.646831
O O8 0.724102 0.782295 0.664038
O O9 0.500000 0.890511 0.873855
O O10 0.249460 0.935359 0.821511
O O11 0.292479 0.914285 0.000000
O O12 0.000000 0.919455 0.266758
O O13 0.811565 0.000000 0.320046
O O14 0.500000 0.500000 0.342148
O O15 0.352962 0.500000 0.500000
O O16 0.257399 0.440189 0.360065
O O17 0.735194 0.635032 0.500000
O O18 0.500000 0.619122 0.395435
O O19 0.735810 0.671282 0.327901
O O20 0.500000 0.274516 0.260757
#
# Coordination Sequence:
#
# PCOD8194147 Si02
#       7
#     8   8   8   8   4   8   8
#     4  10  20  33  50  72  99 129 158 193 241 296
#     4  10  21  36  53  73  97 127 163 203 247 291
#     4  10  20  35  56  79 100 123 154 195 244 297
#     4  11  24  39  54  73  98 129 164 201 243 292
#     4   7  10  18  34  60  98 139 170 196 231 277
#     4   8  13  22  39  67 103 138 168 198 235 281
#     4  10  18  29  49  76 102 128 160 201 244 287
#
# _framework density 17.209115000000001
#
# number of rings (size 3 to 8) (size 9 to 14) (size 15 to 20)
#    0.000    2.385    1.538    2.769    0.000    5.846 
#    0.000    3.077    0.000    1.385    0.000    1.077 
#    0.000    6.154    0.000    0.000    0.000    0.000 
#
# Total GULP energy -644589.964528 kJ/mol
# GULP energy per Si atom -12395.960856 kJ/mol
# Density = 1.716995 g / cm^3
# Si number density = 17.209115 Si / 1000 Ang^3
#
#
#
# Elastic Constant Matrix: (Units=GPa)
#
#
# Indices 1 2 3 4 5 6 
#
# 1 50.0000 33.5567 36.3378 0.0000 0.0000 0.0000
# 2 33.5567 123.5139 56.0985 0.0000 0.0000 0.0000
# 3 36.3378 56.0985 99.8546 0.0000 0.0000 0.0000
# 4 0.0000 0.0000 0.0000 23.8534 0.0000 0.0000
# 5 0.0000 0.0000 0.0000 0.0000 19.0601 0.0000
# 6 0.0000 0.0000 0.0000 0.0000 0.0000 2.0348
#
#
#
# Elastic Compliance Matrix: (Units=1/GPa)
#
#
# Indices 1 2 3 4 5 6 
#
# 1 0.028654 -0.004093 -0.008128 0.000000 0.000000 0.000000
# 2 -0.004093 0.011455 -0.004946 0.000000 0.000000 0.000000
# 3 -0.008128 -0.004946 0.015751 0.000000 0.000000 0.000000
# 4 0.000000 0.000000 0.000000 0.041923 0.000000 0.000000
# 5 0.000000 0.000000 0.000000 0.000000 0.052466 0.000000
# 6 0.000000 0.000000 0.000000 0.000000 0.000000 0.491443
#
#
# Mechanical properties :
#
#
# Convention : Reuss Voigt Hill
#
# Bulk Modulus (GPa) = 46.45543 58.37273 52.41408
# Shear Modulus (GPa) = 7.31850 18.81470 13.06660
#
# Velocity S-wave (km/s) = 2.06444 3.31009 2.75850
# Velocity P-wave (km/s) = 5.72152 6.97153 6.37723
#
# Compressibility (1/GPa) = 0.02152601
#
# Stress axis : x y z
#
# Youngs Moduli (GPa) = 34.89901 87.30130 63.48894
#
# Poissons Ratio (x) = 0.35735 0.51602
# Poissons Ratio (y) = 0.14285 0.31399
# Poissons Ratio (z) = 0.28365 0.43176
#
# Static dielectric constant tensor:
#      x y z
#    x 3.008680 0.000000 0.000000 
#    y 0.000000 3.354820 0.000000 
#    z 0.000000 0.000000 3.268060 
# 
# 
# High freq. dielectric constant tensor:
#      x y z
#    x 1.644550 0.000000 0.000000 
#    y 0.000000 1.655960 0.000000 
#    z 0.000000 0.000000 1.656190 
# 
# From -- ./inp_files/21473.got.cif
#   From: 2010.03.12/outbox.cif.g09.slc.cpg/sg47_11_cif.got.tgz:21473.got - 2010.04.14 03:12:58.
