data_PCOD8194451
_publ_section_title
;
Structure prediction by ZEFSAII (Michael W. Deem and Ramdas Pophale) SiO2 
 PCOD8194451
Probable space group: P M M M
;
_chemical_formula_sum "Si O2"
_cell_formula_units_Z 64
_cell_length_a 14.373349
_cell_length_b 9.233473
_cell_length_c 30.911331
_cell_angle_alpha 90.000000
_cell_angle_beta 90.000000
_cell_angle_gamma 90.000000
_cell_volume 4102.426038
_symmetry_space_group_name_H-M "P M M M"
_symmetry_group_IT_number 47
_symmetry_cell_setting 'orthorhombic'
loop_
_space_group_symop_operation_xyz
x,y,z
-x,-y,z
x,-y,-z
-x,y,-z
-x,-y,-z
x,y,-z
-x,y,z
x,-y,z
loop_
_atom_site_type_symbol
_atom_site_label
_atom_site_fract_x
_atom_site_fract_y
_atom_site_fract_z
Si Si1 0.723340 0.833792 0.451190
Si Si2 0.610639 0.162712 0.047752
Si Si3 0.899470 0.328572 0.676648
Si Si4 0.392342 0.331759 0.619465
Si Si5 0.389175 0.337321 0.128793
Si Si6 0.390901 0.831735 0.213021
Si Si7 0.294486 0.670014 0.709228
Si Si8 0.105451 0.331720 0.421115
O O1 0.684876 0.820289 0.500000
O O2 0.650493 0.757350 0.419744
O O3 0.824806 0.760422 0.450191
O O4 0.733128 0.000000 0.437072
O O5 0.500000 0.162696 0.050112
O O6 0.651744 0.267486 0.084709
O O7 0.647285 0.000000 0.056085
O O8 0.642778 0.216470 0.000000
O O9 0.902698 0.500000 0.674012
O O10 0.813986 0.281233 0.707054
O O11 0.883489 0.273414 0.627895
O O12 0.000000 0.270809 0.694337
O O13 0.500000 0.291154 0.624074
O O14 0.377255 0.500000 0.609163
O O15 0.342666 0.289769 0.664121
O O16 0.500000 0.336979 0.127264
O O17 0.350263 0.500000 0.132791
O O18 0.353900 0.244988 0.169586
O O19 0.500000 0.805347 0.219060
O O20 0.340074 0.763204 0.253573
O O21 0.366322 0.000000 0.209599
O O22 0.306276 0.500000 0.719624
O O23 0.133260 0.500000 0.424412
O O24 0.000000 0.307959 0.437557
#
# Coordination Sequence:
#
# PCOD8194451 Si02
#       8
#     8   8   8   8   8   8   8   8
#     4  11  24  38  51  70  98 127 150 177 217 265
#     4   8  13  21  33  49  71 102 140 182 229 277
#     4   8  14  27  50  76  96 113 135 167 209 255
#     4  10  21  37  56  75  92 114 149 191 227 259
#     4   9  16  25  37  53  75 105 144 190 233 268
#     4  10  20  31  42  59  86 119 152 185 223 267
#     4  10  18  31  52  73  92 112 139 178 218 258
#     4   9  17  33  57  79  97 119 148 179 212 255
#
# _framework density 15.600524999999999
#
# number of rings (size 3 to 8) (size 9 to 14) (size 15 to 20)
#    0.000    2.625    1.250    2.625    0.000    5.500 
#    0.000    3.750    0.000    0.375    0.000    0.000 
#    0.000    0.000    0.000    0.000    0.000    0.625 
#
# Total GULP energy -793365.494482 kJ/mol
# GULP energy per Si atom -12396.335851 kJ/mol
# Density = 1.556502 g / cm^3
# Si number density = 15.600525 Si / 1000 Ang^3
#
#
#
# Elastic Constant Matrix: (Units=GPa)
#
#
# Indices 1 2 3 4 5 6 
#
# 1 71.8094 41.4730 41.8318 0.0000 0.0000 0.0000
# 2 41.4730 88.4407 65.9272 0.0000 0.0000 0.0000
# 3 41.8318 65.9272 112.6213 0.0000 0.0000 0.0000
# 4 0.0000 0.0000 0.0000 30.1553 0.0000 0.0000
# 5 0.0000 0.0000 0.0000 0.0000 1.0513 0.0000
# 6 0.0000 0.0000 0.0000 0.0000 0.0000 13.4194
#
#
#
# Elastic Compliance Matrix: (Units=1/GPa)
#
#
# Indices 1 2 3 4 5 6 
#
# 1 0.019808 -0.006750 -0.003406 0.000000 0.000000 0.000000
# 2 -0.006750 0.022361 -0.010583 0.000000 0.000000 0.000000
# 3 -0.003406 -0.010583 0.016340 0.000000 0.000000 0.000000
# 4 0.000000 0.000000 0.000000 0.033162 0.000000 0.000000
# 5 0.000000 0.000000 0.000000 0.000000 0.951169 0.000000
# 6 0.000000 0.000000 0.000000 0.000000 0.000000 0.074519
#
#
# Mechanical properties :
#
#
# Convention : Reuss Voigt Hill
#
# Bulk Modulus (GPa) = 58.71537 63.48174 61.09856
# Shear Modulus (GPa) = 4.29364 17.16784 10.73074
#
# Velocity S-wave (km/s) = 1.66079 3.32093 2.62552
# Velocity P-wave (km/s) = 6.43398 7.44883 6.95993
#
# Compressibility (1/GPa) = 0.01703131
#
# Stress axis : x y z
#
# Youngs Moduli (GPa) = 50.48395 44.72081 61.20075
#
# Poissons Ratio (x) = 0.30184 0.20848
# Poissons Ratio (y) = 0.34074 0.64768
# Poissons Ratio (z) = 0.17197 0.47327
#
# Static dielectric constant tensor:
#      x y z
#    x 3.061700 0.000000 0.000000 
#    y 0.000000 2.958550 0.000000 
#    z 0.000000 0.000000 3.018820 
# 
# 
# High freq. dielectric constant tensor:
#      x y z
#    x 1.562610 0.000000 0.000000 
#    y 0.000000 1.593400 0.000000 
#    z 0.000000 0.000000 1.592670 
# 
# From -- ./inp_files/14249.got.cif
#   From: 2010.03.12/outbox.cif.g09.slc.cpg/sg47_8_cif.got.tgz:14249.got - 2010.04.14 03:12:58.
