data_PCOD8194332
_publ_section_title
;
Structure prediction by ZEFSAII (Michael W. Deem and Ramdas Pophale) SiO2 
 PCOD8194332
Probable space group: P M M M
;
_chemical_formula_sum "Si O2"
_cell_formula_units_Z 52
_cell_length_a 14.397901
_cell_length_b 23.291432
_cell_length_c 9.375261
_cell_angle_alpha 90.000000
_cell_angle_beta 90.000000
_cell_angle_gamma 90.000000
_cell_volume 3143.972514
_symmetry_space_group_name_H-M "P M M M"
_symmetry_group_IT_number 47
_symmetry_cell_setting 'orthorhombic'
loop_
_space_group_symop_operation_xyz
x,y,z
-x,-y,z
x,-y,-z
-x,y,-z
-x,-y,-z
x,y,-z
-x,y,z
x,-y,z
loop_
_atom_site_type_symbol
_atom_site_label
_atom_site_fract_x
_atom_site_fract_y
_atom_site_fract_z
Si Si1 0.108197 0.609353 0.334946
Si Si2 0.892480 0.829422 0.832989
Si Si3 0.771322 0.936440 0.835945
Si Si4 0.600202 0.234709 0.668851
Si Si5 0.796160 0.273404 0.331317
Si Si6 0.110473 0.500000 0.161330
Si Si7 0.395015 0.105085 0.334771
O O1 0.126370 0.594864 0.500000
O O2 0.163211 0.665515 0.284707
O O3 0.147094 0.556468 0.242368
O O4 0.000000 0.620618 0.305966
O O5 0.843490 0.888310 0.781899
O O6 0.851828 0.776274 0.746776
O O7 0.000000 0.835885 0.794870
O O8 0.877122 0.817943 0.000000
O O9 0.674947 0.934757 0.751117
O O10 0.815198 0.000000 0.813618
O O11 0.747372 0.925447 0.000000
O O12 0.594365 0.232837 0.500000
O O13 0.500000 0.258294 0.727459
O O14 0.687731 0.273143 0.717461
O O15 0.615770 0.170004 0.723734
O O16 0.807023 0.263443 0.500000
O O17 0.000000 0.500000 0.164884
O O18 0.148607 0.500000 0.000000
O O19 0.367915 0.101730 0.500000
O O20 0.500000 0.083096 0.310382
#
# Coordination Sequence:
#
# PCOD8194332 Si02
#       7
#     8   8   8   8   8   4   8
#     4   9  17  28  43  67  98 128 156 188 227 269
#     4  10  21  35  49  66  90 120 154 195 240 281
#     4  10  21  35  49  66  89 119 156 195 236 283
#     4   8  14  26  46  71  96 120 147 183 229 277
#     4  10  18  30  51  75  97 123 155 191 232 280
#     4   9  17  29  45  65  92 129 166 194 223 261
#     4   9  17  31  51  72  93 118 148 185 233 286
#
# _framework density 16.539584999999999
#
# number of rings (size 3 to 8) (size 9 to 14) (size 15 to 20)
#    0.000    2.692    1.538    1.615    0.000    3.692 
#    0.000    4.615    0.000    0.462    0.000    2.692 
#    0.000    4.308    0.000    0.000    0.000    0.000 
#
# Total GULP energy -644606.595264 kJ/mol
# GULP energy per Si atom -12396.280678 kJ/mol
# Density = 1.650194 g / cm^3
# Si number density = 16.539585 Si / 1000 Ang^3
#
#
#
# Elastic Constant Matrix: (Units=GPa)
#
#
# Indices 1 2 3 4 5 6 
#
# 1 103.3916 66.6098 38.2713 0.0000 0.0000 0.0000
# 2 66.6098 136.0491 50.4443 0.0000 0.0000 0.0000
# 3 38.2713 50.4443 48.8866 0.0000 0.0000 0.0000
# 4 0.0000 0.0000 0.0000 24.7592 0.0000 0.0000
# 5 0.0000 0.0000 0.0000 0.0000 19.2830 0.0000
# 6 0.0000 0.0000 0.0000 0.0000 0.0000 22.2055
#
#
#
# Elastic Compliance Matrix: (Units=1/GPa)
#
#
# Indices 1 2 3 4 5 6 
#
# 1 0.015462 -0.004992 -0.006953 0.000000 0.000000 0.000000
# 2 -0.004992 0.013517 -0.010039 0.000000 0.000000 0.000000
# 3 -0.006953 -0.010039 0.036258 0.000000 0.000000 0.000000
# 4 0.000000 0.000000 0.000000 0.040389 0.000000 0.000000
# 5 0.000000 0.000000 0.000000 0.000000 0.051859 0.000000
# 6 0.000000 0.000000 0.000000 0.000000 0.000000 0.045034
#
#
# Mechanical properties :
#
#
# Convention : Reuss Voigt Hill
#
# Bulk Modulus (GPa) = 47.02051 66.55313 56.78682
# Shear Modulus (GPa) = 19.71780 22.11634 20.91707
#
# Velocity S-wave (km/s) = 3.45651 3.66071 3.56007
# Velocity P-wave (km/s) = 6.66489 7.62848 7.16291
#
# Compressibility (1/GPa) = 0.02126731
#
# Stress axis : x y z
#
# Youngs Moduli (GPa) = 64.67508 73.98211 27.57980
#
# Poissons Ratio (x) = 0.36932 0.19178
# Poissons Ratio (y) = 0.32285 0.27689
# Poissons Ratio (z) = 0.44972 0.74274
#
# Static dielectric constant tensor:
#      x y z
#    x 3.327500 0.000000 0.000000 
#    y 0.000000 3.103770 0.000000 
#    z 0.000000 0.000000 2.962100 
# 
# 
# High freq. dielectric constant tensor:
#      x y z
#    x 1.628570 0.000000 0.000000 
#    y 0.000000 1.627270 0.000000 
#    z 0.000000 0.000000 1.619930 
# 
# From -- ./inp_files/7621.got.cif
#   From: 2010.03.12/outbox.cif.g09.slc.cpg/sg47_4_cif.got.tgz:7621.got - 2010.04.14 03:12:58.
