data_PCOD8194043
_publ_section_title
;
Structure prediction by ZEFSAII (Michael W. Deem and Ramdas Pophale) SiO2 
 PCOD8194043
Probable space group: P M M M
;
_chemical_formula_sum "Si O2"
_cell_formula_units_Z 60
_cell_length_a 18.283241
_cell_length_b 9.718578
_cell_length_c 19.611022
_cell_angle_alpha 90.000000
_cell_angle_beta 90.000000
_cell_angle_gamma 90.000000
_cell_volume 3484.625701
_symmetry_space_group_name_H-M "P M M M"
_symmetry_group_IT_number 47
_symmetry_cell_setting 'orthorhombic'
loop_
_space_group_symop_operation_xyz
x,y,z
-x,-y,z
x,-y,-z
-x,y,-z
-x,-y,-z
x,y,-z
-x,y,z
x,-y,z
loop_
_atom_site_type_symbol
_atom_site_label
_atom_site_fract_x
_atom_site_fract_y
_atom_site_fract_z
Si Si1 0.500000 0.164097 0.577079
Si Si2 0.081945 0.836399 0.673495
Si Si3 0.084877 0.654912 0.922080
Si Si4 0.843526 0.162503 0.188009
Si Si5 0.644311 0.163999 0.651482
Si Si6 0.677192 0.836922 0.199575
Si Si7 0.417515 0.836283 0.075597
Si Si8 0.209991 0.835856 0.577168
O O1 0.500000 0.219084 0.500000
O O2 0.572237 0.221981 0.614293
O O3 0.500000 0.000000 0.578652
O O4 0.108455 0.787446 0.747858
O O5 0.138035 0.779674 0.616437
O O6 0.000000 0.779117 0.659621
O O7 0.081870 0.000000 0.671235
O O8 0.101254 0.500000 0.896560
O O9 0.129677 0.765010 0.879824
O O10 0.000000 0.688891 0.914079
O O11 0.109586 0.670878 0.000000
O O12 0.760784 0.210352 0.199749
O O13 0.849734 0.000000 0.177211
O O14 0.641808 0.215882 0.729693
O O15 0.716863 0.220701 0.613739
O O16 0.645795 0.000000 0.648798
O O17 0.634657 0.772952 0.134367
O O18 0.671858 0.000000 0.196238
O O19 0.500000 0.784894 0.089462
O O20 0.415220 0.000000 0.078247
O O21 0.391732 0.786938 0.000000
O O22 0.207593 0.780008 0.500000
O O23 0.210502 0.000000 0.578436
#
# Coordination Sequence:
#
# PCOD8194043 Si02
#       8
#     4   8   8   8   8   8   8   8
#     4   9  16  22  30  46  67 101 154 199 219 255
#     4   9  16  25  36  53  78 106 139 178 217 257
#     4   9  19  35  51  67  90 119 149 183 224 269
#     4  10  18  29  45  67  92 119 149 185 229 271
#     4   9  15  23  32  46  70 103 143 184 224 263
#     4   9  16  24  36  54  79 109 142 178 221 269
#     4   8  14  23  33  46  68 101 137 169 205 253
#     4   9  15  23  34  46  68 105 142 176 218 264
#
# _framework density 17.218492000000001
#
# number of rings (size 3 to 8) (size 9 to 14) (size 15 to 20)
#    0.000    3.000    1.333    1.600    0.933    3.467 
#    0.000    3.333    0.000    0.000    0.000    0.000 
#    0.000    1.067    0.000    5.733    0.000    5.733 
#
# Total GULP energy -743700.601707 kJ/mol
# GULP energy per Si atom -12395.010028 kJ/mol
# Density = 1.717930 g / cm^3
# Si number density = 17.218492 Si / 1000 Ang^3
#
#
#
# Elastic Constant Matrix: (Units=GPa)
#
#
# Indices 1 2 3 4 5 6 
#
# 1 150.1924 11.5917 89.9816 0.0000 0.0000 0.0000
# 2 11.5917 9.8619 15.8739 0.0000 0.0000 0.0000
# 3 89.9816 15.8739 153.5691 0.0000 0.0000 0.0000
# 4 0.0000 0.0000 0.0000 3.5845 0.0000 0.0000
# 5 0.0000 0.0000 0.0000 0.0000 39.6269 0.0000
# 6 0.0000 0.0000 0.0000 0.0000 0.0000 4.0997
#
#
#
# Elastic Compliance Matrix: (Units=1/GPa)
#
#
# Indices 1 2 3 4 5 6 
#
# 1 0.010327 -0.002877 -0.005754 0.000000 0.000000 0.000000
# 2 -0.002877 0.122440 -0.010970 0.000000 0.000000 0.000000
# 3 -0.005754 -0.010970 0.011017 0.000000 0.000000 0.000000
# 4 0.000000 0.000000 0.000000 0.278976 0.000000 0.000000
# 5 0.000000 0.000000 0.000000 0.000000 0.025235 0.000000
# 6 0.000000 0.000000 0.000000 0.000000 0.000000 0.243918
#
#
# Mechanical properties :
#
#
# Convention : Reuss Voigt Hill
#
# Bulk Modulus (GPa) = 9.56188 60.94644 35.25416
# Shear Modulus (GPa) = 6.52761 22.54064 14.53412
#
# Velocity S-wave (km/s) = 1.94917 3.62207 2.90849
# Velocity P-wave (km/s) = 3.26052 7.27772 5.63898
#
# Compressibility (1/GPa) = 0.10458190
#
# Stress axis : x y z
#
# Youngs Moduli (GPa) = 96.83080 8.16724 90.76897
#
# Poissons Ratio (x) = 0.02350 0.52226
# Poissons Ratio (y) = 0.27863 0.99576
# Poissons Ratio (z) = 0.55713 0.08960
#
# Static dielectric constant tensor:
#      x y z
#    x 3.465010 0.000000 0.000000 
#    y 0.000000 2.373680 0.000000 
#    z 0.000000 0.000000 3.489360 
# 
# 
# High freq. dielectric constant tensor:
#      x y z
#    x 1.676500 0.000000 0.000000 
#    y 0.000000 1.567000 0.000000 
#    z 0.000000 0.000000 1.682020 
# 
# From -- ./inp_files/28679.got.cif
#   From: 2010.03.12/outbox.cif.g09.slc.cpg/sg47_15_cif.got.tgz:28679.got - 2010.04.14 03:12:58.
