data_PCOD8194477
_publ_section_title
;
Structure prediction by ZEFSAII (Michael W. Deem and Ramdas Pophale) SiO2 
 PCOD8194477
Probable space group: P M M M
;
_chemical_formula_sum "Si O2"
_cell_formula_units_Z 64
_cell_length_a 19.587637
_cell_length_b 9.011175
_cell_length_c 20.806836
_cell_angle_alpha 90.000000
_cell_angle_beta 90.000000
_cell_angle_gamma 90.000000
_cell_volume 3672.565203
_symmetry_space_group_name_H-M "P M M M"
_symmetry_group_IT_number 47
_symmetry_cell_setting 'orthorhombic'
loop_
_space_group_symop_operation_xyz
x,y,z
-x,-y,z
x,-y,-z
-x,y,-z
-x,-y,-z
x,y,-z
-x,y,z
x,-y,z
loop_
_atom_site_type_symbol
_atom_site_label
_atom_site_fract_x
_atom_site_fract_y
_atom_site_fract_z
Si Si1 0.077223 0.670644 0.135060
Si Si2 0.194600 0.170605 0.071783
Si Si3 0.794157 0.676469 0.310826
Si Si4 0.922617 0.826167 0.730809
Si Si5 0.573770 0.824236 0.235077
Si Si6 0.423346 0.827198 0.620035
Si Si7 0.295977 0.327677 0.571141
Si Si8 0.717777 0.825322 0.807403
O O1 0.092878 0.500000 0.152274
O O2 0.127642 0.728067 0.079924
O O3 0.090647 0.769619 0.197418
O O4 0.000000 0.689506 0.109871
O O5 0.252826 0.216317 0.122740
O O6 0.173089 0.000000 0.081726
O O7 0.223619 0.197238 0.000000
O O8 0.797418 0.500000 0.307365
O O9 0.870822 0.741369 0.316448
O O10 0.754849 0.734686 0.374249
O O11 0.758445 0.737778 0.247012
O O12 0.000000 0.790881 0.708787
O O13 0.907086 0.000000 0.729440
O O14 0.500000 0.763597 0.208778
O O15 0.585340 0.765840 0.307434
O O16 0.638201 0.773374 0.192038
O O17 0.569461 0.000000 0.237266
O O18 0.500000 0.795313 0.595163
O O19 0.370172 0.745826 0.574400
O O20 0.406631 0.000000 0.617561
O O21 0.265377 0.295920 0.500000
O O22 0.306864 0.500000 0.583001
O O23 0.724176 0.000000 0.792518
#
# Coordination Sequence:
#
# PCOD8194477 Si02
#       8
#     8   8   8   8   8   8   8   8
#     4  10  20  33  50  74 103 134 170 210 250 295
#     4  10  21  34  48  71 103 139 176 213 255 303
#     4  11  21  33  53  78 102 130 168 214 253 293
#     4  10  20  34  54  79 105 132 163 202 252 307
#     4   8  14  26  47  74  99 125 163 211 259 301
#     4   9  17  30  49  74 102 132 171 215 255 300
#     4  10  22  37  50  70 104 142 174 207 253 306
#     4  10  18  31  53  74  97 133 172 212 256 303
#
# _framework density 17.426511999999999
#
# number of rings (size 3 to 8) (size 9 to 14) (size 15 to 20)
#    0.000    2.250    2.500    1.875    0.000    3.250 
#    0.000    2.500    0.000    1.125    0.000    5.250 
#    0.000    0.000    0.000    2.250    0.000    2.500 
#
# Total GULP energy -793407.566336 kJ/mol
# GULP energy per Si atom -12396.993224 kJ/mol
# Density = 1.738685 g / cm^3
# Si number density = 17.426512 Si / 1000 Ang^3
#
#
#
# Elastic Constant Matrix: (Units=GPa)
#
#
# Indices 1 2 3 4 5 6 
#
# 1 130.5763 41.4503 64.5925 0.0000 0.0000 0.0000
# 2 41.4503 50.6577 35.7604 0.0000 0.0000 0.0000
# 3 64.5925 35.7604 103.9000 0.0000 0.0000 0.0000
# 4 0.0000 0.0000 0.0000 19.1681 0.0000 0.0000
# 5 0.0000 0.0000 0.0000 0.0000 23.5748 0.0000
# 6 0.0000 0.0000 0.0000 0.0000 0.0000 21.9379
#
#
#
# Elastic Compliance Matrix: (Units=1/GPa)
#
#
# Indices 1 2 3 4 5 6 
#
# 1 0.012378 -0.006203 -0.005560 0.000000 0.000000 0.000000
# 2 -0.006203 0.029185 -0.006188 0.000000 0.000000 0.000000
# 3 -0.005560 -0.006188 0.015211 0.000000 0.000000 0.000000
# 4 0.000000 0.000000 0.000000 0.052170 0.000000 0.000000
# 5 0.000000 0.000000 0.000000 0.000000 0.042418 0.000000
# 6 0.000000 0.000000 0.000000 0.000000 0.000000 0.045583
#
#
# Mechanical properties :
#
#
# Convention : Reuss Voigt Hill
#
# Bulk Modulus (GPa) = 47.91485 63.19337 55.55411
# Shear Modulus (GPa) = 20.85026 22.49154 21.67090
#
# Velocity S-wave (km/s) = 3.46275 3.59646 3.53024
# Velocity P-wave (km/s) = 6.59868 7.32035 6.96886
#
# Compressibility (1/GPa) = 0.02087036
#
# Stress axis : x y z
#
# Youngs Moduli (GPa) = 80.78903 34.26468 65.74115
#
# Poissons Ratio (x) = 0.21255 0.36553
# Poissons Ratio (y) = 0.50115 0.40683
# Poissons Ratio (z) = 0.44919 0.21204
#
# Static dielectric constant tensor:
#      x y z
#    x 3.666540 0.000000 0.000000 
#    y 0.000000 3.114130 0.000000 
#    z 0.000000 0.000000 3.116080 
# 
# 
# High freq. dielectric constant tensor:
#      x y z
#    x 1.680360 0.000000 0.000000 
#    y 0.000000 1.663000 0.000000 
#    z 0.000000 0.000000 1.645460 
# 
# From -- ./inp_files/30003.got.cif
#   From: 2010.03.12/outbox.cif.g09.slc.cpg/sg47_16_cif.got.tgz:30003.got - 2010.04.14 03:12:58.
