data_PCOD8194483
_publ_section_title
;
Structure prediction by ZEFSAII (Michael W. Deem and Ramdas Pophale) SiO2 
 PCOD8194483
Probable space group: P M M M
;
_chemical_formula_sum "Si O2"
_cell_formula_units_Z 52
_cell_length_a 26.986951
_cell_length_b 9.031046
_cell_length_c 12.047741
_cell_angle_alpha 90.000000
_cell_angle_beta 90.000000
_cell_angle_gamma 90.000000
_cell_volume 2936.280206
_symmetry_space_group_name_H-M "P M M M"
_symmetry_group_IT_number 47
_symmetry_cell_setting 'orthorhombic'
loop_
_space_group_symop_operation_xyz
x,y,z
-x,-y,z
x,-y,-z
-x,y,-z
-x,-y,-z
x,y,-z
-x,y,z
x,-y,z
loop_
_atom_site_type_symbol
_atom_site_label
_atom_site_fract_x
_atom_site_fract_y
_atom_site_fract_z
Si Si1 0.320867 0.825762 0.127222
Si Si2 0.943391 0.824813 0.000000
Si Si3 0.055940 0.167865 0.629701
Si Si4 0.114161 0.327561 0.195907
Si Si5 0.500000 0.675895 0.124656
Si Si6 0.221425 0.667344 0.871629
Si Si7 0.443995 0.324339 0.500000
Si Si8 0.406004 0.675834 0.737109
O O1 0.265538 0.777808 0.160815
O O2 0.357030 0.748627 0.214140
O O3 0.325882 0.000000 0.139765
O O4 0.332457 0.775625 0.000000
O O5 0.916130 0.766602 0.891928
O O6 0.000000 0.768922 0.000000
O O7 0.940660 0.000000 0.000000
O O8 0.059101 0.195099 0.500000
O O9 0.093347 0.284467 0.684071
O O10 0.000000 0.196880 0.671988
O O11 0.071435 0.000000 0.659851
O O12 0.106640 0.500000 0.170014
O O13 0.172406 0.287341 0.195842
O O14 0.500000 0.500000 0.121949
O O15 0.548189 0.733419 0.189112
O O16 0.500000 0.741365 0.000000
O O17 0.238398 0.500000 0.843576
O O18 0.207120 0.682020 0.000000
O O19 0.448146 0.500000 0.500000
O O20 0.500000 0.259091 0.500000
O O21 0.414633 0.271425 0.390002
O O22 0.400656 0.500000 0.743968
#
# Coordination Sequence:
#
# PCOD8194483 Si02
#       8
#     8   4   8   8   4   8   4   8
#     4  10  21  35  52  77 106 135 172 216 262 310
#     4  11  23  35  49  75 113 153 185 210 253 322
#     4   9  19  36  55  75 103 141 181 216 256 315
#     4  11  21  34  54  81 109 136 173 225 275 315
#     4   9  16  25  44  76 107 135 172 209 248 304
#     4   9  18  35  55  76 104 137 172 211 262 320
#     4   9  16  30  53  81 107 137 179 221 254 299
#     4  10  18  31  53  78 106 139 175 216 259 304
#
# _framework density 17.709482000000001
#
# number of rings (size 3 to 8) (size 9 to 14) (size 15 to 20)
#    0.000    2.231    1.538    2.538    0.000    5.846 
#    0.000    1.538    1.692    1.846    0.000    0.000 
#    0.000    0.000    0.000    0.000    0.000    0.000 
#
# Total GULP energy -644826.791307 kJ/mol
# GULP energy per Si atom -12400.515217 kJ/mol
# Density = 1.766917 g / cm^3
# Si number density = 17.709482 Si / 1000 Ang^3
#
#
#
# Elastic Constant Matrix: (Units=GPa)
#
#
# Indices 1 2 3 4 5 6 
#
# 1 120.7474 42.3437 63.0855 0.0000 0.0000 0.0000
# 2 42.3437 47.8904 32.5758 0.0000 0.0000 0.0000
# 3 63.0855 32.5758 105.6295 0.0000 0.0000 0.0000
# 4 0.0000 0.0000 0.0000 24.4680 0.0000 0.0000
# 5 0.0000 0.0000 0.0000 0.0000 11.3445 0.0000
# 6 0.0000 0.0000 0.0000 0.0000 0.0000 0.7001
#
#
#
# Elastic Compliance Matrix: (Units=1/GPa)
#
#
# Indices 1 2 3 4 5 6 
#
# 1 0.014445 -0.008736 -0.005933 0.000000 0.000000 0.000000
# 2 -0.008736 0.031708 -0.004561 0.000000 0.000000 0.000000
# 3 -0.005933 -0.004561 0.014417 0.000000 0.000000 0.000000
# 4 0.000000 0.000000 0.000000 0.040870 0.000000 0.000000
# 5 0.000000 0.000000 0.000000 0.000000 0.088148 0.000000
# 6 0.000000 0.000000 0.000000 0.000000 0.000000 1.428355
#
#
# Mechanical properties :
#
#
# Convention : Reuss Voigt Hill
#
# Bulk Modulus (GPa) = 45.22921 61.14193 53.18557
# Shear Modulus (GPa) = 3.00522 16.38668 9.69595
#
# Velocity S-wave (km/s) = 1.30408 3.04518 2.34241
# Velocity P-wave (km/s) = 5.27849 6.85304 6.11664
#
# Compressibility (1/GPa) = 0.02210960
#
# Stress axis : x y z
#
# Youngs Moduli (GPa) = 69.22761 31.53774 69.36299
#
# Poissons Ratio (x) = 0.27553 0.41152
# Poissons Ratio (y) = 0.60481 0.31636
# Poissons Ratio (z) = 0.41071 0.14384
#
# Static dielectric constant tensor:
#      x y z
#    x 3.324100 0.000000 0.000000 
#    y 0.000000 3.096130 0.000000 
#    z 0.000000 0.000000 3.428680 
# 
# 
# High freq. dielectric constant tensor:
#      x y z
#    x 1.687430 0.000000 0.000000 
#    y 0.000000 1.668470 0.000000 
#    z 0.000000 0.000000 1.677520 
# 
# From -- ./inp_files/19891.got.cif
#   From: 2010.03.12/outbox.cif.g09.slc.cpg/sg47_10_cif.got.tgz:19891.got - 2010.04.14 03:12:58.
