data_PCOD8194283
_publ_section_title
;
Structure prediction by ZEFSAII (Michael W. Deem and Ramdas Pophale) SiO2 
 PCOD8194283
Probable space group: P M M M
;
_chemical_formula_sum "Si O2"
_cell_formula_units_Z 64
_cell_length_a 9.446311
_cell_length_b 14.382366
_cell_length_c 31.081506
_cell_angle_alpha 90.000000
_cell_angle_beta 90.000000
_cell_angle_gamma 90.000000
_cell_volume 4222.742796
_symmetry_space_group_name_H-M "P M M M"
_symmetry_group_IT_number 47
_symmetry_cell_setting 'orthorhombic'
loop_
_space_group_symop_operation_xyz
x,y,z
-x,-y,z
x,-y,-z
-x,y,-z
-x,-y,-z
x,y,-z
-x,y,z
x,-y,z
loop_
_atom_site_type_symbol
_atom_site_label
_atom_site_fract_x
_atom_site_fract_y
_atom_site_fract_z
Si Si1 0.832618 0.296497 0.295725
Si Si2 0.337546 0.270442 0.452380
Si Si3 0.832469 0.100235 0.675340
Si Si4 0.841114 0.389423 0.952320
Si Si5 0.163867 0.894808 0.578140
Si Si6 0.163541 0.391860 0.792309
Si Si7 0.340516 0.610810 0.873768
Si Si8 0.334620 0.607827 0.372149
O O1 0.784217 0.187990 0.295979
O O2 0.787491 0.336319 0.249704
O O3 0.753584 0.352632 0.332560
O O4 0.000000 0.307603 0.303597
O O5 0.317124 0.314811 0.500000
O O6 0.500000 0.244927 0.443997
O O7 0.250754 0.174917 0.451444
O O8 0.284881 0.343016 0.416333
O O9 0.778486 0.115766 0.626822
O O10 0.000000 0.094203 0.674075
O O11 0.773954 0.000000 0.693002
O O12 0.840677 0.500000 0.950122
O O13 0.734953 0.348419 0.916519
O O14 0.000000 0.353229 0.942889
O O15 0.791978 0.356819 0.000000
O O16 0.000000 0.867033 0.575347
O O17 0.187152 0.000000 0.561671
O O18 0.191811 0.500000 0.783396
O O19 0.256289 0.354193 0.831916
O O20 0.000000 0.373659 0.803623
O O21 0.500000 0.649623 0.872104
O O22 0.339333 0.500000 0.875128
O O23 0.500000 0.624256 0.362910
O O24 0.298927 0.500000 0.377426
#
# Coordination Sequence:
#
# PCOD8194283 Si02
#       8
#     8   8   8   8   8   8   8   8
#     4  10  18  30  50  70  86 107 137 171 205 246
#     4  10  21  35  49  66  88 113 140 168 200 241
#     4   8  14  26  46  70  91 108 128 159 200 243
#     4   8  13  21  33  48  67  95 132 174 218 257
#     4   9  17  31  51  72  92 113 135 161 198 243
#     4   9  17  27  38  55  79 106 136 169 205 243
#     4   9  16  24  34  49  71 101 136 174 213 248
#     4  10  21  35  49  65  85 109 137 171 209 244
#
# _framework density 15.156026000000001
#
# number of rings (size 3 to 8) (size 9 to 14) (size 15 to 20)
#    0.000    2.875    1.250    1.875    0.000    4.000 
#    0.000    5.000    0.000    0.375    0.000    1.750 
#    0.000    0.000    0.000    0.000    0.000    0.625 
#
# Total GULP energy -793279.517366 kJ/mol
# GULP energy per Si atom -12394.992459 kJ/mol
# Density = 1.512153 g / cm^3
# Si number density = 15.156026 Si / 1000 Ang^3
#
#
#
# Elastic Constant Matrix: (Units=GPa)
#
#
# Indices 1 2 3 4 5 6 
#
# 1 62.4637 31.6298 58.2516 0.0000 0.0000 0.0000
# 2 31.6298 69.3029 47.9706 0.0000 0.0000 0.0000
# 3 58.2516 47.9706 131.1498 0.0000 0.0000 0.0000
# 4 0.0000 0.0000 0.0000 6.7025 0.0000 0.0000
# 5 0.0000 0.0000 0.0000 0.0000 23.1964 0.0000
# 6 0.0000 0.0000 0.0000 0.0000 0.0000 14.5972
#
#
#
# Elastic Compliance Matrix: (Units=1/GPa)
#
#
# Indices 1 2 3 4 5 6 
#
# 1 0.028959 -0.005776 -0.010750 0.000000 0.000000 0.000000
# 2 -0.005776 0.020473 -0.004923 0.000000 0.000000 0.000000
# 3 -0.010750 -0.004923 0.014200 0.000000 0.000000 0.000000
# 4 0.000000 0.000000 0.000000 0.149198 0.000000 0.000000
# 5 0.000000 0.000000 0.000000 0.000000 0.043110 0.000000
# 6 0.000000 0.000000 0.000000 0.000000 0.000000 0.068506
#
#
# Mechanical properties :
#
#
# Convention : Reuss Voigt Hill
#
# Bulk Modulus (GPa) = 48.22804 59.84672 54.03738
# Shear Modulus (GPa) = 13.35985 17.23685 15.29835
#
# Velocity S-wave (km/s) = 2.97221 3.37604 3.18054
# Velocity P-wave (km/s) = 6.60824 7.40065 7.01564
#
# Compressibility (1/GPa) = 0.02073483
#
# Stress axis : x y z
#
# Youngs Moduli (GPa) = 34.53166 48.84422 70.42175
#
# Poissons Ratio (x) = 0.28213 0.75701
# Poissons Ratio (y) = 0.19946 0.34669
# Poissons Ratio (z) = 0.37121 0.24046
#
# Static dielectric constant tensor:
#      x y z
#    x 2.875080 0.000000 0.000000 
#    y 0.000000 2.872000 0.000000 
#    z 0.000000 0.000000 2.996620 
# 
# 
# High freq. dielectric constant tensor:
#      x y z
#    x 1.572320 0.000000 0.000000 
#    y 0.000000 1.542700 0.000000 
#    z 0.000000 0.000000 1.576550 
# 
# From -- ./inp_files/8280.got.cif
#   From: 2010.03.12/outbox.cif.g09.slc.cpg/sg47_5_cif.got.tgz:8280.got - 2010.04.14 03:12:58.
