data_PCOD8194515
_publ_section_title
;
Structure prediction by ZEFSAII (Michael W. Deem and Ramdas Pophale) SiO2 
 PCOD8194515
Probable space group: P M M M
;
_chemical_formula_sum "Si O2"
_cell_formula_units_Z 64
_cell_length_a 20.290471
_cell_length_b 19.913155
_cell_length_c 9.062788
_cell_angle_alpha 90.000000
_cell_angle_beta 90.000000
_cell_angle_gamma 90.000000
_cell_volume 3661.794968
_symmetry_space_group_name_H-M "P M M M"
_symmetry_group_IT_number 47
_symmetry_cell_setting 'orthorhombic'
loop_
_space_group_symop_operation_xyz
x,y,z
-x,-y,z
x,-y,-z
-x,y,-z
-x,-y,-z
x,y,-z
-x,y,z
x,-y,z
loop_
_atom_site_type_symbol
_atom_site_label
_atom_site_fract_x
_atom_site_fract_y
_atom_site_fract_z
Si Si1 0.889325 0.425625 0.670972
Si Si2 0.758870 0.602449 0.832411
Si Si3 0.928033 0.295556 0.826948
Si Si4 0.336757 0.183523 0.823830
Si Si5 0.573917 0.694813 0.166981
Si Si6 0.206854 0.754851 0.165945
Si Si7 0.372966 0.574533 0.668650
Si Si8 0.574262 0.921903 0.328761
O O1 0.887165 0.405740 0.500000
O O2 0.921108 0.500000 0.691882
O O3 0.815981 0.428422 0.733565
O O4 0.931311 0.369126 0.754765
O O5 0.758561 0.682827 0.826328
O O6 0.691778 0.575265 0.767389
O O7 0.767231 0.577287 0.000000
O O8 0.867125 0.250429 0.760488
O O9 0.000000 0.261133 0.800790
O O10 0.913979 0.306898 0.000000
O O11 0.379046 0.247245 0.769252
O O12 0.260634 0.193236 0.764230
O O13 0.369036 0.116638 0.759752
O O14 0.337795 0.179183 0.000000
O O15 0.500000 0.723334 0.171018
O O16 0.576193 0.628831 0.268338
O O17 0.594954 0.675563 0.000000
O O18 0.195403 0.779150 0.000000
O O19 0.355529 0.592495 0.500000
O O20 0.404558 0.500000 0.679225
O O21 0.581838 0.904517 0.500000
O O22 0.500000 0.902432 0.276153
O O23 0.586511 0.000000 0.299247
#
# Coordination Sequence:
#
# PCOD8194515 Si02
#       8
#     8   8   8   8   8   8   8   8
#     4  10  20  31  43  63  91 119 151 195 250 309
#     4  10  18  32  51  68  88 117 154 198 249 303
#     4   9  18  32  49  68  91 123 163 202 243 299
#     4  10  18  32  54  78 102 128 164 208 248 288
#     4  10  21  36  52  70  92 121 160 205 252 301
#     4   8  15  29  49  71  95 120 151 198 249 288
#     4  11  23  35  47  65  90 119 155 204 260 311
#     4   9  19  35  52  74 109 147 175 199 234 285
#
# _framework density 17.477768000000001
#
# number of rings (size 3 to 8) (size 9 to 14) (size 15 to 20)
#    0.000    2.375    1.250    3.000    0.000    6.000 
#    0.000    3.750    0.000    0.000    0.000    0.000 
#    0.000    0.500    0.000    6.250    0.000    1.000 
#
# Total GULP energy -793055.664486 kJ/mol
# GULP energy per Si atom -12391.494758 kJ/mol
# Density = 1.743799 g / cm^3
# Si number density = 17.477768 Si / 1000 Ang^3
#
#
#
# Elastic Constant Matrix: (Units=GPa)
#
#
# Indices 1 2 3 4 5 6 
#
# 1 126.1779 47.9459 28.2624 0.0000 0.0000 0.0000
# 2 47.9459 61.7107 24.0311 0.0000 0.0000 0.0000
# 3 28.2624 24.0311 50.5733 0.0000 0.0000 0.0000
# 4 0.0000 0.0000 0.0000 22.0098 0.0000 0.0000
# 5 0.0000 0.0000 0.0000 0.0000 16.7502 0.0000
# 6 0.0000 0.0000 0.0000 0.0000 0.0000 13.8082
#
#
#
# Elastic Compliance Matrix: (Units=1/GPa)
#
#
# Indices 1 2 3 4 5 6 
#
# 1 0.011535 -0.007917 -0.002684 0.000000 0.000000 0.000000
# 2 -0.007917 0.025317 -0.007606 0.000000 0.000000 0.000000
# 3 -0.002684 -0.007606 0.024888 0.000000 0.000000 0.000000
# 4 0.000000 0.000000 0.000000 0.045434 0.000000 0.000000
# 5 0.000000 0.000000 0.000000 0.000000 0.059701 0.000000
# 6 0.000000 0.000000 0.000000 0.000000 0.000000 0.072421
#
#
# Mechanical properties :
#
#
# Convention : Reuss Voigt Hill
#
# Bulk Modulus (GPa) = 39.48544 48.77118 44.12831
# Shear Modulus (GPa) = 17.59626 19.72847 18.66237
#
# Velocity S-wave (km/s) = 3.17642 3.36337 3.27123
# Velocity P-wave (km/s) = 6.00781 6.56112 6.29055
#
# Compressibility (1/GPa) = 0.02532579
#
# Stress axis : x y z
#
# Youngs Moduli (GPa) = 86.69438 39.49874 40.18067
#
# Poissons Ratio (x) = 0.31269 0.10786
# Poissons Ratio (y) = 0.68632 0.30561
# Poissons Ratio (z) = 0.23272 0.30043
#
# Static dielectric constant tensor:
#      x y z
#    x 3.424360 0.000000 0.000000 
#    y 0.000000 2.986440 0.000000 
#    z 0.000000 0.000000 3.167160 
# 
# 
# High freq. dielectric constant tensor:
#      x y z
#    x 1.680230 0.000000 0.000000 
#    y 0.000000 1.633300 0.000000 
#    z 0.000000 0.000000 1.663620 
# 
# From -- ./inp_files/11886.got.cif
#   From: 2010.03.12/outbox.cif.g09.slc.cpg/sg47_6_cif.got.tgz:11886.got - 2010.04.14 03:12:58.
