data_PCOD8194933
_publ_section_title
;
Structure prediction by ZEFSAII (Michael W. Deem and Ramdas Pophale) SiO2 
 PCOD8194933
Probable space group: P M M M
;
_chemical_formula_sum "Si O2"
_cell_formula_units_Z 44
_cell_length_a 20.766934
_cell_length_b 9.254828
_cell_length_c 14.263562
_cell_angle_alpha 90.000000
_cell_angle_beta 90.000000
_cell_angle_gamma 90.000000
_cell_volume 2741.376773
_symmetry_space_group_name_H-M "P M M M"
_symmetry_group_IT_number 47
_symmetry_cell_setting 'orthorhombic'
loop_
_space_group_symop_operation_xyz
x,y,z
-x,-y,z
x,-y,-z
-x,y,-z
-x,-y,-z
x,y,-z
-x,y,z
x,-y,z
loop_
_atom_site_type_symbol
_atom_site_label
_atom_site_fract_x
_atom_site_fract_y
_atom_site_fract_z
Si Si1 0.929253 0.161645 0.611105
Si Si2 0.194400 0.329974 0.608726
Si Si3 0.305862 0.167808 0.286078
Si Si4 0.429782 0.171550 0.605340
Si Si5 0.500000 0.662404 0.888599
Si Si6 0.375530 0.833472 0.105624
O O1 0.931385 0.161454 0.500000
O O2 0.874538 0.272046 0.645360
O O3 0.000000 0.209623 0.649185
O O4 0.912949 0.000000 0.647370
O O5 0.206804 0.286845 0.500000
O O6 0.195341 0.500000 0.622248
O O7 0.247530 0.260641 0.675212
O O8 0.371772 0.229043 0.331214
O O9 0.314055 0.190452 0.173883
O O10 0.293820 0.000000 0.311468
O O11 0.418297 0.228301 0.500000
O O12 0.500000 0.227596 0.641678
O O13 0.429948 0.000000 0.606793
O O14 0.500000 0.500000 0.848357
O O15 0.564164 0.743635 0.854295
O O16 0.500000 0.663261 0.000000
O O17 0.397241 0.000000 0.108413
O O18 0.355673 0.786796 0.000000
#
# Coordination Sequence:
#
# PCOD8194933 Si02
#       6
#     8   8   8   8   4   8
#     4   8  14  26  45  67  90 118 152 185 213 247
#     4  10  20  31  43  63  94 126 152 182 219 259
#     4  10  19  29  46  64  82 114 152 187 224 270
#     4   8  14  24  38  57  78 100 136 185 222 250
#     4   9  17  29  45  63  82 107 138 173 221 280
#     4   9  18  31  46  65  87 109 139 186 237 277
#
# _framework density 16.050328
#
# number of rings (size 3 to 8) (size 9 to 14) (size 15 to 20)
#    0.000    3.000    0.000    2.455    1.273    4.000 
#    0.000    1.818    0.000    0.000    0.000    2.545 
#    0.000    0.727    0.000    8.364    0.000    2.727 
#
# Total GULP energy -545292.271254 kJ/mol
# GULP energy per Si atom -12393.006165 kJ/mol
# Density = 1.601380 g / cm^3
# Si number density = 16.050328 Si / 1000 Ang^3
#
#
#
# Elastic Constant Matrix: (Units=GPa)
#
#
# Indices 1 2 3 4 5 6 
#
# 1 128.9241 55.5227 50.4445 0.0000 0.0000 0.0000
# 2 55.5227 70.6105 29.5914 0.0000 0.0000 0.0000
# 3 50.4445 29.5914 58.5894 0.0000 0.0000 0.0000
# 4 0.0000 0.0000 0.0000 13.1994 0.0000 0.0000
# 5 0.0000 0.0000 0.0000 0.0000 11.1430 0.0000
# 6 0.0000 0.0000 0.0000 0.0000 0.0000 12.5473
#
#
#
# Elastic Compliance Matrix: (Units=1/GPa)
#
#
# Indices 1 2 3 4 5 6 
#
# 1 0.014435 -0.007791 -0.008493 0.000000 0.000000 0.000000
# 2 -0.007791 0.022170 -0.004489 0.000000 0.000000 0.000000
# 3 -0.008493 -0.004489 0.026648 0.000000 0.000000 0.000000
# 4 0.000000 0.000000 0.000000 0.075761 0.000000 0.000000
# 5 0.000000 0.000000 0.000000 0.000000 0.089742 0.000000
# 6 0.000000 0.000000 0.000000 0.000000 0.000000 0.079699
#
#
# Mechanical properties :
#
#
# Convention : Reuss Voigt Hill
#
# Bulk Modulus (GPa) = 46.07120 58.80458 52.43789
# Shear Modulus (GPa) = 13.99629 15.54896 14.77262
#
# Velocity S-wave (km/s) = 2.95621 3.11587 3.03709
# Velocity P-wave (km/s) = 6.35758 7.04713 6.71121
#
# Compressibility (1/GPa) = 0.02170554
#
# Stress axis : x y z
#
# Youngs Moduli (GPa) = 69.27556 45.10604 37.52664
#
# Poissons Ratio (x) = 0.35144 0.31872
# Poissons Ratio (y) = 0.53975 0.16846
# Poissons Ratio (z) = 0.58838 0.20248
#
# Static dielectric constant tensor:
#      x y z
#    x 3.304690 0.000000 0.000000 
#    y 0.000000 2.926490 0.000000 
#    z 0.000000 0.000000 2.925220 
# 
# 
# High freq. dielectric constant tensor:
#      x y z
#    x 1.607450 0.000000 0.000000 
#    y 0.000000 1.599570 0.000000 
#    z 0.000000 0.000000 1.585670 
# 
# From -- ./inp_files/24895.got.cif
#   From: 2010.03.12/outbox.cif.g09.slc.cpg/sg47_13_cif.got.tgz:24895.got - 2010.04.14 03:12:58.
