data_PCOD8194251
_publ_section_title
;
Structure prediction by ZEFSAII (Michael W. Deem and Ramdas Pophale) SiO2 
 PCOD8194251
Probable space group: P M M M
;
_chemical_formula_sum "Si O2"
_cell_formula_units_Z 52
_cell_length_a 9.368011
_cell_length_b 27.496963
_cell_length_c 12.143713
_cell_angle_alpha 90.000000
_cell_angle_beta 90.000000
_cell_angle_gamma 90.000000
_cell_volume 3128.121520
_symmetry_space_group_name_H-M "P M M M"
_symmetry_group_IT_number 47
_symmetry_cell_setting 'orthorhombic'
loop_
_space_group_symop_operation_xyz
x,y,z
-x,-y,z
x,-y,-z
-x,y,-z
-x,-y,-z
x,y,-z
-x,y,z
x,-y,z
loop_
_atom_site_type_symbol
_atom_site_label
_atom_site_fract_x
_atom_site_fract_y
_atom_site_fract_z
Si Si1 0.847751 0.054914 0.500000
Si Si2 0.838956 0.724803 0.369178
Si Si3 0.663628 0.079840 0.292922
Si Si4 0.662053 0.182741 0.373178
Si Si5 0.331692 0.000000 0.877936
Si Si6 0.835033 0.443311 0.000000
Si Si7 0.337605 0.633033 0.630678
Si Si8 0.167430 0.442647 0.238091
O O1 0.758406 0.064298 0.392843
O O2 0.000000 0.084386 0.500000
O O3 0.891934 0.000000 0.500000
O O4 0.839845 0.722608 0.500000
O O5 0.765629 0.774854 0.330863
O O6 0.748413 0.679548 0.322331
O O7 0.000000 0.722561 0.322147
O O8 0.500000 0.066007 0.318431
O O9 0.680282 0.138419 0.286089
O O10 0.715723 0.049741 0.185291
O O11 0.698869 0.166400 0.500000
O O12 0.500000 0.202394 0.370589
O O13 0.500000 0.000000 0.890825
O O14 0.261154 0.000000 0.000000
O O15 0.775591 0.423608 0.117165
O O16 0.807736 0.500000 0.000000
O O17 0.000000 0.431410 0.000000
O O18 0.334585 0.632416 0.500000
O O19 0.500000 0.635196 0.674145
O O20 0.260652 0.584212 0.670837
O O21 0.193104 0.500000 0.251453
O O22 0.000000 0.430693 0.254081
#
# Coordination Sequence:
#
# PCOD8194251 Si02
#       8
#     4   8   8   8   4   4   8   8
#     4  11  21  29  41  67 101 125 149 187 232 275
#     4   9  17  29  45  65  90 121 155 191 231 280
#     4  10  18  30  49  69  95 127 157 188 231 284
#     4   9  16  26  42  67  94 119 148 183 231 289
#     4   9  18  31  49  72  94 123 168 207 226 261
#     4   7  12  26  47  69  91 115 147 189 235 278
#     4  10  20  32  45  64  95 132 163 194 232 276
#     4   9  17  30  49  71  94 122 158 198 238 284
#
# _framework density 16.623394999999999
#
# number of rings (size 3 to 8) (size 9 to 14) (size 15 to 20)
#    0.000    2.692    1.538    2.077    0.000    4.308 
#    0.000    1.923    0.000    2.308    2.000    0.000 
#    0.000    0.000    0.000    0.000    0.000    0.000 
#
# Total GULP energy -644218.255063 kJ/mol
# GULP energy per Si atom -12388.812597 kJ/mol
# Density = 1.658556 g / cm^3
# Si number density = 16.623395 Si / 1000 Ang^3
#
#
#
# Elastic Constant Matrix: (Units=GPa)
#
#
# Indices 1 2 3 4 5 6 
#
# 1 100.7434 57.8685 37.7768 0.0000 0.0000 0.0000
# 2 57.8685 100.9366 36.0816 0.0000 0.0000 0.0000
# 3 37.7768 36.0816 61.5979 0.0000 0.0000 0.0000
# 4 0.0000 0.0000 0.0000 1.2925 0.0000 0.0000
# 5 0.0000 0.0000 0.0000 0.0000 -61.2877 0.0000
# 6 0.0000 0.0000 0.0000 0.0000 0.0000 23.2779
#
#
#
# Elastic Compliance Matrix: (Units=1/GPa)
#
#
# Indices 1 2 3 4 5 6 
#
# 1 0.016242 -0.007274 -0.005700 0.000000 0.000000 0.000000
# 2 -0.007274 0.015789 -0.004787 0.000000 0.000000 0.000000
# 3 -0.005700 -0.004787 0.022534 0.000000 0.000000 0.000000
# 4 0.000000 0.000000 0.000000 0.773683 0.000000 0.000000
# 5 0.000000 0.000000 0.000000 0.000000 -0.016316 0.000000
# 6 0.000000 0.000000 0.000000 0.000000 0.000000 0.042959
#
#
# Mechanical properties :
#
#
# Convention : Reuss Voigt Hill
#
# Bulk Modulus (GPa) = 52.51531 58.52574 55.52053
# Shear Modulus (GPa) = 5.57562 1.42661 3.50111
#
# Velocity S-wave (km/s) = 1.83340 0.92739 1.45283
# Velocity P-wave (km/s) = 6.01179 6.03573 6.02377
#
# Compressibility (1/GPa) = 0.01904207
#
# Stress axis : x y z
#
# Youngs Moduli (GPa) = 61.56873 63.33527 44.37686
#
# Poissons Ratio (x) = 0.46072 0.25295
# Poissons Ratio (y) = 0.44787 0.21245
# Poissons Ratio (z) = 0.35094 0.30321
#
# Static dielectric constant tensor:
#      x y z
#    x 3.151800 0.000000 0.000000 
#    y 0.000000 3.187390 0.000000 
#    z 0.000000 0.000000 3.122850 
# 
# 
# High freq. dielectric constant tensor:
#      x y z
#    x 1.635550 0.000000 0.000000 
#    y 0.000000 1.637850 0.000000 
#    z 0.000000 0.000000 1.599190 
# 
# From -- ./inp_files/15693.got.cif
#   From: 2010.03.12/outbox.cif.g09.slc.cpg/sg47_8_cif.got.tgz:15693.got - 2010.04.14 03:12:58.
