data_PCOD8194017
_publ_section_title
;
Structure prediction by ZEFSAII (Michael W. Deem and Ramdas Pophale) SiO2 
 PCOD8194017
Probable space group: P M M M
;
_chemical_formula_sum "Si O2"
_cell_formula_units_Z 36
_cell_length_a 18.752733
_cell_length_b 15.423668
_cell_length_c 7.898285
_cell_angle_alpha 90.000000
_cell_angle_beta 90.000000
_cell_angle_gamma 90.000000
_cell_volume 2284.467791
_symmetry_space_group_name_H-M "P M M M"
_symmetry_group_IT_number 47
_symmetry_cell_setting 'orthorhombic'
loop_
_space_group_symop_operation_xyz
x,y,z
-x,-y,z
x,-y,-z
-x,y,-z
-x,-y,-z
x,y,-z
-x,y,z
x,-y,z
loop_
_atom_site_type_symbol
_atom_site_label
_atom_site_fract_x
_atom_site_fract_y
_atom_site_fract_z
Si Si1 0.330783 0.842506 0.306205
Si Si2 0.420556 0.000000 0.297069
Si Si3 0.419272 0.684676 0.805542
Si Si4 0.920503 0.102675 0.000000
Si Si5 0.415588 0.500000 0.311126
Si Si6 0.178985 0.102448 0.695010
O O1 0.324539 0.868472 0.500000
O O2 0.381416 0.914915 0.221474
O O3 0.364722 0.747694 0.288450
O O4 0.249960 0.847882 0.237861
O O5 0.500000 0.000000 0.222560
O O6 0.422952 0.000000 0.500000
O O7 0.500000 0.693791 0.730724
O O8 0.389725 0.586836 0.783567
O O9 0.419564 0.710193 0.000000
O O10 0.881992 0.133126 0.826206
O O11 0.000000 0.142803 0.000000
O O12 0.924394 0.000000 0.000000
O O13 0.500000 0.500000 0.312243
O O14 0.384105 0.500000 0.500000
O O15 0.158081 0.127081 0.500000
O O16 0.193297 0.000000 0.707779
#
# Coordination Sequence:
#
# PCOD8194017 Si02
#       6
#     8   4   8   4   4   8
#     4  10  18  29  44  62  84 117 156 190 228 271
#     4   9  16  26  41  59  81 112 154 199 230 256
#     4  10  20  31  43  62  87 114 148 192 238 279
#     4   9  18  30  46  68  88 113 150 187 225 270
#     4   9  17  31  49  63  77 105 145 190 237 280
#     4   9  17  30  46  64  89 121 153 187 228 272
#
# _framework density 15.758592999999999
#
# number of rings (size 3 to 8) (size 9 to 14) (size 15 to 20)
#    0.000    2.556    1.111    1.667    1.556    4.000 
#    0.000    2.778    0.000    2.000    0.000    0.000 
#    0.000    0.000    0.000    2.000    0.000   12.000 
#
# Total GULP energy -446184.690021 kJ/mol
# GULP energy per Si atom -12394.019167 kJ/mol
# Density = 1.572273 g / cm^3
# Si number density = 15.758593 Si / 1000 Ang^3
#
#
#
# Elastic Constant Matrix: (Units=GPa)
#
#
# Indices 1 2 3 4 5 6 
#
# 1 122.2030 40.2336 41.3458 0.0000 0.0000 0.0000
# 2 40.2336 75.8125 8.9394 0.0000 0.0000 0.0000
# 3 41.3458 8.9394 59.6753 0.0000 0.0000 0.0000
# 4 0.0000 0.0000 0.0000 12.6972 0.0000 0.0000
# 5 0.0000 0.0000 0.0000 0.0000 19.4106 0.0000
# 6 0.0000 0.0000 0.0000 0.0000 0.0000 9.6369
#
#
#
# Elastic Compliance Matrix: (Units=1/GPa)
#
#
# Indices 1 2 3 4 5 6 
#
# 1 0.012821 -0.005860 -0.008005 0.000000 0.000000 0.000000
# 2 -0.005860 0.016106 0.001647 0.000000 0.000000 0.000000
# 3 -0.008005 0.001647 0.022057 0.000000 0.000000 0.000000
# 4 0.000000 0.000000 0.000000 0.078757 0.000000 0.000000
# 5 0.000000 0.000000 0.000000 0.000000 0.051518 0.000000
# 6 0.000000 0.000000 0.000000 0.000000 0.000000 0.103768
#
#
# Mechanical properties :
#
#
# Convention : Reuss Voigt Hill
#
# Bulk Modulus (GPa) = 37.66705 48.74762 43.20734
# Shear Modulus (GPa) = 15.70786 19.49375 17.60080
#
# Velocity S-wave (km/s) = 3.16061 3.52095 3.34563
# Velocity P-wave (km/s) = 6.10522 6.89424 6.51169
#
# Compressibility (1/GPa) = 0.02654840
#
# Stress axis : x y z
#
# Youngs Moduli (GPa) = 77.99780 62.08812 45.33744
#
# Poissons Ratio (x) = 0.36384 0.36293
# Poissons Ratio (y) = 0.45708 -0.07469
# Poissons Ratio (z) = 0.62438 -0.10229
#
# Static dielectric constant tensor:
#      x y z
#    x 2.986350 0.000000 0.000000 
#    y 0.000000 2.819830 0.000000 
#    z 0.000000 0.000000 2.984600 
# 
# 
# High freq. dielectric constant tensor:
#      x y z
#    x 1.575810 0.000000 0.000000 
#    y 0.000000 1.573830 0.000000 
#    z 0.000000 0.000000 1.607120 
# 
# From -- ./inp_files/5634.got.cif
#   From: 2010.03.12/outbox.cif.g09.slc.cpg/sg47_3_cif.got.tgz:5634.got - 2010.04.14 03:12:58.
