data_PCOD8194377
_publ_section_title
;
Structure prediction by ZEFSAII (Michael W. Deem and Ramdas Pophale) SiO2 
 PCOD8194377
Probable space group: P M M M
;
_chemical_formula_sum "Si O2"
_cell_formula_units_Z 48
_cell_length_a 20.725782
_cell_length_b 8.986146
_cell_length_c 14.283684
_cell_angle_alpha 90.000000
_cell_angle_beta 90.000000
_cell_angle_gamma 90.000000
_cell_volume 2660.263341
_symmetry_space_group_name_H-M "P M M M"
_symmetry_group_IT_number 47
_symmetry_cell_setting 'orthorhombic'
loop_
_space_group_symop_operation_xyz
x,y,z
-x,-y,z
x,-y,-z
-x,y,-z
-x,-y,-z
x,y,-z
-x,y,z
x,-y,z
loop_
_atom_site_type_symbol
_atom_site_label
_atom_site_fract_x
_atom_site_fract_y
_atom_site_fract_z
Si Si1 0.683841 0.674175 0.392335
Si Si2 0.621202 0.325716 0.105582
Si Si3 0.757205 0.172254 0.105753
Si Si4 0.572426 0.828896 0.280084
Si Si5 0.071332 0.676540 0.604515
Si Si6 0.190092 0.676107 0.275633
O O1 0.694172 0.719495 0.500000
O O2 0.671220 0.500000 0.381397
O O3 0.621355 0.756901 0.353203
O O4 0.747454 0.722488 0.335917
O O5 0.624282 0.500000 0.126037
O O6 0.691766 0.261205 0.122692
O O7 0.573266 0.249815 0.178667
O O8 0.596981 0.292674 0.000000
O O9 0.809673 0.241250 0.175803
O O10 0.744738 0.000000 0.128201
O O11 0.782584 0.194212 0.000000
O O12 0.500000 0.811741 0.320280
O O13 0.591403 0.000000 0.266319
O O14 0.082801 0.739920 0.500000
O O15 0.076637 0.500000 0.600633
O O16 0.126466 0.738769 0.672720
O O17 0.000000 0.724495 0.640503
O O18 0.187026 0.500000 0.259928
#
# Coordination Sequence:
#
# PCOD8194377 Si02
#       6
#     8   8   8   8   8   8
#     4  10  21  36  54  77 103 133 173 220 265 309
#     4  10  20  35  56  80 104 131 167 213 264 316
#     4  10  20  33  51  76 106 138 171 210 259 314
#     4  11  24  39  54  74 103 139 176 215 261 313
#     4   8  14  26  47  78 114 146 174 208 254 306
#     4  10  18  30  53  82 108 136 173 216 258 304
#
# _framework density 18.043327000000001
#
# number of rings (size 3 to 8) (size 9 to 14) (size 15 to 20)
#    0.000    2.167    1.667    2.500    0.000    6.333 
#    0.000    3.333    0.000    2.500    0.000    4.667 
#    0.000    0.000    0.000    0.000    0.000    0.000 
#
# Total GULP energy -595194.551690 kJ/mol
# GULP energy per Si atom -12399.886494 kJ/mol
# Density = 1.800226 g / cm^3
# Si number density = 18.043327 Si / 1000 Ang^3
#
#
#
# Elastic Constant Matrix: (Units=GPa)
#
#
# Indices 1 2 3 4 5 6 
#
# 1 115.3369 37.1815 59.9834 0.0000 0.0000 0.0000
# 2 37.1815 60.9308 43.1465 0.0000 0.0000 0.0000
# 3 59.9834 43.1465 114.3479 0.0000 0.0000 0.0000
# 4 0.0000 0.0000 0.0000 21.5940 0.0000 0.0000
# 5 0.0000 0.0000 0.0000 0.0000 31.2539 0.0000
# 6 0.0000 0.0000 0.0000 0.0000 0.0000 3.3889
#
#
#
# Elastic Compliance Matrix: (Units=1/GPa)
#
#
# Indices 1 2 3 4 5 6 
#
# 1 0.012637 -0.004117 -0.005075 0.000000 0.000000 0.000000
# 2 -0.004117 0.023738 -0.006797 0.000000 0.000000 0.000000
# 3 -0.005075 -0.006797 0.013972 0.000000 0.000000 0.000000
# 4 0.000000 0.000000 0.000000 0.046309 0.000000 0.000000
# 5 0.000000 0.000000 0.000000 0.000000 0.031996 0.000000
# 6 0.000000 0.000000 0.000000 0.000000 0.000000 0.295082
#
#
# Mechanical properties :
#
#
# Convention : Reuss Voigt Hill
#
# Bulk Modulus (GPa) = 54.44409 63.47092 58.95750
# Shear Modulus (GPa) = 10.82634 21.26763 16.04699
#
# Velocity S-wave (km/s) = 2.45219 3.43694 2.98545
# Velocity P-wave (km/s) = 6.18524 7.14167 6.68059
#
# Compressibility (1/GPa) = 0.01836747
#
# Stress axis : x y z
#
# Youngs Moduli (GPa) = 79.13128 42.12703 71.56993
#
# Poissons Ratio (x) = 0.17346 0.36325
# Poissons Ratio (y) = 0.32582 0.48646
# Poissons Ratio (z) = 0.40163 0.28634
#
# Static dielectric constant tensor:
#      x y z
#    x 3.311360 0.000000 0.000000 
#    y 0.000000 3.184790 0.000000 
#    z 0.000000 0.000000 3.519330 
# 
# 
# High freq. dielectric constant tensor:
#      x y z
#    x 1.684290 0.000000 0.000000 
#    y 0.000000 1.685710 0.000000 
#    z 0.000000 0.000000 1.703850 
# 
# From -- ./inp_files/6383.got.cif
#   From: 2010.03.12/outbox.cif.g09.slc.cpg/sg47_4_cif.got.tgz:6383.got - 2010.04.14 03:12:58.
