data_PCOD8194992
_publ_section_title
;
Structure prediction by ZEFSAII (Michael W. Deem and Ramdas Pophale) SiO2 
 PCOD8194992
Probable space group: P M M M
;
_chemical_formula_sum "Si O2"
_cell_formula_units_Z 52
_cell_length_a 30.168305
_cell_length_b 12.434805
_cell_length_c 9.123750
_cell_angle_alpha 90.000000
_cell_angle_beta 90.000000
_cell_angle_gamma 90.000000
_cell_volume 3422.656111
_symmetry_space_group_name_H-M "P M M M"
_symmetry_group_IT_number 47
_symmetry_cell_setting 'orthorhombic'
loop_
_space_group_symop_operation_xyz
x,y,z
-x,-y,z
x,-y,-z
-x,y,-z
-x,-y,-z
x,y,-z
-x,y,z
x,-y,z
loop_
_atom_site_type_symbol
_atom_site_label
_atom_site_fract_x
_atom_site_fract_y
_atom_site_fract_z
Si Si1 0.186128 0.627572 0.168292
Si Si2 0.052487 0.500000 0.167696
Si Si3 0.900198 0.306234 0.674241
Si Si4 0.271879 0.627690 0.664686
Si Si5 0.451876 0.372147 0.164545
Si Si6 0.051278 0.124415 0.832702
Si Si7 0.368885 0.627727 0.664708
O O1 0.180666 0.500000 0.185745
O O2 0.149778 0.684895 0.268424
O O3 0.233895 0.668783 0.225414
O O4 0.180846 0.663069 0.000000
O O5 0.069298 0.395218 0.250369
O O6 0.000000 0.500000 0.169752
O O7 0.070415 0.500000 0.000000
O O8 0.901174 0.320603 0.500000
O O9 0.918865 0.190227 0.719242
O O10 0.263637 0.672368 0.500000
O O11 0.270974 0.500000 0.658230
O O12 0.320422 0.665121 0.724364
O O13 0.500000 0.338382 0.232591
O O14 0.448117 0.500000 0.167447
O O15 0.410067 0.319736 0.248332
O O16 0.449253 0.328884 0.000000
O O17 0.000000 0.145719 0.796405
O O18 0.063139 0.000000 0.811123
O O19 0.061272 0.160100 0.000000
O O20 0.373688 0.668628 0.500000
O O21 0.371981 0.500000 0.672990
#
# Coordination Sequence:
#
# PCOD8194992 Si02
#       7
#     8   4   8   8   8   8   8
#     4  10  19  30  44  60  81 109 140 169 200 245
#     4  11  23  37  51  67  91 121 149 175 204 247
#     4  12  23  33  49  71  95 119 142 174 214 251
#     4   8  14  24  36  49  68  91 118 154 195 237
#     4   8  13  19  25  34  50  72  99 136 181 226
#     4   9  19  37  58  75  92 117 146 174 206 245
#     4   8  13  20  29  41  56  77 105 140 183 231
#
# _framework density 15.192878
#
# number of rings (size 3 to 8) (size 9 to 14) (size 15 to 20)
#    0.000    2.692    0.769    4.385    0.000    4.615 
#    0.000    5.385    0.000    0.000    0.000    0.000 
#    0.000    0.000    0.000    0.000    0.000    0.000 
#
# Total GULP energy -644438.973181 kJ/mol
# GULP energy per Si atom -12393.057177 kJ/mol
# Density = 1.515830 g / cm^3
# Si number density = 15.192878 Si / 1000 Ang^3
#
#
#
# Elastic Constant Matrix: (Units=GPa)
#
#
# Indices 1 2 3 4 5 6 
#
# 1 134.0825 26.7421 68.5504 0.0000 0.0000 0.0000
# 2 26.7421 31.0658 24.9901 0.0000 0.0000 0.0000
# 3 68.5504 24.9901 107.0986 0.0000 0.0000 0.0000
# 4 0.0000 0.0000 0.0000 11.8008 0.0000 0.0000
# 5 0.0000 0.0000 0.0000 0.0000 32.2032 0.0000
# 6 0.0000 0.0000 0.0000 0.0000 0.0000 6.0368
#
#
#
# Elastic Compliance Matrix: (Units=1/GPa)
#
#
# Indices 1 2 3 4 5 6 
#
# 1 0.011678 -0.004973 -0.006314 0.000000 0.000000 0.000000
# 2 -0.004973 0.041746 -0.006558 0.000000 0.000000 0.000000
# 3 -0.006314 -0.006558 0.014909 0.000000 0.000000 0.000000
# 4 0.000000 0.000000 0.000000 0.084740 0.000000 0.000000
# 5 0.000000 0.000000 0.000000 0.000000 0.031053 0.000000
# 6 0.000000 0.000000 0.000000 0.000000 0.000000 0.165652
#
#
# Mechanical properties :
#
#
# Convention : Reuss Voigt Hill
#
# Bulk Modulus (GPa) = 30.63499 56.97914 43.80707
# Shear Modulus (GPa) = 12.61513 20.13911 16.37712
#
# Velocity S-wave (km/s) = 2.88467 3.64478 3.28677
# Velocity P-wave (km/s) = 5.59490 7.43625 6.58030
#
# Compressibility (1/GPa) = 0.03264241
#
# Stress axis : x y z
#
# Youngs Moduli (GPa) = 85.62887 23.95440 67.07367
#
# Poissons Ratio (x) = 0.11914 0.42353
# Poissons Ratio (y) = 0.42587 0.43984
# Poissons Ratio (z) = 0.54070 0.15708
#
# Static dielectric constant tensor:
#      x y z
#    x 3.353270 0.000000 0.000000 
#    y 0.000000 2.345730 0.000000 
#    z 0.000000 0.000000 3.041730 
# 
# 
# High freq. dielectric constant tensor:
#      x y z
#    x 1.600020 0.000000 0.000000 
#    y 0.000000 1.500930 0.000000 
#    z 0.000000 0.000000 1.586760 
# 
# From -- ./inp_files/14142.got.cif
#   From: 2010.03.12/outbox.cif.g09.slc.cpg/sg47_8_cif.got.tgz:14142.got - 2010.04.14 03:12:58.
