data_PCOD8194498
_publ_section_title
;
Structure prediction by ZEFSAII (Michael W. Deem and Ramdas Pophale) SiO2 
 PCOD8194498
Probable space group: P M M M
;
_chemical_formula_sum "Si O2"
_cell_formula_units_Z 52
_cell_length_a 12.008742
_cell_length_b 27.210306
_cell_length_c 9.109232
_cell_angle_alpha 90.000000
_cell_angle_beta 90.000000
_cell_angle_gamma 90.000000
_cell_volume 2976.546717
_symmetry_space_group_name_H-M "P M M M"
_symmetry_group_IT_number 47
_symmetry_cell_setting 'orthorhombic'
loop_
_space_group_symop_operation_xyz
x,y,z
-x,-y,z
x,-y,-z
-x,y,-z
-x,-y,-z
x,y,-z
-x,y,z
x,-y,z
loop_
_atom_site_type_symbol
_atom_site_label
_atom_site_fract_x
_atom_site_fract_y
_atom_site_fract_z
Si Si1 0.000000 0.557427 0.674226
Si Si2 0.624564 0.500000 0.826447
Si Si3 0.376291 0.321860 0.825690
Si Si4 0.500000 0.944605 0.325252
Si Si5 0.629898 0.787891 0.168333
Si Si6 0.776368 0.410176 0.825381
Si Si7 0.705982 0.880706 0.327238
Si Si8 0.869112 0.055051 0.834774
O O1 0.107353 0.583933 0.742268
O O2 0.000000 0.500000 0.718257
O O3 0.000000 0.564432 0.500000
O O4 0.500000 0.500000 0.757525
O O5 0.692053 0.452532 0.773376
O O6 0.613840 0.500000 0.000000
O O7 0.500000 0.335922 0.764661
O O8 0.343035 0.267068 0.773679
O O9 0.281484 0.359571 0.772582
O O10 0.383926 0.322856 0.000000
O O11 0.500000 0.946490 0.500000
O O12 0.607141 0.915313 0.266470
O O13 0.500000 0.000000 0.260807
O O14 0.500000 0.799115 0.188062
O O15 0.700010 0.826018 0.263419
O O16 0.666323 0.793510 0.000000
O O17 0.797721 0.411842 0.000000
O O18 0.702001 0.876084 0.500000
O O19 0.820145 0.905523 0.277356
O O20 0.000000 0.060744 0.827505
O O21 0.833828 0.000000 0.786823
O O22 0.826682 0.065524 0.000000
#
# Coordination Sequence:
#
# PCOD8194498 Si02
#       8
#     4   4   8   4   8   8   8   8
#     4  11  23  37  51  69 103 147 181 209 250 303
#     4   9  16  25  45  80 112 131 154 203 262 303
#     4   8  15  29  52  81 107 130 161 209 262 306
#     4   9  18  30  43  67 105 139 163 196 247 296
#     4   9  17  31  51  74 103 138 172 205 249 306
#     4  10  18  31  54  80 104 131 172 216 252 299
#     4  11  20  31  50  75 105 137 170 209 251 298
#     4   9  19  36  55  74  98 129 166 209 256 306
#
# _framework density 17.469909000000001
#
# number of rings (size 3 to 8) (size 9 to 14) (size 15 to 20)
#    0.000    2.538    1.538    3.000    0.000    3.385 
#    0.000    1.538    1.692    5.077    0.000    0.000 
#    0.000    0.000    0.000    0.000    0.000    0.000 
#
# Total GULP energy -644698.658447 kJ/mol
# GULP energy per Si atom -12398.051124 kJ/mol
# Density = 1.743015 g / cm^3
# Si number density = 17.469909 Si / 1000 Ang^3
#
#
#
# Elastic Constant Matrix: (Units=GPa)
#
#
# Indices 1 2 3 4 5 6 
#
# 1 104.6898 69.9797 36.7305 0.0000 0.0000 0.0000
# 2 69.9797 147.7778 43.2083 0.0000 0.0000 0.0000
# 3 36.7305 43.2083 50.1487 0.0000 0.0000 0.0000
# 4 0.0000 0.0000 0.0000 17.1813 0.0000 0.0000
# 5 0.0000 0.0000 0.0000 0.0000 15.6505 0.0000
# 6 0.0000 0.0000 0.0000 0.0000 0.0000 23.8608
#
#
#
# Elastic Compliance Matrix: (Units=1/GPa)
#
#
# Indices 1 2 3 4 5 6 
#
# 1 0.015505 -0.005376 -0.006724 0.000000 0.000000 0.000000
# 2 -0.005376 0.010910 -0.005462 0.000000 0.000000 0.000000
# 3 -0.006724 -0.005462 0.029572 0.000000 0.000000 0.000000
# 4 0.000000 0.000000 0.000000 0.058203 0.000000 0.000000
# 5 0.000000 0.000000 0.000000 0.000000 0.063896 0.000000
# 6 0.000000 0.000000 0.000000 0.000000 0.000000 0.041910
#
#
# Mechanical properties :
#
#
# Convention : Reuss Voigt Hill
#
# Bulk Modulus (GPa) = 47.93513 66.93927 57.43720
# Shear Modulus (GPa) = 19.07857 21.51839 20.29848
#
# Velocity S-wave (km/s) = 3.30825 3.51342 3.41238
# Velocity P-wave (km/s) = 6.48775 7.40668 6.96240
#
# Compressibility (1/GPa) = 0.02086153
#
# Stress axis : x y z
#
# Youngs Moduli (GPa) = 64.49556 91.65965 33.81579
#
# Poissons Ratio (x) = 0.49279 0.22738
# Poissons Ratio (y) = 0.34675 0.18471
# Poissons Ratio (z) = 0.43368 0.50067
#
# Static dielectric constant tensor:
#      x y z
#    x 3.203170 0.000000 0.000000 
#    y 0.000000 3.444740 0.000000 
#    z 0.000000 0.000000 2.908940 
# 
# 
# High freq. dielectric constant tensor:
#      x y z
#    x 1.666270 0.000000 0.000000 
#    y 0.000000 1.681770 0.000000 
#    z 0.000000 0.000000 1.642110 
# 
# From -- ./inp_files/4638.got.cif
#   From: 2010.03.12/outbox.cif.g09.slc.cpg/sg47_3_cif.got.tgz:4638.got - 2010.04.14 03:12:58.
