data_PCOD8194077
_publ_section_title
;
Structure prediction by ZEFSAII (Michael W. Deem and Ramdas Pophale) SiO2 
 PCOD8194077
Probable space group: P M M M
;
_chemical_formula_sum "Si O2"
_cell_formula_units_Z 40
_cell_length_a 24.320696
_cell_length_b 9.789649
_cell_length_c 10.339717
_cell_angle_alpha 90.000000
_cell_angle_beta 90.000000
_cell_angle_gamma 90.000000
_cell_volume 2461.794359
_symmetry_space_group_name_H-M "P M M M"
_symmetry_group_IT_number 47
_symmetry_cell_setting 'orthorhombic'
loop_
_space_group_symop_operation_xyz
x,y,z
-x,-y,z
x,-y,-z
-x,y,-z
-x,-y,-z
x,y,-z
-x,y,z
x,-y,z
loop_
_atom_site_type_symbol
_atom_site_label
_atom_site_fract_x
_atom_site_fract_y
_atom_site_fract_z
Si Si1 0.060737 0.838533 0.000000
Si Si2 0.128291 0.837837 0.248143
Si Si3 0.439165 0.152728 0.153804
Si Si4 0.653658 0.650726 0.153610
Si Si5 0.222535 0.340182 0.849673
Si Si6 0.061830 0.838504 0.500000
O O1 0.092205 0.789276 0.126965
O O2 0.000000 0.772779 0.000000
O O3 0.055823 0.000000 0.000000
O O4 0.185099 0.754780 0.241253
O O5 0.095230 0.790211 0.374498
O O6 0.140457 0.000000 0.247485
O O7 0.500000 0.204786 0.195469
O O8 0.391860 0.248377 0.214634
O O9 0.429550 0.000000 0.206569
O O10 0.434891 0.152839 0.000000
O O11 0.641726 0.500000 0.209268
O O12 0.715146 0.696698 0.191373
O O13 0.648955 0.647346 0.000000
O O14 0.210296 0.500000 0.825279
O O15 0.212526 0.303785 0.000000
O O16 0.000000 0.775578 0.500000
O O17 0.056481 0.000000 0.500000
#
# Coordination Sequence:
#
# PCOD8194077 Si02
#       6
#     4   8   8   8   8   4
#     4   9  16  26  43  67  89 107 136 177 210 245
#     4  10  18  29  47  69  88 111 145 180 215 261
#     4   8  13  20  29  44  69 101 136 174 214 251
#     4   8  14  23  34  49  70 101 139 174 211 254
#     4   9  17  29  43  60  86 115 142 180 227 264
#     4   9  18  32  49  69  93 117 140 175 224 267
#
# _framework density 16.24831
#
# number of rings (size 3 to 8) (size 9 to 14) (size 15 to 20)
#    0.000    3.200    1.000    2.400    0.000    3.600 
#    0.000    4.500    0.000    3.600    0.000    0.000 
#    0.000    0.000    0.000    0.900    0.000   18.000 
#
# Total GULP energy -495750.544041 kJ/mol
# GULP energy per Si atom -12393.763601 kJ/mol
# Density = 1.621133 g / cm^3
# Si number density = 16.248310 Si / 1000 Ang^3
#
#
#
# Elastic Constant Matrix: (Units=GPa)
#
#
# Indices 1 2 3 4 5 6 
#
# 1 164.8356 75.8372 44.8561 0.0000 0.0000 0.0000
# 2 75.8372 65.3166 24.3742 0.0000 0.0000 0.0000
# 3 44.8561 24.3742 67.3007 0.0000 0.0000 0.0000
# 4 0.0000 0.0000 0.0000 8.5462 0.0000 0.0000
# 5 0.0000 0.0000 0.0000 0.0000 12.7759 0.0000
# 6 0.0000 0.0000 0.0000 0.0000 0.0000 20.7267
#
#
#
# Elastic Compliance Matrix: (Units=1/GPa)
#
#
# Indices 1 2 3 4 5 6 
#
# 1 0.013875 -0.014637 -0.003947 0.000000 0.000000 0.000000
# 2 -0.014637 0.033143 -0.002248 0.000000 0.000000 0.000000
# 3 -0.003947 -0.002248 0.018303 0.000000 0.000000 0.000000
# 4 0.000000 0.000000 0.000000 0.117011 0.000000 0.000000
# 5 0.000000 0.000000 0.000000 0.000000 0.078272 0.000000
# 6 0.000000 0.000000 0.000000 0.000000 0.000000 0.048247
#
#
# Mechanical properties :
#
#
# Convention : Reuss Voigt Hill
#
# Bulk Modulus (GPa) = 42.26801 65.28755 53.77778
# Shear Modulus (GPa) = 13.95088 18.56878 16.25983
#
# Velocity S-wave (km/s) = 2.93337 3.38422 3.16683
# Velocity P-wave (km/s) = 6.12725 7.45245 6.82210
#
# Compressibility (1/GPa) = 0.02365856
#
# Stress axis : x y z
#
# Youngs Moduli (GPa) = 72.07389 30.17206 54.63517
#
# Poissons Ratio (x) = 0.44162 0.21562
# Poissons Ratio (y) = 1.05493 0.12282
# Poissons Ratio (z) = 0.28444 0.06783
#
# Static dielectric constant tensor:
#      x y z
#    x 3.351280 0.000000 0.000000 
#    y 0.000000 3.030240 0.000000 
#    z 0.000000 0.000000 2.630700 
# 
# 
# High freq. dielectric constant tensor:
#      x y z
#    x 1.640750 0.000000 0.000000 
#    y 0.000000 1.605260 0.000000 
#    z 0.000000 0.000000 1.566130 
# 
# From -- ./inp_files/10654.got.cif
#   From: 2010.03.12/outbox.cif.g09.slc.cpg/sg47_6_cif.got.tgz:10654.got - 2010.04.14 03:12:58.
