data_PCOD8194108
_publ_section_title
;
Structure prediction by ZEFSAII (Michael W. Deem and Ramdas Pophale) SiO2 
 PCOD8194108
Probable space group: P M M M
;
_chemical_formula_sum "Si O2"
_cell_formula_units_Z 52
_cell_length_a 22.405450
_cell_length_b 13.621016
_cell_length_c 9.868407
_cell_angle_alpha 90.000000
_cell_angle_beta 90.000000
_cell_angle_gamma 90.000000
_cell_volume 3011.689721
_symmetry_space_group_name_H-M "P M M M"
_symmetry_group_IT_number 47
_symmetry_cell_setting 'orthorhombic'
loop_
_space_group_symop_operation_xyz
x,y,z
-x,-y,z
x,-y,-z
-x,y,-z
-x,-y,-z
x,y,-z
-x,y,z
x,-y,z
loop_
_atom_site_type_symbol
_atom_site_label
_atom_site_fract_x
_atom_site_fract_y
_atom_site_fract_z
Si Si1 0.000000 0.608078 0.660107
Si Si2 0.353026 0.713614 0.659616
Si Si3 0.766633 0.388457 0.659962
Si Si4 0.115758 0.725257 0.660899
Si Si5 0.567125 0.109102 0.660772
Si Si6 0.069050 0.113592 0.155464
Si Si7 0.564837 0.386030 0.854187
O O1 0.058571 0.664100 0.708616
O O2 0.000000 0.500000 0.726005
O O3 0.000000 0.599121 0.500000
O O4 0.360771 0.704026 0.500000
O O5 0.285299 0.688445 0.704126
O O6 0.380057 0.817961 0.712661
O O7 0.391991 0.630761 0.729224
O O8 0.767139 0.399221 0.500000
O O9 0.759599 0.500000 0.720788
O O10 0.827732 0.338516 0.709009
O O11 0.117007 0.747518 0.500000
O O12 0.112666 0.827033 0.743541
O O13 0.567980 0.108020 0.500000
O O14 0.500000 0.140411 0.708956
O O15 0.581887 0.000000 0.716407
O O16 0.000000 0.131824 0.194765
O O17 0.085340 0.000000 0.174706
O O18 0.080304 0.145589 0.000000
O O19 0.500000 0.338366 0.823732
O O20 0.556855 0.500000 0.868806
O O21 0.588893 0.344597 0.000000
#
# Coordination Sequence:
#
# PCOD8194108 Si02
#       7
#     4   8   8   8   8   8   8
#     4   9  16  26  44  69  92 118 157 201 242 287
#     4  10  18  29  48  71  92 122 163 200 235 283
#     4   9  18  31  46  68 101 132 156 193 245 291
#     4  10  18  30  49  73  96 125 166 205 238 283
#     4   8  14  25  42  66  94 120 149 191 240 283
#     4   9  18  33  52  73  99 129 155 188 246 306
#     4   9  18  31  45  64  93 125 154 191 243 293
#
# _framework density 17.266055000000001
#
# number of rings (size 3 to 8) (size 9 to 14) (size 15 to 20)
#    0.000    2.846    0.769    2.769    0.000    4.000 
#    0.000    3.077    0.000    6.462    0.000    2.154 
#    0.000    0.000    0.000    0.000    0.000    0.000 
#
# Total GULP energy -644182.695192 kJ/mol
# GULP energy per Si atom -12388.128754 kJ/mol
# Density = 1.722676 g / cm^3
# Si number density = 17.266055 Si / 1000 Ang^3
#
#
#
# Elastic Constant Matrix: (Units=GPa)
#
#
# Indices 1 2 3 4 5 6 
#
# 1 133.9307 68.1320 28.2804 0.0000 0.0000 0.0000
# 2 68.1320 111.6290 30.9679 0.0000 0.0000 0.0000
# 3 28.2804 30.9679 33.4698 0.0000 0.0000 0.0000
# 4 0.0000 0.0000 0.0000 15.5359 0.0000 0.0000
# 5 0.0000 0.0000 0.0000 0.0000 12.4815 0.0000
# 6 0.0000 0.0000 0.0000 0.0000 0.0000 56.5737
#
#
#
# Elastic Compliance Matrix: (Units=1/GPa)
#
#
# Indices 1 2 3 4 5 6 
#
# 1 0.011260 -0.005695 -0.004245 0.000000 0.000000 0.000000
# 2 -0.005695 0.014932 -0.009004 0.000000 0.000000 0.000000
# 3 -0.004245 -0.009004 0.041795 0.000000 0.000000 0.000000
# 4 0.000000 0.000000 0.000000 0.064367 0.000000 0.000000
# 5 0.000000 0.000000 0.000000 0.000000 0.080119 0.000000
# 6 0.000000 0.000000 0.000000 0.000000 0.000000 0.017676
#
#
# Mechanical properties :
#
#
# Convention : Reuss Voigt Hill
#
# Bulk Modulus (GPa) = 33.22277 59.30999 46.26638
# Shear Modulus (GPa) = 17.98111 27.02816 22.50463
#
# Velocity S-wave (km/s) = 3.23060 3.96080 3.61418
# Velocity P-wave (km/s) = 5.76187 7.43925 6.65363
#
# Compressibility (1/GPa) = 0.03009984
#
# Stress axis : x y z
#
# Youngs Moduli (GPa) = 88.81079 66.97104 23.92609
#
# Poissons Ratio (x) = 0.38138 0.10157
# Poissons Ratio (y) = 0.50576 0.21543
# Poissons Ratio (z) = 0.37700 0.60300
#
# Static dielectric constant tensor:
#      x y z
#    x 3.306930 0.000000 0.000000 
#    y 0.000000 3.385680 0.000000 
#    z 0.000000 0.000000 2.875370 
# 
# 
# High freq. dielectric constant tensor:
#      x y z
#    x 1.659000 0.000000 0.000000 
#    y 0.000000 1.667820 0.000000 
#    z 0.000000 0.000000 1.627250 
# 
# From -- ./inp_files/11059.got.cif
#   From: 2010.03.12/outbox.cif.g09.slc.cpg/sg47_6_cif.got.tgz:11059.got - 2010.04.14 03:12:58.
