data_PCOD8194921
_publ_section_title
;
Structure prediction by ZEFSAII (Michael W. Deem and Ramdas Pophale) SiO2 
 PCOD8194921
Probable space group: P M M M
;
_chemical_formula_sum "Si O2"
_cell_formula_units_Z 56
_cell_length_a 9.187128
_cell_length_b 18.527137
_cell_length_c 19.002521
_cell_angle_alpha 90.000000
_cell_angle_beta 90.000000
_cell_angle_gamma 90.000000
_cell_volume 3234.441505
_symmetry_space_group_name_H-M "P M M M"
_symmetry_group_IT_number 47
_symmetry_cell_setting 'orthorhombic'
loop_
_space_group_symop_operation_xyz
x,y,z
-x,-y,z
x,-y,-z
-x,y,-z
-x,-y,-z
x,y,-z
-x,y,z
x,-y,z
loop_
_atom_site_type_symbol
_atom_site_label
_atom_site_fract_x
_atom_site_fract_y
_atom_site_fract_z
Si Si1 0.672636 0.647925 0.923865
Si Si2 0.672376 0.418689 0.781308
Si Si3 0.667532 0.082888 0.663766
Si Si4 0.833385 0.704368 0.706925
Si Si5 0.668854 0.187210 0.920807
Si Si6 0.831570 0.801318 0.419846
Si Si7 0.169623 0.150743 0.788645
O O1 0.500000 0.644219 0.924174
O O2 0.734573 0.600944 0.859139
O O3 0.722220 0.730371 0.915013
O O4 0.730129 0.618624 0.000000
O O5 0.500000 0.410289 0.780151
O O6 0.720705 0.500000 0.763190
O O7 0.736220 0.365239 0.722947
O O8 0.500000 0.105296 0.674249
O O9 0.735698 0.129797 0.600903
O O10 0.751923 0.095172 0.736683
O O11 0.682751 0.000000 0.641310
O O12 0.792499 0.732713 0.628924
O O13 0.800704 0.767847 0.762406
O O14 0.000000 0.679853 0.711009
O O15 0.500000 0.180333 0.900212
O O16 0.763823 0.140485 0.866434
O O17 0.695456 0.158165 0.000000
O O18 0.799031 0.779505 0.500000
O O19 0.000000 0.822601 0.407698
O O20 0.000000 0.132010 0.790064
#
# Coordination Sequence:
#
# PCOD8194921 Si02
#       7
#     8   8   8   8   8   8   8
#     4   8  14  25  41  63  92 125 161 202 248 294
#     4  10  19  29  45  69  95 127 167 210 253 295
#     4  10  21  35  52  77 108 138 165 194 232 285
#     4   9  18  32  49  70  95 125 161 200 244 292
#     4   9  16  27  46  70  95 127 167 211 259 304
#     4   9  19  36  57  80 104 130 162 199 239 286
#     4  10  19  31  50  73  97 130 171 211 250 291
#
# _framework density 17.313654
#
# number of rings (size 3 to 8) (size 9 to 14) (size 15 to 20)
#    0.000    2.714    1.429    2.571    0.000    4.857 
#    0.000    2.857    0.000    1.286    0.000    7.000 
#    0.000    0.000    0.000    0.000    0.000    0.000 
#
# Total GULP energy -694270.931607 kJ/mol
# GULP energy per Si atom -12397.695207 kJ/mol
# Density = 1.727425 g / cm^3
# Si number density = 17.313654 Si / 1000 Ang^3
#
#
#
# Elastic Constant Matrix: (Units=GPa)
#
#
# Indices 1 2 3 4 5 6 
#
# 1 66.5742 33.0529 47.5248 0.0000 0.0000 0.0000
# 2 33.0529 68.1956 44.5827 0.0000 0.0000 0.0000
# 3 47.5248 44.5827 132.3681 0.0000 0.0000 0.0000
# 4 0.0000 0.0000 0.0000 17.6928 0.0000 0.0000
# 5 0.0000 0.0000 0.0000 0.0000 28.0597 0.0000
# 6 0.0000 0.0000 0.0000 0.0000 0.0000 22.2344
#
#
#
# Elastic Compliance Matrix: (Units=1/GPa)
#
#
# Indices 1 2 3 4 5 6 
#
# 1 0.022703 -0.007277 -0.005700 0.000000 0.000000 0.000000
# 2 -0.007277 0.021137 -0.004506 0.000000 0.000000 0.000000
# 3 -0.005700 -0.004506 0.011119 0.000000 0.000000 0.000000
# 4 0.000000 0.000000 0.000000 0.056520 0.000000 0.000000
# 5 0.000000 0.000000 0.000000 0.000000 0.035638 0.000000
# 6 0.000000 0.000000 0.000000 0.000000 0.000000 0.044975
#
#
# Mechanical properties :
#
#
# Convention : Reuss Voigt Hill
#
# Bulk Modulus (GPa) = 50.02122 57.49542 53.75832
# Shear Modulus (GPa) = 21.39279 23.06254 22.22766
#
# Velocity S-wave (km/s) = 3.51893 3.65368 3.58693
# Velocity P-wave (km/s) = 6.74273 7.14698 6.94780
#
# Compressibility (1/GPa) = 0.01999152
#
# Stress axis : x y z
#
# Youngs Moduli (GPa) = 44.04715 47.31095 89.93609
#
# Poissons Ratio (x) = 0.34429 0.51265
# Poissons Ratio (y) = 0.32054 0.40528
# Poissons Ratio (z) = 0.25108 0.21320
#
# Static dielectric constant tensor:
#      x y z
#    x 3.079740 0.000000 0.000000 
#    y 0.000000 2.973310 0.000000 
#    z 0.000000 0.000000 3.347910 
# 
# 
# High freq. dielectric constant tensor:
#      x y z
#    x 1.655890 0.000000 0.000000 
#    y 0.000000 1.638990 0.000000 
#    z 0.000000 0.000000 1.669690 
# 
# From -- ./inp_files/11493.got.cif
#   From: 2010.03.12/outbox.cif.g09.slc.cpg/sg47_6_cif.got.tgz:11493.got - 2010.04.14 03:12:58.
