data_PCOD8194127
_publ_section_title
;
Structure prediction by ZEFSAII (Michael W. Deem and Ramdas Pophale) SiO2 
 PCOD8194127
Probable space group: P M M M
;
_chemical_formula_sum "Si O2"
_cell_formula_units_Z 52
_cell_length_a 9.237735
_cell_length_b 18.946918
_cell_length_c 15.916774
_cell_angle_alpha 90.000000
_cell_angle_beta 90.000000
_cell_angle_gamma 90.000000
_cell_volume 2785.858956
_symmetry_space_group_name_H-M "P M M M"
_symmetry_group_IT_number 47
_symmetry_cell_setting 'orthorhombic'
loop_
_space_group_symop_operation_xyz
x,y,z
-x,-y,z
x,-y,-z
-x,y,-z
-x,-y,-z
x,y,-z
-x,y,z
x,-y,z
loop_
_atom_site_type_symbol
_atom_site_label
_atom_site_fract_x
_atom_site_fract_y
_atom_site_fract_z
Si Si1 0.328329 0.919770 0.000000
Si Si2 0.169447 0.829460 0.332896
Si Si3 0.833686 0.336428 0.340958
Si Si4 0.334271 0.832155 0.500000
Si Si5 0.328642 0.840469 0.832981
Si Si6 0.661700 0.335710 0.500000
Si Si7 0.170588 0.420445 0.821916
Si Si8 0.661741 0.306614 0.094613
O O1 0.270890 0.883381 0.085697
O O2 0.500000 0.914084 0.000000
O O3 0.273374 0.000000 0.000000
O O4 0.192303 0.745896 0.324930
O O5 0.249367 0.858757 0.416667
O O6 0.242744 0.865222 0.250633
O O7 0.000000 0.849557 0.337410
O O8 0.741824 0.365225 0.418542
O O9 0.778758 0.382027 0.262770
O O10 0.000000 0.351791 0.361142
O O11 0.500000 0.860865 0.500000
O O12 0.334332 0.748342 0.500000
O O13 0.500000 0.852233 0.819364
O O14 0.290934 0.758145 0.846527
O O15 0.500000 0.365309 0.500000
O O16 0.231413 0.500000 0.824325
O O17 0.236133 0.374731 0.897453
O O18 0.000000 0.420186 0.831963
O O19 0.500000 0.330752 0.117924
O O20 0.669485 0.277900 0.000000
#
# Coordination Sequence:
#
# PCOD8194127 Si02
#       8
#     4   8   8   4   8   4   8   8
#     4   9  18  34  57  85 116 147 180 216 253 301
#     4  10  18  29  48  75 105 138 176 218 265 316
#     4   9  17  30  46  65  91 124 162 205 254 305
#     4   9  17  29  45  72 107 138 172 218 268 312
#     4  10  18  31  53  80 107 139 178 217 258 305
#     4   9  17  27  44  68  91 121 159 202 253 306
#     4  10  21  36  51  68  92 125 168 216 263 311
#     4  10  20  34  52  73  98 128 165 210 258 309
#
# _framework density 18.665697000000002
#
# number of rings (size 3 to 8) (size 9 to 14) (size 15 to 20)
#    0.000    2.385    2.308    0.923    0.000    4.000 
#    0.000    2.308    0.000    3.231    0.000    0.538 
#    0.000    4.308    0.000    0.000    0.000    0.000 
#
# Total GULP energy -644691.519595 kJ/mol
# GULP energy per Si atom -12397.913838 kJ/mol
# Density = 1.862321 g / cm^3
# Si number density = 18.665697 Si / 1000 Ang^3
#
#
#
# Elastic Constant Matrix: (Units=GPa)
#
#
# Indices 1 2 3 4 5 6 
#
# 1 73.0098 22.8080 59.0810 0.0000 0.0000 0.0000
# 2 22.8080 48.2021 31.1410 0.0000 0.0000 0.0000
# 3 59.0810 31.1410 138.6803 0.0000 0.0000 0.0000
# 4 0.0000 0.0000 0.0000 14.8428 0.0000 0.0000
# 5 0.0000 0.0000 0.0000 0.0000 34.1270 0.0000
# 6 0.0000 0.0000 0.0000 0.0000 0.0000 11.5811
#
#
#
# Elastic Compliance Matrix: (Units=1/GPa)
#
#
# Indices 1 2 3 4 5 6 
#
# 1 0.021915 -0.005074 -0.008197 0.000000 0.000000 0.000000
# 2 -0.005074 0.025441 -0.003551 0.000000 0.000000 0.000000
# 3 -0.008197 -0.003551 0.011500 0.000000 0.000000 0.000000
# 4 0.000000 0.000000 0.000000 0.067373 0.000000 0.000000
# 5 0.000000 0.000000 0.000000 0.000000 0.029302 0.000000
# 6 0.000000 0.000000 0.000000 0.000000 0.000000 0.086347
#
#
# Mechanical properties :
#
#
# Convention : Reuss Voigt Hill
#
# Bulk Modulus (GPa) = 39.66336 53.99470 46.82903
# Shear Modulus (GPa) = 17.61016 21.90101 19.75559
#
# Velocity S-wave (km/s) = 3.07490 3.42911 3.25682
# Velocity P-wave (km/s) = 5.82255 6.68344 6.26779
#
# Compressibility (1/GPa) = 0.02521218
#
# Stress axis : x y z
#
# Youngs Moduli (GPa) = 45.63088 39.30645 86.95394
#
# Poissons Ratio (x) = 0.19944 0.71275
# Poissons Ratio (y) = 0.23153 0.30879
# Poissons Ratio (z) = 0.37403 0.13959
#
# Static dielectric constant tensor:
#      x y z
#    x 3.333300 0.000000 0.000000 
#    y 0.000000 3.062150 0.000000 
#    z 0.000000 0.000000 3.555010 
# 
# 
# High freq. dielectric constant tensor:
#      x y z
#    x 1.714530 0.000000 0.000000 
#    y 0.000000 1.677560 0.000000 
#    z 0.000000 0.000000 1.738470 
# 
# From -- ./inp_files/21505.got.cif
#   From: 2010.03.12/outbox.cif.g09.slc.cpg/sg47_11_cif.got.tgz:21505.got - 2010.04.14 03:12:58.
