data_PCOD8194376
_publ_section_title
;
Structure prediction by ZEFSAII (Michael W. Deem and Ramdas Pophale) SiO2 
 PCOD8194376
Probable space group: P M M M
;
_chemical_formula_sum "Si O2"
_cell_formula_units_Z 52
_cell_length_a 8.994843
_cell_length_b 20.719212
_cell_length_c 14.219358
_cell_angle_alpha 90.000000
_cell_angle_beta 90.000000
_cell_angle_gamma 90.000000
_cell_volume 2650.005712
_symmetry_space_group_name_H-M "P M M M"
_symmetry_group_IT_number 47
_symmetry_cell_setting 'orthorhombic'
loop_
_space_group_symop_operation_xyz
x,y,z
-x,-y,z
x,-y,-z
-x,y,-z
-x,-y,-z
x,y,-z
-x,y,z
x,-y,z
loop_
_atom_site_type_symbol
_atom_site_label
_atom_site_fract_x
_atom_site_fract_y
_atom_site_fract_z
Si Si1 0.329726 0.427527 0.718438
Si Si2 0.674861 0.817375 0.391800
Si Si3 0.830242 0.315079 0.389814
Si Si4 0.826059 0.761103 0.896912
Si Si5 0.172478 0.615513 0.891998
Si Si6 0.176705 0.877320 0.773398
Si Si7 0.176425 0.000000 0.107242
O O1 0.500000 0.404982 0.715131
O O2 0.312668 0.500000 0.677940
O O3 0.232052 0.379195 0.657641
O O4 0.273083 0.429011 0.826231
O O5 0.716388 0.831828 0.500000
O O6 0.500000 0.815557 0.376202
O O7 0.740952 0.748553 0.359343
O O8 0.747011 0.874829 0.329429
O O9 0.816826 0.326593 0.500000
O O10 0.000000 0.305032 0.357297
O O11 0.796402 0.689156 0.859327
O O12 0.761052 0.813752 0.826043
O O13 0.000000 0.773507 0.907454
O O14 0.752603 0.769967 0.000000
O O15 0.000000 0.597810 0.878836
O O16 0.219547 0.605009 0.000000
O O17 0.000000 0.878762 0.760080
O O18 0.232445 0.938011 0.834493
O O19 0.000000 0.000000 0.100788
O O20 0.240646 0.000000 0.000000
#
# Coordination Sequence:
#
# PCOD8194376 Si02
#       7
#     8   8   8   8   8   8   4
#     4  11  24  38  52  74 107 147 185 221 267 325
#     4  10  21  37  57  81 109 140 175 220 276 332
#     4  10  21  38  61  86 109 135 172 222 277 331
#     4   8  14  26  47  75 102 128 164 213 267 318
#     4   9  18  33  53  76 101 133 179 233 282 326
#     4  10  18  30  53  81 109 145 186 226 266 311
#     4   9  18  32  52  83 120 154 189 227 268 315
#
# _framework density 19.622599000000001
#
# number of rings (size 3 to 8) (size 9 to 14) (size 15 to 20)
#    0.000    2.385    0.000    3.692    0.000    7.077 
#    0.000    3.846    0.000    5.538    0.000    0.000 
#    0.000    0.000    0.000    0.000    0.000    0.000 
#
# Total GULP energy -644741.505489 kJ/mol
# GULP energy per Si atom -12398.875106 kJ/mol
# Density = 1.957794 g / cm^3
# Si number density = 19.622599 Si / 1000 Ang^3
#
#
#
# Elastic Constant Matrix: (Units=GPa)
#
#
# Indices 1 2 3 4 5 6 
#
# 1 66.7575 33.7901 43.7946 0.0000 0.0000 0.0000
# 2 33.7901 88.5511 57.6846 0.0000 0.0000 0.0000
# 3 43.7946 57.6846 93.3806 0.0000 0.0000 0.0000
# 4 0.0000 0.0000 0.0000 26.2374 0.0000 0.0000
# 5 0.0000 0.0000 0.0000 0.0000 22.3694 0.0000
# 6 0.0000 0.0000 0.0000 0.0000 0.0000 21.3293
#
#
#
# Elastic Compliance Matrix: (Units=1/GPa)
#
#
# Indices 1 2 3 4 5 6 
#
# 1 0.022046 -0.002807 -0.008605 0.000000 0.000000 0.000000
# 2 -0.002807 0.019255 -0.010578 0.000000 0.000000 0.000000
# 3 -0.008605 -0.010578 0.021279 0.000000 0.000000 0.000000
# 4 0.000000 0.000000 0.000000 0.038114 0.000000 0.000000
# 5 0.000000 0.000000 0.000000 0.000000 0.044704 0.000000
# 6 0.000000 0.000000 0.000000 0.000000 0.000000 0.046884
#
#
# Mechanical properties :
#
#
# Convention : Reuss Voigt Hill
#
# Bulk Modulus (GPa) = 53.76542 57.69197 55.72870
# Shear Modulus (GPa) = 20.62189 21.54855 21.08522
#
# Velocity S-wave (km/s) = 3.24532 3.31743 3.28157
# Velocity P-wave (km/s) = 6.44220 6.64367 6.54371
#
# Compressibility (1/GPa) = 0.01859932
#
# Stress axis : x y z
#
# Youngs Moduli (GPa) = 45.36070 51.93529 46.99415
#
# Poissons Ratio (x) = 0.14576 0.40441
# Poissons Ratio (y) = 0.12730 0.49711
# Poissons Ratio (z) = 0.39035 0.54938
#
# Static dielectric constant tensor:
#      x y z
#    x 3.268710 0.000000 0.000000 
#    y 0.000000 3.542210 0.000000 
#    z 0.000000 0.000000 3.811920 
# 
# 
# High freq. dielectric constant tensor:
#      x y z
#    x 1.734400 0.000000 0.000000 
#    y 0.000000 1.755170 0.000000 
#    z 0.000000 0.000000 1.777440 
# 
# From -- ./inp_files/21480.got.cif
#   From: 2010.03.12/outbox.cif.g09.slc.cpg/sg47_11_cif.got.tgz:21480.got - 2010.04.14 03:12:58.
