data_PCOD8194111
_publ_section_title
;
Structure prediction by ZEFSAII (Michael W. Deem and Ramdas Pophale) SiO2 
 PCOD8194111
Probable space group: P M M M
;
_chemical_formula_sum "Si O2"
_cell_formula_units_Z 60
_cell_length_a 19.441560
_cell_length_b 8.843205
_cell_length_c 19.530460
_cell_angle_alpha 90.000000
_cell_angle_beta 90.000000
_cell_angle_gamma 90.000000
_cell_volume 3357.788019
_symmetry_space_group_name_H-M "P M M M"
_symmetry_group_IT_number 47
_symmetry_cell_setting 'orthorhombic'
loop_
_space_group_symop_operation_xyz
x,y,z
-x,-y,z
x,-y,-z
-x,y,-z
-x,-y,-z
x,y,-z
-x,y,z
x,-y,z
loop_
_atom_site_type_symbol
_atom_site_label
_atom_site_fract_x
_atom_site_fract_y
_atom_site_fract_z
Si Si1 0.703690 0.320773 0.421304
Si Si2 0.149280 0.320571 0.630181
Si Si3 0.694273 0.325365 0.078278
Si Si4 0.079067 0.319899 0.767522
Si Si5 0.578481 0.673841 0.817789
Si Si6 0.327653 0.177674 0.289150
Si Si7 0.075081 0.319170 0.500000
Si Si8 0.789550 0.821832 0.184764
O O1 0.695327 0.258890 0.500000
O O2 0.696500 0.500000 0.424248
O O3 0.773799 0.266289 0.384746
O O4 0.653384 0.250052 0.364153
O O5 0.146036 0.500000 0.632616
O O6 0.111101 0.255880 0.696718
O O7 0.109036 0.251091 0.566813
O O8 0.716421 0.500000 0.084860
O O9 0.619690 0.298222 0.111926
O O10 0.751308 0.224158 0.115382
O O11 0.689469 0.272845 0.000000
O O12 0.079223 0.500000 0.770786
O O13 0.134259 0.253603 0.821166
O O14 0.000000 0.261812 0.778145
O O15 0.500000 0.719831 0.831716
O O16 0.585391 0.500000 0.794121
O O17 0.608195 0.778511 0.757970
O O18 0.256532 0.234453 0.250718
O O19 0.324330 0.000000 0.298482
O O20 0.080049 0.500000 0.500000
O O21 0.000000 0.255095 0.500000
O O22 0.798695 0.000000 0.187484
#
# Coordination Sequence:
#
# PCOD8194111 Si02
#       8
#     8   8   8   8   8   8   4   8
#     4  10  18  29  48  71  95 127 169 218 268 311
#     4   9  15  24  38  61  90 120 155 201 255 306
#     4   9  18  33  55  83 112 140 167 197 237 287
#     4  10  19  30  47  70  95 127 169 218 268 311
#     4   9  18  33  55  83 112 140 167 197 237 287
#     4  10  20  33  50  72 100 137 177 213 250 296
#     4   9  14  20  32  54  87 121 152 191 246 309
#     4  10  20  33  50  72 100 137 177 213 250 296
#
# _framework density 17.868907
#
# number of rings (size 3 to 8) (size 9 to 14) (size 15 to 20)
#    0.000    2.467    2.000    1.200    0.000    4.000 
#    0.000    1.333    0.000    0.800    0.000    9.333 
#    0.000    4.267    0.000    0.000    0.000    0.000 
#
# Total GULP energy -743341.472508 kJ/mol
# GULP energy per Si atom -12389.024542 kJ/mol
# Density = 1.782824 g / cm^3
# Si number density = 17.868907 Si / 1000 Ang^3
#
#
#
# Elastic Constant Matrix: (Units=GPa)
#
#
# Indices 1 2 3 4 5 6 
#
# 1 98.7427 19.6828 46.4967 0.0000 0.0000 0.0000
# 2 19.6828 28.7186 27.5061 0.0000 0.0000 0.0000
# 3 46.4967 27.5061 125.9994 0.0000 0.0000 0.0000
# 4 0.0000 0.0000 0.0000 17.5055 0.0000 0.0000
# 5 0.0000 0.0000 0.0000 0.0000 17.0646 0.0000
# 6 0.0000 0.0000 0.0000 0.0000 0.0000 17.2936
#
#
#
# Elastic Compliance Matrix: (Units=1/GPa)
#
#
# Indices 1 2 3 4 5 6 
#
# 1 0.012889 -0.005409 -0.003576 0.000000 0.000000 0.000000
# 2 -0.005409 0.046296 -0.008110 0.000000 0.000000 0.000000
# 3 -0.003576 -0.008110 0.011027 0.000000 0.000000 0.000000
# 4 0.000000 0.000000 0.000000 0.057125 0.000000 0.000000
# 5 0.000000 0.000000 0.000000 0.000000 0.058601 0.000000
# 6 0.000000 0.000000 0.000000 0.000000 0.000000 0.057825
#
#
# Mechanical properties :
#
#
# Convention : Reuss Voigt Hill
#
# Bulk Modulus (GPa) = 27.76142 48.98132 38.37137
# Shear Modulus (GPa) = 17.24376 21.02441 19.13409
#
# Velocity S-wave (km/s) = 3.10984 3.43387 3.27586
# Velocity P-wave (km/s) = 5.33523 6.57213 5.98572
#
# Compressibility (1/GPa) = 0.03602122
#
# Stress axis : x y z
#
# Youngs Moduli (GPa) = 77.58382 21.60019 90.69025
#
# Poissons Ratio (x) = 0.11684 0.32427
# Poissons Ratio (y) = 0.41967 0.73553
# Poissons Ratio (z) = 0.27741 0.17519
#
# Static dielectric constant tensor:
#      x y z
#    x 3.291550 0.000000 0.000000 
#    y 0.000000 2.940370 0.000000 
#    z 0.000000 0.000000 3.332950 
# 
# 
# High freq. dielectric constant tensor:
#      x y z
#    x 1.678080 0.000000 0.000000 
#    y 0.000000 1.663840 0.000000 
#    z 0.000000 0.000000 1.686200 
# 
# From -- ./inp_files/28816.got.cif
#   From: 2010.03.12/outbox.cif.g09.slc.cpg/sg47_15_cif.got.tgz:28816.got - 2010.04.14 03:12:58.
