data_PCOD8194873
_publ_section_title
;
Structure prediction by ZEFSAII (Michael W. Deem and Ramdas Pophale) SiO2 
 PCOD8194873
Probable space group: P M M M
;
_chemical_formula_sum "Si O2"
_cell_formula_units_Z 44
_cell_length_a 20.955497
_cell_length_b 9.174140
_cell_length_c 13.734009
_cell_angle_alpha 90.000000
_cell_angle_beta 90.000000
_cell_angle_gamma 90.000000
_cell_volume 2640.344871
_symmetry_space_group_name_H-M "P M M M"
_symmetry_group_IT_number 47
_symmetry_cell_setting 'orthorhombic'
loop_
_space_group_symop_operation_xyz
x,y,z
-x,-y,z
x,-y,-z
-x,y,-z
-x,-y,-z
x,y,-z
-x,y,z
x,-y,z
loop_
_atom_site_type_symbol
_atom_site_label
_atom_site_fract_x
_atom_site_fract_y
_atom_site_fract_z
Si Si1 0.572720 0.331914 0.285651
Si Si2 0.626895 0.831705 0.890023
Si Si3 0.240059 0.833274 0.207208
Si Si4 0.680765 0.831550 0.390303
Si Si5 0.000000 0.835544 0.115574
Si Si6 0.874435 0.671009 0.887126
O O1 0.500000 0.310371 0.319355
O O2 0.591475 0.500000 0.277861
O O3 0.581886 0.261894 0.179496
O O4 0.617412 0.258846 0.366475
O O5 0.700910 0.807383 0.864860
O O6 0.608481 0.000000 0.876053
O O7 0.614975 0.779493 0.000000
O O8 0.261487 0.792642 0.317238
O O9 0.184333 0.724735 0.177246
O O10 0.215828 0.000000 0.200329
O O11 0.703258 0.796812 0.500000
O O12 0.662166 0.000000 0.376179
O O13 0.062545 0.751276 0.152835
O O14 0.000000 0.000000 0.157208
O O15 0.000000 0.836362 0.000000
O O16 0.884010 0.500000 0.872304
O O17 0.861676 0.709797 0.000000
#
# Coordination Sequence:
#
# PCOD8194873 Si02
#       6
#     8   8   8   8   4   8
#     4  10  21  34  47  67  95 123 151 187 234 288
#     4   9  18  32  49  68  91 122 160 198 231 268
#     4   9  17  30  48  69  92 118 151 190 231 276
#     4   9  19  36  55  72  90 115 151 196 241 283
#     4   9  17  29  45  65  92 129 168 199 225 256
#     4  10  19  29  43  67 100 133 161 189 222 263
#
# _framework density 16.664490000000001
#
# number of rings (size 3 to 8) (size 9 to 14) (size 15 to 20)
#    0.000    2.636    0.000    3.000    0.000    8.727 
#    0.000    3.636    0.000    0.000    0.000    0.636 
#    0.000    5.091    0.000    0.000    0.000    0.000 
#
# Total GULP energy -545641.862309 kJ/mol
# GULP energy per Si atom -12400.951416 kJ/mol
# Density = 1.662656 g / cm^3
# Si number density = 16.664490 Si / 1000 Ang^3
#
#
#
# Elastic Constant Matrix: (Units=GPa)
#
#
# Indices 1 2 3 4 5 6 
#
# 1 90.2404 56.2421 35.8131 0.0000 0.0000 0.0000
# 2 56.2421 93.0791 39.4479 0.0000 0.0000 0.0000
# 3 35.8131 39.4479 94.4067 0.0000 0.0000 0.0000
# 4 0.0000 0.0000 0.0000 14.5198 0.0000 0.0000
# 5 0.0000 0.0000 0.0000 0.0000 14.6933 0.0000
# 6 0.0000 0.0000 0.0000 0.0000 0.0000 30.9918
#
#
#
# Elastic Compliance Matrix: (Units=1/GPa)
#
#
# Indices 1 2 3 4 5 6 
#
# 1 0.018379 -0.009904 -0.002833 0.000000 0.000000 0.000000
# 2 -0.009904 0.018393 -0.003928 0.000000 0.000000 0.000000
# 3 -0.002833 -0.003928 0.013309 0.000000 0.000000 0.000000
# 4 0.000000 0.000000 0.000000 0.068871 0.000000 0.000000
# 5 0.000000 0.000000 0.000000 0.000000 0.068058 0.000000
# 6 0.000000 0.000000 0.000000 0.000000 0.000000 0.032267
#
#
# Mechanical properties :
#
#
# Convention : Reuss Voigt Hill
#
# Bulk Modulus (GPa) = 59.70730 60.08137 59.89433
# Shear Modulus (GPa) = 19.36543 21.78920 20.57732
#
# Velocity S-wave (km/s) = 3.41262 3.61989 3.51778
# Velocity P-wave (km/s) = 7.17181 7.32143 7.24700
#
# Compressibility (1/GPa) = 0.01674837
#
# Stress axis : x y z
#
# Youngs Moduli (GPa) = 54.41012 54.36832 75.13834
#
# Poissons Ratio (x) = 0.53849 0.21290
# Poissons Ratio (y) = 0.53890 0.29517
# Poissons Ratio (z) = 0.15417 0.21358
#
# Static dielectric constant tensor:
#      x y z
#    x 3.011670 0.000000 0.000000 
#    y 0.000000 3.174810 0.000000 
#    z 0.000000 0.000000 3.118430 
# 
# 
# High freq. dielectric constant tensor:
#      x y z
#    x 1.631880 0.000000 0.000000 
#    y 0.000000 1.648500 0.000000 
#    z 0.000000 0.000000 1.621150 
# 
# From -- ./inp_files/6109.got.cif
#   From: 2010.03.12/outbox.cif.g09.slc.cpg/sg47_4_cif.got.tgz:6109.got - 2010.04.14 03:12:58.
