data_PCOD8194392
_publ_section_title
;
Structure prediction by ZEFSAII (Michael W. Deem and Ramdas Pophale) SiO2 
 PCOD8194392
Probable space group: P M M M
;
_chemical_formula_sum "Si O2"
_cell_formula_units_Z 64
_cell_length_a 16.092282
_cell_length_b 23.598089
_cell_length_c 9.489443
_cell_angle_alpha 90.000000
_cell_angle_beta 90.000000
_cell_angle_gamma 90.000000
_cell_volume 3603.588487
_symmetry_space_group_name_H-M "P M M M"
_symmetry_group_IT_number 47
_symmetry_cell_setting 'orthorhombic'
loop_
_space_group_symop_operation_xyz
x,y,z
-x,-y,z
x,-y,-z
-x,y,-z
-x,-y,-z
x,y,-z
-x,y,z
x,-y,z
loop_
_atom_site_type_symbol
_atom_site_label
_atom_site_fract_x
_atom_site_fract_y
_atom_site_fract_z
Si Si1 0.828994 0.645625 0.661490
Si Si2 0.406867 0.655256 0.160265
Si Si3 0.906392 0.729091 0.846793
Si Si4 0.406448 0.066467 0.162984
Si Si5 0.315447 0.737496 0.658789
Si Si6 0.271010 0.565148 0.836793
Si Si7 0.094587 0.835425 0.663038
Si Si8 0.727851 0.135488 0.336864
O O1 0.855777 0.634627 0.500000
O O2 0.902409 0.670831 0.757288
O O3 0.760348 0.694365 0.675652
O O4 0.801573 0.586610 0.732802
O O5 0.500000 0.635386 0.188785
O O6 0.389290 0.712449 0.247047
O O7 0.352393 0.600962 0.203074
O O8 0.390583 0.672309 0.000000
O O9 0.876786 0.781846 0.753667
O O10 0.000000 0.740475 0.884371
O O11 0.858751 0.725616 0.000000
O O12 0.500000 0.085768 0.210283
O O13 0.332783 0.095627 0.249170
O O14 0.397563 0.000000 0.188246
O O15 0.393749 0.081828 0.000000
O O16 0.348098 0.739374 0.500000
O O17 0.289682 0.799841 0.709474
O O18 0.289831 0.500000 0.803248
O O19 0.244959 0.573648 0.000000
O O20 0.095799 0.816109 0.500000
O O21 0.172526 0.878862 0.688655
O O22 0.000000 0.858476 0.699905
O O23 0.706444 0.125898 0.500000
#
# Coordination Sequence:
#
# PCOD8194392 Si02
#       8
#     8   8   8   8   8   8   8   8
#     4  10  18  31  49  67  94 128 160 195 237 289
#     4   9  18  31  46  66  92 123 159 198 242 296
#     4  10  19  29  45  72 102 130 162 199 240 289
#     4   9  20  39  58  76 101 135 178 225 269 311
#     4   9  18  31  45  67  98 128 159 195 240 293
#     4   9  18  32  49  68  89 117 156 202 250 295
#     4   9  17  31  50  74 109 146 175 206 248 301
#     4  10  19  32  52  80 108 136 175 215 258 308
#
# _framework density 17.760075000000001
#
# number of rings (size 3 to 8) (size 9 to 14) (size 15 to 20)
#    0.000    2.625    1.250    1.125    0.000    4.000 
#    0.000    4.375    0.000    0.750    0.000    8.750 
#    0.000    0.000    0.000    0.000    0.000    0.000 
#
# Total GULP energy -792838.333441 kJ/mol
# GULP energy per Si atom -12388.098960 kJ/mol
# Density = 1.771965 g / cm^3
# Si number density = 17.760075 Si / 1000 Ang^3
#
#
#
# Elastic Constant Matrix: (Units=GPa)
#
#
# Indices 1 2 3 4 5 6 
#
# 1 94.7403 44.1333 45.1639 0.0000 0.0000 0.0000
# 2 44.1333 63.1764 36.6280 0.0000 0.0000 0.0000
# 3 45.1639 36.6280 81.0569 0.0000 0.0000 0.0000
# 4 0.0000 0.0000 0.0000 29.3738 0.0000 0.0000
# 5 0.0000 0.0000 0.0000 0.0000 24.6589 0.0000
# 6 0.0000 0.0000 0.0000 0.0000 0.0000 24.0278
#
#
#
# Elastic Compliance Matrix: (Units=1/GPa)
#
#
# Indices 1 2 3 4 5 6 
#
# 1 0.017390 -0.008849 -0.005691 0.000000 0.000000 0.000000
# 2 -0.008849 0.025950 -0.006796 0.000000 0.000000 0.000000
# 3 -0.005691 -0.006796 0.018579 0.000000 0.000000 0.000000
# 4 0.000000 0.000000 0.000000 0.034044 0.000000 0.000000
# 5 0.000000 0.000000 0.000000 0.000000 0.040553 0.000000
# 6 0.000000 0.000000 0.000000 0.000000 0.000000 0.041619
#
#
# Mechanical properties :
#
#
# Convention : Reuss Voigt Hill
#
# Bulk Modulus (GPa) = 51.95378 54.53599 53.24489
# Shear Modulus (GPa) = 22.00481 23.14864 22.57672
#
# Velocity S-wave (km/s) = 3.52377 3.61419 3.56927
# Velocity P-wave (km/s) = 6.77293 6.94192 6.85794
#
# Compressibility (1/GPa) = 0.01924788
#
# Stress axis : x y z
#
# Youngs Moduli (GPa) = 57.50354 38.53510 53.82438
#
# Poissons Ratio (x) = 0.34099 0.30631
# Poissons Ratio (y) = 0.50884 0.36579
# Poissons Ratio (z) = 0.32725 0.26188
#
# Static dielectric constant tensor:
#      x y z
#    x 3.408660 0.000000 0.000000 
#    y 0.000000 3.034990 0.000000 
#    z 0.000000 0.000000 3.802630 
# 
# 
# High freq. dielectric constant tensor:
#      x y z
#    x 1.683230 0.000000 0.000000 
#    y 0.000000 1.653560 0.000000 
#    z 0.000000 0.000000 1.693470 
# 
# From -- ./inp_files/9942.got.cif
#   From: 2010.03.12/outbox.cif.g09.slc.cpg/sg47_5_cif.got.tgz:9942.got - 2010.04.14 03:12:58.
