data_PCOD8194583
_publ_section_title
;
Structure prediction by ZEFSAII (Michael W. Deem and Ramdas Pophale) SiO2 
 PCOD8194583
Probable space group: P M M M
;
_chemical_formula_sum "Si O2"
_cell_formula_units_Z 64
_cell_length_a 25.635281
_cell_length_b 14.500549
_cell_length_c 9.534988
_cell_angle_alpha 90.000000
_cell_angle_beta 90.000000
_cell_angle_gamma 90.000000
_cell_volume 3544.399596
_symmetry_space_group_name_H-M "P M M M"
_symmetry_group_IT_number 47
_symmetry_cell_setting 'orthorhombic'
loop_
_space_group_symop_operation_xyz
x,y,z
-x,-y,z
x,-y,-z
-x,y,-z
-x,-y,-z
x,y,-z
-x,y,z
x,-y,z
loop_
_atom_site_type_symbol
_atom_site_label
_atom_site_fract_x
_atom_site_fract_y
_atom_site_fract_z
Si Si1 0.559425 0.730131 0.664456
Si Si2 0.754056 0.295922 0.332821
Si Si3 0.561930 0.898949 0.843528
Si Si4 0.094817 0.895730 0.662748
Si Si5 0.057982 0.268011 0.160182
Si Si6 0.213109 0.099542 0.665918
Si Si7 0.845615 0.607524 0.163597
Si Si8 0.349155 0.602154 0.666185
O O1 0.563371 0.747486 0.500000
O O2 0.500000 0.707322 0.709956
O O3 0.582120 0.822294 0.736002
O O4 0.596004 0.646404 0.714240
O O5 0.761806 0.305727 0.500000
O O6 0.753406 0.188105 0.285133
O O7 0.799870 0.350765 0.257415
O O8 0.699338 0.337480 0.280249
O O9 0.500000 0.900972 0.840605
O O10 0.583240 0.000000 0.798336
O O11 0.581548 0.874720 0.000000
O O12 0.090749 0.869138 0.500000
O O13 0.060134 0.824883 0.749246
O O14 0.154058 0.886238 0.717712
O O15 0.074551 0.000000 0.687409
O O16 0.100200 0.343956 0.207972
O O17 0.000000 0.310753 0.178861
O O18 0.068274 0.239639 0.000000
O O19 0.212789 0.093781 0.500000
O O20 0.234613 0.000000 0.724175
O O21 0.851277 0.500000 0.198396
O O22 0.832684 0.623483 0.000000
O O23 0.347311 0.596229 0.500000
O O24 0.345727 0.500000 0.732200
#
# Coordination Sequence:
#
# PCOD8194583 Si02
#       8
#     8   8   8   8   8   8   8   8
#     4   9  17  29  46  69  98 133 170 205 241 284
#     4  10  18  32  56  78  97 124 160 203 246 292
#     4   8  14  26  45  68  94 126 162 198 240 290
#     4   9  17  31  51  74 100 130 163 198 238 286
#     4  10  21  35  50  71 100 132 165 201 240 285
#     4   8  14  26  47  74  99 122 151 189 234 284
#     4  10  21  36  53  73  97 126 162 204 249 295
#     4   9  18  31  47  72 102 128 161 206 251 292
#
# _framework density 18.056654999999999
#
# number of rings (size 3 to 8) (size 9 to 14) (size 15 to 20)
#    0.000    2.875    1.250    1.500    0.000    2.250 
#    0.000    6.250    0.000    3.750    0.000    3.500 
#    0.000    0.000    0.000    0.000    0.000    0.000 
#
# Total GULP energy -793213.322141 kJ/mol
# GULP energy per Si atom -12393.958158 kJ/mol
# Density = 1.801556 g / cm^3
# Si number density = 18.056655 Si / 1000 Ang^3
#
#
#
# Elastic Constant Matrix: (Units=GPa)
#
#
# Indices 1 2 3 4 5 6 
#
# 1 107.2498 73.5960 30.9563 0.0000 0.0000 0.0000
# 2 73.5960 155.9346 39.9855 0.0000 0.0000 0.0000
# 3 30.9563 39.9855 36.5445 0.0000 0.0000 0.0000
# 4 0.0000 0.0000 0.0000 20.7184 0.0000 0.0000
# 5 0.0000 0.0000 0.0000 0.0000 15.7732 0.0000
# 6 0.0000 0.0000 0.0000 0.0000 0.0000 25.9188
#
#
#
# Elastic Compliance Matrix: (Units=1/GPa)
#
#
# Indices 1 2 3 4 5 6 
#
# 1 0.014934 -0.005288 -0.006864 0.000000 0.000000 0.000000
# 2 -0.005288 0.010787 -0.007323 0.000000 0.000000 0.000000
# 3 -0.006864 -0.007323 0.041191 0.000000 0.000000 0.000000
# 4 0.000000 0.000000 0.000000 0.048266 0.000000 0.000000
# 5 0.000000 0.000000 0.000000 0.000000 0.063399 0.000000
# 6 0.000000 0.000000 0.000000 0.000000 0.000000 0.038582
#
#
# Mechanical properties :
#
#
# Convention : Reuss Voigt Hill
#
# Bulk Modulus (GPa) = 35.76407 65.42272 50.59340
# Shear Modulus (GPa) = 18.83744 22.82816 20.83280
#
# Velocity S-wave (km/s) = 3.23343 3.55949 3.40037
# Velocity P-wave (km/s) = 5.81289 7.29410 6.59521
#
# Compressibility (1/GPa) = 0.02796102
#
# Stress axis : x y z
#
# Youngs Moduli (GPa) = 66.96048 92.70832 24.27738
#
# Poissons Ratio (x) = 0.49027 0.16665
# Poissons Ratio (y) = 0.35410 0.17777
# Poissons Ratio (z) = 0.45964 0.67886
#
# Static dielectric constant tensor:
#      x y z
#    x 3.251920 0.000000 0.000000 
#    y 0.000000 3.818670 0.000000 
#    z 0.000000 0.000000 3.078150 
# 
# 
# High freq. dielectric constant tensor:
#      x y z
#    x 1.684040 0.000000 0.000000 
#    y 0.000000 1.710500 0.000000 
#    z 0.000000 0.000000 1.665960 
# 
# From -- ./inp_files/7789.got.cif
#   From: 2010.03.12/outbox.cif.g09.slc.cpg/sg47_4_cif.got.tgz:7789.got - 2010.04.14 03:12:58.
