data_PCOD8194801
_publ_section_title
;
Structure prediction by ZEFSAII (Michael W. Deem and Ramdas Pophale) SiO2 
 PCOD8194801
Probable space group: P M M M
;
_chemical_formula_sum "Si O2"
_cell_formula_units_Z 36
_cell_length_a 8.909737
_cell_length_b 20.540095
_cell_length_c 11.953797
_cell_angle_alpha 90.000000
_cell_angle_beta 90.000000
_cell_angle_gamma 90.000000
_cell_volume 2187.626668
_symmetry_space_group_name_H-M "P M M M"
_symmetry_group_IT_number 47
_symmetry_cell_setting 'orthorhombic'
loop_
_space_group_symop_operation_xyz
x,y,z
-x,-y,z
x,-y,-z
-x,y,-z
-x,-y,-z
x,y,-z
-x,y,z
x,-y,z
loop_
_atom_site_type_symbol
_atom_site_label
_atom_site_fract_x
_atom_site_fract_y
_atom_site_fract_z
Si Si1 0.836184 0.427286 0.500000
Si Si2 0.175990 0.261118 0.630350
Si Si3 0.322157 0.616136 0.717146
Si Si4 0.321628 0.500000 0.125742
Si Si5 0.667376 0.127824 0.632364
Si Si6 0.168958 0.000000 0.366363
O O1 0.889519 0.500000 0.500000
O O2 0.729932 0.415865 0.603632
O O3 0.000000 0.387906 0.500000
O O4 0.217299 0.279407 0.500000
O O5 0.243377 0.313060 0.718827
O O6 0.242510 0.192025 0.666410
O O7 0.000000 0.256706 0.646622
O O8 0.500000 0.625704 0.720501
O O9 0.266314 0.566961 0.814963
O O10 0.500000 0.500000 0.127833
O O11 0.257428 0.500000 0.000000
O O12 0.660679 0.121788 0.500000
O O13 0.500000 0.131795 0.682588
O O14 0.748885 0.064070 0.681609
O O15 0.170389 0.000000 0.500000
O O16 0.000000 0.000000 0.320645
#
# Coordination Sequence:
#
# PCOD8194801 Si02
#       6
#     4   8   8   4   8   4
#     4  11  21  31  45  67  95 118 139 178 229 277
#     4  10  19  29  41  61  90 120 145 182 232 277
#     4  11  20  31  50  70  89 116 150 188 227 276
#     4   9  20  37  53  70  90 115 150 191 232 273
#     4   9  16  25  37  54  78 111 152 192 221 259
#     4   9  15  23  35  51  75 111 152 189 224 263
#
# _framework density 16.456188999999998
#
# number of rings (size 3 to 8) (size 9 to 14) (size 15 to 20)
#    0.000    2.111    2.222    2.667    0.000    5.333 
#    0.000    0.000    0.000    5.333    0.000    0.000 
#    0.000    0.000    0.000    1.000    0.000   20.778 
#
# Total GULP energy -446102.922365 kJ/mol
# GULP energy per Si atom -12391.747843 kJ/mol
# Density = 1.641873 g / cm^3
# Si number density = 16.456189 Si / 1000 Ang^3
#
#
#
# Elastic Constant Matrix: (Units=GPa)
#
#
# Indices 1 2 3 4 5 6 
#
# 1 110.4932 69.0205 20.7826 0.0000 0.0000 0.0000
# 2 69.0205 166.6458 41.2814 0.0000 0.0000 0.0000
# 3 20.7826 41.2814 60.5573 0.0000 0.0000 0.0000
# 4 0.0000 0.0000 0.0000 2.6921 0.0000 0.0000
# 5 0.0000 0.0000 0.0000 0.0000 7.6371 0.0000
# 6 0.0000 0.0000 0.0000 0.0000 0.0000 29.3935
#
#
#
# Elastic Compliance Matrix: (Units=1/GPa)
#
#
# Indices 1 2 3 4 5 6 
#
# 1 0.012249 -0.004851 -0.000897 0.000000 0.000000 0.000000
# 2 -0.004851 0.009141 -0.004567 0.000000 0.000000 0.000000
# 3 -0.000897 -0.004567 0.019934 0.000000 0.000000 0.000000
# 4 0.000000 0.000000 0.000000 0.371454 0.000000 0.000000
# 5 0.000000 0.000000 0.000000 0.000000 0.130941 0.000000
# 6 0.000000 0.000000 0.000000 0.000000 0.000000 0.034021
#
#
# Mechanical properties :
#
#
# Convention : Reuss Voigt Hill
#
# Bulk Modulus (GPa) = 48.31999 66.65174 57.48586
# Shear Modulus (GPa) = 8.26080 21.71865 14.98973
#
# Velocity S-wave (km/s) = 2.24294 3.63683 3.02136
# Velocity P-wave (km/s) = 6.01118 7.63058 6.86877
#
# Compressibility (1/GPa) = 0.02069537
#
# Stress axis : x y z
#
# Youngs Moduli (GPa) = 81.63685 109.39424 50.16535
#
# Poissons Ratio (x) = 0.53070 0.04499
# Poissons Ratio (y) = 0.39604 0.22909
# Poissons Ratio (z) = 0.07321 0.49956
#
# Static dielectric constant tensor:
#      x y z
#    x 3.185610 0.000000 0.000000 
#    y 0.000000 3.445990 0.000000 
#    z 0.000000 0.000000 2.588830 
# 
# 
# High freq. dielectric constant tensor:
#      x y z
#    x 1.647470 0.000000 0.000000 
#    y 0.000000 1.655870 0.000000 
#    z 0.000000 0.000000 1.546960 
# 
# From -- ./inp_files/3988.got.cif
#   From: 2010.03.12/outbox.cif.g09.slc.cpg/sg47_2_cif.got.tgz:3988.got - 2010.04.14 03:12:58.
