data_PCOD8194097
_publ_section_title
;
Structure prediction by ZEFSAII (Michael W. Deem and Ramdas Pophale) SiO2 
 PCOD8194097
Probable space group: P M M M
;
_chemical_formula_sum "Si O2"
_cell_formula_units_Z 52
_cell_length_a 9.297973
_cell_length_b 14.355556
_cell_length_c 23.509353
_cell_angle_alpha 90.000000
_cell_angle_beta 90.000000
_cell_angle_gamma 90.000000
_cell_volume 3137.971360
_symmetry_space_group_name_H-M "P M M M"
_symmetry_group_IT_number 47
_symmetry_cell_setting 'orthorhombic'
loop_
_space_group_symop_operation_xyz
x,y,z
-x,-y,z
x,-y,-z
-x,y,-z
-x,-y,-z
x,y,-z
-x,y,z
x,-y,z
loop_
_atom_site_type_symbol
_atom_site_label
_atom_site_fract_x
_atom_site_fract_y
_atom_site_fract_z
Si Si1 0.333823 0.792136 0.279369
Si Si2 0.666202 0.231363 0.063546
Si Si3 0.171653 0.106115 0.377179
Si Si4 0.843468 0.109953 0.500000
Si Si5 0.670613 0.895849 0.165575
Si Si6 0.167039 0.606070 0.888309
Si Si7 0.663341 0.603612 0.774419
O O1 0.500000 0.817163 0.290593
O O2 0.240151 0.825050 0.332000
O O3 0.277917 0.841960 0.221941
O O4 0.309869 0.680846 0.274028
O O5 0.500000 0.253712 0.076337
O O6 0.727262 0.157351 0.109323
O O7 0.754087 0.327375 0.067068
O O8 0.685816 0.190122 0.000000
O O9 0.233395 0.136284 0.440050
O O10 0.000000 0.115576 0.376266
O O11 0.217129 0.000000 0.362902
O O12 0.000000 0.158201 0.500000
O O13 0.865643 0.000000 0.500000
O O14 0.500000 0.900460 0.163740
O O15 0.736115 0.000000 0.166027
O O16 0.192887 0.500000 0.908012
O O17 0.230217 0.623509 0.825930
O O18 0.000000 0.631120 0.886433
O O19 0.500000 0.613666 0.797546
O O20 0.689266 0.500000 0.748774
#
# Coordination Sequence:
#
# PCOD8194097 Si02
#       7
#     8   8   8   4   8   8   8
#     4  10  18  29  47  71  98 124 150 188 237 280
#     4  10  20  34  51  69  89 119 160 195 225 273
#     4   9  17  29  46  69  97 130 165 195 225 267
#     4   7  12  26  45  63  90 129 166 196 225 261
#     4   9  17  30  47  68  94 120 148 188 235 275
#     4  10  20  33  50  71  94 118 144 184 240 290
#     4   9  17  31  51  71  93 122 154 187 226 278
#
# _framework density 16.571216
#
# number of rings (size 3 to 8) (size 9 to 14) (size 15 to 20)
#    0.000    2.692    1.538    1.846    0.000    3.385 
#    0.000    3.462    0.000    1.846    0.000    1.615 
#    0.000    4.308    0.000    0.000    0.000    0.000 
#
# Total GULP energy -644504.089918 kJ/mol
# GULP energy per Si atom -12394.309422 kJ/mol
# Density = 1.653350 g / cm^3
# Si number density = 16.571216 Si / 1000 Ang^3
#
#
#
# Elastic Constant Matrix: (Units=GPa)
#
#
# Indices 1 2 3 4 5 6 
#
# 1 41.3969 29.3013 31.7231 0.0000 0.0000 0.0000
# 2 29.3013 103.4501 59.6926 0.0000 0.0000 0.0000
# 3 31.7231 59.6926 128.2085 0.0000 0.0000 0.0000
# 4 0.0000 0.0000 0.0000 22.4680 0.0000 0.0000
# 5 0.0000 0.0000 0.0000 0.0000 20.0068 0.0000
# 6 0.0000 0.0000 0.0000 0.0000 0.0000 19.0003
#
#
#
# Elastic Compliance Matrix: (Units=1/GPa)
#
#
# Indices 1 2 3 4 5 6 
#
# 1 0.032513 -0.006245 -0.005137 0.000000 0.000000 0.000000
# 2 -0.006245 0.014417 -0.005167 0.000000 0.000000 0.000000
# 3 -0.005137 -0.005167 0.011477 0.000000 0.000000 0.000000
# 4 0.000000 0.000000 0.000000 0.044508 0.000000 0.000000
# 5 0.000000 0.000000 0.000000 0.000000 0.049983 0.000000
# 6 0.000000 0.000000 0.000000 0.000000 0.000000 0.052631
#
#
# Mechanical properties :
#
#
# Convention : Reuss Voigt Hill
#
# Bulk Modulus (GPa) = 39.51275 57.16551 48.33913
# Shear Modulus (GPa) = 20.23773 22.45091 21.34432
#
# Velocity S-wave (km/s) = 3.49844 3.68477 3.59281
# Velocity P-wave (km/s) = 6.34151 7.25777 6.81505
#
# Compressibility (1/GPa) = 0.02530829
#
# Stress axis : x y z
#
# Youngs Moduli (GPa) = 30.75660 69.36351 87.13266
#
# Poissons Ratio (x) = 0.43316 0.44764
# Poissons Ratio (y) = 0.19207 0.45023
# Poissons Ratio (z) = 0.15801 0.35841
#
# Static dielectric constant tensor:
#      x y z
#    x 2.895780 0.000000 0.000000 
#    y 0.000000 3.245220 0.000000 
#    z 0.000000 0.000000 3.142640 
# 
# 
# High freq. dielectric constant tensor:
#      x y z
#    x 1.612760 0.000000 0.000000 
#    y 0.000000 1.630690 0.000000 
#    z 0.000000 0.000000 1.627220 
# 
# From -- ./inp_files/7642.got.cif
#   From: 2010.03.12/outbox.cif.g09.slc.cpg/sg47_4_cif.got.tgz:7642.got - 2010.04.14 03:12:58.
