data_PCOD8194963
_publ_section_title
;
Structure prediction by ZEFSAII (Michael W. Deem and Ramdas Pophale) SiO2 
 PCOD8194963
Probable space group: P M M M
;
_chemical_formula_sum "Si O2"
_cell_formula_units_Z 52
_cell_length_a 18.207519
_cell_length_b 9.125205
_cell_length_c 24.540749
_cell_angle_alpha 90.000000
_cell_angle_beta 90.000000
_cell_angle_gamma 90.000000
_cell_volume 4077.380252
_symmetry_space_group_name_H-M "P M M M"
_symmetry_group_IT_number 47
_symmetry_cell_setting 'orthorhombic'
loop_
_space_group_symop_operation_xyz
x,y,z
-x,-y,z
x,-y,-z
-x,y,-z
-x,-y,-z
x,y,-z
-x,y,z
x,-y,z
loop_
_atom_site_type_symbol
_atom_site_label
_atom_site_fract_x
_atom_site_fract_y
_atom_site_fract_z
Si Si1 0.000000 0.832184 0.064494
Si Si2 0.580074 0.165621 0.935262
Si Si3 0.868338 0.325985 0.876977
Si Si4 0.278767 0.671483 0.938291
Si Si5 0.087338 0.835333 0.560086
Si Si6 0.086606 0.830053 0.229178
Si Si7 0.087315 0.336048 0.663171
O O1 0.071347 0.749218 0.085376
O O2 0.000000 0.000000 0.086302
O O3 0.000000 0.828061 0.000000
O O4 0.500000 0.223468 0.914582
O O5 0.647428 0.260389 0.911879
O O6 0.591313 0.000000 0.915242
O O7 0.581175 0.174441 0.000000
O O8 0.881655 0.500000 0.876076
O O9 0.789778 0.282650 0.901462
O O10 0.871014 0.261950 0.816384
O O11 0.290388 0.500000 0.938487
O O12 0.265049 0.728663 0.000000
O O13 0.112330 0.779628 0.500000
O O14 0.119829 0.730054 0.606918
O O15 0.000000 0.836063 0.563366
O O16 0.116559 0.000000 0.569997
O O17 0.112560 0.766199 0.287059
O O18 0.000000 0.808574 0.219919
O O19 0.108714 0.000000 0.226387
O O20 0.118650 0.500000 0.670887
O O21 0.000000 0.339797 0.660426
#
# Coordination Sequence:
#
# PCOD8194963 Si02
#       7
#     4   8   8   8   8   8   8
#     4  11  23  35  45  57  71  89 116 147 182 225
#     4   8  14  25  41  60  79  97 115 134 160 198
#     4  11  21  32  45  57  72  92 117 150 185 220
#     4   9  18  30  42  58  77  95 115 139 173 216
#     4   8  13  21  32  46  65  87 108 131 165 208
#     4  10  19  30  42  53  67  86 115 150 183 220
#     4   9  16  24  35  50  66  84 109 139 174 212
#
# _framework density 12.753285999999999
#
# number of rings (size 3 to 8) (size 9 to 14) (size 15 to 20)
#    0.000    2.692    0.769    3.000    0.000    5.538 
#    0.000    4.615    0.000    0.000    0.000    0.000 
#    0.000    0.000    0.000    0.000    0.000    0.000 
#
# Total GULP energy -644561.931256 kJ/mol
# GULP energy per Si atom -12395.421755 kJ/mol
# Density = 1.272426 g / cm^3
# Si number density = 12.753286 Si / 1000 Ang^3
#
#
#
# Elastic Constant Matrix: (Units=GPa)
#
#
# Indices 1 2 3 4 5 6 
#
# 1 72.5788 37.8943 31.4797 0.0000 0.0000 0.0000
# 2 37.8943 76.4008 42.4109 0.0000 0.0000 0.0000
# 3 31.4797 42.4109 81.4871 0.0000 0.0000 0.0000
# 4 0.0000 0.0000 0.0000 22.5626 0.0000 0.0000
# 5 0.0000 0.0000 0.0000 0.0000 1.0448 0.0000
# 6 0.0000 0.0000 0.0000 0.0000 0.0000 14.4639
#
#
#
# Elastic Compliance Matrix: (Units=1/GPa)
#
#
# Indices 1 2 3 4 5 6 
#
# 1 0.019267 -0.007629 -0.003473 0.000000 0.000000 0.000000
# 2 -0.007629 0.021427 -0.008205 0.000000 0.000000 0.000000
# 3 -0.003473 -0.008205 0.017884 0.000000 0.000000 0.000000
# 4 0.000000 0.000000 0.000000 0.044321 0.000000 0.000000
# 5 0.000000 0.000000 0.000000 0.000000 0.957160 0.000000
# 6 0.000000 0.000000 0.000000 0.000000 0.000000 0.069138
#
#
# Mechanical properties :
#
#
# Convention : Reuss Voigt Hill
#
# Bulk Modulus (GPa) = 50.08636 50.44851 50.26743
# Shear Modulus (GPa) = 4.25725 15.52636 9.89181
#
# Velocity S-wave (km/s) = 1.82905 3.49297 2.78803
# Velocity P-wave (km/s) = 6.61960 7.47736 7.06152
#
# Compressibility (1/GPa) = 0.01996552
#
# Stress axis : x y z
#
# Youngs Moduli (GPa) = 51.90095 46.66929 55.91623
#
# Poissons Ratio (x) = 0.35603 0.19419
# Poissons Ratio (y) = 0.39594 0.45879
# Poissons Ratio (z) = 0.18024 0.38292
#
# Static dielectric constant tensor:
#      x y z
#    x 2.430340 0.000000 0.000000 
#    y 0.000000 2.759360 0.000000 
#    z 0.000000 0.000000 2.613260 
# 
# 
# High freq. dielectric constant tensor:
#      x y z
#    x 1.433260 0.000000 0.000000 
#    y 0.000000 1.498490 0.000000 
#    z 0.000000 0.000000 1.470420 
# 
# From -- ./inp_files/10105.got.cif
#   From: 2010.03.12/outbox.cif.g09.slc.cpg/sg47_6_cif.got.tgz:10105.got - 2010.04.14 03:12:58.
