data_PCOD8194040
_publ_section_title
;
Structure prediction by ZEFSAII (Michael W. Deem and Ramdas Pophale) SiO2 
 PCOD8194040
Probable space group: P M M M
;
_chemical_formula_sum "Si O2"
_cell_formula_units_Z 38
_cell_length_a 8.911194
_cell_length_b 20.693679
_cell_length_c 12.333349
_cell_angle_alpha 90.000000
_cell_angle_beta 90.000000
_cell_angle_gamma 90.000000
_cell_volume 2274.336009
_symmetry_space_group_name_H-M "P M M M"
_symmetry_group_IT_number 47
_symmetry_cell_setting 'orthorhombic'
loop_
_space_group_symop_operation_xyz
x,y,z
-x,-y,z
x,-y,-z
-x,y,-z
-x,-y,-z
x,y,-z
-x,y,z
x,-y,z
loop_
_atom_site_type_symbol
_atom_site_label
_atom_site_fract_x
_atom_site_fract_y
_atom_site_fract_z
Si Si1 0.743938 0.500000 0.000000
Si Si2 0.167095 0.500000 0.765807
Si Si3 0.330855 0.128066 0.370983
Si Si4 0.169515 0.000000 0.370640
Si Si5 0.320477 0.366894 0.235373
Si Si6 0.171830 0.257608 0.628408
Si Si7 0.661879 0.639069 0.000000
O O1 0.850576 0.500000 0.895347
O O2 0.636093 0.438197 0.000000
O O3 0.255213 0.564024 0.727099
O O4 0.000000 0.500000 0.714682
O O5 0.331923 0.126055 0.500000
O O6 0.500000 0.132333 0.325617
O O7 0.253518 0.063300 0.325214
O O8 0.237143 0.189555 0.329479
O O9 0.170451 0.000000 0.500000
O O10 0.000000 0.000000 0.326495
O O11 0.500000 0.371939 0.231621
O O12 0.269531 0.314723 0.322082
O O13 0.257042 0.344623 0.115120
O O14 0.186393 0.262723 0.500000
O O15 0.000000 0.263176 0.666414
O O16 0.500000 0.673606 0.000000
#
# Coordination Sequence:
#
# PCOD8194040 Si02
#       7
#     2   4   8   4   8   8   4
#     4   8  14  24  42  66  89 112 137 170 217 274
#     4  10  18  29  45  66  90 114 143 181 226 270
#     4   9  16  26  41  61  85 115 150 184 218 260
#     4   9  15  23  37  59  87 116 145 180 221 261
#     4  10  19  32  49  68  90 116 148 184 224 270
#     4  10  20  33  47  64  89 121 154 187 224 265
#     4   8  15  27  45  68  91 113 138 176 224 269
#
# _framework density 16.708172999999999
#
# number of rings (size 3 to 8) (size 9 to 14) (size 15 to 20)
#    0.000    2.632    0.000    2.842    0.000    7.579 
#    0.000    2.105    0.000    3.158    0.000    0.000 
#    0.000    0.842    0.000    9.053    0.000    6.947 
#
# Total GULP energy -470902.735215 kJ/mol
# GULP energy per Si atom -12392.177242 kJ/mol
# Density = 1.667014 g / cm^3
# Si number density = 16.708173 Si / 1000 Ang^3
#
#
#
# Elastic Constant Matrix: (Units=GPa)
#
#
# Indices 1 2 3 4 5 6 
#
# 1 112.0233 51.8112 20.1432 0.0000 0.0000 0.0000
# 2 51.8112 130.0728 26.5472 0.0000 0.0000 0.0000
# 3 20.1432 26.5472 21.7094 0.0000 0.0000 0.0000
# 4 0.0000 0.0000 0.0000 -1.0464 0.0000 0.0000
# 5 0.0000 0.0000 0.0000 0.0000 12.7721 0.0000
# 6 0.0000 0.0000 0.0000 0.0000 0.0000 33.6383
#
#
#
# Elastic Compliance Matrix: (Units=1/GPa)
#
#
# Indices 1 2 3 4 5 6 
#
# 1 0.011660 -0.003247 -0.006848 0.000000 0.000000 0.000000
# 2 -0.003247 0.011149 -0.010621 0.000000 0.000000 0.000000
# 3 -0.006848 -0.010621 0.065405 0.000000 0.000000 0.000000
# 4 0.000000 0.000000 0.000000 -0.955614 0.000000 0.000000
# 5 0.000000 0.000000 0.000000 0.000000 0.078296 0.000000
# 6 0.000000 0.000000 0.000000 0.000000 0.000000 0.029728
#
#
# Mechanical properties :
#
#
# Convention : Reuss Voigt Hill
#
# Bulk Modulus (GPa) = 21.37593 51.20097 36.28845
# Shear Modulus (GPa) = -7.11895 20.09305 6.48705
#
# Velocity S-wave (km/s) = -2.06640 3.47160 1.97256
# Velocity P-wave (km/s) = 2.66986 6.83960 5.19174
#
# Compressibility (1/GPa) = 0.04678159
#
# Stress axis : x y z
#
# Youngs Moduli (GPa) = 85.76524 89.69509 15.28938
#
# Poissons Ratio (x) = 0.29121 0.10471
# Poissons Ratio (y) = 0.27845 0.16239
# Poissons Ratio (z) = 0.58736 0.95264
#
# Static dielectric constant tensor:
#      x y z
#    x 3.189850 0.000000 0.000000 
#    y 0.000000 3.174080 0.000000 
#    z 0.000000 0.000000 2.786460 
# 
# 
# High freq. dielectric constant tensor:
#      x y z
#    x 1.653290 0.000000 0.000000 
#    y 0.000000 1.642530 0.000000 
#    z 0.000000 0.000000 1.585730 
# 
# From -- ./inp_files/20882.got.cif
#   From: 2010.03.12/outbox.cif.g09.slc.cpg/sg47_11_cif.got.tgz:20882.got - 2010.04.14 03:12:58.
