data_PCOD8194510
_publ_section_title
;
Structure prediction by ZEFSAII (Michael W. Deem and Ramdas Pophale) SiO2 
 PCOD8194510
Probable space group: P M M M
;
_chemical_formula_sum "Si O2"
_cell_formula_units_Z 32
_cell_length_a 14.856720
_cell_length_b 8.897494
_cell_length_c 12.189306
_cell_angle_alpha 90.000000
_cell_angle_beta 90.000000
_cell_angle_gamma 90.000000
_cell_volume 1611.274826
_symmetry_space_group_name_H-M "P M M M"
_symmetry_group_IT_number 47
_symmetry_cell_setting 'orthorhombic'
loop_
_space_group_symop_operation_xyz
x,y,z
-x,-y,z
x,-y,-z
-x,y,-z
-x,-y,-z
x,y,-z
-x,y,z
x,-y,z
loop_
_atom_site_type_symbol
_atom_site_label
_atom_site_fract_x
_atom_site_fract_y
_atom_site_fract_z
Si Si1 0.646663 0.169785 0.237680
Si Si2 0.000000 0.324612 0.628630
Si Si3 0.856652 0.176569 0.776850
Si Si4 0.500000 0.676293 0.622257
Si Si5 0.851052 0.324024 0.000000
Si Si6 0.332067 0.829789 0.000000
O O1 0.751605 0.212890 0.242664
O O2 0.590454 0.275938 0.316194
O O3 0.610605 0.189044 0.111695
O O4 0.630899 0.000000 0.277696
O O5 0.910548 0.249181 0.677029
O O6 0.000000 0.500000 0.656718
O O7 0.000000 0.293784 0.500000
O O8 0.875035 0.000000 0.781143
O O9 0.892299 0.248945 0.890560
O O10 0.500000 0.500000 0.615920
O O11 0.500000 0.745747 0.500000
O O12 0.744557 0.295763 0.000000
O O13 0.873045 0.500000 0.000000
O O14 0.288398 0.000000 0.000000
#
# Coordination Sequence:
#
# PCOD8194510 Si02
#       6
#     8   4   8   4   4   4
#     4   9  19  37  61  85 111 145 184 229 279 333
#     4  11  25  42  59  84 117 151 191 239 288 339
#     4  10  21  39  62  87 116 151 191 234 282 338
#     4  11  25  40  53  76 112 151 192 237 282 331
#     4  10  18  31  56  89 121 150 183 227 284 343
#     4   8  16  33  56  85 116 144 179 225 281 341
#
# _framework density 19.860050000000001
#
# number of rings (size 3 to 8) (size 9 to 14) (size 15 to 20)
#    0.000    2.250    0.000    4.125    0.000    9.000 
#    0.000   10.000    0.000    0.000    0.000    0.000 
#    0.000    0.000    0.000    0.000    0.000    0.000 
#
# Total GULP energy -396719.852368 kJ/mol
# GULP energy per Si atom -12397.495386 kJ/mol
# Density = 1.981485 g / cm^3
# Si number density = 19.860050 Si / 1000 Ang^3
#
#
#
# Elastic Constant Matrix: (Units=GPa)
#
#
# Indices 1 2 3 4 5 6 
#
# 1 89.9487 45.7813 66.5246 0.0000 0.0000 0.0000
# 2 45.7813 119.7432 75.0659 0.0000 0.0000 0.0000
# 3 66.5246 75.0659 163.3597 0.0000 0.0000 0.0000
# 4 0.0000 0.0000 0.0000 34.4940 0.0000 0.0000
# 5 0.0000 0.0000 0.0000 0.0000 30.7801 0.0000
# 6 0.0000 0.0000 0.0000 0.0000 0.0000 30.1939
#
#
#
# Elastic Compliance Matrix: (Units=1/GPa)
#
#
# Indices 1 2 3 4 5 6 
#
# 1 0.016627 -0.002967 -0.005408 0.000000 0.000000 0.000000
# 2 -0.002967 0.012260 -0.004425 0.000000 0.000000 0.000000
# 3 -0.005408 -0.004425 0.010357 0.000000 0.000000 0.000000
# 4 0.000000 0.000000 0.000000 0.028991 0.000000 0.000000
# 5 0.000000 0.000000 0.000000 0.000000 0.032489 0.000000
# 6 0.000000 0.000000 0.000000 0.000000 0.000000 0.033119
#
#
# Mechanical properties :
#
#
# Convention : Reuss Voigt Hill
#
# Bulk Modulus (GPa) = 73.29217 83.08836 78.19026
# Shear Modulus (GPa) = 30.48973 31.47226 30.98099
#
# Velocity S-wave (km/s) = 3.92245 3.98515 3.95392
# Velocity P-wave (km/s) = 7.58278 7.94374 7.76536
#
# Compressibility (1/GPa) = 0.01364402
#
# Stress axis : x y z
#
# Youngs Moduli (GPa) = 60.14346 81.56792 96.55275
#
# Poissons Ratio (x) = 0.24201 0.52212
# Poissons Ratio (y) = 0.17845 0.42727
# Poissons Ratio (z) = 0.32523 0.36096
#
# Static dielectric constant tensor:
#      x y z
#    x 3.356500 0.000000 0.000000 
#    y 0.000000 3.538430 0.000000 
#    z 0.000000 0.000000 3.845870 
# 
# 
# High freq. dielectric constant tensor:
#      x y z
#    x 1.759780 0.000000 0.000000 
#    y 0.000000 1.775150 0.000000 
#    z 0.000000 0.000000 1.782810 
# 
# From -- ./inp_files/14727.got.cif
#   From: 2010.03.12/outbox.cif.g09.slc.cpg/sg47_8_cif.got.tgz:14727.got - 2010.04.14 03:12:58.
