data_PCOD8194891
_publ_section_title
;
Structure prediction by ZEFSAII (Michael W. Deem and Ramdas Pophale) SiO2 
 PCOD8194891
Probable space group: P M M M
;
_chemical_formula_sum "Si O2"
_cell_formula_units_Z 48
_cell_length_a 13.656504
_cell_length_b 9.319610
_cell_length_c 23.859590
_cell_angle_alpha 90.000000
_cell_angle_beta 90.000000
_cell_angle_gamma 90.000000
_cell_volume 3036.688547
_symmetry_space_group_name_H-M "P M M M"
_symmetry_group_IT_number 47
_symmetry_cell_setting 'orthorhombic'
loop_
_space_group_symop_operation_xyz
x,y,z
-x,-y,z
x,-y,-z
-x,y,-z
-x,-y,-z
x,y,-z
-x,y,z
x,-y,z
loop_
_atom_site_type_symbol
_atom_site_label
_atom_site_fract_x
_atom_site_fract_y
_atom_site_fract_z
Si Si1 0.109782 0.335344 0.771017
Si Si2 0.297592 0.331922 0.161890
Si Si3 0.609779 0.834940 0.739510
Si Si4 0.796450 0.168202 0.326770
Si Si5 0.110436 0.170387 0.561294
Si Si6 0.387372 0.834275 0.064451
O O1 0.123195 0.500000 0.752918
O O2 0.185598 0.297346 0.820681
O O3 0.129454 0.241063 0.716394
O O4 0.000000 0.304551 0.793072
O O5 0.318952 0.500000 0.158980
O O6 0.371483 0.263031 0.206648
O O7 0.315980 0.263536 0.101317
O O8 0.500000 0.807295 0.717313
O O9 0.684157 0.794974 0.689205
O O10 0.624370 0.000000 0.758025
O O11 0.818136 0.227509 0.389432
O O12 0.817569 0.000000 0.323529
O O13 0.145613 0.227652 0.500000
O O14 0.000000 0.224325 0.573219
O O15 0.111926 0.000000 0.560393
O O16 0.500000 0.795069 0.077222
O O17 0.368117 0.000000 0.078778
O O18 0.362414 0.802305 0.000000
#
# Coordination Sequence:
#
# PCOD8194891 Si02
#       6
#     8   8   8   8   8   8
#     4   9  18  31  44  60  86 115 137 164 208 253
#     4  10  19  29  44  66  87 108 138 173 205 240
#     4   9  17  28  41  58  83 113 139 166 206 251
#     4   9  16  26  42  62  81 105 141 177 203 239
#     4   8  13  21  35  57  82 104 129 168 215 252
#     4   9  18  32  48  65  87 115 141 165 201 247
#
# _framework density 15.806692999999999
#
# number of rings (size 3 to 8) (size 9 to 14) (size 15 to 20)
#    0.000    3.000    0.000    2.500    0.000    4.667 
#    0.000    0.833    0.000    1.500    0.000    9.333 
#    0.000    0.000    0.000    8.333    0.000    9.000 
#
# Total GULP energy -595014.374635 kJ/mol
# GULP energy per Si atom -12396.132805 kJ/mol
# Density = 1.577072 g / cm^3
# Si number density = 15.806693 Si / 1000 Ang^3
#
#
#
# Elastic Constant Matrix: (Units=GPa)
#
#
# Indices 1 2 3 4 5 6 
#
# 1 104.9653 35.1473 64.7118 0.0000 0.0000 0.0000
# 2 35.1473 46.9974 45.1465 0.0000 0.0000 0.0000
# 3 64.7118 45.1465 127.1161 0.0000 0.0000 0.0000
# 4 0.0000 0.0000 0.0000 7.2904 0.0000 0.0000
# 5 0.0000 0.0000 0.0000 0.0000 23.8870 0.0000
# 6 0.0000 0.0000 0.0000 0.0000 0.0000 18.9875
#
#
#
# Elastic Compliance Matrix: (Units=1/GPa)
#
#
# Indices 1 2 3 4 5 6 
#
# 1 0.014871 -0.005842 -0.005496 0.000000 0.000000 0.000000
# 2 -0.005842 0.034592 -0.009311 0.000000 0.000000 0.000000
# 3 -0.005496 -0.009311 0.013972 0.000000 0.000000 0.000000
# 4 0.000000 0.000000 0.000000 0.137167 0.000000 0.000000
# 5 0.000000 0.000000 0.000000 0.000000 0.041864 0.000000
# 6 0.000000 0.000000 0.000000 0.000000 0.000000 0.052666
#
#
# Mechanical properties :
#
#
# Convention : Reuss Voigt Hill
#
# Bulk Modulus (GPa) = 45.17572 63.23221 54.20397
# Shear Modulus (GPa) = 14.54297 18.97120 16.75709
#
# Velocity S-wave (km/s) = 3.03653 3.46815 3.25949
# Velocity P-wave (km/s) = 6.39814 7.49184 6.96649
#
# Compressibility (1/GPa) = 0.02213578
#
# Stress axis : x y z
#
# Youngs Moduli (GPa) = 67.24321 28.90869 71.57403
#
# Poissons Ratio (x) = 0.16890 0.39335
# Poissons Ratio (y) = 0.39286 0.66645
# Poissons Ratio (z) = 0.36955 0.26918
#
# Static dielectric constant tensor:
#      x y z
#    x 3.051320 0.000000 0.000000 
#    y 0.000000 2.886390 0.000000 
#    z 0.000000 0.000000 3.120150 
# 
# 
# High freq. dielectric constant tensor:
#      x y z
#    x 1.598000 0.000000 0.000000 
#    y 0.000000 1.592990 0.000000 
#    z 0.000000 0.000000 1.598070 
# 
# From -- ./inp_files/7467.got.cif
#   From: 2010.03.12/outbox.cif.g09.slc.cpg/sg47_4_cif.got.tgz:7467.got - 2010.04.14 03:12:58.
