data_PCOD8194982
_publ_section_title
;
Structure prediction by ZEFSAII (Michael W. Deem and Ramdas Pophale) SiO2 
 PCOD8194982
Probable space group: P M M M
;
_chemical_formula_sum "Si O2"
_cell_formula_units_Z 40
_cell_length_a 8.955812
_cell_length_b 22.204267
_cell_length_c 12.573850
_cell_angle_alpha 90.000000
_cell_angle_beta 90.000000
_cell_angle_gamma 90.000000
_cell_volume 2500.401118
_symmetry_space_group_name_H-M "P M M M"
_symmetry_group_IT_number 47
_symmetry_cell_setting 'orthorhombic'
loop_
_space_group_symop_operation_xyz
x,y,z
-x,-y,z
x,-y,-z
-x,y,-z
-x,-y,-z
x,y,-z
-x,y,z
x,-y,z
loop_
_atom_site_type_symbol
_atom_site_label
_atom_site_fract_x
_atom_site_fract_y
_atom_site_fract_z
Si Si1 0.322660 0.932655 0.500000
Si Si2 0.168623 0.500000 0.626944
Si Si3 0.676295 0.143173 0.700748
Si Si4 0.331849 0.381432 0.626453
Si Si5 0.171457 0.069126 0.123086
Si Si6 0.824130 0.739940 0.622967
O O1 0.500000 0.935492 0.500000
O O2 0.264357 0.898234 0.604224
O O3 0.255062 0.000000 0.500000
O O4 0.170236 0.500000 0.500000
O O5 0.251656 0.440944 0.671968
O O6 0.000000 0.500000 0.670063
O O7 0.500000 0.152485 0.695084
O O8 0.719966 0.111962 0.810830
O O9 0.754421 0.207720 0.694326
O O10 0.332231 0.384118 0.500000
O O11 0.500000 0.378798 0.671109
O O12 0.242442 0.322822 0.665331
O O13 0.000000 0.081188 0.154880
O O14 0.213863 0.000000 0.146606
O O15 0.197412 0.084169 0.000000
O O16 0.779991 0.750792 0.500000
O O17 0.000000 0.738140 0.638833
#
# Coordination Sequence:
#
# PCOD8194982 Si02
#       6
#     4   4   8   8   8   8
#     4   9  18  30  43  63  91 118 143 178 225 269
#     4   9  15  23  35  53  77 107 146 187 226 263
#     4  11  20  31  48  68  93 120 150 187 228 274
#     4   9  16  25  38  55  78 109 148 189 227 263
#     4   9  19  36  54  70  90 116 147 186 232 279
#     4  10  19  30  43  60  86 119 154 187 224 272
#
# _framework density 15.997434
#
# number of rings (size 3 to 8) (size 9 to 14) (size 15 to 20)
#    0.000    2.400    1.000    3.300    0.000    6.000 
#    0.000    1.000    0.000    2.400    0.000    0.000 
#    0.000    0.000    0.000    0.900    0.000   16.700 
#
# Total GULP energy -496064.822869 kJ/mol
# GULP energy per Si atom -12401.620572 kJ/mol
# Density = 1.596102 g / cm^3
# Si number density = 15.997434 Si / 1000 Ang^3
#
#
#
# Elastic Constant Matrix: (Units=GPa)
#
#
# Indices 1 2 3 4 5 6 
#
# 1 95.6426 59.4609 24.9748 0.0000 0.0000 0.0000
# 2 59.4609 145.3442 36.6611 0.0000 0.0000 0.0000
# 3 24.9748 36.6611 44.4479 0.0000 0.0000 0.0000
# 4 0.0000 0.0000 0.0000 12.5466 0.0000 0.0000
# 5 0.0000 0.0000 0.0000 0.0000 18.4692 0.0000
# 6 0.0000 0.0000 0.0000 0.0000 0.0000 33.0420
#
#
#
# Elastic Compliance Matrix: (Units=1/GPa)
#
#
# Indices 1 2 3 4 5 6 
#
# 1 0.014601 -0.004929 -0.004138 0.000000 0.000000 0.000000
# 2 -0.004929 0.010352 -0.005769 0.000000 0.000000 0.000000
# 3 -0.004138 -0.005769 0.029581 0.000000 0.000000 0.000000
# 4 0.000000 0.000000 0.000000 0.079703 0.000000 0.000000
# 5 0.000000 0.000000 0.000000 0.000000 0.054144 0.000000
# 6 0.000000 0.000000 0.000000 0.000000 0.000000 0.030264
#
#
# Mechanical properties :
#
#
# Convention : Reuss Voigt Hill
#
# Bulk Modulus (GPa) = 40.22240 58.62537 49.42389
# Shear Modulus (GPa) = 19.48518 23.76742 21.62630
#
# Velocity S-wave (km/s) = 3.49380 3.85866 3.68075
# Velocity P-wave (km/s) = 6.43996 7.52188 7.00185
#
# Compressibility (1/GPa) = 0.02486177
#
# Stress axis : x y z
#
# Youngs Moduli (GPa) = 68.48936 96.60039 33.80496
#
# Poissons Ratio (x) = 0.47619 0.13989
# Poissons Ratio (y) = 0.33761 0.19501
# Poissons Ratio (z) = 0.28342 0.55725
#
# Static dielectric constant tensor:
#      x y z
#    x 3.044460 0.000000 0.000000 
#    y 0.000000 3.172010 0.000000 
#    z 0.000000 0.000000 2.560270 
# 
# 
# High freq. dielectric constant tensor:
#      x y z
#    x 1.623000 0.000000 0.000000 
#    y 0.000000 1.626100 0.000000 
#    z 0.000000 0.000000 1.551410 
# 
# From -- ./inp_files/4026.got.cif
#   From: 2010.03.12/outbox.cif.g09.slc.cpg/sg47_3_cif.got.tgz:4026.got - 2010.04.14 03:12:58.
