data_PCOD8194923
_publ_section_title
;
Structure prediction by ZEFSAII (Michael W. Deem and Ramdas Pophale) SiO2 
 PCOD8194923
Probable space group: P M M M
;
_chemical_formula_sum "Si O2"
_cell_formula_units_Z 44
_cell_length_a 7.750518
_cell_length_b 23.185480
_cell_length_c 13.932210
_cell_angle_alpha 90.000000
_cell_angle_beta 90.000000
_cell_angle_gamma 90.000000
_cell_volume 2503.610893
_symmetry_space_group_name_H-M "P M M M"
_symmetry_group_IT_number 47
_symmetry_cell_setting 'orthorhombic'
loop_
_space_group_symop_operation_xyz
x,y,z
-x,-y,z
x,-y,-z
-x,y,-z
-x,-y,-z
x,y,-z
-x,y,z
x,-y,z
loop_
_atom_site_type_symbol
_atom_site_label
_atom_site_fract_x
_atom_site_fract_y
_atom_site_fract_z
Si Si1 0.295332 0.627434 0.605182
Si Si2 0.294293 0.436499 0.788570
Si Si3 0.806971 0.144840 0.610099
Si Si4 0.296445 0.741938 0.709864
Si Si5 0.500000 0.064081 0.386403
Si Si6 0.705083 0.675308 0.893978
O O1 0.215854 0.614599 0.500000
O O2 0.500000 0.625328 0.600991
O O3 0.229063 0.580056 0.681421
O O4 0.238420 0.691008 0.638687
O O5 0.500000 0.437019 0.790304
O O6 0.221613 0.500000 0.815592
O O7 0.225259 0.388062 0.862566
O O8 0.762360 0.162161 0.500000
O O9 0.799731 0.200559 0.677812
O O10 0.671757 0.097391 0.648315
O O11 0.000000 0.118815 0.616850
O O12 0.500000 0.752717 0.704639
O O13 0.237291 0.724313 0.818037
O O14 0.500000 0.058889 0.500000
O O15 0.500000 0.000000 0.340540
O O16 0.500000 0.672673 0.894784
O O17 0.778173 0.690050 0.000000
#
# Coordination Sequence:
#
# PCOD8194923 Si02
#       6
#     8   8   8   8   4   8
#     4   8  13  19  29  46  68 101 143 184 229 279
#     4   8  13  19  26  41  69 105 144 185 230 280
#     4  10  19  29  45  70  97 127 162 195 225 261
#     4   9  15  25  41  58  82 115 150 190 234 280
#     4   9  18  32  48  68  99 137 168 191 217 251
#     4   8  14  23  35  53  76 106 146 190 238 289
#
# _framework density 17.574617
#
# number of rings (size 3 to 8) (size 9 to 14) (size 15 to 20)
#    0.000    3.364    0.909    2.727    0.000    1.818 
#    0.000    5.455    0.000    0.545    0.000    0.000 
#    0.000   13.091    0.000   48.182    0.000   40.909 
#
# Total GULP energy -545199.394361 kJ/mol
# GULP energy per Si atom -12390.895326 kJ/mol
# Density = 1.753462 g / cm^3
# Si number density = 17.574617 Si / 1000 Ang^3
#
#
#
# Elastic Constant Matrix: (Units=GPa)
#
#
# Indices 1 2 3 4 5 6 
#
# 1 52.5107 31.9750 13.3659 0.0000 0.0000 0.0000
# 2 31.9750 117.0861 39.3347 0.0000 0.0000 0.0000
# 3 13.3659 39.3347 111.8914 0.0000 0.0000 0.0000
# 4 0.0000 0.0000 0.0000 14.9771 0.0000 0.0000
# 5 0.0000 0.0000 0.0000 0.0000 3.6704 0.0000
# 6 0.0000 0.0000 0.0000 0.0000 0.0000 -1.9398
#
#
#
# Elastic Compliance Matrix: (Units=1/GPa)
#
#
# Indices 1 2 3 4 5 6 
#
# 1 0.022879 -0.006044 -0.000608 0.000000 0.000000 0.000000
# 2 -0.006044 0.011281 -0.003244 0.000000 0.000000 0.000000
# 3 -0.000608 -0.003244 0.010150 0.000000 0.000000 0.000000
# 4 0.000000 0.000000 0.000000 0.066769 0.000000 0.000000
# 5 0.000000 0.000000 0.000000 0.000000 0.272449 0.000000
# 6 0.000000 0.000000 0.000000 0.000000 0.000000 -0.515509
#
#
# Mechanical properties :
#
#
# Convention : Reuss Voigt Hill
#
# Bulk Modulus (GPa) = 40.78579 50.09326 45.43953
# Shear Modulus (GPa) = -48.06865 16.46238 -15.80313
#
# Velocity S-wave (km/s) = -5.23551 3.06390 -3.00192
# Velocity P-wave (km/s) = 3.64552 6.40950 3.72773
#
# Compressibility (1/GPa) = 0.02451834
#
# Stress axis : x y z
#
# Youngs Moduli (GPa) = 43.70891 88.64549 98.51975
#
# Poissons Ratio (x) = 0.53573 0.05994
# Poissons Ratio (y) = 0.26416 0.31958
# Poissons Ratio (z) = 0.02659 0.28755
#
# Static dielectric constant tensor:
#      x y z
#    x 2.898520 0.000000 0.000000 
#    y 0.000000 3.227120 0.000000 
#    z 0.000000 0.000000 3.521210 
# 
# 
# High freq. dielectric constant tensor:
#      x y z
#    x 1.652440 0.000000 0.000000 
#    y 0.000000 1.654850 0.000000 
#    z 0.000000 0.000000 1.657430 
# 
# From -- ./inp_files/21304.got.cif
#   From: 2010.03.12/outbox.cif.g09.slc.cpg/sg47_11_cif.got.tgz:21304.got - 2010.04.14 03:12:58.
