data_PCOD8194028
_publ_section_title
;
Structure prediction by ZEFSAII (Michael W. Deem and Ramdas Pophale) SiO2 
 PCOD8194028
Probable space group: P M M M
;
_chemical_formula_sum "Si O2"
_cell_formula_units_Z 64
_cell_length_a 20.075591
_cell_length_b 9.470226
_cell_length_c 20.042588
_cell_angle_alpha 90.000000
_cell_angle_beta 90.000000
_cell_angle_gamma 90.000000
_cell_volume 3810.504524
_symmetry_space_group_name_H-M "P M M M"
_symmetry_group_IT_number 47
_symmetry_cell_setting 'orthorhombic'
loop_
_space_group_symop_operation_xyz
x,y,z
-x,-y,z
x,-y,-z
-x,y,-z
-x,-y,-z
x,y,-z
-x,y,z
x,-y,z
loop_
_atom_site_type_symbol
_atom_site_label
_atom_site_fract_x
_atom_site_fract_y
_atom_site_fract_z
Si Si1 0.739945 0.838340 0.381716
Si Si2 0.112739 0.159860 0.574153
Si Si3 0.428868 0.334906 0.285841
Si Si4 0.925166 0.658773 0.303280
Si Si5 0.924704 0.836579 0.922264
Si Si6 0.285248 0.665420 0.746050
Si Si7 0.377484 0.338547 0.572563
Si Si8 0.158886 0.335686 0.821104
O O1 0.808046 0.829736 0.421686
O O2 0.748321 0.753415 0.312897
O O3 0.685340 0.764853 0.427981
O O4 0.719519 0.000000 0.366521
O O5 0.091150 0.209557 0.500000
O O6 0.077173 0.254385 0.628855
O O7 0.089176 0.000000 0.586649
O O8 0.500000 0.267719 0.260817
O O9 0.433794 0.500000 0.274591
O O10 0.362694 0.281528 0.245658
O O11 0.424182 0.298620 0.364882
O O12 0.902373 0.500000 0.320144
O O13 0.877872 0.720853 0.245467
O O14 0.000000 0.663362 0.275136
O O15 0.868300 0.748829 0.884169
O O16 0.000000 0.789106 0.902737
O O17 0.915136 0.000000 0.904371
O O18 0.912818 0.809673 0.000000
O O19 0.284909 0.500000 0.726276
O O20 0.239002 0.689397 0.811633
O O21 0.413610 0.320724 0.500000
O O22 0.352943 0.500000 0.581453
O O23 0.142934 0.500000 0.832770
#
# Coordination Sequence:
#
# PCOD8194028 Si02
#       8
#     8   8   8   8   8   8   8   8
#     4  10  18  29  45  63  84 109 143 190 240 288
#     4  10  21  34  46  61  82 110 147 194 246 293
#     4   8  14  25  42  64  89 116 148 189 235 283
#     4  10  21  35  49  66  88 115 149 190 237 285
#     4   9  19  35  53  76 108 141 168 193 224 268
#     4   9  17  30  48  69  93 119 152 192 233 276
#     4   9  17  27  40  59  82 110 145 185 234 291
#     4  10  19  32  52  75 100 127 159 198 234 274
#
# _framework density 16.795676
#
# number of rings (size 3 to 8) (size 9 to 14) (size 15 to 20)
#    0.000    2.625    1.250    2.250    0.000    4.250 
#    0.000    3.125    0.000    6.000    0.000    3.500 
#    0.000    0.500    0.000    6.250    0.000    1.000 
#
# Total GULP energy -792978.317224 kJ/mol
# GULP energy per Si atom -12390.286207 kJ/mol
# Density = 1.675745 g / cm^3
# Si number density = 16.795676 Si / 1000 Ang^3
#
#
#
# Elastic Constant Matrix: (Units=GPa)
#
#
# Indices 1 2 3 4 5 6 
#
# 1 107.5885 26.9113 43.4708 0.0000 0.0000 0.0000
# 2 26.9113 52.6262 29.5133 0.0000 0.0000 0.0000
# 3 43.4708 29.5133 66.5078 0.0000 0.0000 0.0000
# 4 0.0000 0.0000 0.0000 25.6272 0.0000 0.0000
# 5 0.0000 0.0000 0.0000 0.0000 26.9551 0.0000
# 6 0.0000 0.0000 0.0000 0.0000 0.0000 13.3484
#
#
#
# Elastic Compliance Matrix: (Units=1/GPa)
#
#
# Indices 1 2 3 4 5 6 
#
# 1 0.012869 -0.002481 -0.007310 0.000000 0.000000 0.000000
# 2 -0.002481 0.025776 -0.009817 0.000000 0.000000 0.000000
# 3 -0.007310 -0.009817 0.024170 0.000000 0.000000 0.000000
# 4 0.000000 0.000000 0.000000 0.039021 0.000000 0.000000
# 5 0.000000 0.000000 0.000000 0.000000 0.037099 0.000000
# 6 0.000000 0.000000 0.000000 0.000000 0.000000 0.074916
#
#
# Mechanical properties :
#
#
# Convention : Reuss Voigt Hill
#
# Bulk Modulus (GPa) = 42.37461 47.39035 44.88248
# Shear Modulus (GPa) = 19.16201 21.64127 20.40164
#
# Velocity S-wave (km/s) = 3.38137 3.59347 3.48903
# Velocity P-wave (km/s) = 6.36625 6.74495 6.55834
#
# Compressibility (1/GPa) = 0.02359904
#
# Stress axis : x y z
#
# Youngs Moduli (GPa) = 77.70592 38.79596 41.37309
#
# Poissons Ratio (x) = 0.09625 0.30246
# Poissons Ratio (y) = 0.19279 0.40614
# Poissons Ratio (z) = 0.56807 0.38084
#
# Static dielectric constant tensor:
#      x y z
#    x 3.393740 0.000000 0.000000 
#    y 0.000000 3.055890 0.000000 
#    z 0.000000 0.000000 2.834010 
# 
# 
# High freq. dielectric constant tensor:
#      x y z
#    x 1.647650 0.000000 0.000000 
#    y 0.000000 1.633090 0.000000 
#    z 0.000000 0.000000 1.608780 
# 
# From -- ./inp_files/11894.got.cif
#   From: 2010.03.12/outbox.cif.g09.slc.cpg/sg47_6_cif.got.tgz:11894.got - 2010.04.14 03:12:58.
