data_PCOD8194957
_publ_section_title
;
Structure prediction by ZEFSAII (Michael W. Deem and Ramdas Pophale) SiO2 
 PCOD8194957
Probable space group: P M M M
;
_chemical_formula_sum "Si O2"
_cell_formula_units_Z 64
_cell_length_a 14.668125
_cell_length_b 9.254445
_cell_length_c 25.332075
_cell_angle_alpha 90.000000
_cell_angle_beta 90.000000
_cell_angle_gamma 90.000000
_cell_volume 3438.711541
_symmetry_space_group_name_H-M "P M M M"
_symmetry_group_IT_number 47
_symmetry_cell_setting 'orthorhombic'
loop_
_space_group_symop_operation_xyz
x,y,z
-x,-y,z
x,-y,-z
-x,y,-z
-x,-y,-z
x,y,-z
-x,y,z
x,-y,z
loop_
_atom_site_type_symbol
_atom_site_label
_atom_site_fract_x
_atom_site_fract_y
_atom_site_fract_z
Si Si1 0.765247 0.671414 0.630532
Si Si2 0.775359 0.666298 0.941927
Si Si3 0.222560 0.667707 0.252814
Si Si4 0.397510 0.830616 0.912358
Si Si5 0.103613 0.327569 0.155866
Si Si6 0.398153 0.328183 0.440647
Si Si7 0.107008 0.838855 0.559450
Si Si8 0.600302 0.662237 0.807287
O O1 0.759063 0.500000 0.634117
O O2 0.783886 0.737787 0.688957
O O3 0.673425 0.733581 0.602543
O O4 0.850939 0.716700 0.596034
O O5 0.753295 0.500000 0.929344
O O6 0.679511 0.750338 0.945803
O O7 0.842465 0.728267 0.896380
O O8 0.821873 0.682303 0.000000
O O9 0.198663 0.500000 0.256329
O O10 0.153677 0.734043 0.208702
O O11 0.326961 0.695962 0.237460
O O12 0.500000 0.794574 0.933447
O O13 0.387633 0.779416 0.852480
O O14 0.378971 0.000000 0.915376
O O15 0.103635 0.500000 0.155842
O O16 0.000000 0.268161 0.154478
O O17 0.373339 0.273617 0.500000
O O18 0.500000 0.274949 0.425383
O O19 0.394648 0.500000 0.440307
O O20 0.140656 0.811808 0.500000
O O21 0.000000 0.821210 0.563142
O O22 0.136172 0.000000 0.577706
O O23 0.500000 0.673826 0.781517
O O24 0.616389 0.500000 0.830441
#
# Coordination Sequence:
#
# PCOD8194957 Si02
#       8
#     8   8   8   8   8   8   8   8
#     4  10  19  29  48  78 105 129 165 210 250 296
#     4  10  20  34  54  78 101 128 168 214 253 297
#     4   9  17  29  46  74 106 132 159 198 253 303
#     4  10  20  33  51  76 105 136 167 201 247 300
#     4   9  17  31  51  73 100 131 162 203 254 303
#     4   8  14  25  41  64  98 135 165 198 243 289
#     4   9  19  36  54  70  94 131 169 206 256 312
#     4   9  16  29  51  74  99 134 173 209 243 288
#
# _framework density 18.611623000000002
#
# number of rings (size 3 to 8) (size 9 to 14) (size 15 to 20)
#    0.000    2.750    1.250    1.500    0.000    3.500 
#    0.000    7.500    0.000    0.750    0.000    2.625 
#    0.000    0.000    0.000    0.000    0.000    0.000 
#
# Total GULP energy -793081.078001 kJ/mol
# GULP energy per Si atom -12391.891844 kJ/mol
# Density = 1.856926 g / cm^3
# Si number density = 18.611623 Si / 1000 Ang^3
#
#
#
# Elastic Constant Matrix: (Units=GPa)
#
#
# Indices 1 2 3 4 5 6 
#
# 1 115.8913 23.1555 74.1206 0.0000 0.0000 0.0000
# 2 23.1555 23.8025 19.6977 0.0000 0.0000 0.0000
# 3 74.1206 19.6977 142.0948 0.0000 0.0000 0.0000
# 4 0.0000 0.0000 0.0000 7.8761 0.0000 0.0000
# 5 0.0000 0.0000 0.0000 0.0000 14.7267 0.0000
# 6 0.0000 0.0000 0.0000 0.0000 0.0000 13.5231
#
#
#
# Elastic Compliance Matrix: (Units=1/GPa)
#
#
# Indices 1 2 3 4 5 6 
#
# 1 0.014419 -0.008814 -0.006299 0.000000 0.000000 0.000000
# 2 -0.008814 0.052844 -0.002728 0.000000 0.000000 0.000000
# 3 -0.006299 -0.002728 0.010702 0.000000 0.000000 0.000000
# 4 0.000000 0.000000 0.000000 0.126967 0.000000 0.000000
# 5 0.000000 0.000000 0.000000 0.000000 0.067904 0.000000
# 6 0.000000 0.000000 0.000000 0.000000 0.000000 0.073948
#
#
# Mechanical properties :
#
#
# Convention : Reuss Voigt Hill
#
# Bulk Modulus (GPa) = 23.65059 57.30401 40.47730
# Shear Modulus (GPa) = 12.60845 18.21282 15.41064
#
# Velocity S-wave (km/s) = 2.60561 3.13161 2.88064
# Velocity P-wave (km/s) = 4.66769 6.62813 5.73234
#
# Compressibility (1/GPa) = 0.04228225
#
# Stress axis : x y z
#
# Youngs Moduli (GPa) = 69.35439 18.92361 93.44353
#
# Poissons Ratio (x) = 0.16679 0.58864
# Poissons Ratio (y) = 0.61127 0.25491
# Poissons Ratio (z) = 0.43689 0.05162
#
# Static dielectric constant tensor:
#      x y z
#    x 3.612750 0.000000 0.000000 
#    y 0.000000 2.983820 0.000000 
#    z 0.000000 0.000000 3.577020 
# 
# 
# High freq. dielectric constant tensor:
#      x y z
#    x 1.727330 0.000000 0.000000 
#    y 0.000000 1.668030 0.000000 
#    z 0.000000 0.000000 1.723260 
# 
# From -- ./inp_files/32771.got.cif
#   From: 2010.03.12/outbox.cif.g09.slc.cpg/sg47_17_cif.got.tgz:32771.got - 2010.04.14 03:12:58.
