data_PCOD8194926
_publ_section_title
;
Structure prediction by ZEFSAII (Michael W. Deem and Ramdas Pophale) SiO2 
 PCOD8194926
Probable space group: P M M M
;
_chemical_formula_sum "Si O2"
_cell_formula_units_Z 56
_cell_length_a 9.040197
_cell_length_b 18.681168
_cell_length_c 18.550471
_cell_angle_alpha 90.000000
_cell_angle_beta 90.000000
_cell_angle_gamma 90.000000
_cell_volume 3132.830235
_symmetry_space_group_name_H-M "P M M M"
_symmetry_group_IT_number 47
_symmetry_cell_setting 'orthorhombic'
loop_
_space_group_symop_operation_xyz
x,y,z
-x,-y,z
x,-y,-z
-x,y,-z
-x,-y,-z
x,y,-z
-x,y,z
x,-y,z
loop_
_atom_site_type_symbol
_atom_site_label
_atom_site_fract_x
_atom_site_fract_y
_atom_site_fract_z
Si Si1 0.328760 0.419140 0.144252
Si Si2 0.169563 0.420233 0.295270
Si Si3 0.332150 0.292113 0.342614
Si Si4 0.673072 0.850012 0.417655
Si Si5 0.670598 0.799222 0.798441
Si Si6 0.829643 0.082639 0.288126
Si Si7 0.169975 0.711872 0.082623
O O1 0.500000 0.396699 0.146476
O O2 0.308231 0.500000 0.115086
O O3 0.266985 0.412280 0.224308
O O4 0.243096 0.366154 0.091278
O O5 0.187201 0.500000 0.328218
O O6 0.228443 0.361781 0.352576
O O7 0.000000 0.404240 0.275705
O O8 0.500000 0.315930 0.356638
O O9 0.283028 0.232064 0.400188
O O10 0.311290 0.261003 0.262462
O O11 0.712267 0.867493 0.500000
O O12 0.500000 0.860722 0.400765
O O13 0.763196 0.904073 0.367571
O O14 0.500000 0.815103 0.814958
O O15 0.745100 0.872748 0.772850
O O16 0.748520 0.771917 0.870558
O O17 0.000000 0.106165 0.289061
O O18 0.810617 0.000000 0.268154
O O19 0.000000 0.707022 0.107018
O O20 0.184626 0.735636 0.000000
#
# Coordination Sequence:
#
# PCOD8194926 Si02
#       7
#     8   8   8   8   8   8   8
#     4  10  20  33  49  70  99 136 177 220 266 314
#     4  10  19  29  45  70  98 130 170 218 270 317
#     4   9  17  30  50  74  98 129 171 217 262 307
#     4   9  19  35  54  78 109 143 177 213 254 304
#     4  10  20  35  56  79 103 134 174 218 258 304
#     4  10  21  36  56  83 113 143 172 206 251 304
#     4  11  23  36  52  75 104 139 176 217 267 318
#
# _framework density 17.875211
#
# number of rings (size 3 to 8) (size 9 to 14) (size 15 to 20)
#    0.000    2.143    1.429    3.000    0.000    7.143 
#    0.000    2.857    0.000    0.857    0.000    6.000 
#    0.000    0.000    0.000    0.000    0.000    0.000 
#
# Total GULP energy -694492.697887 kJ/mol
# GULP energy per Si atom -12401.655319 kJ/mol
# Density = 1.783453 g / cm^3
# Si number density = 17.875211 Si / 1000 Ang^3
#
#
#
# Elastic Constant Matrix: (Units=GPa)
#
#
# Indices 1 2 3 4 5 6 
#
# 1 130.1978 63.3350 44.3968 0.0000 0.0000 0.0000
# 2 63.3350 100.4462 36.3049 0.0000 0.0000 0.0000
# 3 44.3968 36.3049 61.4907 0.0000 0.0000 0.0000
# 4 0.0000 0.0000 0.0000 18.6342 0.0000 0.0000
# 5 0.0000 0.0000 0.0000 0.0000 25.0584 0.0000
# 6 0.0000 0.0000 0.0000 0.0000 0.0000 33.2632
#
#
#
# Elastic Compliance Matrix: (Units=1/GPa)
#
#
# Indices 1 2 3 4 5 6 
#
# 1 0.012391 -0.005822 -0.005509 0.000000 0.000000 0.000000
# 2 -0.005822 0.015392 -0.004884 0.000000 0.000000 0.000000
# 3 -0.005509 -0.004884 0.023124 0.000000 0.000000 0.000000
# 4 0.000000 0.000000 0.000000 0.053665 0.000000 0.000000
# 5 0.000000 0.000000 0.000000 0.000000 0.039907 0.000000
# 6 0.000000 0.000000 0.000000 0.000000 0.000000 0.030063
#
#
# Mechanical properties :
#
#
# Convention : Reuss Voigt Hill
#
# Bulk Modulus (GPa) = 54.12260 64.46757 59.29508
# Shear Modulus (GPa) = 23.45972 25.26435 24.36203
#
# Velocity S-wave (km/s) = 3.62666 3.76356 3.69575
# Velocity P-wave (km/s) = 6.91958 7.41819 7.17322
#
# Compressibility (1/GPa) = 0.01847657
#
# Stress axis : x y z
#
# Youngs Moduli (GPa) = 80.70128 64.96972 43.24519
#
# Poissons Ratio (x) = 0.37825 0.23825
# Poissons Ratio (y) = 0.46984 0.21121
# Poissons Ratio (z) = 0.44461 0.31731
#
# Static dielectric constant tensor:
#      x y z
#    x 3.445630 0.000000 0.000000 
#    y 0.000000 3.332000 0.000000 
#    z 0.000000 0.000000 3.018750 
# 
# 
# High freq. dielectric constant tensor:
#      x y z
#    x 1.705750 0.000000 0.000000 
#    y 0.000000 1.690120 0.000000 
#    z 0.000000 0.000000 1.658730 
# 
# From -- ./inp_files/29693.got.cif
#   From: 2010.03.12/outbox.cif.g09.slc.cpg/sg47_15_cif.got.tgz:29693.got - 2010.04.14 03:12:58.
