data_PCOD8194837
_publ_section_title
;
Structure prediction by ZEFSAII (Michael W. Deem and Ramdas Pophale) SiO2 
 PCOD8194837
Probable space group: P M M M
;
_chemical_formula_sum "Si O2"
_cell_formula_units_Z 52
_cell_length_a 8.906945
_cell_length_b 26.649454
_cell_length_c 13.635158
_cell_angle_alpha 90.000000
_cell_angle_beta 90.000000
_cell_angle_gamma 90.000000
_cell_volume 3236.512293
_symmetry_space_group_name_H-M "P M M M"
_symmetry_group_IT_number 47
_symmetry_cell_setting 'orthorhombic'
loop_
_space_group_symop_operation_xyz
x,y,z
-x,-y,z
x,-y,-z
-x,y,-z
-x,-y,-z
x,y,-z
-x,y,z
x,-y,z
loop_
_atom_site_type_symbol
_atom_site_label
_atom_site_fract_x
_atom_site_fract_y
_atom_site_fract_z
Si Si1 0.322713 0.700909 0.387369
Si Si2 0.823160 0.107830 0.606825
Si Si3 0.330557 0.500000 0.382900
Si Si4 0.168569 0.400966 0.383590
Si Si5 0.326894 0.849910 0.112585
Si Si6 0.822611 0.943192 0.800154
Si Si7 0.822730 0.206755 0.717296
O O1 0.273702 0.710912 0.500000
O O2 0.500000 0.701044 0.376528
O O3 0.261685 0.647545 0.349902
O O4 0.253041 0.742298 0.316902
O O5 0.749452 0.096533 0.500000
O O6 0.768920 0.067865 0.688250
O O7 0.777047 0.163605 0.640210
O O8 0.000000 0.104246 0.596766
O O9 0.500000 0.500000 0.343112
O O10 0.328991 0.500000 0.500000
O O11 0.247358 0.450776 0.341082
O O12 0.165703 0.404233 0.500000
O O13 0.000000 0.397485 0.341492
O O14 0.500000 0.850121 0.144876
O O15 0.261192 0.905908 0.126347
O O16 0.237399 0.808945 0.175903
O O17 0.307689 0.834291 0.000000
O O18 0.000000 0.933528 0.809778
O O19 0.779604 0.000000 0.827698
O O20 0.000000 0.214354 0.723587
#
# Coordination Sequence:
#
# PCOD8194837 Si02
#       7
#     8   8   4   8   8   8   8
#     4  10  19  29  42  63  92 123 153 186 224 263
#     4   8  14  25  42  64  88 113 141 172 206 246
#     4   9  15  23  35  51  75 109 150 195 238 273
#     4   9  16  25  37  54  78 112 155 196 229 263
#     4  10  21  36  52  68  86 110 141 177 221 273
#     4   9  18  31  47  69  93 115 142 176 213 255
#     4  10  19  31  48  68  89 113 144 182 222 266
#
# _framework density 16.066676000000001
#
# number of rings (size 3 to 8) (size 9 to 14) (size 15 to 20)
#    0.000    2.692    0.000    3.462    0.000    6.462 
#    0.000    3.077    0.000    4.154    0.000    4.308 
#    0.000    0.000    0.000    0.692    0.000   12.846 
#
# Total GULP energy -644682.721200 kJ/mol
# GULP energy per Si atom -12397.744638 kJ/mol
# Density = 1.603011 g / cm^3
# Si number density = 16.066676 Si / 1000 Ang^3
#
#
#
# Elastic Constant Matrix: (Units=GPa)
#
#
# Indices 1 2 3 4 5 6 
#
# 1 85.3038 50.8685 25.8752 0.0000 0.0000 0.0000
# 2 50.8685 121.5896 27.3038 0.0000 0.0000 0.0000
# 3 25.8752 27.3038 54.1812 0.0000 0.0000 0.0000
# 4 0.0000 0.0000 0.0000 16.1384 0.0000 0.0000
# 5 0.0000 0.0000 0.0000 0.0000 17.8388 0.0000
# 6 0.0000 0.0000 0.0000 0.0000 0.0000 26.7499
#
#
#
# Elastic Compliance Matrix: (Units=1/GPa)
#
#
# Indices 1 2 3 4 5 6 
#
# 1 0.016757 -0.005879 -0.005040 0.000000 0.000000 0.000000
# 2 -0.005879 0.011336 -0.002905 0.000000 0.000000 0.000000
# 3 -0.005040 -0.002905 0.022328 0.000000 0.000000 0.000000
# 4 0.000000 0.000000 0.000000 0.061964 0.000000 0.000000
# 5 0.000000 0.000000 0.000000 0.000000 0.056058 0.000000
# 6 0.000000 0.000000 0.000000 0.000000 0.000000 0.037383
#
#
# Mechanical properties :
#
#
# Convention : Reuss Voigt Hill
#
# Bulk Modulus (GPa) = 43.91210 52.12995 48.02102
# Shear Modulus (GPa) = 20.74123 22.61388 21.67756
#
# Velocity S-wave (km/s) = 3.59687 3.75574 3.67716
# Velocity P-wave (km/s) = 6.68135 7.16407 6.92692
#
# Compressibility (1/GPa) = 0.02277277
#
# Stress axis : x y z
#
# Youngs Moduli (GPa) = 59.67540 88.21269 44.78749
#
# Poissons Ratio (x) = 0.51859 0.22574
# Poissons Ratio (y) = 0.35082 0.13012
# Poissons Ratio (z) = 0.30078 0.25627
#
# Static dielectric constant tensor:
#      x y z
#    x 3.066810 0.000000 0.000000 
#    y 0.000000 3.097420 0.000000 
#    z 0.000000 0.000000 2.834620 
# 
# 
# High freq. dielectric constant tensor:
#      x y z
#    x 1.619750 0.000000 0.000000 
#    y 0.000000 1.617100 0.000000 
#    z 0.000000 0.000000 1.573810 
# 
# From -- ./inp_files/21797.got.cif
#   From: 2010.03.12/outbox.cif.g09.slc.cpg/sg47_11_cif.got.tgz:21797.got - 2010.04.14 03:12:58.
