data_PCOD8194316
_publ_section_title
;
Structure prediction by ZEFSAII (Michael W. Deem and Ramdas Pophale) SiO2 
 PCOD8194316
Probable space group: P M M M
;
_chemical_formula_sum "Si O2"
_cell_formula_units_Z 56
_cell_length_a 15.409994
_cell_length_b 20.343887
_cell_length_c 8.895366
_cell_angle_alpha 90.000000
_cell_angle_beta 90.000000
_cell_angle_gamma 90.000000
_cell_volume 2788.689917
_symmetry_space_group_name_H-M "P M M M"
_symmetry_group_IT_number 47
_symmetry_cell_setting 'orthorhombic'
loop_
_space_group_symop_operation_xyz
x,y,z
-x,-y,z
x,-y,-z
-x,y,-z
-x,-y,-z
x,y,-z
-x,y,z
x,-y,z
loop_
_atom_site_type_symbol
_atom_site_label
_atom_site_fract_x
_atom_site_fract_y
_atom_site_fract_z
Si Si1 0.091991 0.897697 0.171223
Si Si2 0.276548 0.426033 0.675003
Si Si3 0.325027 0.796984 0.676961
Si Si4 0.597314 0.677772 0.826243
Si Si5 0.095041 0.630698 0.328034
Si Si6 0.279308 0.927280 0.822951
Si Si7 0.848068 0.243903 0.829624
O O1 0.180436 0.926096 0.244444
O O2 0.090675 0.819052 0.181467
O O3 0.000000 0.921812 0.246240
O O4 0.091422 0.921727 0.000000
O O5 0.294208 0.413301 0.500000
O O6 0.302755 0.500000 0.720797
O O7 0.334347 0.375237 0.766704
O O8 0.174223 0.417764 0.713432
O O9 0.335087 0.802014 0.500000
O O10 0.397446 0.747928 0.741871
O O11 0.336253 0.870888 0.743825
O O12 0.233700 0.764893 0.720605
O O13 0.500000 0.650348 0.801678
O O14 0.617561 0.690045 0.000000
O O15 0.104798 0.653882 0.500000
O O16 0.096981 0.694040 0.222170
O O17 0.000000 0.596670 0.303672
O O18 0.318762 0.000000 0.792005
O O19 0.276884 0.911020 0.000000
O O20 0.814364 0.253878 0.000000
#
# Coordination Sequence:
#
# PCOD8194316 Si02
#       7
#     8   8   8   8   8   8   8
#     4   8  14  24  40  67 102 139 184 237 287 334
#     4  10  22  40  61  87 123 165 202 239 288 347
#     4  11  21  35  58  85 115 150 190 239 295 351
#     4  11  24  42  66  94 120 149 189 240 299 360
#     4  10  20  33  52  81 117 158 203 247 292 343
#     4   9  18  32  51  77 111 153 197 240 290 348
#     4  10  18  30  50  76 108 148 195 244 296 348
#
# _framework density 20.081115
#
# number of rings (size 3 to 8) (size 9 to 14) (size 15 to 20)
#    0.000    2.143    1.429    3.429    0.000    3.429 
#    0.000    4.286    0.000    4.286    0.000    9.000 
#    0.000    0.000    0.000    0.000    0.000    0.000 
#
# Total GULP energy -693991.805244 kJ/mol
# GULP energy per Si atom -12392.710808 kJ/mol
# Density = 2.003541 g / cm^3
# Si number density = 20.081115 Si / 1000 Ang^3
#
#
#
# Elastic Constant Matrix: (Units=GPa)
#
#
# Indices 1 2 3 4 5 6 
#
# 1 89.8280 40.1429 35.4376 0.0000 0.0000 0.0000
# 2 40.1429 120.2888 55.2345 0.0000 0.0000 0.0000
# 3 35.4376 55.2345 97.0350 0.0000 0.0000 0.0000
# 4 0.0000 0.0000 0.0000 26.8500 0.0000 0.0000
# 5 0.0000 0.0000 0.0000 0.0000 20.5336 0.0000
# 6 0.0000 0.0000 0.0000 0.0000 0.0000 5.4983
#
#
#
# Elastic Compliance Matrix: (Units=1/GPa)
#
#
# Indices 1 2 3 4 5 6 
#
# 1 0.013813 -0.003105 -0.003277 0.000000 0.000000 0.000000
# 2 -0.003105 0.011953 -0.005670 0.000000 0.000000 0.000000
# 3 -0.003277 -0.005670 0.014730 0.000000 0.000000 0.000000
# 4 0.000000 0.000000 0.000000 0.037244 0.000000 0.000000
# 5 0.000000 0.000000 0.000000 0.000000 0.048701 0.000000
# 6 0.000000 0.000000 0.000000 0.000000 0.000000 0.181873
#
#
# Mechanical properties :
#
#
# Convention : Reuss Voigt Hill
#
# Bulk Modulus (GPa) = 61.00652 63.19798 62.10225
# Shear Modulus (GPa) = 14.79810 22.33217 18.56513
#
# Velocity S-wave (km/s) = 2.71757 3.33843 3.04387
# Velocity P-wave (km/s) = 6.34767 6.81174 6.58379
#
# Compressibility (1/GPa) = 0.01639169
#
# Stress axis : x y z
#
# Youngs Moduli (GPa) = 72.39700 83.66067 67.88912
#
# Poissons Ratio (x) = 0.25975 0.22248
# Poissons Ratio (y) = 0.22478 0.38493
# Poissons Ratio (z) = 0.23726 0.47436
#
# Static dielectric constant tensor:
#      x y z
#    x 3.597440 0.000000 0.000000 
#    y 0.000000 3.662630 0.000000 
#    z 0.000000 0.000000 3.426140 
# 
# 
# High freq. dielectric constant tensor:
#      x y z
#    x 1.770890 0.000000 0.000000 
#    y 0.000000 1.780660 0.000000 
#    z 0.000000 0.000000 1.759410 
# 
# From -- ./inp_files/7239.got.cif
#   From: 2010.03.12/outbox.cif.g09.slc.cpg/sg47_4_cif.got.tgz:7239.got - 2010.04.14 03:12:58.
