data_PCOD8194378
_publ_section_title
;
Structure prediction by ZEFSAII (Michael W. Deem and Ramdas Pophale) SiO2 
 PCOD8194378
Probable space group: P M M M
;
_chemical_formula_sum "Si O2"
_cell_formula_units_Z 64
_cell_length_a 9.572075
_cell_length_b 23.772892
_cell_length_c 14.323618
_cell_angle_alpha 90.000000
_cell_angle_beta 90.000000
_cell_angle_gamma 90.000000
_cell_volume 3259.423860
_symmetry_space_group_name_H-M "P M M M"
_symmetry_group_IT_number 47
_symmetry_cell_setting 'orthorhombic'
loop_
_space_group_symop_operation_xyz
x,y,z
-x,-y,z
x,-y,-z
-x,y,-z
-x,-y,-z
x,y,-z
-x,y,z
x,-y,z
loop_
_atom_site_type_symbol
_atom_site_label
_atom_site_fract_x
_atom_site_fract_y
_atom_site_fract_z
Si Si1 0.210804 0.756311 0.103468
Si Si2 0.662632 0.435677 0.260849
Si Si3 0.659191 0.642699 0.100214
Si Si4 0.838654 0.369750 0.391992
Si Si5 0.848540 0.253365 0.306052
Si Si6 0.663817 0.156778 0.390574
Si Si7 0.162180 0.121560 0.101926
Si Si8 0.161956 0.934833 0.291831
O O1 0.334357 0.710418 0.114993
O O2 0.118015 0.745000 0.195028
O O3 0.257489 0.821928 0.109349
O O4 0.138619 0.747745 0.000000
O O5 0.500000 0.423402 0.279233
O O6 0.688093 0.500000 0.231994
O O7 0.728959 0.395189 0.180740
O O8 0.746480 0.421582 0.355033
O O9 0.500000 0.624323 0.097978
O O10 0.729164 0.627396 0.000000
O O11 0.807152 0.362036 0.500000
O O12 0.789426 0.312777 0.340871
O O13 0.000000 0.383026 0.371882
O O14 0.735669 0.206431 0.332267
O O15 0.000000 0.241046 0.353964
O O16 0.686285 0.167320 0.500000
O O17 0.500000 0.153921 0.365357
O O18 0.738396 0.098640 0.362182
O O19 0.201834 0.078677 0.184095
O O20 0.000000 0.140521 0.111281
O O21 0.187097 0.092809 0.000000
O O22 0.000000 0.919228 0.311124
O O23 0.190164 0.000000 0.309825
#
# Coordination Sequence:
#
# PCOD8194378 Si02
#       8
#     8   8   8   8   8   8   8   8
#     4  10  18  30  54  87 119 148 178 221 278 338
#     4  10  21  37  58  83 110 145 193 243 285 331
#     4   9  18  33  53  80 115 152 188 228 277 336
#     4  10  22  39  58  82 112 148 188 232 289 349
#     4  11  21  37  62  89 118 149 184 230 279 335
#     4  11  25  42  60  84 114 150 190 234 289 346
#     4   9  17  31  52  82 118 149 181 224 274 329
#     4  10  21  38  61  87 113 148 196 242 282 329
#
# _framework density 19.635370999999999
#
# number of rings (size 3 to 8) (size 9 to 14) (size 15 to 20)
#    0.000    2.000    2.500    1.125    0.000    5.000 
#    0.000    5.000    0.000    0.750    0.000    1.750 
#    0.000    0.000    0.000    0.000    0.000    0.000 
#
# Total GULP energy -792888.199877 kJ/mol
# GULP energy per Si atom -12388.878123 kJ/mol
# Density = 1.959068 g / cm^3
# Si number density = 19.635371 Si / 1000 Ang^3
#
#
#
# Elastic Constant Matrix: (Units=GPa)
#
#
# Indices 1 2 3 4 5 6 
#
# 1 70.1912 46.3894 43.0445 0.0000 0.0000 0.0000
# 2 46.3894 96.6501 39.6721 0.0000 0.0000 0.0000
# 3 43.0445 39.6721 112.4864 0.0000 0.0000 0.0000
# 4 0.0000 0.0000 0.0000 24.1613 0.0000 0.0000
# 5 0.0000 0.0000 0.0000 0.0000 18.5945 0.0000
# 6 0.0000 0.0000 0.0000 0.0000 0.0000 28.4398
#
#
#
# Elastic Compliance Matrix: (Units=1/GPa)
#
#
# Indices 1 2 3 4 5 6 
#
# 1 0.023845 -0.009003 -0.005950 0.000000 0.000000 0.000000
# 2 -0.009003 0.015497 -0.002020 0.000000 0.000000 0.000000
# 3 -0.005950 -0.002020 0.011879 0.000000 0.000000 0.000000
# 4 0.000000 0.000000 0.000000 0.041388 0.000000 0.000000
# 5 0.000000 0.000000 0.000000 0.000000 0.053779 0.000000
# 6 0.000000 0.000000 0.000000 0.000000 0.000000 0.035162
#
#
# Mechanical properties :
#
#
# Convention : Reuss Voigt Hill
#
# Bulk Modulus (GPa) = 57.88472 59.72662 58.80567
# Shear Modulus (GPa) = 22.59820 24.25389 23.42605
#
# Velocity S-wave (km/s) = 3.39616 3.51837 3.45781
# Velocity P-wave (km/s) = 6.70241 6.85487 6.77907
#
# Compressibility (1/GPa) = 0.01727572
#
# Stress axis : x y z
#
# Youngs Moduli (GPa) = 41.93664 64.52789 84.18051
#
# Poissons Ratio (x) = 0.58095 0.50084
# Poissons Ratio (y) = 0.37756 0.17008
# Poissons Ratio (z) = 0.24951 0.13038
#
# Static dielectric constant tensor:
#      x y z
#    x 3.274010 0.000000 0.000000 
#    y 0.000000 3.496750 0.000000 
#    z 0.000000 0.000000 3.867160 
# 
# 
# High freq. dielectric constant tensor:
#      x y z
#    x 1.729090 0.000000 0.000000 
#    y 0.000000 1.758640 0.000000 
#    z 0.000000 0.000000 1.781620 
# 
# From -- ./inp_files/21927.got.cif
#   From: 2010.03.12/outbox.cif.g09.slc.cpg/sg47_11_cif.got.tgz:21927.got - 2010.04.14 03:12:58.
