data_PCOD8194458
_publ_section_title
;
Structure prediction by ZEFSAII (Michael W. Deem and Ramdas Pophale) SiO2 
 PCOD8194458
Probable space group: P M M M
;
_chemical_formula_sum "Si O2"
_cell_formula_units_Z 52
_cell_length_a 14.660490
_cell_length_b 7.942060
_cell_length_c 24.978759
_cell_angle_alpha 90.000000
_cell_angle_beta 90.000000
_cell_angle_gamma 90.000000
_cell_volume 2908.389095
_symmetry_space_group_name_H-M "P M M M"
_symmetry_group_IT_number 47
_symmetry_cell_setting 'orthorhombic'
loop_
_space_group_symop_operation_xyz
x,y,z
-x,-y,z
x,-y,-z
-x,y,-z
-x,-y,-z
x,y,-z
-x,y,z
x,-y,z
loop_
_atom_site_type_symbol
_atom_site_label
_atom_site_fract_x
_atom_site_fract_y
_atom_site_fract_z
Si Si1 0.278987 0.804364 0.558355
Si Si2 0.900701 0.799827 0.389479
Si Si3 0.292760 0.197759 0.758652
Si Si4 0.392565 0.192820 0.867038
Si Si5 0.608154 0.500000 0.059792
Si Si6 0.601611 0.693919 0.654723
Si Si7 0.901767 0.800223 0.731277
O O1 0.307142 0.728448 0.500000
O O2 0.182301 0.721001 0.576317
O O3 0.356200 0.780564 0.602641
O O4 0.262117 0.000000 0.551647
O O5 0.890650 0.732487 0.328994
O O6 0.000000 0.744147 0.412665
O O7 0.893826 0.000000 0.388854
O O8 0.344706 0.249125 0.812339
O O9 0.339398 0.282448 0.707868
O O10 0.187289 0.260923 0.764378
O O11 0.297398 0.000000 0.748637
O O12 0.500000 0.206495 0.857584
O O13 0.359090 0.327402 0.911366
O O14 0.366232 0.000000 0.883750
O O15 0.500000 0.500000 0.057374
O O16 0.649698 0.500000 0.000000
O O17 0.500000 0.768470 0.664035
O O18 0.596161 0.500000 0.640864
O O19 0.000000 0.734385 0.754865
O O20 0.904124 0.000000 0.731231
#
# Coordination Sequence:
#
# PCOD8194458 Si02
#       7
#     8   8   8   8   4   8   8
#     4  10  20  34  52  71  88 111 150 197 240 288
#     4   8  13  24  44  70  95 114 139 181 232 286
#     4  10  18  31  52  75 100 127 158 200 245 288
#     4   9  18  30  46  73 105 138 177 216 252 293
#     4   9  18  32  50  72 103 145 182 214 254 293
#     4  11  24  37  49  66  88 121 159 194 242 299
#     4   8  13  23  44  72  98 123 150 185 235 294
#
# _framework density 17.879313
#
# number of rings (size 3 to 8) (size 9 to 14) (size 15 to 20)
#    0.000    2.692    1.538    1.846    1.077    3.077 
#    0.000    4.615    0.000    1.846    0.000    1.077 
#    0.000    1.231    0.000    6.000    0.000    0.154 
#
# Total GULP energy -644258.968934 kJ/mol
# GULP energy per Si atom -12389.595556 kJ/mol
# Density = 1.783862 g / cm^3
# Si number density = 17.879313 Si / 1000 Ang^3
#
#
#
# Elastic Constant Matrix: (Units=GPa)
#
#
# Indices 1 2 3 4 5 6 
#
# 1 112.3059 16.9406 46.9836 0.0000 0.0000 0.0000
# 2 16.9406 44.5042 34.5198 0.0000 0.0000 0.0000
# 3 46.9836 34.5198 115.1414 0.0000 0.0000 0.0000
# 4 0.0000 0.0000 0.0000 13.7027 0.0000 0.0000
# 5 0.0000 0.0000 0.0000 0.0000 13.7952 0.0000
# 6 0.0000 0.0000 0.0000 0.0000 0.0000 0.6767
#
#
#
# Elastic Compliance Matrix: (Units=1/GPa)
#
#
# Indices 1 2 3 4 5 6 
#
# 1 0.010765 -0.000900 -0.004123 0.000000 0.000000 0.000000
# 2 -0.000900 0.029353 -0.008433 0.000000 0.000000 0.000000
# 3 -0.004123 -0.008433 0.012896 0.000000 0.000000 0.000000
# 4 0.000000 0.000000 0.000000 0.072979 0.000000 0.000000
# 5 0.000000 0.000000 0.000000 0.000000 0.072489 0.000000
# 6 0.000000 0.000000 0.000000 0.000000 0.000000 1.477716
#
#
# Mechanical properties :
#
#
# Convention : Reuss Voigt Hill
#
# Bulk Modulus (GPa) = 38.31064 52.09327 45.20195
# Shear Modulus (GPa) = 2.92089 17.20209 10.06149
#
# Velocity S-wave (km/s) = 1.27954 3.10518 2.37480
# Velocity P-wave (km/s) = 4.86383 6.48502 5.73203
#
# Compressibility (1/GPa) = 0.02610241
#
# Stress axis : x y z
#
# Youngs Moduli (GPa) = 92.89556 34.06756 77.54592
#
# Poissons Ratio (x) = 0.03065 0.31971
# Poissons Ratio (y) = 0.08358 0.65395
# Poissons Ratio (z) = 0.38299 0.28730
#
# Static dielectric constant tensor:
#      x y z
#    x 3.740330 0.000000 0.000000 
#    y 0.000000 3.090930 0.000000 
#    z 0.000000 0.000000 3.250470 
# 
# 
# High freq. dielectric constant tensor:
#      x y z
#    x 1.691500 0.000000 0.000000 
#    y 0.000000 1.671700 0.000000 
#    z 0.000000 0.000000 1.657870 
# 
# From -- ./inp_files/32637.got.cif
#   From: 2010.03.12/outbox.cif.g09.slc.cpg/sg47_17_cif.got.tgz:32637.got - 2010.04.14 03:12:58.
