data_PCOD8194919
_publ_section_title
;
Structure prediction by ZEFSAII (Michael W. Deem and Ramdas Pophale) SiO2 
 PCOD8194919
Probable space group: P M M M
;
_chemical_formula_sum "Si O2"
_cell_formula_units_Z 52
_cell_length_a 26.352746
_cell_length_b 8.866674
_cell_length_c 13.680138
_cell_angle_alpha 90.000000
_cell_angle_beta 90.000000
_cell_angle_gamma 90.000000
_cell_volume 3196.517568
_symmetry_space_group_name_H-M "P M M M"
_symmetry_group_IT_number 47
_symmetry_cell_setting 'orthorhombic'
loop_
_space_group_symop_operation_xyz
x,y,z
-x,-y,z
x,-y,-z
-x,y,-z
-x,-y,-z
x,y,-z
-x,y,z
x,-y,z
loop_
_atom_site_type_symbol
_atom_site_label
_atom_site_fract_x
_atom_site_fract_y
_atom_site_fract_z
Si Si1 0.500000 0.330219 0.616063
Si Si2 0.204427 0.174011 0.612243
Si Si3 0.756090 0.678005 0.892869
Si Si4 0.853654 0.677565 0.777231
Si Si5 0.058340 0.825773 0.888238
Si Si6 0.602596 0.177723 0.612821
Si Si7 0.300175 0.321327 0.296630
O O1 0.500000 0.500000 0.657494
O O2 0.500000 0.329209 0.500000
O O3 0.549937 0.244398 0.653824
O O4 0.188969 0.193842 0.500000
O O5 0.157905 0.240593 0.674820
O O6 0.256386 0.263746 0.631377
O O7 0.213564 0.000000 0.639427
O O8 0.756197 0.500000 0.902118
O O9 0.811283 0.730822 0.855361
O O10 0.713342 0.727156 0.814797
O O11 0.745397 0.750531 0.000000
O O12 0.851600 0.500000 0.759015
O O13 0.908559 0.724001 0.816246
O O14 0.000000 0.797776 0.860351
O O15 0.072819 0.000000 0.873881
O O16 0.068190 0.776700 0.000000
O O17 0.611440 0.223659 0.500000
O O18 0.646892 0.245687 0.678029
O O19 0.601127 0.000000 0.625510
O O20 0.304484 0.500000 0.308440
#
# Coordination Sequence:
#
# PCOD8194919 Si02
#       7
#     4   8   8   8   8   8   8
#     4   9  17  29  45  65  88 115 150 191 229 266
#     4  10  20  33  48  66  91 124 158 190 228 276
#     4   8  15  28  44  64  91 119 147 181 222 267
#     4  10  19  30  48  72  95 121 153 191 233 275
#     4   9  18  32  49  70  97 127 156 187 226 273
#     4  10  19  30  44  63  91 125 155 184 223 272
#     4  10  19  29  45  69  93 120 154 191 229 267
#
# _framework density 16.267703000000001
#
# number of rings (size 3 to 8) (size 9 to 14) (size 15 to 20)
#    0.000    2.538    0.000    4.385    0.000    6.154 
#    0.000    0.769    0.000    9.692    0.000    3.769 
#    0.000    4.308    0.000    0.000    0.000    0.000 
#
# Total GULP energy -644769.334527 kJ/mol
# GULP energy per Si atom -12399.410279 kJ/mol
# Density = 1.623068 g / cm^3
# Si number density = 16.267703 Si / 1000 Ang^3
#
#
#
# Elastic Constant Matrix: (Units=GPa)
#
#
# Indices 1 2 3 4 5 6 
#
# 1 110.4260 37.6242 52.0844 0.0000 0.0000 0.0000
# 2 37.6242 65.1497 37.8808 0.0000 0.0000 0.0000
# 3 52.0844 37.8808 97.8188 0.0000 0.0000 0.0000
# 4 0.0000 0.0000 0.0000 20.1082 0.0000 0.0000
# 5 0.0000 0.0000 0.0000 0.0000 24.5635 0.0000
# 6 0.0000 0.0000 0.0000 0.0000 0.0000 32.6089
#
#
#
# Elastic Compliance Matrix: (Units=1/GPa)
#
#
# Indices 1 2 3 4 5 6 
#
# 1 0.013045 -0.004510 -0.005199 0.000000 0.000000 0.000000
# 2 -0.004510 0.021369 -0.005874 0.000000 0.000000 0.000000
# 3 -0.005199 -0.005874 0.015266 0.000000 0.000000 0.000000
# 4 0.000000 0.000000 0.000000 0.049731 0.000000 0.000000
# 5 0.000000 0.000000 0.000000 0.000000 0.040711 0.000000
# 6 0.000000 0.000000 0.000000 0.000000 0.000000 0.030666
#
#
# Mechanical properties :
#
#
# Convention : Reuss Voigt Hill
#
# Bulk Modulus (GPa) = 54.01479 58.73036 56.37258
# Shear Modulus (GPa) = 24.02385 25.17644 24.60015
#
# Velocity S-wave (km/s) = 3.84706 3.93827 3.89293
# Velocity P-wave (km/s) = 7.28072 7.54060 7.41180
#
# Compressibility (1/GPa) = 0.01851345
#
# Stress axis : x y z
#
# Youngs Moduli (GPa) = 76.65816 46.79603 65.50525
#
# Poissons Ratio (x) = 0.21107 0.34057
# Poissons Ratio (y) = 0.34576 0.38476
# Poissons Ratio (z) = 0.39856 0.27487
#
# Static dielectric constant tensor:
#      x y z
#    x 3.034380 0.000000 0.000000 
#    y 0.000000 3.077530 0.000000 
#    z 0.000000 0.000000 3.123860 
# 
# 
# High freq. dielectric constant tensor:
#      x y z
#    x 1.618810 0.000000 0.000000 
#    y 0.000000 1.629790 0.000000 
#    z 0.000000 0.000000 1.605640 
# 
# From -- ./inp_files/21753.got.cif
#   From: 2010.03.12/outbox.cif.g09.slc.cpg/sg47_11_cif.got.tgz:21753.got - 2010.04.14 03:12:58.
