data_PCOD8194430
_publ_section_title
;
Structure prediction by ZEFSAII (Michael W. Deem and Ramdas Pophale) SiO2 
 PCOD8194430
Probable space group: P M M M
;
_chemical_formula_sum "Si O2"
_cell_formula_units_Z 48
_cell_length_a 14.075594
_cell_length_b 9.343930
_cell_length_c 20.656035
_cell_angle_alpha 90.000000
_cell_angle_beta 90.000000
_cell_angle_gamma 90.000000
_cell_volume 2716.709920
_symmetry_space_group_name_H-M "P M M M"
_symmetry_group_IT_number 47
_symmetry_cell_setting 'orthorhombic'
loop_
_space_group_symop_operation_xyz
x,y,z
-x,-y,z
x,-y,-z
-x,y,-z
-x,-y,-z
x,y,-z
-x,y,z
x,-y,z
loop_
_atom_site_type_symbol
_atom_site_label
_atom_site_fract_x
_atom_site_fract_y
_atom_site_fract_z
Si Si1 0.110174 0.663562 0.752611
Si Si2 0.778981 0.331240 0.624384
Si Si3 0.107342 0.170072 0.000000
Si Si4 0.396962 0.830289 0.184755
Si Si5 0.799426 0.170254 0.868056
Si Si6 0.106570 0.329783 0.500000
Si Si7 0.391988 0.834512 0.668714
O O1 0.135453 0.500000 0.770277
O O2 0.166849 0.714866 0.689527
O O3 0.135641 0.763366 0.812654
O O4 0.000000 0.680555 0.736195
O O5 0.764019 0.500000 0.620282
O O6 0.839060 0.274173 0.563568
O O7 0.676198 0.256567 0.622388
O O8 0.162946 0.226583 0.063024
O O9 0.000000 0.231143 0.000000
O O10 0.104905 0.000000 0.000000
O O11 0.500000 0.772422 0.159326
O O12 0.310301 0.777777 0.139505
O O13 0.379848 0.776592 0.257876
O O14 0.400984 0.000000 0.185978
O O15 0.807719 0.000000 0.862385
O O16 0.101877 0.500000 0.500000
O O17 0.000000 0.266386 0.500000
O O18 0.500000 0.812040 0.645240
O O19 0.362712 0.000000 0.664453
#
# Coordination Sequence:
#
# PCOD8194430 Si02
#       7
#     8   8   4   8   8   4   8
#     4  10  20  32  47  71 100 124 155 204 250 286
#     4  10  19  32  52  76  99 126 165 207 244 287
#     4   9  18  30  44  68 100 129 161 203 246 285
#     4   8  14  26  46  71  96 122 155 196 241 286
#     4  10  18  31  51  71  94 128 166 200 239 289
#     4   9  18  34  54  73  98 136 171 199 246 303
#     4   9  17  31  51  74 101 131 160 197 249 300
#
# _framework density 17.668430000000001
#
# number of rings (size 3 to 8) (size 9 to 14) (size 15 to 20)
#    0.000    2.667    1.667    2.000    0.000    3.333 
#    0.000    1.667    0.000    9.000    0.000    0.000 
#    0.000    1.333    0.000    0.000    0.000    0.000 
#
# Total GULP energy -595083.344800 kJ/mol
# GULP energy per Si atom -12397.569683 kJ/mol
# Density = 1.762822 g / cm^3
# Si number density = 17.668430 Si / 1000 Ang^3
#
#
#
# Elastic Constant Matrix: (Units=GPa)
#
#
# Indices 1 2 3 4 5 6 
#
# 1 146.1091 30.2180 66.9699 0.0000 0.0000 0.0000
# 2 30.2180 26.7283 28.9068 0.0000 0.0000 0.0000
# 3 66.9699 28.9068 120.8868 0.0000 0.0000 0.0000
# 4 0.0000 0.0000 0.0000 18.0385 0.0000 0.0000
# 5 0.0000 0.0000 0.0000 0.0000 34.2504 0.0000
# 6 0.0000 0.0000 0.0000 0.0000 0.0000 25.3785
#
#
#
# Elastic Compliance Matrix: (Units=1/GPa)
#
#
# Indices 1 2 3 4 5 6 
#
# 1 0.010119 -0.007253 -0.003871 0.000000 0.000000 0.000000
# 2 -0.007253 0.055663 -0.009292 0.000000 0.000000 0.000000
# 3 -0.003871 -0.009292 0.012639 0.000000 0.000000 0.000000
# 4 0.000000 0.000000 0.000000 0.055437 0.000000 0.000000
# 5 0.000000 0.000000 0.000000 0.000000 0.029197 0.000000
# 6 0.000000 0.000000 0.000000 0.000000 0.000000 0.039403
#
#
# Mechanical properties :
#
#
# Convention : Reuss Voigt Hill
#
# Bulk Modulus (GPa) = 26.60457 60.65707 43.63082
# Shear Modulus (GPa) = 19.54502 26.70879 23.12690
#
# Velocity S-wave (km/s) = 3.32958 3.89223 3.62185
# Velocity P-wave (km/s) = 5.46552 7.38949 6.49910
#
# Compressibility (1/GPa) = 0.03758753
#
# Stress axis : x y z
#
# Youngs Moduli (GPa) = 98.82735 17.96525 79.12121
#
# Poissons Ratio (x) = 0.13030 0.30630
# Poissons Ratio (y) = 0.71679 0.73522
# Poissons Ratio (z) = 0.38259 0.16694
#
# Static dielectric constant tensor:
#      x y z
#    x 3.644800 0.000000 0.000000 
#    y 0.000000 2.873160 0.000000 
#    z 0.000000 0.000000 3.251540 
# 
# 
# High freq. dielectric constant tensor:
#      x y z
#    x 1.702200 0.000000 0.000000 
#    y 0.000000 1.641050 0.000000 
#    z 0.000000 0.000000 1.668840 
# 
# From -- ./inp_files/26568.got.cif
#   From: 2010.03.12/outbox.cif.g09.slc.cpg/sg47_14_cif.got.tgz:26568.got - 2010.04.14 03:12:58.
