data_PCOD8194676
_publ_section_title
;
Structure prediction by ZEFSAII (Michael W. Deem and Ramdas Pophale) SiO2 
 PCOD8194676
Probable space group: P M M M
;
_chemical_formula_sum "Si O2"
_cell_formula_units_Z 52
_cell_length_a 9.203164
_cell_length_b 26.817083
_cell_length_c 13.586510
_cell_angle_alpha 90.000000
_cell_angle_beta 90.000000
_cell_angle_gamma 90.000000
_cell_volume 3353.178016
_symmetry_space_group_name_H-M "P M M M"
_symmetry_group_IT_number 47
_symmetry_cell_setting 'orthorhombic'
loop_
_space_group_symop_operation_xyz
x,y,z
-x,-y,z
x,-y,-z
-x,y,-z
-x,-y,-z
x,y,-z
-x,y,z
x,-y,z
loop_
_atom_site_type_symbol
_atom_site_label
_atom_site_fract_x
_atom_site_fract_y
_atom_site_fract_z
Si Si1 0.672448 0.500000 0.392308
Si Si2 0.834117 0.883059 0.609869
Si Si3 0.332536 0.856311 0.889891
Si Si4 0.671105 0.795469 0.297970
Si Si5 0.169847 0.944125 0.203083
Si Si6 0.662603 0.393375 0.617221
Si Si7 0.170289 0.296528 0.614721
O O1 0.500000 0.500000 0.403958
O O2 0.746379 0.500000 0.500000
O O3 0.715580 0.552477 0.338630
O O4 0.810795 0.904064 0.500000
O O5 0.728960 0.836146 0.624974
O O6 0.795643 0.927234 0.685191
O O7 0.000000 0.864688 0.625409
O O8 0.500000 0.870027 0.874679
O O9 0.287281 0.813385 0.812572
O O10 0.245323 0.907324 0.873724
O O11 0.300871 0.836404 0.000000
O O12 0.500000 0.788683 0.312629
O O13 0.749294 0.743487 0.317708
O O14 0.000000 0.942637 0.181059
O O15 0.231062 0.000000 0.189249
O O16 0.660119 0.398422 0.500000
O O17 0.500000 0.380028 0.654919
O O18 0.773693 0.350537 0.650408
O O19 0.208051 0.287255 0.500000
O O20 0.000000 0.293303 0.634060
#
# Coordination Sequence:
#
# PCOD8194676 Si02
#       7
#     4   8   8   8   8   8   8
#     4   7  10  18  33  51  71  99 138 181 214 235
#     4   9  17  29  44  61  83 111 138 163 194 231
#     4   9  19  35  51  65  81 102 129 162 203 249
#     4  10  19  30  45  62  79 102 133 168 204 243
#     4   9  18  31  46  66  89 109 132 162 193 230
#     4   8  13  22  36  53  74 104 143 180 209 237
#     4  10  19  28  38  56  84 114 141 170 204 239
#
# _framework density 15.507675000000001
#
# number of rings (size 3 to 8) (size 9 to 14) (size 15 to 20)
#    0.000    3.000    0.000    2.308    0.000    4.923 
#    0.000    3.462    0.000    2.308    0.000    4.308 
#    0.000    0.000    0.000    0.692    0.000   15.923 
#
# Total GULP energy -644475.226887 kJ/mol
# GULP energy per Si atom -12393.754363 kJ/mol
# Density = 1.547238 g / cm^3
# Si number density = 15.507675 Si / 1000 Ang^3
#
#
#
# Elastic Constant Matrix: (Units=GPa)
#
#
# Indices 1 2 3 4 5 6 
#
# 1 60.1325 50.9198 24.3438 0.0000 0.0000 0.0000
# 2 50.9198 132.6550 33.7053 0.0000 0.0000 0.0000
# 3 24.3438 33.7053 63.0567 0.0000 0.0000 0.0000
# 4 0.0000 0.0000 0.0000 11.1101 0.0000 0.0000
# 5 0.0000 0.0000 0.0000 0.0000 16.5835 0.0000
# 6 0.0000 0.0000 0.0000 0.0000 0.0000 23.7206
#
#
#
# Elastic Compliance Matrix: (Units=1/GPa)
#
#
# Indices 1 2 3 4 5 6 
#
# 1 0.026178 -0.008656 -0.005479 0.000000 0.000000 0.000000
# 2 -0.008656 0.011585 -0.002851 0.000000 0.000000 0.000000
# 3 -0.005479 -0.002851 0.019498 0.000000 0.000000 0.000000
# 4 0.000000 0.000000 0.000000 0.090008 0.000000 0.000000
# 5 0.000000 0.000000 0.000000 0.000000 0.060301 0.000000
# 6 0.000000 0.000000 0.000000 0.000000 0.000000 0.042157
#
#
# Mechanical properties :
#
#
# Convention : Reuss Voigt Hill
#
# Bulk Modulus (GPa) = 42.93952 52.64243 47.79098
# Shear Modulus (GPa) = 17.15478 20.07454 18.61466
#
# Velocity S-wave (km/s) = 3.32958 3.60181 3.46837
# Velocity P-wave (km/s) = 6.52157 7.16359 6.85011
#
# Compressibility (1/GPa) = 0.02328857
#
# Stress axis : x y z
#
# Youngs Moduli (GPa) = 38.19945 86.31510 51.28735
#
# Poissons Ratio (x) = 0.74718 0.28103
# Poissons Ratio (y) = 0.33067 0.14621
# Poissons Ratio (z) = 0.20931 0.24607
#
# Static dielectric constant tensor:
#      x y z
#    x 2.946320 0.000000 0.000000 
#    y 0.000000 3.200230 0.000000 
#    z 0.000000 0.000000 2.728040 
# 
# 
# High freq. dielectric constant tensor:
#      x y z
#    x 1.592600 0.000000 0.000000 
#    y 0.000000 1.596250 0.000000 
#    z 0.000000 0.000000 1.550800 
# 
# From -- ./inp_files/22024.got.cif
#   From: 2010.03.12/outbox.cif.g09.slc.cpg/sg47_12_cif.got.tgz:22024.got - 2010.04.14 03:12:58.
