data_PCOD8194099
_publ_section_title
;
Structure prediction by ZEFSAII (Michael W. Deem and Ramdas Pophale) SiO2 
 PCOD8194099
Probable space group: P M M M
;
_chemical_formula_sum "Si O2"
_cell_formula_units_Z 60
_cell_length_a 17.863974
_cell_length_b 18.841121
_cell_length_c 10.344951
_cell_angle_alpha 90.000000
_cell_angle_beta 90.000000
_cell_angle_gamma 90.000000
_cell_volume 3481.875631
_symmetry_space_group_name_H-M "P M M M"
_symmetry_group_IT_number 47
_symmetry_cell_setting 'orthorhombic'
loop_
_space_group_symop_operation_xyz
x,y,z
-x,-y,z
x,-y,-z
-x,y,-z
-x,-y,-z
x,y,-z
-x,y,z
x,-y,z
loop_
_atom_site_type_symbol
_atom_site_label
_atom_site_fract_x
_atom_site_fract_y
_atom_site_fract_z
Si Si1 0.772743 0.329939 0.856889
Si Si2 0.694735 0.417449 0.349088
Si Si3 0.916204 0.000000 0.651550
Si Si4 0.152247 0.146825 0.351108
Si Si5 0.419597 0.304114 0.352877
Si Si6 0.915911 0.751371 0.856082
Si Si7 0.306913 0.196144 0.745979
Si Si8 0.417046 0.920988 0.848154
O O1 0.759302 0.387750 0.744565
O O2 0.861114 0.315804 0.846373
O O3 0.727755 0.255381 0.841623
O O4 0.752323 0.359736 0.000000
O O5 0.714694 0.401581 0.500000
O O6 0.681762 0.500000 0.325162
O O7 0.620791 0.375486 0.301938
O O8 0.867200 0.932592 0.693833
O O9 0.927338 0.000000 0.500000
O O10 0.000000 0.000000 0.714952
O O11 0.129152 0.161082 0.500000
O O12 0.102580 0.194312 0.257338
O O13 0.240676 0.161556 0.337791
O O14 0.437506 0.317060 0.500000
O O15 0.500000 0.294517 0.279875
O O16 0.367388 0.235344 0.343129
O O17 0.000000 0.723391 0.835920
O O18 0.906918 0.786413 0.000000
O O19 0.350968 0.133389 0.816067
O O20 0.500000 0.897591 0.795364
O O21 0.397877 0.000000 0.793281
O O22 0.422032 0.925272 0.000000
#
# Coordination Sequence:
#
# PCOD8194099 Si02
#       8
#     8   8   4   8   8   8   8   8
#     4   9  18  31  49  74  99 126 160 195 240 294
#     4   9  18  32  50  73 100 129 161 198 237 281
#     4   9  18  32  47  65  92 125 162 204 249 299
#     4  10  20  32  49  71  96 129 168 207 251 306
#     4   9  17  29  46  69  95 124 159 199 242 288
#     4   9  18  33  52  74 101 128 159 204 250 292
#     4  10  18  29  48  68  96 125 163 207 252 295
#     4   9  18  31  46  65  90 124 168 214 257 301
#
# _framework density 17.232092000000002
#
# number of rings (size 3 to 8) (size 9 to 14) (size 15 to 20)
#    0.000    2.733    0.000    2.000    0.933    5.067 
#    0.000    1.667    0.000    5.200    0.000    9.333 
#    0.000    0.000    0.000    0.000    0.000    0.000 
#
# Total GULP energy -743338.610260 kJ/mol
# GULP energy per Si atom -12388.976838 kJ/mol
# Density = 1.719287 g / cm^3
# Si number density = 17.232092 Si / 1000 Ang^3
#
#
#
# Elastic Constant Matrix: (Units=GPa)
#
#
# Indices 1 2 3 4 5 6 
#
# 1 129.1221 55.3185 36.1384 0.0000 0.0000 0.0000
# 2 55.3185 98.1554 31.0138 0.0000 0.0000 0.0000
# 3 36.1384 31.0138 69.0622 0.0000 0.0000 0.0000
# 4 0.0000 0.0000 0.0000 24.1182 0.0000 0.0000
# 5 0.0000 0.0000 0.0000 0.0000 20.1719 0.0000
# 6 0.0000 0.0000 0.0000 0.0000 0.0000 2.3999
#
#
#
# Elastic Compliance Matrix: (Units=1/GPa)
#
#
# Indices 1 2 3 4 5 6 
#
# 1 0.010861 -0.005041 -0.003420 0.000000 0.000000 0.000000
# 2 -0.005041 0.014212 -0.003744 0.000000 0.000000 0.000000
# 3 -0.003420 -0.003744 0.017951 0.000000 0.000000 0.000000
# 4 0.000000 0.000000 0.000000 0.041463 0.000000 0.000000
# 5 0.000000 0.000000 0.000000 0.000000 0.049574 0.000000
# 6 0.000000 0.000000 0.000000 0.000000 0.000000 0.416692
#
#
# Mechanical properties :
#
#
# Convention : Reuss Voigt Hill
#
# Bulk Modulus (GPa) = 53.72309 60.14234 56.93272
# Shear Modulus (GPa) = 8.60042 20.92924 14.76483
#
# Velocity S-wave (km/s) = 2.23646 3.48882 2.93033
# Velocity P-wave (km/s) = 6.15734 7.15586 6.67530
#
# Compressibility (1/GPa) = 0.01861397
#
# Stress axis : x y z
#
# Youngs Moduli (GPa) = 92.07043 70.36369 55.70803
#
# Poissons Ratio (x) = 0.35468 0.19051
# Poissons Ratio (y) = 0.46409 0.20860
# Poissons Ratio (z) = 0.31486 0.26348
#
# Static dielectric constant tensor:
#      x y z
#    x 3.770540 0.000000 0.000000 
#    y 0.000000 3.151430 0.000000 
#    z 0.000000 0.000000 3.114290 
# 
# 
# High freq. dielectric constant tensor:
#      x y z
#    x 1.674370 0.000000 0.000000 
#    y 0.000000 1.649090 0.000000 
#    z 0.000000 0.000000 1.650300 
# 
# From -- ./inp_files/18765.got.cif
#   From: 2010.03.12/outbox.cif.g09.slc.cpg/sg47_10_cif.got.tgz:18765.got - 2010.04.14 03:12:58.
