data_PCOD8194779
_publ_section_title
;
Structure prediction by ZEFSAII (Michael W. Deem and Ramdas Pophale) SiO2 
 PCOD8194779
Probable space group: P M M M
;
_chemical_formula_sum "Si O2"
_cell_formula_units_Z 48
_cell_length_a 19.510591
_cell_length_b 20.680359
_cell_length_c 8.938494
_cell_angle_alpha 90.000000
_cell_angle_beta 90.000000
_cell_angle_gamma 90.000000
_cell_volume 3606.557424
_symmetry_space_group_name_H-M "P M M M"
_symmetry_group_IT_number 47
_symmetry_cell_setting 'orthorhombic'
loop_
_space_group_symop_operation_xyz
x,y,z
-x,-y,z
x,-y,-z
-x,y,-z
-x,-y,-z
x,y,-z
-x,y,z
x,-y,z
loop_
_atom_site_type_symbol
_atom_site_label
_atom_site_fract_x
_atom_site_fract_y
_atom_site_fract_z
Si Si1 0.575088 0.923290 0.331889
Si Si2 0.081326 0.627453 0.331847
Si Si3 0.920474 0.241466 0.175834
Si Si4 0.076696 0.000000 0.322160
Si Si5 0.709961 0.924522 0.825815
Si Si6 0.081832 0.500000 0.169069
Si Si7 0.158246 0.124583 0.322321
O O1 0.590798 0.898849 0.500000
O O2 0.500000 0.897304 0.279501
O O3 0.634631 0.898795 0.221092
O O4 0.573354 0.000000 0.329872
O O5 0.110895 0.632316 0.500000
O O6 0.104607 0.689432 0.236868
O O7 0.110863 0.563258 0.253016
O O8 0.000000 0.623244 0.336201
O O9 0.874974 0.188338 0.256077
O O10 0.000000 0.229188 0.215707
O O11 0.907697 0.239306 0.000000
O O12 0.115197 0.063343 0.262168
O O13 0.075371 0.000000 0.500000
O O14 0.000000 0.000000 0.256214
O O15 0.764351 0.882469 0.734202
O O16 0.718845 0.000000 0.784322
O O17 0.720576 0.912096 0.000000
O O18 0.000000 0.500000 0.169591
O O19 0.109733 0.500000 0.000000
O O20 0.157460 0.128862 0.500000
#
# Coordination Sequence:
#
# PCOD8194779 Si02
#       7
#     8   8   8   4   8   4   8
#     4   8  14  25  41  59  77  96 118 143 174 217
#     4   9  16  26  40  57  75  96 122 150 181 223
#     4  10  20  32  43  56  75  97 122 157 201 242
#     4   9  18  30  43  57  68  83 116 161 203 240
#     4  10  19  29  41  57  78  98 119 150 189 232
#     4   9  15  23  37  57  79  99 117 143 182 223
#     4  11  20  31  45  57  72  95 125 161 197 237
#
# _framework density 13.309091
#
# number of rings (size 3 to 8) (size 9 to 14) (size 15 to 20)
#    0.000    2.500    0.833    3.250    0.000    5.667 
#    0.000    1.667    0.000    2.000    0.000    0.000 
#    0.000    0.000    0.000    0.000    0.000    0.000 
#
# Total GULP energy -595117.172680 kJ/mol
# GULP energy per Si atom -12398.274431 kJ/mol
# Density = 1.327880 g / cm^3
# Si number density = 13.309091 Si / 1000 Ang^3
#
#
#
# Elastic Constant Matrix: (Units=GPa)
#
#
# Indices 1 2 3 4 5 6 
#
# 1 73.0998 37.6583 35.4728 0.0000 0.0000 0.0000
# 2 37.6583 87.2852 40.2872 0.0000 0.0000 0.0000
# 3 35.4728 40.2872 80.9227 0.0000 0.0000 0.0000
# 4 0.0000 0.0000 0.0000 22.1501 0.0000 0.0000
# 5 0.0000 0.0000 0.0000 0.0000 18.3249 0.0000
# 6 0.0000 0.0000 0.0000 0.0000 0.0000 1.8203
#
#
#
# Elastic Compliance Matrix: (Units=1/GPa)
#
#
# Indices 1 2 3 4 5 6 
#
# 1 0.019379 -0.005765 -0.005625 0.000000 0.000000 0.000000
# 2 -0.005765 0.016590 -0.005732 0.000000 0.000000 0.000000
# 3 -0.005625 -0.005732 0.017677 0.000000 0.000000 0.000000
# 4 0.000000 0.000000 0.000000 0.045147 0.000000 0.000000
# 5 0.000000 0.000000 0.000000 0.000000 0.054571 0.000000
# 6 0.000000 0.000000 0.000000 0.000000 0.000000 0.549363
#
#
# Mechanical properties :
#
#
# Convention : Reuss Voigt Hill
#
# Bulk Modulus (GPa) = 51.54081 52.01602 51.77841
# Shear Modulus (GPa) = 6.72552 16.98502 11.85527
#
# Velocity S-wave (km/s) = 2.25040 3.57627 2.98781
# Velocity P-wave (km/s) = 6.75000 7.49805 7.13384
#
# Compressibility (1/GPa) = 0.01940210
#
# Stress axis : x y z
#
# Youngs Moduli (GPa) = 51.60135 60.27902 56.57084
#
# Poissons Ratio (x) = 0.34749 0.31821
# Poissons Ratio (y) = 0.29747 0.32427
# Poissons Ratio (z) = 0.29026 0.34552
#
# Static dielectric constant tensor:
#      x y z
#    x 2.603170 0.000000 0.000000 
#    y 0.000000 2.542200 0.000000 
#    z 0.000000 0.000000 2.741330 
# 
# 
# High freq. dielectric constant tensor:
#      x y z
#    x 1.472750 0.000000 0.000000 
#    y 0.000000 1.478150 0.000000 
#    z 0.000000 0.000000 1.519120 
# 
# From -- ./inp_files/9722.got.cif
#   From: 2010.03.12/outbox.cif.g09.slc.cpg/sg47_5_cif.got.tgz:9722.got - 2010.04.14 03:12:58.
