data_PCOD8194827
_publ_section_title
;
Structure prediction by ZEFSAII (Michael W. Deem and Ramdas Pophale) SiO2 
 PCOD8194827
Probable space group: P M M M
;
_chemical_formula_sum "Si O2"
_cell_formula_units_Z 56
_cell_length_a 29.062018
_cell_length_b 9.173785
_cell_length_c 13.689749
_cell_angle_alpha 90.000000
_cell_angle_beta 90.000000
_cell_angle_gamma 90.000000
_cell_volume 3649.806250
_symmetry_space_group_name_H-M "P M M M"
_symmetry_group_IT_number 47
_symmetry_cell_setting 'orthorhombic'
loop_
_space_group_symop_operation_xyz
x,y,z
-x,-y,z
x,-y,-z
-x,y,-z
-x,-y,-z
x,y,-z
-x,y,z
x,-y,z
loop_
_atom_site_type_symbol
_atom_site_label
_atom_site_fract_x
_atom_site_fract_y
_atom_site_fract_z
Si Si1 0.148226 0.326134 0.387490
Si Si2 0.951373 0.337080 0.615814
Si Si3 0.447054 0.167441 0.888247
Si Si4 0.630163 0.329876 0.222651
Si Si5 0.678062 0.830339 0.388345
Si Si6 0.277555 0.669519 0.112564
Si Si7 0.229296 0.170844 0.721535
O O1 0.157693 0.282533 0.500000
O O2 0.151473 0.500000 0.375140
O O3 0.097481 0.266886 0.352065
O O4 0.184030 0.247399 0.318174
O O5 0.949727 0.345291 0.500000
O O6 0.953139 0.500000 0.658506
O O7 0.000000 0.257500 0.648467
O O8 0.500000 0.189321 0.858712
O O9 0.417224 0.267853 0.818145
O O10 0.432313 0.000000 0.874376
O O11 0.439242 0.215576 0.000000
O O12 0.624222 0.500000 0.238882
O O13 0.640525 0.258556 0.327326
O O14 0.670870 0.292427 0.146940
O O15 0.673999 0.780657 0.500000
O O16 0.729332 0.792984 0.352378
O O17 0.667440 0.000000 0.374711
O O18 0.266825 0.500000 0.130330
O O19 0.240772 0.764522 0.172086
O O20 0.273041 0.713400 0.000000
O O21 0.220301 0.000000 0.731415
#
# Coordination Sequence:
#
# PCOD8194827 Si02
#       7
#     8   8   8   8   8   8   8
#     4   9  16  25  39  59  83 113 146 178 213 251
#     4   7  10  18  33  53  76 103 138 177 211 244
#     4   9  18  32  49  69  93 120 147 173 204 248
#     4  10  19  30  47  71  94 114 139 174 216 256
#     4   9  18  32  47  62  84 117 153 182 208 244
#     4   9  18  32  47  63  86 114 142 173 209 251
#     4  10  19  29  42  62  87 113 143 178 213 251
#
# _framework density 15.34328
#
# number of rings (size 3 to 8) (size 9 to 14) (size 15 to 20)
#    0.000    3.000    0.000    3.429    0.000    3.714 
#    0.000    0.714    0.000    0.857    0.000    5.000 
#    0.000    0.571    0.000    6.571    0.000    2.143 
#
# Total GULP energy -694028.716030 kJ/mol
# GULP energy per Si atom -12393.369929 kJ/mol
# Density = 1.530836 g / cm^3
# Si number density = 15.343280 Si / 1000 Ang^3
#
#
#
# Elastic Constant Matrix: (Units=GPa)
#
#
# Indices 1 2 3 4 5 6 
#
# 1 108.7613 45.7419 56.8716 0.0000 0.0000 0.0000
# 2 45.7419 52.7791 44.0149 0.0000 0.0000 0.0000
# 3 56.8716 44.0149 100.0932 0.0000 0.0000 0.0000
# 4 0.0000 0.0000 0.0000 19.7858 0.0000 0.0000
# 5 0.0000 0.0000 0.0000 0.0000 20.5136 0.0000
# 6 0.0000 0.0000 0.0000 0.0000 0.0000 17.2578
#
#
#
# Elastic Compliance Matrix: (Units=1/GPa)
#
#
# Indices 1 2 3 4 5 6 
#
# 1 0.015727 -0.009755 -0.004646 0.000000 0.000000 0.000000
# 2 -0.009755 0.035970 -0.010275 0.000000 0.000000 0.000000
# 3 -0.004646 -0.010275 0.017149 0.000000 0.000000 0.000000
# 4 0.000000 0.000000 0.000000 0.050541 0.000000 0.000000
# 5 0.000000 0.000000 0.000000 0.000000 0.048748 0.000000
# 6 0.000000 0.000000 0.000000 0.000000 0.000000 0.057945
#
#
# Mechanical properties :
#
#
# Convention : Reuss Voigt Hill
#
# Bulk Modulus (GPa) = 51.29886 61.65449 56.47667
# Shear Modulus (GPa) = 17.73499 19.17845 18.45672
#
# Velocity S-wave (km/s) = 3.40351 3.53931 3.47207
# Velocity P-wave (km/s) = 6.99656 7.54804 7.27753
#
# Compressibility (1/GPa) = 0.01949361
#
# Stress axis : x y z
#
# Youngs Moduli (GPa) = 63.58654 27.80100 58.31413
#
# Poissons Ratio (x) = 0.27121 0.27092
# Poissons Ratio (y) = 0.62031 0.59915
# Poissons Ratio (z) = 0.29541 0.28564
#
# Static dielectric constant tensor:
#      x y z
#    x 3.116450 0.000000 0.000000 
#    y 0.000000 2.805650 0.000000 
#    z 0.000000 0.000000 2.769750 
# 
# 
# High freq. dielectric constant tensor:
#      x y z
#    x 1.589720 0.000000 0.000000 
#    y 0.000000 1.577340 0.000000 
#    z 0.000000 0.000000 1.560050 
# 
# From -- ./inp_files/14205.got.cif
#   From: 2010.03.12/outbox.cif.g09.slc.cpg/sg47_8_cif.got.tgz:14205.got - 2010.04.14 03:12:58.
