data_PCOD8194588
_publ_section_title
;
Structure prediction by ZEFSAII (Michael W. Deem and Ramdas Pophale) SiO2 
 PCOD8194588
Probable space group: P M M M
;
_chemical_formula_sum "Si O2"
_cell_formula_units_Z 56
_cell_length_a 9.178669
_cell_length_b 20.965757
_cell_length_c 15.130649
_cell_angle_alpha 90.000000
_cell_angle_beta 90.000000
_cell_angle_gamma 90.000000
_cell_volume 2911.707956
_symmetry_space_group_name_H-M "P M M M"
_symmetry_group_IT_number 47
_symmetry_cell_setting 'orthorhombic'
loop_
_space_group_symop_operation_xyz
x,y,z
-x,-y,z
x,-y,-z
-x,y,-z
-x,-y,-z
x,y,-z
-x,y,z
x,-y,z
loop_
_atom_site_type_symbol
_atom_site_label
_atom_site_fract_x
_atom_site_fract_y
_atom_site_fract_z
Si Si1 0.168015 0.072014 0.652338
Si Si2 0.672854 0.500000 0.101024
Si Si3 0.167286 0.742302 0.246277
Si Si4 0.666757 0.193402 0.599758
Si Si5 0.673332 0.379964 0.782006
Si Si6 0.671125 0.928949 0.000000
Si Si7 0.327309 0.571376 0.595622
Si Si8 0.837812 0.876598 0.159323
O O1 0.268494 0.121876 0.600944
O O2 0.193701 0.078742 0.756831
O O3 0.000000 0.087668 0.629508
O O4 0.208477 0.000000 0.623396
O O5 0.500000 0.500000 0.099716
O O6 0.726722 0.563081 0.153388
O O7 0.733564 0.500000 0.000000
O O8 0.245615 0.757305 0.339297
O O9 0.246775 0.685562 0.192235
O O10 0.179631 0.802997 0.183670
O O11 0.000000 0.724576 0.265831
O O12 0.675813 0.219442 0.500000
O O13 0.500000 0.190834 0.632660
O O14 0.500000 0.371893 0.788396
O O15 0.729275 0.390969 0.681143
O O16 0.720233 0.891444 0.913961
O O17 0.500000 0.931689 0.000000
O O18 0.738336 0.000000 0.000000
O O19 0.280456 0.601772 0.500000
O O20 0.500000 0.568490 0.601611
O O21 0.264291 0.500000 0.601064
O O22 0.000000 0.889890 0.122761
#
# Coordination Sequence:
#
# PCOD8194588 Si02
#       8
#     8   4   8   8   8   4   8   8
#     4   9  18  33  54  79 107 143 185 226 273 328
#     4   9  18  34  56  84 116 145 179 224 272 327
#     4  10  22  39  57  78 107 145 185 226 275 328
#     4  10  21  36  54  78 109 145 187 232 273 319
#     4  10  18  32  56  82 109 143 182 226 274 325
#     4  11  23  35  53  85 115 134 163 216 279 333
#     4   8  13  23  43  73 105 135 169 211 260 313
#     4   9  19  37  56  73 101 143 185 220 261 322
#
# _framework density 19.232699
#
# number of rings (size 3 to 8) (size 9 to 14) (size 15 to 20)
#    0.000    2.571    0.714    2.786    0.000    6.286 
#    1.286    3.214    0.000    0.429    0.000    1.000 
#    0.000    0.000    0.000    0.000    0.000    0.000 
#
# Total GULP energy -694196.069309 kJ/mol
# GULP energy per Si atom -12396.358381 kJ/mol
# Density = 1.918892 g / cm^3
# Si number density = 19.232699 Si / 1000 Ang^3
#
#
#
# Elastic Constant Matrix: (Units=GPa)
#
#
# Indices 1 2 3 4 5 6 
#
# 1 79.7815 41.0367 36.6580 0.0000 0.0000 0.0000
# 2 41.0367 101.7403 34.5903 0.0000 0.0000 0.0000
# 3 36.6580 34.5903 97.8808 0.0000 0.0000 0.0000
# 4 0.0000 0.0000 0.0000 11.5869 0.0000 0.0000
# 5 0.0000 0.0000 0.0000 0.0000 22.4433 0.0000
# 6 0.0000 0.0000 0.0000 0.0000 0.0000 23.9255
#
#
#
# Elastic Compliance Matrix: (Units=1/GPa)
#
#
# Indices 1 2 3 4 5 6 
#
# 1 0.017469 -0.005480 -0.004606 0.000000 0.000000 0.000000
# 2 -0.005480 0.012890 -0.002503 0.000000 0.000000 0.000000
# 3 -0.004606 -0.002503 0.012826 0.000000 0.000000 0.000000
# 4 0.000000 0.000000 0.000000 0.086305 0.000000 0.000000
# 5 0.000000 0.000000 0.000000 0.000000 0.044557 0.000000
# 6 0.000000 0.000000 0.000000 0.000000 0.000000 0.041796
#
#
# Mechanical properties :
#
#
# Convention : Reuss Voigt Hill
#
# Bulk Modulus (GPa) = 55.53211 55.99696 55.76453
# Shear Modulus (GPa) = 20.24092 22.73231 21.48661
#
# Velocity S-wave (km/s) = 3.24763 3.44170 3.34607
# Velocity P-wave (km/s) = 6.55738 6.70615 6.63218
#
# Compressibility (1/GPa) = 0.01800760
#
# Stress axis : x y z
#
# Youngs Moduli (GPa) = 57.24282 77.57734 77.96668
#
# Poissons Ratio (x) = 0.42515 0.35911
# Poissons Ratio (y) = 0.31371 0.19514
# Poissons Ratio (z) = 0.26365 0.19417
#
# Static dielectric constant tensor:
#      x y z
#    x 3.269350 0.000000 0.000000 
#    y 0.000000 3.556270 0.000000 
#    z 0.000000 0.000000 3.614280 
# 
# 
# High freq. dielectric constant tensor:
#      x y z
#    x 1.721450 0.000000 0.000000 
#    y 0.000000 1.750540 0.000000 
#    z 0.000000 0.000000 1.741940 
# 
# From -- ./inp_files/21610.got.cif
#   From: 2010.03.12/outbox.cif.g09.slc.cpg/sg47_11_cif.got.tgz:21610.got - 2010.04.14 03:12:58.
