data_PCOD8194680
_publ_section_title
;
Structure prediction by ZEFSAII (Michael W. Deem and Ramdas Pophale) SiO2 
 PCOD8194680
Probable space group: P M M M
;
_chemical_formula_sum "Si O2"
_cell_formula_units_Z 60
_cell_length_a 24.808971
_cell_length_b 9.212737
_cell_length_c 18.077723
_cell_angle_alpha 90.000000
_cell_angle_beta 90.000000
_cell_angle_gamma 90.000000
_cell_volume 4131.817705
_symmetry_space_group_name_H-M "P M M M"
_symmetry_group_IT_number 47
_symmetry_cell_setting 'orthorhombic'
loop_
_space_group_symop_operation_xyz
x,y,z
-x,-y,z
x,-y,-z
-x,y,-z
-x,-y,-z
x,y,-z
-x,y,z
x,-y,z
loop_
_atom_site_type_symbol
_atom_site_label
_atom_site_fract_x
_atom_site_fract_y
_atom_site_fract_z
Si Si1 0.000000 0.159100 0.912133
Si Si2 0.777979 0.171965 0.839064
Si Si3 0.340632 0.670840 0.583095
Si Si4 0.384153 0.163088 0.802346
Si Si5 0.884753 0.826915 0.082887
Si Si6 0.681187 0.667083 0.086703
Si Si7 0.280523 0.160506 0.698683
Si Si8 0.439455 0.667456 0.682449
O O1 0.056760 0.237785 0.889890
O O2 0.000000 0.000000 0.875029
O O3 0.000000 0.143079 0.000000
O O4 0.838051 0.223192 0.860985
O O5 0.736834 0.255916 0.891721
O O6 0.768784 0.210852 0.752033
O O7 0.769120 0.000000 0.851911
O O8 0.338997 0.733579 0.500000
O O9 0.333915 0.500000 0.582667
O O10 0.290097 0.733757 0.629404
O O11 0.397774 0.717979 0.618837
O O12 0.370028 0.254617 0.875446
O O13 0.332124 0.160540 0.750936
O O14 0.432124 0.240147 0.757252
O O15 0.401797 0.000000 0.824230
O O16 0.889483 0.000000 0.081488
O O17 0.870869 0.771095 0.000000
O O18 0.683469 0.500000 0.112731
O O19 0.672326 0.680470 0.000000
O O20 0.269642 0.000000 0.666732
O O21 0.500000 0.691951 0.652285
O O22 0.428933 0.500000 0.702551
#
# Coordination Sequence:
#
# PCOD8194680 Si02
#       8
#     4   8   8   8   8   8   8   8
#     4   7  10  16  26  44  71 101 132 165 200 232
#     4   9  16  25  38  56  77 102 132 164 195 228
#     4   9  17  28  42  60  80 102 127 151 176 213
#     4   9  17  29  44  59  76 100 128 156 186 224
#     4   8  12  18  30  49  74 103 134 168 201 228
#     4  10  19  28  39  57  79 100 124 158 199 238
#     4   8  15  26  38  54  75  99 126 153 185 225
#     4   9  17  29  45  63  82 103 124 148 180 216
#
# _framework density 14.521454
#
# number of rings (size 3 to 8) (size 9 to 14) (size 15 to 20)
#    0.000    3.267    0.000    2.800    0.000    5.600 
#    0.000    1.333    0.000    0.400    0.000    7.000 
#    0.000    2.667    0.000    0.600    0.000   14.667 
#
# Total GULP energy -743446.249138 kJ/mol
# GULP energy per Si atom -12390.770819 kJ/mol
# Density = 1.448840 g / cm^3
# Si number density = 14.521454 Si / 1000 Ang^3
#
#
#
# Elastic Constant Matrix: (Units=GPa)
#
#
# Indices 1 2 3 4 5 6 
#
# 1 79.3337 20.6164 52.1822 0.0000 0.0000 0.0000
# 2 20.6164 50.0583 36.0106 0.0000 0.0000 0.0000
# 3 52.1822 36.0106 87.3959 0.0000 0.0000 0.0000
# 4 0.0000 0.0000 0.0000 19.7155 0.0000 0.0000
# 5 0.0000 0.0000 0.0000 0.0000 16.1751 0.0000
# 6 0.0000 0.0000 0.0000 0.0000 0.0000 9.2959
#
#
#
# Elastic Compliance Matrix: (Units=1/GPa)
#
#
# Indices 1 2 3 4 5 6 
#
# 1 0.020766 0.000522 -0.012614 0.000000 0.000000 0.000000
# 2 0.000522 0.028406 -0.012016 0.000000 0.000000 0.000000
# 3 -0.012614 -0.012016 0.023925 0.000000 0.000000 0.000000
# 4 0.000000 0.000000 0.000000 0.050721 0.000000 0.000000
# 5 0.000000 0.000000 0.000000 0.000000 0.061823 0.000000
# 6 0.000000 0.000000 0.000000 0.000000 0.000000 0.107574
#
#
# Mechanical properties :
#
#
# Convention : Reuss Voigt Hill
#
# Bulk Modulus (GPa) = 40.19216 48.26737 44.22977
# Shear Modulus (GPa) = 14.29691 16.23589 15.26640
#
# Velocity S-wave (km/s) = 3.14114 3.34737 3.24589
# Velocity P-wave (km/s) = 6.39480 6.94627 6.67623
#
# Compressibility (1/GPa) = 0.02488047
#
# Stress axis : x y z
#
# Youngs Moduli (GPa) = 48.15461 35.20420 41.79765
#
# Poissons Ratio (x) = -0.01837 0.52724
# Poissons Ratio (y) = -0.02512 0.50223
# Poissons Ratio (z) = 0.60743 0.42301
#
# Static dielectric constant tensor:
#      x y z
#    x 2.985360 0.000000 0.000000 
#    y 0.000000 2.789050 0.000000 
#    z 0.000000 0.000000 2.805530 
# 
# 
# High freq. dielectric constant tensor:
#      x y z
#    x 1.534370 0.000000 0.000000 
#    y 0.000000 1.541910 0.000000 
#    z 0.000000 0.000000 1.530530 
# 
# From -- ./inp_files/28957.got.cif
#   From: 2010.03.12/outbox.cif.g09.slc.cpg/sg47_15_cif.got.tgz:28957.got - 2010.04.14 03:12:58.
