data_PCOD8194998
_publ_section_title
;
Structure prediction by ZEFSAII (Michael W. Deem and Ramdas Pophale) SiO2 
 PCOD8194998
Probable space group: P M M M
;
_chemical_formula_sum "Si O2"
_cell_formula_units_Z 64
_cell_length_a 30.927872
_cell_length_b 14.197294
_cell_length_c 9.439881
_cell_angle_alpha 90.000000
_cell_angle_beta 90.000000
_cell_angle_gamma 90.000000
_cell_volume 4144.977093
_symmetry_space_group_name_H-M "P M M M"
_symmetry_group_IT_number 47
_symmetry_cell_setting 'orthorhombic'
loop_
_space_group_symop_operation_xyz
x,y,z
-x,-y,z
x,-y,-z
-x,y,-z
-x,-y,-z
x,y,-z
-x,y,z
x,-y,z
loop_
_atom_site_type_symbol
_atom_site_label
_atom_site_fract_x
_atom_site_fract_y
_atom_site_fract_z
Si Si1 0.452461 0.111929 0.159291
Si Si2 0.627862 0.110320 0.664626
Si Si3 0.713428 0.794389 0.665957
Si Si4 0.800901 0.111109 0.663426
Si Si5 0.877916 0.204069 0.834352
Si Si6 0.836508 0.395282 0.161903
Si Si7 0.050198 0.891616 0.662325
Si Si8 0.248522 0.604104 0.335398
O O1 0.500000 0.147255 0.210517
O O2 0.414851 0.151890 0.259903
O O3 0.451742 0.000000 0.164232
O O4 0.443770 0.147479 0.000000
O O5 0.622186 0.132744 0.500000
O O6 0.669662 0.162603 0.732003
O O7 0.634030 0.000000 0.693168
O O8 0.711525 0.814760 0.500000
O O9 0.756349 0.845436 0.724668
O O10 0.715502 0.682644 0.701784
O O11 0.808719 0.141434 0.500000
O O12 0.839838 0.147474 0.758785
O O13 0.797767 0.000000 0.677542
O O14 0.872895 0.316570 0.809710
O O15 0.923478 0.175373 0.767038
O O16 0.877677 0.178427 0.000000
O O17 0.854733 0.500000 0.198777
O O18 0.795262 0.370419 0.255632
O O19 0.820882 0.391189 0.000000
O O20 0.062123 0.868016 0.500000
O O21 0.000000 0.872599 0.690857
O O22 0.061876 0.000000 0.694374
O O23 0.236772 0.608856 0.500000
O O24 0.265909 0.500000 0.292922
#
# Coordination Sequence:
#
# PCOD8194998 Si02
#       8
#     8   8   8   8   8   8   8   8
#     4   8  14  25  39  54  75 104 137 174 215 254
#     4   9  16  25  38  56  79 110 145 175 205 247
#     4   9  16  27  41  59  85 114 144 178 212 251
#     4  10  19  30  44  61  86 123 156 177 205 251
#     4  11  21  31  47  71  94 115 144 183 222 255
#     4   9  18  32  47  64  89 118 146 178 218 261
#     4   9  19  36  55  72  91 118 149 177 210 257
#     4   9  16  27  45  65  82 106 145 188 222 251
#
# _framework density 15.440375
#
# number of rings (size 3 to 8) (size 9 to 14) (size 15 to 20)
#    0.000    2.750    1.250    1.875    0.000    4.500 
#    0.000    3.125    0.000    1.875    0.000    2.625 
#    0.000    0.500    0.000    6.250    0.000    1.250 
#
# Total GULP energy -793307.145302 kJ/mol
# GULP energy per Si atom -12395.424145 kJ/mol
# Density = 1.540523 g / cm^3
# Si number density = 15.440375 Si / 1000 Ang^3
#
#
#
# Elastic Constant Matrix: (Units=GPa)
#
#
# Indices 1 2 3 4 5 6 
#
# 1 113.1675 51.3814 50.4263 0.0000 0.0000 0.0000
# 2 51.3814 78.1597 37.0066 0.0000 0.0000 0.0000
# 3 50.4263 37.0066 59.6245 0.0000 0.0000 0.0000
# 4 0.0000 0.0000 0.0000 16.8532 0.0000 0.0000
# 5 0.0000 0.0000 0.0000 0.0000 4.9630 0.0000
# 6 0.0000 0.0000 0.0000 0.0000 0.0000 11.7338
#
#
#
# Elastic Compliance Matrix: (Units=1/GPa)
#
#
# Indices 1 2 3 4 5 6 
#
# 1 0.015820 -0.005757 -0.009806 0.000000 0.000000 0.000000
# 2 -0.005757 0.020214 -0.007677 0.000000 0.000000 0.000000
# 3 -0.009806 -0.007677 0.029830 0.000000 0.000000 0.000000
# 4 0.000000 0.000000 0.000000 0.059336 0.000000 0.000000
# 5 0.000000 0.000000 0.000000 0.000000 0.201491 0.000000
# 6 0.000000 0.000000 0.000000 0.000000 0.000000 0.085224
#
#
# Mechanical properties :
#
#
# Convention : Reuss Voigt Hill
#
# Bulk Modulus (GPa) = 51.59144 58.73116 55.16130
# Shear Modulus (GPa) = 10.75600 14.18581 12.47091
#
# Velocity S-wave (km/s) = 2.64221 3.03437 2.84506
# Velocity P-wave (km/s) = 6.54173 7.09905 6.82608
#
# Compressibility (1/GPa) = 0.01938306
#
# Stress axis : x y z
#
# Youngs Moduli (GPa) = 63.21195 49.47142 33.52320
#
# Poissons Ratio (x) = 0.28479 0.32874
# Poissons Ratio (y) = 0.36389 0.25736
# Poissons Ratio (z) = 0.61988 0.37980
#
# Static dielectric constant tensor:
#      x y z
#    x 3.041490 0.000000 0.000000 
#    y 0.000000 3.012150 0.000000 
#    z 0.000000 0.000000 2.940220 
# 
# 
# High freq. dielectric constant tensor:
#      x y z
#    x 1.579970 0.000000 0.000000 
#    y 0.000000 1.576760 0.000000 
#    z 0.000000 0.000000 1.583200 
# 
# From -- ./inp_files/14268.got.cif
#   From: 2010.03.12/outbox.cif.g09.slc.cpg/sg47_8_cif.got.tgz:14268.got - 2010.04.14 03:12:58.
