data_PCOD8194784
_publ_section_title
;
Structure prediction by ZEFSAII (Michael W. Deem and Ramdas Pophale) SiO2 
 PCOD8194784
Probable space group: P M M M
;
_chemical_formula_sum "Si O2"
_cell_formula_units_Z 56
_cell_length_a 13.593482
_cell_length_b 29.222023
_cell_length_c 9.175125
_cell_angle_alpha 90.000000
_cell_angle_beta 90.000000
_cell_angle_gamma 90.000000
_cell_volume 3644.626129
_symmetry_space_group_name_H-M "P M M M"
_symmetry_group_IT_number 47
_symmetry_cell_setting 'orthorhombic'
loop_
_space_group_symop_operation_xyz
x,y,z
-x,-y,z
x,-y,-z
-x,y,-z
-x,-y,-z
x,y,-z
-x,y,z
x,-y,z
loop_
_atom_site_type_symbol
_atom_site_label
_atom_site_fract_x
_atom_site_fract_y
_atom_site_fract_z
Si Si1 0.385576 0.272867 0.671464
Si Si2 0.390094 0.892475 0.333624
Si Si3 0.203501 0.948787 0.670290
Si Si4 0.616990 0.550507 0.663715
Si Si5 0.383252 0.636438 0.162894
Si Si6 0.110067 0.868001 0.167977
Si Si7 0.702397 0.188070 0.828399
O O1 0.366342 0.273528 0.500000
O O2 0.500000 0.262950 0.706924
O O3 0.351095 0.321197 0.737017
O O4 0.317384 0.235081 0.745837
O O5 0.374495 0.875460 0.500000
O O6 0.500000 0.911609 0.310446
O O7 0.315163 0.933199 0.295582
O O8 0.374507 0.849719 0.226992
O O9 0.181400 0.947783 0.500000
O O10 0.126635 0.914860 0.745048
O O11 0.189801 0.000000 0.732526
O O12 0.656299 0.558863 0.500000
O O13 0.500000 0.553443 0.662708
O O14 0.650168 0.500000 0.718918
O O15 0.660918 0.589662 0.768825
O O16 0.500000 0.633232 0.157587
O O17 0.340489 0.642561 0.000000
O O18 0.187191 0.828511 0.212989
O O19 0.000000 0.849854 0.200281
O O20 0.125097 0.880522 0.000000
O O21 0.688158 0.195489 0.000000
#
# Coordination Sequence:
#
# PCOD8194784 Si02
#       7
#     8   8   8   8   8   8   8
#     4  10  19  29  41  57  80 109 136 163 199 243
#     4   9  17  29  44  61  83 111 138 161 189 229
#     4   9  18  31  46  66  89 109 132 163 195 227
#     4   8  13  21  32  45  64  94 132 172 212 250
#     4   9  16  24  34  50  72  98 132 173 210 241
#     4   9  19  35  51  65  82 105 131 159 195 240
#     4  10  19  30  45  63  81 101 129 165 200 235
#
# _framework density 15.365088
#
# number of rings (size 3 to 8) (size 9 to 14) (size 15 to 20)
#    0.000    2.857    0.000    2.143    0.000    6.571 
#    0.000    4.286    0.000    0.000    0.000    4.000 
#    0.000    0.000    0.000    0.000    0.000    0.714 
#
# Total GULP energy -694243.798437 kJ/mol
# GULP energy per Si atom -12397.210686 kJ/mol
# Density = 1.533012 g / cm^3
# Si number density = 15.365088 Si / 1000 Ang^3
#
#
#
# Elastic Constant Matrix: (Units=GPa)
#
#
# Indices 1 2 3 4 5 6 
#
# 1 57.5038 30.6399 24.1889 0.0000 0.0000 0.0000
# 2 30.6399 128.6773 59.9153 0.0000 0.0000 0.0000
# 3 24.1889 59.9153 80.3969 0.0000 0.0000 0.0000
# 4 0.0000 0.0000 0.0000 23.8453 0.0000 0.0000
# 5 0.0000 0.0000 0.0000 0.0000 15.3691 0.0000
# 6 0.0000 0.0000 0.0000 0.0000 0.0000 9.9055
#
#
#
# Elastic Compliance Matrix: (Units=1/GPa)
#
#
# Indices 1 2 3 4 5 6 
#
# 1 0.020690 -0.003106 -0.003910 0.000000 0.000000 0.000000
# 2 -0.003106 0.012367 -0.008282 0.000000 0.000000 0.000000
# 3 -0.003910 -0.008282 0.019787 0.000000 0.000000 0.000000
# 4 0.000000 0.000000 0.000000 0.041937 0.000000 0.000000
# 5 0.000000 0.000000 0.000000 0.000000 0.065066 0.000000
# 6 0.000000 0.000000 0.000000 0.000000 0.000000 0.100954
#
#
# Mechanical properties :
#
#
# Convention : Reuss Voigt Hill
#
# Bulk Modulus (GPa) = 44.94881 55.11847 50.03364
# Shear Modulus (GPa) = 16.73285 19.94625 18.33955
#
# Velocity S-wave (km/s) = 3.30361 3.60690 3.45858
# Velocity P-wave (km/s) = 6.62338 7.30046 6.97014
#
# Compressibility (1/GPa) = 0.02224753
#
# Stress axis : x y z
#
# Youngs Moduli (GPa) = 48.33271 80.85819 50.53802
#
# Poissons Ratio (x) = 0.25113 0.19762
# Poissons Ratio (y) = 0.15011 0.41857
# Poissons Ratio (z) = 0.18900 0.66969
#
# Static dielectric constant tensor:
#      x y z
#    x 2.645280 0.000000 0.000000 
#    y 0.000000 3.060040 0.000000 
#    z 0.000000 0.000000 3.078930 
# 
# 
# High freq. dielectric constant tensor:
#      x y z
#    x 1.536710 0.000000 0.000000 
#    y 0.000000 1.588500 0.000000 
#    z 0.000000 0.000000 1.598300 
# 
# From -- ./inp_files/8107.got.cif
#   From: 2010.03.12/outbox.cif.g09.slc.cpg/sg47_5_cif.got.tgz:8107.got - 2010.04.14 03:12:58.
