data_PCOD8194647
_publ_section_title
;
Structure prediction by ZEFSAII (Michael W. Deem and Ramdas Pophale) SiO2 
 PCOD8194647
Probable space group: P M M M
;
_chemical_formula_sum "Si O2"
_cell_formula_units_Z 52
_cell_length_a 9.318739
_cell_length_b 13.704585
_cell_length_c 26.394956
_cell_angle_alpha 90.000000
_cell_angle_beta 90.000000
_cell_angle_gamma 90.000000
_cell_volume 3370.885332
_symmetry_space_group_name_H-M "P M M M"
_symmetry_group_IT_number 47
_symmetry_cell_setting 'orthorhombic'
loop_
_space_group_symop_operation_xyz
x,y,z
-x,-y,z
x,-y,-z
-x,y,-z
-x,-y,-z
x,y,-z
-x,y,z
x,-y,z
loop_
_atom_site_type_symbol
_atom_site_label
_atom_site_fract_x
_atom_site_fract_y
_atom_site_fract_z
Si Si1 0.168614 0.112896 0.705318
Si Si2 0.665429 0.389858 0.141566
Si Si3 0.663684 0.206999 0.205197
Si Si4 0.834768 0.284571 0.057873
Si Si5 0.329588 0.893142 0.500000
Si Si6 0.339163 0.116420 0.608392
Si Si7 0.334521 0.889238 0.900430
O O1 0.230748 0.178307 0.750048
O O2 0.232971 0.152073 0.652399
O O3 0.000000 0.127621 0.703343
O O4 0.211093 0.000000 0.714324
O O5 0.500000 0.375065 0.125627
O O6 0.697210 0.500000 0.159473
O O7 0.701880 0.317303 0.187859
O O8 0.759720 0.365880 0.092438
O O9 0.500000 0.199257 0.224438
O O10 0.690239 0.134255 0.158523
O O11 0.762503 0.178946 0.064585
O O12 0.000000 0.276004 0.074023
O O13 0.818626 0.318396 0.000000
O O14 0.500000 0.904607 0.500000
O O15 0.286586 0.840197 0.446682
O O16 0.257072 0.000000 0.500000
O O17 0.500000 0.153062 0.621339
O O18 0.338363 0.000000 0.603989
O O19 0.500000 0.871336 0.914910
O O20 0.288019 0.000000 0.910718
#
# Coordination Sequence:
#
# PCOD8194647 Si02
#       7
#     8   8   8   8   4   8   8
#     4  10  19  27  36  56  86 116 145 175 206 241
#     4   9  19  36  55  71  85 104 134 172 213 256
#     4   9  17  30  47  64  82 105 134 169 209 251
#     4  10  21  34  47  67  94 118 139 166 202 247
#     4   7  10  18  33  51  69  95 138 185 218 243
#     4   8  13  22  36  52  72 103 143 182 215 245
#     4   9  18  32  49  67  86 112 147 181 210 243
#
# _framework density 15.426216
#
# number of rings (size 3 to 8) (size 9 to 14) (size 15 to 20)
#    0.000    3.000    0.000    3.231    0.000    6.462 
#    0.000    3.462    0.000    2.308    0.000    0.000 
#    0.000    0.000    0.000    0.692    0.000   15.923 
#
# Total GULP energy -644528.796898 kJ/mol
# GULP energy per Si atom -12394.784556 kJ/mol
# Density = 1.539110 g / cm^3
# Si number density = 15.426216 Si / 1000 Ang^3
#
#
#
# Elastic Constant Matrix: (Units=GPa)
#
#
# Indices 1 2 3 4 5 6 
#
# 1 78.3315 33.5728 56.7746 0.0000 0.0000 0.0000
# 2 33.5728 72.4033 32.8135 0.0000 0.0000 0.0000
# 3 56.7746 32.8135 104.7946 0.0000 0.0000 0.0000
# 4 0.0000 0.0000 0.0000 9.6989 0.0000 0.0000
# 5 0.0000 0.0000 0.0000 0.0000 10.1746 0.0000
# 6 0.0000 0.0000 0.0000 0.0000 0.0000 11.7023
#
#
#
# Elastic Compliance Matrix: (Units=1/GPa)
#
#
# Indices 1 2 3 4 5 6 
#
# 1 0.022958 -0.005837 -0.010611 0.000000 0.000000 0.000000
# 2 -0.005837 0.017580 -0.002342 0.000000 0.000000 0.000000
# 3 -0.010611 -0.002342 0.016024 0.000000 0.000000 0.000000
# 4 0.000000 0.000000 0.000000 0.103105 0.000000 0.000000
# 5 0.000000 0.000000 0.000000 0.000000 0.098284 0.000000
# 6 0.000000 0.000000 0.000000 0.000000 0.000000 0.085453
#
#
# Mechanical properties :
#
#
# Convention : Reuss Voigt Hill
#
# Bulk Modulus (GPa) = 52.67888 55.76124 54.22006
# Shear Modulus (GPa) = 12.90952 15.13973 14.02462
#
# Velocity S-wave (km/s) = 2.89598 3.13618 3.01847
# Velocity P-wave (km/s) = 6.73835 7.02422 6.88277
#
# Compressibility (1/GPa) = 0.01898294
#
# Stress axis : x y z
#
# Youngs Moduli (GPa) = 43.55691 56.88415 62.40493
#
# Poissons Ratio (x) = 0.33203 0.66215
# Poissons Ratio (y) = 0.25424 0.14617
# Poissons Ratio (z) = 0.46216 0.13324
#
# Static dielectric constant tensor:
#      x y z
#    x 2.918680 0.000000 0.000000 
#    y 0.000000 2.759190 0.000000 
#    z 0.000000 0.000000 3.084820 
# 
# 
# High freq. dielectric constant tensor:
#      x y z
#    x 1.588770 0.000000 0.000000 
#    y 0.000000 1.548890 0.000000 
#    z 0.000000 0.000000 1.590960 
# 
# From -- ./inp_files/22021.got.cif
#   From: 2010.03.12/outbox.cif.g09.slc.cpg/sg47_12_cif.got.tgz:22021.got - 2010.04.14 03:12:58.
