data_PCOD8194089
_publ_section_title
;
Structure prediction by ZEFSAII (Michael W. Deem and Ramdas Pophale) SiO2 
 PCOD8194089
Probable space group: P M M M
;
_chemical_formula_sum "Si O2"
_cell_formula_units_Z 52
_cell_length_a 26.084381
_cell_length_b 12.801435
_cell_length_c 9.087080
_cell_angle_alpha 90.000000
_cell_angle_beta 90.000000
_cell_angle_gamma 90.000000
_cell_volume 3034.335108
_symmetry_space_group_name_H-M "P M M M"
_symmetry_group_IT_number 47
_symmetry_cell_setting 'orthorhombic'
loop_
_space_group_symop_operation_xyz
x,y,z
-x,-y,z
x,-y,-z
-x,y,-z
-x,-y,-z
x,y,-z
-x,y,z
x,-y,z
loop_
_atom_site_type_symbol
_atom_site_label
_atom_site_fract_x
_atom_site_fract_y
_atom_site_fract_z
Si Si1 0.058467 0.199444 0.173452
Si Si2 0.771126 0.000000 0.670320
Si Si3 0.116102 0.620344 0.671084
Si Si4 0.299156 0.195543 0.673063
Si Si5 0.500000 0.875884 0.333705
Si Si6 0.601694 0.121640 0.172654
Si Si7 0.878867 0.000000 0.174802
Si Si8 0.230985 0.384955 0.674846
O O1 0.076780 0.307818 0.242182
O O2 0.000000 0.178969 0.219985
O O3 0.091945 0.102709 0.234061
O O4 0.064049 0.209292 0.000000
O O5 0.737997 0.100483 0.711861
O O6 0.787076 0.000000 0.500000
O O7 0.821511 0.000000 0.767171
O O8 0.112279 0.648300 0.500000
O O9 0.101125 0.500000 0.699016
O O10 0.173746 0.642129 0.730640
O O11 0.311716 0.198489 0.500000
O O12 0.351524 0.187006 0.762236
O O13 0.271696 0.300417 0.731414
O O14 0.500000 0.832062 0.500000
O O15 0.449800 0.835254 0.248882
O O16 0.500000 0.000000 0.333281
O O17 0.610309 0.000000 0.209500
O O18 0.597030 0.141264 0.000000
O O19 0.877994 0.000000 0.000000
O O20 0.229228 0.384509 0.500000
O O21 0.247521 0.500000 0.732004
#
# Coordination Sequence:
#
# PCOD8194089 Si02
#       8
#     8   4   8   8   4   8   4   8
#     4  10  21  36  52  70  94 125 160 198 240 289
#     4  10  20  31  47  72  99 126 158 197 243 289
#     4   9  18  34  55  76  98 123 154 196 246 296
#     4  10  18  29  47  70  97 127 160 197 235 280
#     4   9  17  29  47  67  92 129 170 207 239 279
#     4  10  19  30  44  66  99 134 165 198 239 284
#     4  10  21  36  52  68  91 127 166 199 236 287
#     4   8  15  29  49  71  94 123 158 195 236 282
#
# _framework density 17.137198000000001
#
# number of rings (size 3 to 8) (size 9 to 14) (size 15 to 20)
#    0.000    2.538    0.769    2.769    0.000    5.846 
#    0.000    2.308    0.000    2.769    0.000    0.538 
#    0.000    4.308    0.000    0.000    0.000    0.000 
#
# Total GULP energy -644814.589378 kJ/mol
# GULP energy per Si atom -12400.280565 kJ/mol
# Density = 1.709819 g / cm^3
# Si number density = 17.137198 Si / 1000 Ang^3
#
#
#
# Elastic Constant Matrix: (Units=GPa)
#
#
# Indices 1 2 3 4 5 6 
#
# 1 123.1996 56.8601 46.5738 0.0000 0.0000 0.0000
# 2 56.8601 93.5994 29.7626 0.0000 0.0000 0.0000
# 3 46.5738 29.7626 46.3077 0.0000 0.0000 0.0000
# 4 0.0000 0.0000 0.0000 16.7876 0.0000 0.0000
# 5 0.0000 0.0000 0.0000 0.0000 32.4099 0.0000
# 6 0.0000 0.0000 0.0000 0.0000 0.0000 26.7459
#
#
#
# Elastic Compliance Matrix: (Units=1/GPa)
#
#
# Indices 1 2 3 4 5 6 
#
# 1 0.015010 -0.005427 -0.011608 0.000000 0.000000 0.000000
# 2 -0.005427 0.015390 -0.004433 0.000000 0.000000 0.000000
# 3 -0.011608 -0.004433 0.036119 0.000000 0.000000 0.000000
# 4 0.000000 0.000000 0.000000 0.059568 0.000000 0.000000
# 5 0.000000 0.000000 0.000000 0.000000 0.030855 0.000000
# 6 0.000000 0.000000 0.000000 0.000000 0.000000 0.037389
#
#
# Mechanical properties :
#
#
# Convention : Reuss Voigt Hill
#
# Bulk Modulus (GPa) = 42.40502 58.83331 50.61916
# Shear Modulus (GPa) = 20.39744 23.84935 22.12339
#
# Velocity S-wave (km/s) = 3.45373 3.73456 3.59689
# Velocity P-wave (km/s) = 6.37985 7.28019 6.84484
#
# Compressibility (1/GPa) = 0.02358211
#
# Stress axis : x y z
#
# Youngs Moduli (GPa) = 66.62225 64.97536 27.68635
#
# Poissons Ratio (x) = 0.35263 0.32139
# Poissons Ratio (y) = 0.36157 0.12274
# Poissons Ratio (z) = 0.77336 0.28805
#
# Static dielectric constant tensor:
#      x y z
#    x 3.249910 0.000000 0.000000 
#    y 0.000000 3.291940 0.000000 
#    z 0.000000 0.000000 2.990680 
# 
# 
# High freq. dielectric constant tensor:
#      x y z
#    x 1.666370 0.000000 0.000000 
#    y 0.000000 1.646710 0.000000 
#    z 0.000000 0.000000 1.644360 
# 
# From -- ./inp_files/13349.got.cif
#   From: 2010.03.12/outbox.cif.g09.slc.cpg/sg47_7_cif.got.tgz:13349.got - 2010.04.14 03:12:58.
