data_PCOD8194272
_publ_section_title
;
Structure prediction by ZEFSAII (Michael W. Deem and Ramdas Pophale) SiO2 
 PCOD8194272
Probable space group: P M M M
;
_chemical_formula_sum "Si O2"
_cell_formula_units_Z 52
_cell_length_a 27.706407
_cell_length_b 9.156481
_cell_length_c 11.610021
_cell_angle_alpha 90.000000
_cell_angle_beta 90.000000
_cell_angle_gamma 90.000000
_cell_volume 2945.383255
_symmetry_space_group_name_H-M "P M M M"
_symmetry_group_IT_number 47
_symmetry_cell_setting 'orthorhombic'
loop_
_space_group_symop_operation_xyz
x,y,z
-x,-y,z
x,-y,-z
-x,y,-z
-x,-y,-z
x,y,-z
-x,y,z
x,-y,z
loop_
_atom_site_type_symbol
_atom_site_label
_atom_site_fract_x
_atom_site_fract_y
_atom_site_fract_z
Si Si1 0.817296 0.168866 0.252472
Si Si2 0.905901 0.333236 0.363300
Si Si3 0.303955 0.672103 0.000000
Si Si4 0.730241 0.670071 0.367011
Si Si5 0.207174 0.836451 0.000000
Si Si6 0.640768 0.330031 0.222265
Si Si7 0.000000 0.165142 0.637104
Si Si8 0.445378 0.828503 0.130923
O O1 0.858472 0.259147 0.314621
O O2 0.765511 0.231753 0.290339
O O3 0.824671 0.186537 0.114934
O O4 0.820499 0.000000 0.290123
O O5 0.903210 0.325435 0.500000
O O6 0.908827 0.500000 0.320827
O O7 0.952796 0.248319 0.316215
O O8 0.330517 0.732213 0.887596
O O9 0.303343 0.500000 0.000000
O O10 0.249286 0.720837 0.000000
O O11 0.737301 0.710464 0.500000
O O12 0.742129 0.500000 0.343068
O O13 0.674462 0.702714 0.332963
O O14 0.229207 0.000000 0.000000
O O15 0.629085 0.500000 0.211315
O O16 0.589649 0.246985 0.224668
O O17 0.000000 0.165515 0.500000
O O18 0.000000 0.000000 0.685072
O O19 0.500000 0.785901 0.164197
O O20 0.437836 0.000000 0.138877
O O21 0.434413 0.774898 0.000000
#
# Coordination Sequence:
#
# PCOD8194272 Si02
#       8
#     8   8   4   8   4   8   4   8
#     4  11  22  35  52  75 104 136 172 212 253 300
#     4  10  20  34  53  78 108 140 173 211 257 304
#     4  10  18  30  49  73  97 126 168 208 247 298
#     4  10  21  36  52  72 101 135 169 206 250 299
#     4  10  22  36  50  72 102 136 172 209 252 300
#     4  10  19  31  49  73  99 127 161 204 249 296
#     4   9  17  31  53  80 107 136 173 215 257 301
#     4   9  18  31  47  70  99 128 158 196 246 300
#
# _framework density 17.654748000000001
#
# number of rings (size 3 to 8) (size 9 to 14) (size 15 to 20)
#    0.000    2.077    2.308    2.077    0.000    6.154 
#    0.000    0.769    0.000    0.923    0.000    6.462 
#    0.000    0.000    0.000    0.000    0.000    0.000 
#
# Total GULP energy -644760.230623 kJ/mol
# GULP energy per Si atom -12399.235204 kJ/mol
# Density = 1.761457 g / cm^3
# Si number density = 17.654748 Si / 1000 Ang^3
#
#
#
# Elastic Constant Matrix: (Units=GPa)
#
#
# Indices 1 2 3 4 5 6 
#
# 1 113.5021 58.3531 16.7486 0.0000 0.0000 0.0000
# 2 58.3531 93.6529 29.5484 0.0000 0.0000 0.0000
# 3 16.7486 29.5484 51.5564 0.0000 0.0000 0.0000
# 4 0.0000 0.0000 0.0000 19.0485 0.0000 0.0000
# 5 0.0000 0.0000 0.0000 0.0000 21.4794 0.0000
# 6 0.0000 0.0000 0.0000 0.0000 0.0000 30.6038
#
#
#
# Elastic Compliance Matrix: (Units=1/GPa)
#
#
# Indices 1 2 3 4 5 6 
#
# 1 0.012974 -0.008245 0.000511 0.000000 0.000000 0.000000
# 2 -0.008245 0.018274 -0.007795 0.000000 0.000000 0.000000
# 3 0.000511 -0.007795 0.023698 0.000000 0.000000 0.000000
# 4 0.000000 0.000000 0.000000 0.052498 0.000000 0.000000
# 5 0.000000 0.000000 0.000000 0.000000 0.046556 0.000000
# 6 0.000000 0.000000 0.000000 0.000000 0.000000 0.032676
#
#
# Mechanical properties :
#
#
# Convention : Reuss Voigt Hill
#
# Bulk Modulus (GPa) = 41.86283 52.00129 46.93206
# Shear Modulus (GPa) = 22.15363 24.49710 23.32537
#
# Velocity S-wave (km/s) = 3.54619 3.72904 3.63877
# Velocity P-wave (km/s) = 6.36638 6.93250 6.65546
#
# Compressibility (1/GPa) = 0.02388754
#
# Stress axis : x y z
#
# Youngs Moduli (GPa) = 77.07802 54.72147 42.19781
#
# Poissons Ratio (x) = 0.45117 -0.02155
# Poissons Ratio (y) = 0.63550 0.32894
# Poissons Ratio (z) = -0.03936 0.42656
#
# Static dielectric constant tensor:
#      x y z
#    x 3.282620 0.000000 0.000000 
#    y 0.000000 3.318330 0.000000 
#    z 0.000000 0.000000 3.180640 
# 
# 
# High freq. dielectric constant tensor:
#      x y z
#    x 1.682970 0.000000 0.000000 
#    y 0.000000 1.687540 0.000000 
#    z 0.000000 0.000000 1.654140 
# 
# From -- ./inp_files/19856.got.cif
#   From: 2010.03.12/outbox.cif.g09.slc.cpg/sg47_10_cif.got.tgz:19856.got - 2010.04.14 03:12:58.
