data_PCOD8194185
_publ_section_title
;
Structure prediction by ZEFSAII (Michael W. Deem and Ramdas Pophale) SiO2 
 PCOD8194185
Probable space group: P M M M
;
_chemical_formula_sum "Si O2"
_cell_formula_units_Z 52
_cell_length_a 20.766492
_cell_length_b 8.875398
_cell_length_c 16.372883
_cell_angle_alpha 90.000000
_cell_angle_beta 90.000000
_cell_angle_gamma 90.000000
_cell_volume 3017.700499
_symmetry_space_group_name_H-M "P M M M"
_symmetry_group_IT_number 47
_symmetry_cell_setting 'orthorhombic'
loop_
_space_group_symop_operation_xyz
x,y,z
-x,-y,z
x,-y,-z
-x,y,-z
-x,-y,-z
x,y,-z
-x,y,z
x,-y,z
loop_
_atom_site_type_symbol
_atom_site_label
_atom_site_fract_x
_atom_site_fract_y
_atom_site_fract_z
Si Si1 0.203812 0.175940 0.500000
Si Si2 0.871239 0.820214 0.344263
Si Si3 0.362893 0.672132 0.321641
Si Si4 0.570563 0.822486 0.179972
Si Si5 0.302118 0.177662 0.906397
Si Si6 0.000000 0.320761 0.404547
Si Si7 0.768926 0.323295 0.762902
Si Si8 0.335587 0.329014 0.500000
O O1 0.169982 0.242688 0.420234
O O2 0.278183 0.212432 0.500000
O O3 0.193879 0.000000 0.500000
O O4 0.834198 0.761505 0.263866
O O5 0.940512 0.745507 0.354041
O O6 0.877872 0.000000 0.340771
O O7 0.374772 0.500000 0.296320
O O8 0.413132 0.772575 0.272099
O O9 0.289218 0.716970 0.299591
O O10 0.376872 0.698667 0.417922
O O11 0.500000 0.758030 0.154699
O O12 0.625913 0.765369 0.118063
O O13 0.567840 0.000000 0.178672
O O14 0.249311 0.264491 0.852995
O O15 0.295628 0.000000 0.890415
O O16 0.289833 0.219978 0.000000
O O17 0.000000 0.500000 0.399799
O O18 0.000000 0.267304 0.500000
O O19 0.782736 0.500000 0.766330
O O20 0.308169 0.500000 0.500000
#
# Coordination Sequence:
#
# PCOD8194185 Si02
#       8
#     4   8   8   8   8   4   8   4
#     4  10  20  29  45  71  98 130 167 209 253 294
#     4  11  21  34  50  72 103 139 177 212 252 297
#     4   9  18  30  46  67  91 123 162 206 250 293
#     4   9  18  32  49  69  95 127 161 199 245 299
#     4   9  18  33  53  77 103 128 157 199 251 306
#     4  11  23  35  49  71 104 145 184 219 253 289
#     4  10  19  32  51  74 100 130 165 207 252 300
#     4  10  18  30  46  66  92 123 166 212 251 292
#
# _framework density 17.231663999999999
#
# number of rings (size 3 to 8) (size 9 to 14) (size 15 to 20)
#    0.000    2.231    2.308    1.154    0.000    3.077 
#    0.000    1.923    0.000    2.308    0.000    4.846 
#    0.000    4.308    0.000    0.000    0.000    0.000 
#
# Total GULP energy -644695.529887 kJ/mol
# GULP energy per Si atom -12397.990959 kJ/mol
# Density = 1.719244 g / cm^3
# Si number density = 17.231664 Si / 1000 Ang^3
#
#
#
# Elastic Constant Matrix: (Units=GPa)
#
#
# Indices 1 2 3 4 5 6 
#
# 1 99.0112 34.4213 42.2299 0.0000 0.0000 0.0000
# 2 34.4213 46.9919 30.2156 0.0000 0.0000 0.0000
# 3 42.2299 30.2156 109.2451 0.0000 0.0000 0.0000
# 4 0.0000 0.0000 0.0000 24.8891 0.0000 0.0000
# 5 0.0000 0.0000 0.0000 0.0000 17.0104 0.0000
# 6 0.0000 0.0000 0.0000 0.0000 0.0000 23.2519
#
#
#
# Elastic Compliance Matrix: (Units=1/GPa)
#
#
# Indices 1 2 3 4 5 6 
#
# 1 0.014430 -0.008494 -0.003229 0.000000 0.000000 0.000000
# 2 -0.008494 0.030883 -0.005258 0.000000 0.000000 0.000000
# 3 -0.003229 -0.005258 0.011856 0.000000 0.000000 0.000000
# 4 0.000000 0.000000 0.000000 0.040178 0.000000 0.000000
# 5 0.000000 0.000000 0.000000 0.000000 0.058787 0.000000
# 6 0.000000 0.000000 0.000000 0.000000 0.000000 0.043007
#
#
# Mechanical properties :
#
#
# Convention : Reuss Voigt Hill
#
# Bulk Modulus (GPa) = 43.08999 52.10909 47.59954
# Shear Modulus (GPa) = 20.76071 22.92239 21.84155
#
# Velocity S-wave (km/s) = 3.47479 3.65121 3.56409
# Velocity P-wave (km/s) = 6.41556 6.93405 6.67984
#
# Compressibility (1/GPa) = 0.02320725
#
# Stress axis : x y z
#
# Youngs Moduli (GPa) = 69.30082 32.38031 84.34365
#
# Poissons Ratio (x) = 0.27503 0.27233
# Poissons Ratio (y) = 0.58862 0.44352
# Poissons Ratio (z) = 0.22376 0.17027
#
# Static dielectric constant tensor:
#      x y z
#    x 3.166960 0.000000 0.000000 
#    y 0.000000 3.136460 0.000000 
#    z 0.000000 0.000000 3.175100 
# 
# 
# High freq. dielectric constant tensor:
#      x y z
#    x 1.646270 0.000000 0.000000 
#    y 0.000000 1.664940 0.000000 
#    z 0.000000 0.000000 1.651770 
# 
# From -- ./inp_files/25056.got.cif
#   From: 2010.03.12/outbox.cif.g09.slc.cpg/sg47_13_cif.got.tgz:25056.got - 2010.04.14 03:12:58.
