data_PCOD8194176
_publ_section_title
;
Structure prediction by ZEFSAII (Michael W. Deem and Ramdas Pophale) SiO2 
 PCOD8194176
Probable space group: P M M M
;
_chemical_formula_sum "Si O2"
_cell_formula_units_Z 60
_cell_length_a 14.720933
_cell_length_b 21.030022
_cell_length_c 12.917657
_cell_angle_alpha 90.000000
_cell_angle_beta 90.000000
_cell_angle_gamma 90.000000
_cell_volume 3999.068210
_symmetry_space_group_name_H-M "P M M M"
_symmetry_group_IT_number 47
_symmetry_cell_setting 'orthorhombic'
loop_
_space_group_symop_operation_xyz
x,y,z
-x,-y,z
x,-y,-z
-x,y,-z
-x,-y,-z
x,y,-z
-x,y,z
x,-y,z
loop_
_atom_site_type_symbol
_atom_site_label
_atom_site_fract_x
_atom_site_fract_y
_atom_site_fract_z
Si Si1 0.210176 0.688475 0.378794
Si Si2 0.278017 0.072963 0.882878
Si Si3 0.401084 0.732775 0.381618
Si Si4 0.104783 0.810957 0.619117
Si Si5 0.606954 0.073065 0.500000
Si Si6 0.396975 0.866873 0.291237
Si Si7 0.897318 0.569904 0.376894
Si Si8 0.897307 0.071658 0.761894
O O1 0.188453 0.687929 0.500000
O O2 0.318299 0.685254 0.355906
O O3 0.165590 0.753360 0.333736
O O4 0.166298 0.625142 0.328401
O O5 0.339125 0.115730 0.808731
O O6 0.171340 0.080870 0.857255
O O7 0.308466 0.000000 0.869457
O O8 0.293230 0.096314 0.000000
O O9 0.391639 0.757948 0.500000
O O10 0.500000 0.698828 0.367685
O O11 0.395177 0.791295 0.303407
O O12 0.128904 0.822481 0.500000
O O13 0.128366 0.877171 0.674516
O O14 0.000000 0.791562 0.634213
O O15 0.500000 0.087118 0.500000
O O16 0.647937 0.102818 0.394746
O O17 0.632478 0.000000 0.500000
O O18 0.500000 0.891752 0.275421
O O19 0.891537 0.570316 0.500000
O O20 0.866154 0.500000 0.336473
O O21 0.000000 0.583656 0.340931
O O22 0.000000 0.082720 0.802684
O O23 0.887545 0.000000 0.715480
#
# Coordination Sequence:
#
# PCOD8194176 Si02
#       8
#     8   8   8   8   4   8   8   8
#     4   9  15  22  35  53  74 103 133 165 200 239
#     4  10  21  34  45  59  78 100 133 174 211 253
#     4   9  16  26  39  56  77 102 131 163 195 233
#     4   9  16  25  39  60  83 103 126 162 208 257
#     4   9  16  26  42  62  81 101 126 159 201 253
#     4  10  18  30  46  62  82 104 128 162 208 256
#     4   8  13  21  33  50  73 100 132 169 204 236
#     4   9  18  32  46  58  75 102 136 172 209 247
#
# _framework density 15.003494999999999
#
# number of rings (size 3 to 8) (size 9 to 14) (size 15 to 20)
#    0.000    2.867    0.667    2.000    0.000    3.200 
#    1.200    3.333    0.000    0.400    0.000    2.800 
#    0.000    0.000    0.000    0.000    0.000   10.667 
#
# Total GULP energy -743614.563197 kJ/mol
# GULP energy per Si atom -12393.576053 kJ/mol
# Density = 1.496935 g / cm^3
# Si number density = 15.003495 Si / 1000 Ang^3
#
#
#
# Elastic Constant Matrix: (Units=GPa)
#
#
# Indices 1 2 3 4 5 6 
#
# 1 97.7334 54.1673 34.1775 0.0000 0.0000 0.0000
# 2 54.1673 90.4123 26.8870 0.0000 0.0000 0.0000
# 3 34.1775 26.8870 57.4341 0.0000 0.0000 0.0000
# 4 0.0000 0.0000 0.0000 4.5037 0.0000 0.0000
# 5 0.0000 0.0000 0.0000 0.0000 15.3791 0.0000
# 6 0.0000 0.0000 0.0000 0.0000 0.0000 19.1801
#
#
#
# Elastic Compliance Matrix: (Units=1/GPa)
#
#
# Indices 1 2 3 4 5 6 
#
# 1 0.017042 -0.008358 -0.006229 0.000000 0.000000 0.000000
# 2 -0.008358 0.016948 -0.002960 0.000000 0.000000 0.000000
# 3 -0.006229 -0.002960 0.022504 0.000000 0.000000 0.000000
# 4 0.000000 0.000000 0.000000 0.222039 0.000000 0.000000
# 5 0.000000 0.000000 0.000000 0.000000 0.065023 0.000000
# 6 0.000000 0.000000 0.000000 0.000000 0.000000 0.052137
#
#
# Mechanical properties :
#
#
# Convention : Reuss Voigt Hill
#
# Bulk Modulus (GPa) = 46.72926 52.89372 49.81149
# Shear Modulus (GPa) = 11.41755 16.50245 13.96000
#
# Velocity S-wave (km/s) = 2.76160 3.32008 3.05364
# Velocity P-wave (km/s) = 6.43287 7.07305 6.76054
#
# Compressibility (1/GPa) = 0.02139987
#
# Stress axis : x y z
#
# Youngs Moduli (GPa) = 58.67699 59.00321 44.43700
#
# Poissons Ratio (x) = 0.49315 0.27679
# Poissons Ratio (y) = 0.49042 0.13155
# Poissons Ratio (z) = 0.36549 0.17468
#
# Static dielectric constant tensor:
#      x y z
#    x 3.047910 0.000000 0.000000 
#    y 0.000000 2.927380 0.000000 
#    z 0.000000 0.000000 2.469280 
# 
# 
# High freq. dielectric constant tensor:
#      x y z
#    x 1.585890 0.000000 0.000000 
#    y 0.000000 1.554830 0.000000 
#    z 0.000000 0.000000 1.515780 
# 
# From -- ./inp_files/18026.got.cif
#   From: 2010.03.12/outbox.cif.g09.slc.cpg/sg47_10_cif.got.tgz:18026.got - 2010.04.14 03:12:58.
