data_PCOD8194935
_publ_section_title
;
Structure prediction by ZEFSAII (Michael W. Deem and Ramdas Pophale) SiO2 
 PCOD8194935
Probable space group: P M M M
;
_chemical_formula_sum "Si O2"
_cell_formula_units_Z 56
_cell_length_a 15.460145
_cell_length_b 20.195530
_cell_length_c 9.630710
_cell_angle_alpha 90.000000
_cell_angle_beta 90.000000
_cell_angle_gamma 90.000000
_cell_volume 3006.956348
_symmetry_space_group_name_H-M "P M M M"
_symmetry_group_IT_number 47
_symmetry_cell_setting 'orthorhombic'
loop_
_space_group_symop_operation_xyz
x,y,z
-x,-y,z
x,-y,-z
-x,y,-z
-x,-y,-z
x,y,-z
-x,y,z
x,-y,z
loop_
_atom_site_type_symbol
_atom_site_label
_atom_site_fract_x
_atom_site_fract_y
_atom_site_fract_z
Si Si1 0.859036 0.322815 0.664921
Si Si2 0.902962 0.176152 0.665133
Si Si3 0.000000 0.575128 0.334589
Si Si4 0.403012 0.500000 0.664943
Si Si5 0.598790 0.258592 0.851727
Si Si6 0.328752 0.363130 0.663943
Si Si7 0.399573 0.887156 0.837518
Si Si8 0.242833 0.074047 0.658989
O O1 0.864390 0.320831 0.500000
O O2 0.884175 0.250444 0.723608
O O3 0.918538 0.382646 0.720187
O O4 0.764628 0.342004 0.718058
O O5 0.899622 0.177502 0.500000
O O6 0.830554 0.124345 0.720122
O O7 0.000000 0.155428 0.714417
O O8 0.000000 0.500000 0.273113
O O9 0.000000 0.570299 0.500000
O O10 0.500000 0.500000 0.726723
O O11 0.407468 0.500000 0.500000
O O12 0.351160 0.436238 0.718638
O O13 0.500000 0.243442 0.879375
O O14 0.605441 0.311874 0.730778
O O15 0.635742 0.187285 0.808247
O O16 0.639681 0.282714 0.000000
O O17 0.338739 0.358416 0.500000
O O18 0.500000 0.899232 0.790460
O O19 0.332122 0.928841 0.746228
O O20 0.390744 0.905577 0.000000
O O21 0.265025 0.093797 0.500000
O O22 0.203207 0.000000 0.665161
#
# Coordination Sequence:
#
# PCOD8194935 Si02
#       8
#     8   8   4   4   8   8   8   8
#     4   9  16  26  42  67  95 127 164 202 246 296
#     4   9  16  29  48  69  98 134 170 207 252 310
#     4   9  16  24  38  62  98 132 156 193 249 301
#     4   9  18  30  41  60  96 136 169 205 251 301
#     4   9  18  33  51  71  95 123 160 206 250 293
#     4  10  19  29  46  70  97 129 168 209 250 297
#     4   9  19  36  56  76 100 134 172 207 252 313
#     4  10  21  34  50  77 108 134 167 213 256 294
#
# _framework density 18.623483
#
# number of rings (size 3 to 8) (size 9 to 14) (size 15 to 20)
#    0.000    2.714    0.714    2.143    1.000    3.714 
#    0.000    4.643    0.000    1.714    0.000    1.500 
#    0.000    0.571    0.000    0.000    0.000    0.000 
#
# Total GULP energy -693870.962201 kJ/mol
# GULP energy per Si atom -12390.552896 kJ/mol
# Density = 1.858109 g / cm^3
# Si number density = 18.623483 Si / 1000 Ang^3
#
#
#
# Elastic Constant Matrix: (Units=GPa)
#
#
# Indices 1 2 3 4 5 6 
#
# 1 109.0334 52.6570 23.8694 0.0000 0.0000 0.0000
# 2 52.6570 126.8022 22.5315 0.0000 0.0000 0.0000
# 3 23.8694 22.5315 26.8499 0.0000 0.0000 0.0000
# 4 0.0000 0.0000 0.0000 13.0838 0.0000 0.0000
# 5 0.0000 0.0000 0.0000 0.0000 10.1071 0.0000
# 6 0.0000 0.0000 0.0000 0.0000 0.0000 29.7438
#
#
#
# Elastic Compliance Matrix: (Units=1/GPa)
#
#
# Indices 1 2 3 4 5 6 
#
# 1 0.012829 -0.003879 -0.008150 0.000000 0.000000 0.000000
# 2 -0.003879 0.010441 -0.005313 0.000000 0.000000 0.000000
# 3 -0.008150 -0.005313 0.048948 0.000000 0.000000 0.000000
# 4 0.000000 0.000000 0.000000 0.076430 0.000000 0.000000
# 5 0.000000 0.000000 0.000000 0.000000 0.098940 0.000000
# 6 0.000000 0.000000 0.000000 0.000000 0.000000 0.033620
#
#
# Mechanical properties :
#
#
# Convention : Reuss Voigt Hill
#
# Bulk Modulus (GPa) = 26.64266 51.20015 38.92141
# Shear Modulus (GPa) = 15.22511 21.49546 18.36028
#
# Velocity S-wave (km/s) = 2.86234 3.40106 3.14326
# Velocity P-wave (km/s) = 5.02603 6.55552 5.84105
#
# Compressibility (1/GPa) = 0.03753379
#
# Stress axis : x y z
#
# Youngs Moduli (GPa) = 77.94746 95.77231 20.42993
#
# Poissons Ratio (x) = 0.37154 0.16649
# Poissons Ratio (y) = 0.30239 0.10855
# Poissons Ratio (z) = 0.63524 0.50887
#
# Static dielectric constant tensor:
#      x y z
#    x 3.553120 0.000000 0.000000 
#    y 0.000000 3.595330 0.000000 
#    z 0.000000 0.000000 2.885040 
# 
# 
# High freq. dielectric constant tensor:
#      x y z
#    x 1.724380 0.000000 0.000000 
#    y 0.000000 1.735120 0.000000 
#    z 0.000000 0.000000 1.662200 
# 
# From -- ./inp_files/7381.got.cif
#   From: 2010.03.12/outbox.cif.g09.slc.cpg/sg47_4_cif.got.tgz:7381.got - 2010.04.14 03:12:58.
