data_PCOD8194687
_publ_section_title
;
Structure prediction by ZEFSAII (Michael W. Deem and Ramdas Pophale) SiO2 
 PCOD8194687
Probable space group: P M M M
;
_chemical_formula_sum "Si O2"
_cell_formula_units_Z 52
_cell_length_a 12.705148
_cell_length_b 9.374105
_cell_length_c 27.056004
_cell_angle_alpha 90.000000
_cell_angle_beta 90.000000
_cell_angle_gamma 90.000000
_cell_volume 3222.353610
_symmetry_space_group_name_H-M "P M M M"
_symmetry_group_IT_number 47
_symmetry_cell_setting 'orthorhombic'
loop_
_space_group_symop_operation_xyz
x,y,z
-x,-y,z
x,-y,-z
-x,y,-z
-x,-y,-z
x,y,-z
-x,y,z
x,-y,z
loop_
_atom_site_type_symbol
_atom_site_label
_atom_site_fract_x
_atom_site_fract_y
_atom_site_fract_z
Si Si1 0.378308 0.157366 0.643711
Si Si2 0.693150 0.667196 0.264900
Si Si3 0.619264 0.334013 0.844234
Si Si4 0.625189 0.659847 0.554747
Si Si5 0.811586 0.835404 0.876941
Si Si6 0.000000 0.830069 0.056016
Si Si7 0.880428 0.161159 0.233184
O O1 0.500000 0.137608 0.632281
O O2 0.368778 0.252493 0.692420
O O3 0.325461 0.236286 0.596463
O O4 0.326555 0.000000 0.650515
O O5 0.693740 0.500000 0.276209
O O6 0.636130 0.703596 0.213331
O O7 0.811991 0.726150 0.263809
O O8 0.500000 0.291192 0.858720
O O9 0.639810 0.500000 0.853309
O O10 0.700914 0.248859 0.878831
O O11 0.659012 0.713487 0.500000
O O12 0.500000 0.657018 0.558874
O O13 0.668553 0.500000 0.563765
O O14 0.893229 0.774134 0.917676
O O15 0.868841 0.812148 0.824968
O O16 0.784852 0.000000 0.886994
O O17 0.000000 0.000000 0.059631
O O18 0.000000 0.774053 0.000000
O O19 0.000000 0.187108 0.248909
O O20 0.844566 0.000000 0.246049
#
# Coordination Sequence:
#
# PCOD8194687 Si02
#       7
#     8   8   8   8   8   4   8
#     4  10  19  28  39  57  83 114 146 181 219 259
#     4  10  19  29  42  61  85 115 148 181 217 260
#     4   9  18  31  45  63  89 121 154 187 223 263
#     4   8  14  25  40  56  75 104 142 180 219 262
#     4   9  16  28  47  70  92 117 149 182 221 267
#     4   9  16  28  49  75  99 119 143 183 232 275
#     4   9  16  28  45  63  87 115 141 174 216 262
#
# _framework density 16.137273
#
# number of rings (size 3 to 8) (size 9 to 14) (size 15 to 20)
#    0.000    2.846    0.769    1.846    0.000    3.077 
#    0.000    1.923    0.000    1.385    0.000    3.231 
#    0.000    0.615    0.000    6.462    0.000    3.077 
#
# Total GULP energy -644587.712856 kJ/mol
# GULP energy per Si atom -12395.917555 kJ/mol
# Density = 1.610054 g / cm^3
# Si number density = 16.137273 Si / 1000 Ang^3
#
#
#
# Elastic Constant Matrix: (Units=GPa)
#
#
# Indices 1 2 3 4 5 6 
#
# 1 81.5936 38.2601 34.0764 0.0000 0.0000 0.0000
# 2 38.2601 82.1663 42.6828 0.0000 0.0000 0.0000
# 3 34.0764 42.6828 79.0548 0.0000 0.0000 0.0000
# 4 0.0000 0.0000 0.0000 19.0916 0.0000 0.0000
# 5 0.0000 0.0000 0.0000 0.0000 12.6270 0.0000
# 6 0.0000 0.0000 0.0000 0.0000 0.0000 23.4532
#
#
#
# Elastic Compliance Matrix: (Units=1/GPa)
#
#
# Indices 1 2 3 4 5 6 
#
# 1 0.016602 -0.005578 -0.004145 0.000000 0.000000 0.000000
# 2 -0.005578 0.018788 -0.007740 0.000000 0.000000 0.000000
# 3 -0.004145 -0.007740 0.018615 0.000000 0.000000 0.000000
# 4 0.000000 0.000000 0.000000 0.052379 0.000000 0.000000
# 5 0.000000 0.000000 0.000000 0.000000 0.079196 0.000000
# 6 0.000000 0.000000 0.000000 0.000000 0.000000 0.042638
#
#
# Mechanical properties :
#
#
# Convention : Reuss Voigt Hill
#
# Bulk Modulus (GPa) = 52.40880 52.53925 52.47403
# Shear Modulus (GPa) = 18.55265 19.55405 19.05335
#
# Velocity S-wave (km/s) = 3.39437 3.48477 3.43987
# Velocity P-wave (km/s) = 6.92168 6.98712 6.95448
#
# Compressibility (1/GPa) = 0.01908077
#
# Stress axis : x y z
#
# Youngs Moduli (GPa) = 60.23247 53.22495 53.72015
#
# Poissons Ratio (x) = 0.29687 0.22267
# Poissons Ratio (y) = 0.33595 0.41578
# Poissons Ratio (z) = 0.24966 0.41195
#
# Static dielectric constant tensor:
#      x y z
#    x 2.891440 0.000000 0.000000 
#    y 0.000000 3.178570 0.000000 
#    z 0.000000 0.000000 2.976640 
# 
# 
# High freq. dielectric constant tensor:
#      x y z
#    x 1.590070 0.000000 0.000000 
#    y 0.000000 1.619340 0.000000 
#    z 0.000000 0.000000 1.601220 
# 
# From -- ./inp_files/13229.got.cif
#   From: 2010.03.12/outbox.cif.g09.slc.cpg/sg47_7_cif.got.tgz:13229.got - 2010.04.14 03:12:58.
