data_PCOD8194995
_publ_section_title
;
Structure prediction by ZEFSAII (Michael W. Deem and Ramdas Pophale) SiO2 
 PCOD8194995
Probable space group: P M M M
;
_chemical_formula_sum "Si O2"
_cell_formula_units_Z 40
_cell_length_a 15.434548
_cell_length_b 8.858364
_cell_length_c 19.352750
_cell_angle_alpha 90.000000
_cell_angle_beta 90.000000
_cell_angle_gamma 90.000000
_cell_volume 2646.001732
_symmetry_space_group_name_H-M "P M M M"
_symmetry_group_IT_number 47
_symmetry_cell_setting 'orthorhombic'
loop_
_space_group_symop_operation_xyz
x,y,z
-x,-y,z
x,-y,-z
-x,y,-z
-x,-y,-z
x,y,-z
-x,y,z
x,-y,z
loop_
_atom_site_type_symbol
_atom_site_label
_atom_site_fract_x
_atom_site_fract_y
_atom_site_fract_z
Si Si1 0.838351 0.678299 0.347292
Si Si2 0.102064 0.173841 0.787678
Si Si3 0.323897 0.176469 0.418991
Si Si4 0.000000 0.829070 0.581682
Si Si5 0.897154 0.330372 0.075649
Si Si6 0.500000 0.330064 0.418109
O O1 0.842595 0.500000 0.352950
O O2 0.846819 0.727148 0.267851
O O3 0.748183 0.735945 0.376585
O O4 0.914943 0.746839 0.392414
O O5 0.136293 0.221031 0.863684
O O6 0.000000 0.205598 0.779241
O O7 0.124426 0.000000 0.775856
O O8 0.310091 0.207924 0.500000
O O9 0.415748 0.239763 0.392534
O O10 0.318788 0.000000 0.402402
O O11 0.000000 0.828028 0.500000
O O12 0.000000 0.000000 0.610705
O O13 0.863592 0.500000 0.089819
O O14 0.000000 0.329296 0.075202
O O15 0.863643 0.274604 0.000000
O O16 0.500000 0.500000 0.387557
O O17 0.500000 0.336332 0.500000
#
# Coordination Sequence:
#
# PCOD8194995 Si02
#       6
#     8   8   8   4   8   4
#     4  12  23  33  47  65  87 117 152 190 228 268
#     4  10  19  30  44  60  84 116 150 187 224 265
#     4  10  20  34  51  69  90 116 146 183 229 277
#     4  11  23  37  49  61  82 113 150 191 231 269
#     4   8  14  25  41  60  82 108 141 181 221 260
#     4   9  17  31  51  73  93 111 138 179 224 273
#
# _framework density 15.117149
#
# number of rings (size 3 to 8) (size 9 to 14) (size 15 to 20)
#    0.000    2.000    1.000    4.800    0.000    6.800 
#    0.000    2.000    0.000    0.000    0.000    0.000 
#    0.000    0.000    0.000    0.900    0.000   16.600 
#
# Total GULP energy -495984.231330 kJ/mol
# GULP energy per Si atom -12399.605783 kJ/mol
# Density = 1.508274 g / cm^3
# Si number density = 15.117149 Si / 1000 Ang^3
#
#
#
# Elastic Constant Matrix: (Units=GPa)
#
#
# Indices 1 2 3 4 5 6 
#
# 1 86.9857 51.1967 40.4601 0.0000 0.0000 0.0000
# 2 51.1967 127.5986 55.2905 0.0000 0.0000 0.0000
# 3 40.4601 55.2905 87.5893 0.0000 0.0000 0.0000
# 4 0.0000 0.0000 0.0000 26.5326 0.0000 0.0000
# 5 0.0000 0.0000 0.0000 0.0000 -13.3527 0.0000
# 6 0.0000 0.0000 0.0000 0.0000 0.0000 25.1917
#
#
#
# Elastic Compliance Matrix: (Units=1/GPa)
#
#
# Indices 1 2 3 4 5 6 
#
# 1 0.016341 -0.004523 -0.004693 0.000000 0.000000 0.000000
# 2 -0.004523 0.012040 -0.005511 0.000000 0.000000 0.000000
# 3 -0.004693 -0.005511 0.017064 0.000000 0.000000 0.000000
# 4 0.000000 0.000000 0.000000 0.037689 0.000000 0.000000
# 5 0.000000 0.000000 0.000000 0.000000 -0.074891 0.000000
# 6 0.000000 0.000000 0.000000 0.000000 0.000000 0.039696
#
#
# Mechanical properties :
#
#
# Convention : Reuss Voigt Hill
#
# Bulk Modulus (GPa) = 62.53771 66.22981 64.38376
# Shear Modulus (GPa) = 60.44295 18.02274 39.23285
#
# Velocity S-wave (km/s) = 6.33007 3.45658 5.09989
# Velocity P-wave (km/s) = 9.74089 7.73542 8.79550
#
# Compressibility (1/GPa) = 0.01599035
#
# Stress axis : x y z
#
# Youngs Moduli (GPa) = 61.19488 83.05833 58.60417
#
# Poissons Ratio (x) = 0.37566 0.27505
# Poissons Ratio (y) = 0.27678 0.32296
# Poissons Ratio (z) = 0.28721 0.45772
#
# Static dielectric constant tensor:
#      x y z
#    x 1.677990 0.000000 0.000000 
#    y 0.000000 3.100150 0.000000 
#    z 0.000000 0.000000 3.070730 
# 
# 
# High freq. dielectric constant tensor:
#      x y z
#    x 1.538360 0.000000 0.000000 
#    y 0.000000 1.597370 0.000000 
#    z 0.000000 0.000000 1.570790 
# 
# From -- ./inp_files/30714.got.cif
#   From: 2010.03.12/outbox.cif.g09.slc.cpg/sg47_16_cif.got.tgz:30714.got - 2010.04.14 03:12:58.
