data_PCOD8194406
_publ_section_title
;
Structure prediction by ZEFSAII (Michael W. Deem and Ramdas Pophale) SiO2 
 PCOD8194406
Probable space group: P M M M
;
_chemical_formula_sum "Si O2"
_cell_formula_units_Z 64
_cell_length_a 9.833491
_cell_length_b 27.069007
_cell_length_c 13.344427
_cell_angle_alpha 90.000000
_cell_angle_beta 90.000000
_cell_angle_gamma 90.000000
_cell_volume 3552.057433
_symmetry_space_group_name_H-M "P M M M"
_symmetry_group_IT_number 47
_symmetry_cell_setting 'orthorhombic'
loop_
_space_group_symop_operation_xyz
x,y,z
-x,-y,z
x,-y,-z
-x,y,-z
-x,-y,-z
x,y,-z
-x,y,z
x,-y,z
loop_
_atom_site_type_symbol
_atom_site_label
_atom_site_fract_x
_atom_site_fract_y
_atom_site_fract_z
Si Si1 0.147481 0.712742 0.388878
Si Si2 0.848877 0.119764 0.113224
Si Si3 0.662899 0.637120 0.708185
Si Si4 0.344714 0.863555 0.608968
Si Si5 0.765652 0.210318 0.240560
Si Si6 0.341941 0.297100 0.889724
Si Si7 0.844175 0.557582 0.615398
Si Si8 0.660017 0.943128 0.760655
O O1 0.169550 0.734934 0.500000
O O2 0.273165 0.676165 0.369501
O O3 0.135563 0.756406 0.307920
O O4 0.000000 0.685023 0.383522
O O5 0.846912 0.169035 0.180159
O O6 0.740306 0.078114 0.143893
O O7 0.000000 0.097003 0.122303
O O8 0.815100 0.135435 0.000000
O O9 0.500000 0.633014 0.691911
O O10 0.701672 0.656616 0.819633
O O11 0.737438 0.585150 0.688308
O O12 0.271565 0.856586 0.500000
O O13 0.500000 0.873585 0.587552
O O14 0.334953 0.815853 0.680403
O O15 0.286726 0.912494 0.664141
O O16 0.687023 0.244681 0.161951
O O17 0.500000 0.300278 0.906509
O O18 0.270487 0.300905 0.000000
O O19 0.818619 0.573232 0.500000
O O20 0.815023 0.500000 0.629340
O O21 0.000000 0.569759 0.645438
O O22 0.500000 0.935138 0.780535
O O23 0.696443 0.000000 0.743431
#
# Coordination Sequence:
#
# PCOD8194406 Si02
#       8
#     8   8   8   8   8   8   8   8
#     4  10  20  32  47  68  97 134 168 196 234 287
#     4  10  21  35  51  72  97 124 154 194 246 295
#     4  10  20  32  49  74 101 130 167 210 251 288
#     4   9  17  29  47  73 103 129 153 190 241 290
#     4  10  18  31  49  71  95 126 165 204 235 279
#     4   9  18  32  49  70  99 134 169 206 248 291
#     4   9  18  33  53  76 103 136 169 200 242 298
#     4   9  19  35  53  73  95 121 157 196 233 281
#
# _framework density 18.017726
#
# number of rings (size 3 to 8) (size 9 to 14) (size 15 to 20)
#    0.000    2.500    0.000    2.625    0.000    4.250 
#    0.000    3.125    0.000   11.250    0.000    6.125 
#    0.000    0.000    0.000    0.000    0.000    0.000 
#
# Total GULP energy -793025.556024 kJ/mol
# GULP energy per Si atom -12391.024313 kJ/mol
# Density = 1.797672 g / cm^3
# Si number density = 18.017726 Si / 1000 Ang^3
#
#
#
# Elastic Constant Matrix: (Units=GPa)
#
#
# Indices 1 2 3 4 5 6 
#
# 1 70.5866 44.4310 42.8453 0.0000 0.0000 0.0000
# 2 44.4310 105.0113 56.9190 0.0000 0.0000 0.0000
# 3 42.8453 56.9190 137.7990 0.0000 0.0000 0.0000
# 4 0.0000 0.0000 0.0000 -1.6883 0.0000 0.0000
# 5 0.0000 0.0000 0.0000 0.0000 19.9996 0.0000
# 6 0.0000 0.0000 0.0000 0.0000 0.0000 25.1397
#
#
#
# Elastic Compliance Matrix: (Units=1/GPa)
#
#
# Indices 1 2 3 4 5 6 
#
# 1 0.020620 -0.006764 -0.003618 0.000000 0.000000 0.000000
# 2 -0.006764 0.014488 -0.003882 0.000000 0.000000 0.000000
# 3 -0.003618 -0.003882 0.009985 0.000000 0.000000 0.000000
# 4 0.000000 0.000000 0.000000 -0.592306 0.000000 0.000000
# 5 0.000000 0.000000 0.000000 0.000000 0.050001 0.000000
# 6 0.000000 0.000000 0.000000 0.000000 0.000000 0.039778
#
#
# Mechanical properties :
#
#
# Convention : Reuss Voigt Hill
#
# Bulk Modulus (GPa) = 60.35711 66.86530 63.61121
# Shear Modulus (GPa) = -11.80958 19.97031 4.08036
#
# Velocity S-wave (km/s) = -2.56294 3.33283 1.50650
# Velocity P-wave (km/s) = 4.98129 7.21122 6.19738
#
# Compressibility (1/GPa) = 0.01656806
#
# Stress axis : x y z
#
# Youngs Moduli (GPa) = 48.49592 69.02030 100.14975
#
# Poissons Ratio (x) = 0.46684 0.36230
# Poissons Ratio (y) = 0.32802 0.38874
# Poissons Ratio (z) = 0.17544 0.26791
#
# Static dielectric constant tensor:
#      x y z
#    x 3.188750 0.000000 0.000000 
#    y 0.000000 3.284050 0.000000 
#    z 0.000000 0.000000 3.873230 
# 
# 
# High freq. dielectric constant tensor:
#      x y z
#    x 1.684540 0.000000 0.000000 
#    y 0.000000 1.688340 0.000000 
#    z 0.000000 0.000000 1.701050 
# 
# From -- ./inp_files/22162.got.cif
#   From: 2010.03.12/outbox.cif.g09.slc.cpg/sg47_12_cif.got.tgz:22162.got - 2010.04.14 03:12:58.
