data_PCOD8194669
_publ_section_title
;
Structure prediction by ZEFSAII (Michael W. Deem and Ramdas Pophale) SiO2 
 PCOD8194669
Probable space group: P M M M
;
_chemical_formula_sum "Si O2"
_cell_formula_units_Z 64
_cell_length_a 26.508955
_cell_length_b 9.005233
_cell_length_c 18.355073
_cell_angle_alpha 90.000000
_cell_angle_beta 90.000000
_cell_angle_gamma 90.000000
_cell_volume 4381.710478
_symmetry_space_group_name_H-M "P M M M"
_symmetry_group_IT_number 47
_symmetry_cell_setting 'orthorhombic'
loop_
_space_group_symop_operation_xyz
x,y,z
-x,-y,z
x,-y,-z
-x,y,-z
-x,-y,-z
x,y,-z
-x,y,z
x,-y,z
loop_
_atom_site_type_symbol
_atom_site_label
_atom_site_fract_x
_atom_site_fract_y
_atom_site_fract_z
Si Si1 0.055275 0.825194 0.162577
Si Si2 0.654100 0.671940 0.585754
Si Si3 0.208293 0.666850 0.793503
Si Si4 0.154702 0.175665 0.083362
Si Si5 0.102129 0.336248 0.286931
Si Si6 0.444607 0.833763 0.586355
Si Si7 0.254582 0.823816 0.662952
Si Si8 0.164124 0.673382 0.582940
O O1 0.099356 0.765483 0.109393
O O2 0.064541 0.774630 0.245982
O O3 0.000000 0.767279 0.136623
O O4 0.055696 0.000000 0.162391
O O5 0.661643 0.702505 0.500000
O O6 0.662724 0.500000 0.604288
O O7 0.598197 0.719062 0.612523
O O8 0.692520 0.771965 0.630705
O O9 0.228266 0.500000 0.807723
O O10 0.199526 0.748652 0.870758
O O11 0.156043 0.664111 0.751382
O O12 0.248273 0.755674 0.744008
O O13 0.158289 0.000000 0.094372
O O14 0.161717 0.222900 0.000000
O O15 0.077767 0.500000 0.283913
O O16 0.113659 0.287615 0.370312
O O17 0.445966 0.835735 0.500000
O O18 0.500000 0.783246 0.615578
O O19 0.432224 0.000000 0.614912
O O20 0.211243 0.770749 0.607955
O O21 0.252995 0.000000 0.669218
O O22 0.151184 0.711219 0.500000
O O23 0.178489 0.500000 0.593943
#
# Coordination Sequence:
#
# PCOD8194669 Si02
#       8
#     8   8   8   8   8   8   8   8
#     4   9  17  28  42  60  81 105 130 155 186 223
#     4  10  19  28  38  54  78 107 139 176 215 251
#     4   9  17  30  45  59  78 104 132 159 189 229
#     4   9  17  29  45  65  87 107 128 156 187 221
#     4   8  15  27  42  58  74  96 125 156 190 229
#     4   8  14  25  39  53  71  98 134 176 218 255
#     4  11  20  28  40  58  80 104 132 165 202 243
#     4   9  17  29  43  58  77  99 124 158 200 242
#
# _framework density 14.606169
#
# number of rings (size 3 to 8) (size 9 to 14) (size 15 to 20)
#    0.000    2.875    0.000    3.375    0.000    6.500 
#    0.000    2.500    0.000    0.375    0.000    6.125 
#    0.000    0.000    0.000    0.000    0.000    0.625 
#
# Total GULP energy -793203.177472 kJ/mol
# GULP energy per Si atom -12393.799648 kJ/mol
# Density = 1.457292 g / cm^3
# Si number density = 14.606169 Si / 1000 Ang^3
#
#
#
# Elastic Constant Matrix: (Units=GPa)
#
#
# Indices 1 2 3 4 5 6 
#
# 1 50.2342 28.8536 32.7681 0.0000 0.0000 0.0000
# 2 28.8536 64.1730 34.1559 0.0000 0.0000 0.0000
# 3 32.7681 34.1559 93.0993 0.0000 0.0000 0.0000
# 4 0.0000 0.0000 0.0000 20.2828 0.0000 0.0000
# 5 0.0000 0.0000 0.0000 0.0000 11.2777 0.0000
# 6 0.0000 0.0000 0.0000 0.0000 0.0000 20.1163
#
#
#
# Elastic Compliance Matrix: (Units=1/GPa)
#
#
# Indices 1 2 3 4 5 6 
#
# 1 0.030107 -0.009813 -0.006997 0.000000 0.000000 0.000000
# 2 -0.009813 0.022562 -0.004824 0.000000 0.000000 0.000000
# 3 -0.006997 -0.004824 0.014974 0.000000 0.000000 0.000000
# 4 0.000000 0.000000 0.000000 0.049303 0.000000 0.000000
# 5 0.000000 0.000000 0.000000 0.000000 0.088670 0.000000
# 6 0.000000 0.000000 0.000000 0.000000 0.000000 0.049711
#
#
# Mechanical properties :
#
#
# Convention : Reuss Voigt Hill
#
# Bulk Modulus (GPa) = 41.02324 44.34017 42.68170
# Shear Modulus (GPa) = 16.30157 17.78397 17.04277
#
# Velocity S-wave (km/s) = 3.34439 3.49315 3.41958
# Velocity P-wave (km/s) = 6.56205 6.83319 6.69899
#
# Compressibility (1/GPa) = 0.02437643
#
# Stress axis : x y z
#
# Youngs Moduli (GPa) = 33.21488 44.32164 66.78438
#
# Poissons Ratio (x) = 0.43492 0.46727
# Poissons Ratio (y) = 0.32593 0.32215
# Poissons Ratio (z) = 0.23239 0.21380
#
# Static dielectric constant tensor:
#      x y z
#    x 2.872270 0.000000 0.000000 
#    y 0.000000 2.912110 0.000000 
#    z 0.000000 0.000000 2.837670 
# 
# 
# High freq. dielectric constant tensor:
#      x y z
#    x 1.531990 0.000000 0.000000 
#    y 0.000000 1.563410 0.000000 
#    z 0.000000 0.000000 1.530280 
# 
# From -- ./inp_files/27151.got.cif
#   From: 2010.03.12/outbox.cif.g09.slc.cpg/sg47_14_cif.got.tgz:27151.got - 2010.04.14 03:12:58.
