data_PCOD8194817
_publ_section_title
;
Structure prediction by ZEFSAII (Michael W. Deem and Ramdas Pophale) SiO2 
 PCOD8194817
Probable space group: P M M M
;
_chemical_formula_sum "Si O2"
_cell_formula_units_Z 56
_cell_length_a 13.791703
_cell_length_b 29.256563
_cell_length_c 8.891085
_cell_angle_alpha 90.000000
_cell_angle_beta 90.000000
_cell_angle_gamma 90.000000
_cell_volume 3587.533483
_symmetry_space_group_name_H-M "P M M M"
_symmetry_group_IT_number 47
_symmetry_cell_setting 'orthorhombic'
loop_
_space_group_symop_operation_xyz
x,y,z
-x,-y,z
x,-y,-z
-x,y,-z
-x,-y,-z
x,y,-z
-x,y,z
x,-y,z
loop_
_atom_site_type_symbol
_atom_site_label
_atom_site_fract_x
_atom_site_fract_y
_atom_site_fract_z
Si Si1 0.886377 0.640398 0.325844
Si Si2 0.885038 0.550074 0.168665
Si Si3 0.390175 0.050067 0.320965
Si Si4 0.212616 0.724481 0.822463
Si Si5 0.890973 0.807512 0.675831
Si Si6 0.290936 0.138952 0.676903
Si Si7 0.610124 0.230899 0.678000
O O1 0.864633 0.648874 0.500000
O O2 0.849581 0.589612 0.281614
O O3 0.824850 0.675292 0.227313
O O4 0.000000 0.646731 0.289415
O O5 0.846217 0.500000 0.221674
O O6 0.000000 0.548843 0.168054
O O7 0.847307 0.560606 0.000000
O O8 0.386018 0.050776 0.500000
O O9 0.500000 0.058771 0.267115
O O10 0.323191 0.090434 0.250753
O O11 0.354526 0.000000 0.263484
O O12 0.136629 0.762097 0.764852
O O13 0.319977 0.732333 0.755899
O O14 0.218364 0.726917 0.000000
O O15 0.879250 0.795917 0.500000
O O16 0.820143 0.849380 0.721591
O O17 0.000000 0.822374 0.716552
O O18 0.302387 0.134337 0.500000
O O19 0.360214 0.180016 0.732982
O O20 0.623606 0.235126 0.500000
O O21 0.500000 0.240709 0.727482
#
# Coordination Sequence:
#
# PCOD8194817 Si02
#       7
#     8   8   8   8   8   8   8
#     4  10  19  29  42  60  84 115 149 182 212 246
#     4   8  14  25  40  58  82 112 144 177 214 254
#     4   8  12  17  28  50  79 106 130 160 201 249
#     4  11  21  30  42  61  85 110 137 172 213 254
#     4   9  17  29  43  57  76 105 141 177 210 247
#     4   8  13  22  37  56  77 104 137 167 198 241
#     4   9  17  30  47  63  81 108 139 169 203 247
#
# _framework density 15.609609000000001
#
# number of rings (size 3 to 8) (size 9 to 14) (size 15 to 20)
#    0.000    3.000    0.000    4.286    0.000    5.143 
#    0.000    1.429    0.000    0.429    0.000    3.000 
#    0.000    9.714    0.000   42.571    0.000   37.143 
#
# Total GULP energy -694021.636190 kJ/mol
# GULP energy per Si atom -12393.243503 kJ/mol
# Density = 1.557408 g / cm^3
# Si number density = 15.609609 Si / 1000 Ang^3
#
#
#
# Elastic Constant Matrix: (Units=GPa)
#
#
# Indices 1 2 3 4 5 6 
#
# 1 102.6281 57.1268 32.3285 0.0000 0.0000 0.0000
# 2 57.1268 120.6535 30.0283 0.0000 0.0000 0.0000
# 3 32.3285 30.0283 46.8877 0.0000 0.0000 0.0000
# 4 0.0000 0.0000 0.0000 4.1935 0.0000 0.0000
# 5 0.0000 0.0000 0.0000 0.0000 10.9906 0.0000
# 6 0.0000 0.0000 0.0000 0.0000 0.0000 19.3840
#
#
#
# Elastic Compliance Matrix: (Units=1/GPa)
#
#
# Indices 1 2 3 4 5 6 
#
# 1 0.014868 -0.005339 -0.006832 0.000000 0.000000 0.000000
# 2 -0.005339 0.011777 -0.003861 0.000000 0.000000 0.000000
# 3 -0.006832 -0.003861 0.028511 0.000000 0.000000 0.000000
# 4 0.000000 0.000000 0.000000 0.238464 0.000000 0.000000
# 5 0.000000 0.000000 0.000000 0.000000 0.090987 0.000000
# 6 0.000000 0.000000 0.000000 0.000000 0.000000 0.051589
#
#
# Mechanical properties :
#
#
# Convention : Reuss Voigt Hill
#
# Bulk Modulus (GPa) = 43.30597 56.57072 49.93835
# Shear Modulus (GPa) = 10.50515 16.95934 13.73224
#
# Velocity S-wave (km/s) = 2.59702 3.29974 2.96924
# Velocity P-wave (km/s) = 6.06598 7.13003 6.61942
#
# Compressibility (1/GPa) = 0.02309150
#
# Stress axis : x y z
#
# Youngs Moduli (GPa) = 67.25799 84.90956 35.07443
#
# Poissons Ratio (x) = 0.45337 0.23962
# Poissons Ratio (y) = 0.35912 0.13542
# Poissons Ratio (z) = 0.45950 0.32784
#
# Static dielectric constant tensor:
#      x y z
#    x 2.911680 0.000000 0.000000 
#    y 0.000000 3.308460 0.000000 
#    z 0.000000 0.000000 2.730700 
# 
# 
# High freq. dielectric constant tensor:
#      x y z
#    x 1.570570 0.000000 0.000000 
#    y 0.000000 1.599190 0.000000 
#    z 0.000000 0.000000 1.573140 
# 
# From -- ./inp_files/8169.got.cif
#   From: 2010.03.12/outbox.cif.g09.slc.cpg/sg47_5_cif.got.tgz:8169.got - 2010.04.14 03:12:58.
