data_PCOD8194898
_publ_section_title
;
Structure prediction by ZEFSAII (Michael W. Deem and Ramdas Pophale) SiO2 
 PCOD8194898
Probable space group: P M M M
;
_chemical_formula_sum "Si O2"
_cell_formula_units_Z 64
_cell_length_a 19.296220
_cell_length_b 20.589541
_cell_length_c 9.324997
_cell_angle_alpha 90.000000
_cell_angle_beta 90.000000
_cell_angle_gamma 90.000000
_cell_volume 3704.824225
_symmetry_space_group_name_H-M "P M M M"
_symmetry_group_IT_number 47
_symmetry_cell_setting 'orthorhombic'
loop_
_space_group_symop_operation_xyz
x,y,z
-x,-y,z
x,-y,-z
-x,y,-z
-x,-y,-z
x,y,-z
-x,y,z
x,-y,z
loop_
_atom_site_type_symbol
_atom_site_label
_atom_site_fract_x
_atom_site_fract_y
_atom_site_fract_z
Si Si1 0.323210 0.191144 0.160701
Si Si2 0.842956 0.928022 0.661255
Si Si3 0.422535 0.571948 0.670315
Si Si4 0.919394 0.574924 0.836677
Si Si5 0.321900 0.071664 0.660777
Si Si6 0.676607 0.315987 0.667274
Si Si7 0.841841 0.193015 0.838368
Si Si8 0.162160 0.319454 0.667608
O O1 0.353156 0.125663 0.233087
O O2 0.350023 0.252623 0.249747
O O3 0.240595 0.189550 0.161197
O O4 0.352523 0.195342 0.000000
O O5 0.870288 0.915188 0.500000
O O6 0.760556 0.924684 0.661099
O O7 0.873009 0.872324 0.765864
O O8 0.866971 0.000000 0.713389
O O9 0.419494 0.571018 0.500000
O O10 0.500000 0.591260 0.721253
O O11 0.403540 0.500000 0.728800
O O12 0.367026 0.623458 0.729573
O O13 0.902338 0.500000 0.804778
O O14 0.876175 0.617369 0.725790
O O15 0.000000 0.588925 0.811921
O O16 0.898674 0.592417 0.000000
O O17 0.349011 0.085328 0.500000
O O18 0.346029 0.000000 0.712068
O O19 0.662668 0.303984 0.500000
O O20 0.756812 0.330033 0.697611
O O21 0.866337 0.255663 0.748628
O O22 0.870966 0.198195 0.000000
O O23 0.146643 0.310781 0.500000
#
# Coordination Sequence:
#
# PCOD8194898 Si02
#       8
#     8   8   8   8   8   8   8   8
#     4   9  16  24  35  53  79 111 145 180 216 256
#     4   8  13  21  33  50  75 108 144 181 221 263
#     4   8  14  26  45  67  88 111 143 183 222 259
#     4   9  19  36  54  69  88 116 147 179 218 264
#     4   8  13  21  33  49  72 105 142 177 215 259
#     4   9  17  28  43  64  90 118 146 180 222 264
#     4   9  16  25  37  54  80 114 149 183 218 259
#     4  10  19  29  44  67  93 119 147 182 223 265
#
# _framework density 17.274774000000001
#
# number of rings (size 3 to 8) (size 9 to 14) (size 15 to 20)
#    0.000    3.250    0.000    2.625    0.000    5.000 
#    0.000    4.375    0.000    0.750    0.000    0.875 
#    0.000    1.000    0.000   11.000    0.000   14.625 
#
# Total GULP energy -793278.465447 kJ/mol
# GULP energy per Si atom -12394.976023 kJ/mol
# Density = 1.723546 g / cm^3
# Si number density = 17.274774 Si / 1000 Ang^3
#
#
#
# Elastic Constant Matrix: (Units=GPa)
#
#
# Indices 1 2 3 4 5 6 
#
# 1 28.1697 42.4170 29.0448 0.0000 0.0000 0.0000
# 2 42.4170 161.5386 82.6026 0.0000 0.0000 0.0000
# 3 29.0448 82.6026 106.1940 0.0000 0.0000 0.0000
# 4 0.0000 0.0000 0.0000 29.4122 0.0000 0.0000
# 5 0.0000 0.0000 0.0000 0.0000 8.9392 0.0000
# 6 0.0000 0.0000 0.0000 0.0000 0.0000 0.6784
#
#
#
# Elastic Compliance Matrix: (Units=1/GPa)
#
#
# Indices 1 2 3 4 5 6 
#
# 1 0.061782 -0.012590 -0.007105 0.000000 0.000000 0.000000
# 2 -0.012590 0.012844 -0.006548 0.000000 0.000000 0.000000
# 3 -0.007105 -0.006548 0.016453 0.000000 0.000000 0.000000
# 4 0.000000 0.000000 0.000000 0.034000 0.000000 0.000000
# 5 0.000000 0.000000 0.000000 0.000000 0.111866 0.000000
# 6 0.000000 0.000000 0.000000 0.000000 0.000000 1.474000
#
#
# Mechanical properties :
#
#
# Convention : Reuss Voigt Hill
#
# Bulk Modulus (GPa) = 25.91019 67.11456 46.51237
# Shear Modulus (GPa) = 2.81485 17.26183 10.03834
#
# Velocity S-wave (km/s) = 1.27789 3.16452 2.41321
# Velocity P-wave (km/s) = 4.14834 7.23103 5.89477
#
# Compressibility (1/GPa) = 0.03859486
#
# Stress axis : x y z
#
# Youngs Moduli (GPa) = 16.18598 77.85499 60.77915
#
# Poissons Ratio (x) = 0.98017 0.43183
# Poissons Ratio (y) = 0.20378 0.39796
# Poissons Ratio (z) = 0.11500 0.50976
#
# Static dielectric constant tensor:
#      x y z
#    x 2.690570 0.000000 0.000000 
#    y 0.000000 3.552150 0.000000 
#    z 0.000000 0.000000 3.233850 
# 
# 
# High freq. dielectric constant tensor:
#      x y z
#    x 1.600820 0.000000 0.000000 
#    y 0.000000 1.684220 0.000000 
#    z 0.000000 0.000000 1.658360 
# 
# From -- ./inp_files/11831.got.cif
#   From: 2010.03.12/outbox.cif.g09.slc.cpg/sg47_6_cif.got.tgz:11831.got - 2010.04.14 03:12:58.
