data_PCOD8194670
_publ_section_title
;
Structure prediction by ZEFSAII (Michael W. Deem and Ramdas Pophale) SiO2 
 PCOD8194670
Probable space group: P M M M
;
_chemical_formula_sum "Si O2"
_cell_formula_units_Z 56
_cell_length_a 29.678058
_cell_length_b 9.188665
_cell_length_c 13.588866
_cell_angle_alpha 90.000000
_cell_angle_beta 90.000000
_cell_angle_gamma 90.000000
_cell_volume 3705.707305
_symmetry_space_group_name_H-M "P M M M"
_symmetry_group_IT_number 47
_symmetry_cell_setting 'orthorhombic'
loop_
_space_group_symop_operation_xyz
x,y,z
-x,-y,z
x,-y,-z
-x,y,-z
-x,-y,-z
x,y,-z
-x,y,z
x,-y,z
loop_
_atom_site_type_symbol
_atom_site_label
_atom_site_fract_x
_atom_site_fract_y
_atom_site_fract_z
Si Si1 0.643936 0.163375 0.117220
Si Si2 0.949530 0.329845 0.703186
Si Si3 0.452303 0.827100 0.110138
Si Si4 0.731802 0.670689 0.885348
Si Si5 0.870062 0.167792 0.389916
Si Si6 0.105669 0.666190 0.890147
Si Si7 0.184914 0.828633 0.797876
O O1 0.595310 0.222011 0.160235
O O2 0.683186 0.272308 0.150782
O O3 0.654834 0.000000 0.155657
O O4 0.639891 0.160510 0.000000
O O5 0.948294 0.500000 0.681399
O O6 0.916235 0.254717 0.626266
O O7 0.934230 0.295057 0.814841
O O8 0.000000 0.268327 0.689316
O O9 0.500000 0.778988 0.163431
O O10 0.450158 0.000000 0.105485
O O11 0.454245 0.763444 0.000000
O O12 0.734375 0.500000 0.866452
O O13 0.768174 0.750059 0.817717
O O14 0.740176 0.708871 0.000000
O O15 0.852098 0.199714 0.500000
O O16 0.831316 0.213369 0.312571
O O17 0.882329 0.000000 0.374726
O O18 0.122202 0.500000 0.874583
O O19 0.148110 0.771311 0.875024
O O20 0.086705 0.689631 0.000000
O O21 0.191199 0.000000 0.812200
#
# Coordination Sequence:
#
# PCOD8194670 Si02
#       7
#     8   8   8   8   8   8   8
#     4   8  13  21  33  49  69  95 130 168 200 231
#     4   9  18  31  46  66  89 109 131 158 185 217
#     4   7   9  14  26  44  64  87 120 164 206 234
#     4  10  19  28  38  54  79 108 133 160 196 234
#     4   9  19  35  51  65  81 101 125 155 193 235
#     4   9  17  29  44  61  83 110 135 158 186 220
#     4  10  19  30  45  62  78  98 127 161 194 231
#
# _framework density 15.111825
#
# number of rings (size 3 to 8) (size 9 to 14) (size 15 to 20)
#    0.000    3.143    0.000    2.571    0.000    4.571 
#    0.000    2.857    0.000    0.429    0.000    7.000 
#    0.000    0.000    0.000    0.000    0.000    0.714 
#
# Total GULP energy -693842.837473 kJ/mol
# GULP energy per Si atom -12390.050669 kJ/mol
# Density = 1.507743 g / cm^3
# Si number density = 15.111825 Si / 1000 Ang^3
#
#
#
# Elastic Constant Matrix: (Units=GPa)
#
#
# Indices 1 2 3 4 5 6 
#
# 1 140.5574 47.8551 32.1766 0.0000 0.0000 0.0000
# 2 47.8551 52.3713 21.1343 0.0000 0.0000 0.0000
# 3 32.1766 21.1343 56.6438 0.0000 0.0000 0.0000
# 4 0.0000 0.0000 0.0000 14.9770 0.0000 0.0000
# 5 0.0000 0.0000 0.0000 0.0000 9.3351 0.0000
# 6 0.0000 0.0000 0.0000 0.0000 0.0000 16.0439
#
#
#
# Elastic Compliance Matrix: (Units=1/GPa)
#
#
# Indices 1 2 3 4 5 6 
#
# 1 0.010708 -0.008629 -0.002863 0.000000 0.000000 0.000000
# 2 -0.008629 0.029433 -0.006080 0.000000 0.000000 0.000000
# 3 -0.002863 -0.006080 0.021549 0.000000 0.000000 0.000000
# 4 0.000000 0.000000 0.000000 0.066769 0.000000 0.000000
# 5 0.000000 0.000000 0.000000 0.000000 0.107122 0.000000
# 6 0.000000 0.000000 0.000000 0.000000 0.000000 0.062329
#
#
# Mechanical properties :
#
#
# Convention : Reuss Voigt Hill
#
# Bulk Modulus (GPa) = 37.67086 50.21161 43.94123
# Shear Modulus (GPa) = 14.62405 17.96499 16.29452
#
# Velocity S-wave (km/s) = 3.11420 3.45164 3.28725
# Velocity P-wave (km/s) = 6.15737 7.01313 6.59913
#
# Compressibility (1/GPa) = 0.02654572
#
# Stress axis : x y z
#
# Youngs Moduli (GPa) = 93.38940 33.97561 46.40595
#
# Poissons Ratio (x) = 0.29318 0.13286
# Poissons Ratio (y) = 0.80587 0.28214
# Poissons Ratio (z) = 0.26738 0.20657
#
# Static dielectric constant tensor:
#      x y z
#    x 3.268640 0.000000 0.000000 
#    y 0.000000 2.836090 0.000000 
#    z 0.000000 0.000000 2.616460 
# 
# 
# High freq. dielectric constant tensor:
#      x y z
#    x 1.586120 0.000000 0.000000 
#    y 0.000000 1.570250 0.000000 
#    z 0.000000 0.000000 1.526410 
# 
# From -- ./inp_files/8109.got.cif
#   From: 2010.03.12/outbox.cif.g09.slc.cpg/sg47_5_cif.got.tgz:8109.got - 2010.04.14 03:12:58.
