data_PCOD8194139
_publ_section_title
;
Structure prediction by ZEFSAII (Michael W. Deem and Ramdas Pophale) SiO2 
 PCOD8194139
Probable space group: P M M M
;
_chemical_formula_sum "Si O2"
_cell_formula_units_Z 52
_cell_length_a 19.256935
_cell_length_b 7.910831
_cell_length_c 17.557826
_cell_angle_alpha 90.000000
_cell_angle_beta 90.000000
_cell_angle_gamma 90.000000
_cell_volume 2674.730389
_symmetry_space_group_name_H-M "P M M M"
_symmetry_group_IT_number 47
_symmetry_cell_setting 'orthorhombic'
loop_
_space_group_symop_operation_xyz
x,y,z
-x,-y,z
x,-y,-z
-x,y,-z
-x,-y,-z
x,y,-z
-x,y,z
x,-y,z
loop_
_atom_site_type_symbol
_atom_site_label
_atom_site_fract_x
_atom_site_fract_y
_atom_site_fract_z
Si Si1 0.665264 0.314618 0.305370
Si Si2 0.810364 0.808338 0.298080
Si Si3 0.818176 0.200104 0.872248
Si Si4 0.079255 0.697227 0.413822
Si Si5 0.667878 0.687716 0.875420
Si Si6 0.922085 0.201018 0.000000
Si Si7 0.578363 0.000000 0.306047
Si Si8 0.421387 0.000000 0.875906
O O1 0.638623 0.500000 0.332166
O O2 0.745046 0.293677 0.332462
O O3 0.665325 0.300630 0.215012
O O4 0.615859 0.168209 0.339088
O O5 0.833244 0.740698 0.214626
O O6 0.874409 0.800812 0.355338
O O7 0.784829 0.000000 0.288834
O O8 0.746420 0.279530 0.902931
O O9 0.881330 0.265344 0.924854
O O10 0.810785 0.000000 0.878379
O O11 0.101252 0.742576 0.500000
O O12 0.089288 0.500000 0.398387
O O13 0.000000 0.751205 0.400046
O O14 0.644527 0.500000 0.903098
O O15 0.616513 0.831637 0.908434
O O16 0.000000 0.277707 0.000000
O O17 0.926092 0.000000 0.000000
O O18 0.500000 0.000000 0.336907
O O19 0.580057 0.000000 0.215151
O O20 0.500000 0.000000 0.906516
#
# Coordination Sequence:
#
# PCOD8194139 Si02
#       8
#     8   8   8   8   8   4   4   4
#     4   9  16  27  43  65  96 132 170 211 253 298
#     4  10  18  29  49  74 100 132 172 216 256 301
#     4   9  17  31  50  71  99 133 171 214 258 304
#     4   9  19  35  51  69  98 134 170 210 256 307
#     4   9  16  27  45  67  94 130 169 207 250 302
#     4   9  18  32  51  75 101 131 169 214 263 312
#     4   9  16  26  40  64  99 133 167 208 254 305
#     4   9  16  26  42  67 100 130 161 205 253 302
#
# _framework density 19.441210999999999
#
# number of rings (size 3 to 8) (size 9 to 14) (size 15 to 20)
#    0.000    2.846    1.538    0.923    0.000    2.462 
#    0.000    5.769    0.000    0.923    0.000    1.077 
#    0.000    2.462    0.000    3.385    0.000    3.077 
#
# Total GULP energy -644568.404184 kJ/mol
# GULP energy per Si atom -12395.546234 kJ/mol
# Density = 1.939696 g / cm^3
# Si number density = 19.441211 Si / 1000 Ang^3
#
#
#
# Elastic Constant Matrix: (Units=GPa)
#
#
# Indices 1 2 3 4 5 6 
#
# 1 148.8764 65.3861 44.5376 0.0000 0.0000 0.0000
# 2 65.3861 111.5768 18.2907 0.0000 0.0000 0.0000
# 3 44.5376 18.2907 56.0993 0.0000 0.0000 0.0000
# 4 0.0000 0.0000 0.0000 3.9080 0.0000 0.0000
# 5 0.0000 0.0000 0.0000 0.0000 -1.4283 0.0000
# 6 0.0000 0.0000 0.0000 0.0000 0.0000 21.4825
#
#
#
# Elastic Compliance Matrix: (Units=1/GPa)
#
#
# Indices 1 2 3 4 5 6 
#
# 1 0.011233 -0.005410 -0.007154 0.000000 0.000000 0.000000
# 2 -0.005410 0.012074 0.000358 0.000000 0.000000 0.000000
# 3 -0.007154 0.000358 0.023389 0.000000 0.000000 0.000000
# 4 0.000000 0.000000 0.000000 0.255883 0.000000 0.000000
# 5 0.000000 0.000000 0.000000 0.000000 -0.700134 0.000000
# 6 0.000000 0.000000 0.000000 0.000000 0.000000 0.046549
#
#
# Mechanical properties :
#
#
# Convention : Reuss Voigt Hill
#
# Bulk Modulus (GPa) = 44.87514 63.66458 54.26986
# Shear Modulus (GPa) = -15.66584 17.34833 0.84124
#
# Velocity S-wave (km/s) = -2.84175 2.99046 0.65852
# Velocity P-wave (km/s) = 3.51642 6.68896 5.34356
#
# Compressibility (1/GPa) = 0.02228405
#
# Stress axis : x y z
#
# Youngs Moduli (GPa) = 89.02036 82.82169 42.75604
#
# Poissons Ratio (x) = 0.44808 0.30589
# Poissons Ratio (y) = 0.48162 -0.01533
# Poissons Ratio (z) = 0.63688 -0.02969
#
# Static dielectric constant tensor:
#      x y z
#    x 3.599300 0.000000 0.000000 
#    y 0.000000 3.619890 0.000000 
#    z 0.000000 0.000000 3.112610 
# 
# 
# High freq. dielectric constant tensor:
#      x y z
#    x 1.751270 0.000000 0.000000 
#    y 0.000000 1.759090 0.000000 
#    z 0.000000 0.000000 1.706170 
# 
# From -- ./inp_files/28553.got.cif
#   From: 2010.03.12/outbox.cif.g09.slc.cpg/sg47_15_cif.got.tgz:28553.got - 2010.04.14 03:12:58.
