data_PCOD8194021
_publ_section_title
;
Structure prediction by ZEFSAII (Michael W. Deem and Ramdas Pophale) SiO2 
 PCOD8194021
Probable space group: P M M M
;
_chemical_formula_sum "Si O2"
_cell_formula_units_Z 52
_cell_length_a 15.661643
_cell_length_b 13.815879
_cell_length_c 14.800159
_cell_angle_alpha 90.000000
_cell_angle_beta 90.000000
_cell_angle_gamma 90.000000
_cell_volume 3202.449001
_symmetry_space_group_name_H-M "P M M M"
_symmetry_group_IT_number 47
_symmetry_cell_setting 'orthorhombic'
loop_
_space_group_symop_operation_xyz
x,y,z
-x,-y,z
x,-y,-z
-x,y,-z
-x,-y,-z
x,y,-z
-x,y,z
x,-y,z
loop_
_atom_site_type_symbol
_atom_site_label
_atom_site_fract_x
_atom_site_fract_y
_atom_site_fract_z
Si Si1 0.098807 0.109850 0.763328
Si Si2 0.750876 0.388571 0.604917
Si Si3 0.096581 0.750619 0.603339
Si Si4 0.155775 0.736288 0.895726
Si Si5 0.000000 0.607919 0.107466
Si Si6 0.407051 0.386988 0.718548
Si Si7 0.321054 0.610169 0.100546
O O1 0.112907 0.155599 0.664563
O O2 0.154678 0.165335 0.838312
O O3 0.000000 0.114665 0.792314
O O4 0.131795 0.000000 0.759237
O O5 0.729106 0.377065 0.500000
O O6 0.765851 0.500000 0.631865
O O7 0.837411 0.333183 0.631740
O O8 0.670490 0.342691 0.659595
O O9 0.111388 0.782900 0.500000
O O10 0.000000 0.710612 0.616978
O O11 0.244338 0.682769 0.881051
O O12 0.082707 0.665174 0.857648
O O13 0.139892 0.763067 0.000000
O O14 0.000000 0.500000 0.149044
O O15 0.000000 0.601158 0.000000
O O16 0.500000 0.341430 0.693313
O O17 0.410077 0.500000 0.696818
O O18 0.393193 0.368414 0.825353
O O19 0.286660 0.500000 0.110074
O O20 0.359416 0.626440 0.000000
#
# Coordination Sequence:
#
# PCOD8194021 Si02
#       7
#     8   8   8   8   4   8   8
#     4  10  20  32  45  61  85 117 155 196 231 266
#     4   9  17  29  46  68  94 122 149 181 221 266
#     4   9  18  32  49  67  89 118 152 188 225 265
#     4  10  18  29  44  63  89 119 151 187 224 265
#     4   9  16  26  41  61  86 117 151 183 215 255
#     4   9  17  28  42  61  88 123 158 188 217 256
#     4   9  17  28  43  63  88 119 151 185 225 264
#
# _framework density 16.237573999999999
#
# number of rings (size 3 to 8) (size 9 to 14) (size 15 to 20)
#    0.000    2.692    0.769    1.385    0.000    3.385 
#    0.000    7.692    0.000    0.000    0.000    0.000 
#    0.000    9.846    0.000   27.077    0.000    1.538 
#
# Total GULP energy -644649.339411 kJ/mol
# GULP energy per Si atom -12397.102681 kJ/mol
# Density = 1.620062 g / cm^3
# Si number density = 16.237574 Si / 1000 Ang^3
#
#
#
# Elastic Constant Matrix: (Units=GPa)
#
#
# Indices 1 2 3 4 5 6 
#
# 1 94.4801 43.1334 44.7225 0.0000 0.0000 0.0000
# 2 43.1334 86.2619 40.3239 0.0000 0.0000 0.0000
# 3 44.7225 40.3239 69.6203 0.0000 0.0000 0.0000
# 4 0.0000 0.0000 0.0000 22.3980 0.0000 0.0000
# 5 0.0000 0.0000 0.0000 0.0000 18.6214 0.0000
# 6 0.0000 0.0000 0.0000 0.0000 0.0000 7.2224
#
#
#
# Elastic Compliance Matrix: (Units=1/GPa)
#
#
# Indices 1 2 3 4 5 6 
#
# 1 0.016385 -0.004488 -0.007926 0.000000 0.000000 0.000000
# 2 -0.004488 0.017126 -0.007036 0.000000 0.000000 0.000000
# 3 -0.007926 -0.007036 0.023530 0.000000 0.000000 0.000000
# 4 0.000000 0.000000 0.000000 0.044647 0.000000 0.000000
# 5 0.000000 0.000000 0.000000 0.000000 0.053702 0.000000
# 6 0.000000 0.000000 0.000000 0.000000 0.000000 0.138458
#
#
# Mechanical properties :
#
#
# Convention : Reuss Voigt Hill
#
# Bulk Modulus (GPa) = 55.12386 56.30244 55.71315
# Shear Modulus (GPa) = 14.75820 17.79387 16.27603
#
# Velocity S-wave (km/s) = 3.01805 3.31395 3.16946
# Velocity P-wave (km/s) = 6.79462 7.02798 6.91228
#
# Compressibility (1/GPa) = 0.01814096
#
# Stress axis : x y z
#
# Youngs Moduli (GPa) = 61.03199 58.39121 42.49809
#
# Poissons Ratio (x) = 0.26205 0.33684
# Poissons Ratio (y) = 0.27390 0.29903
# Poissons Ratio (z) = 0.48373 0.41086
#
# Static dielectric constant tensor:
#      x y z
#    x 3.074080 0.000000 0.000000 
#    y 0.000000 2.816950 0.000000 
#    z 0.000000 0.000000 3.173120 
# 
# 
# High freq. dielectric constant tensor:
#      x y z
#    x 1.609910 0.000000 0.000000 
#    y 0.000000 1.582540 0.000000 
#    z 0.000000 0.000000 1.636270 
# 
# From -- ./inp_files/22869.got.cif
#   From: 2010.03.12/outbox.cif.g09.slc.cpg/sg47_12_cif.got.tgz:22869.got - 2010.04.14 03:12:58.
