data_PCOD8194216
_publ_section_title
;
Structure prediction by ZEFSAII (Michael W. Deem and Ramdas Pophale) SiO2 
 PCOD8194216
Probable space group: P M M M
;
_chemical_formula_sum "Si O2"
_cell_formula_units_Z 36
_cell_length_a 20.197327
_cell_length_b 9.397727
_cell_length_c 12.065056
_cell_angle_alpha 90.000000
_cell_angle_beta 90.000000
_cell_angle_gamma 90.000000
_cell_volume 2290.055795
_symmetry_space_group_name_H-M "P M M M"
_symmetry_group_IT_number 47
_symmetry_cell_setting 'orthorhombic'
loop_
_space_group_symop_operation_xyz
x,y,z
-x,-y,z
x,-y,-z
-x,y,-z
-x,-y,-z
x,y,-z
-x,y,z
x,-y,z
loop_
_atom_site_type_symbol
_atom_site_label
_atom_site_fract_x
_atom_site_fract_y
_atom_site_fract_z
Si Si1 0.890659 0.662957 0.207094
Si Si2 0.375274 0.839227 0.131616
Si Si3 0.000000 0.332299 0.622335
Si Si4 0.074960 0.151913 0.000000
Si Si5 0.249679 0.661283 0.127736
Si Si6 0.500000 0.338175 0.867737
O O1 0.909488 0.500000 0.180333
O O2 0.911569 0.759213 0.107539
O O3 0.810916 0.678954 0.214945
O O4 0.932064 0.714633 0.314848
O O5 0.306740 0.766992 0.169215
O O6 0.435931 0.745644 0.178369
O O7 0.379003 0.000000 0.179025
O O8 0.379274 0.842086 0.000000
O O9 0.000000 0.500000 0.609225
O O10 0.000000 0.261167 0.500000
O O11 0.000000 0.109389 0.000000
O O12 0.114782 0.000000 0.000000
O O13 0.277030 0.500000 0.131575
O O14 0.227295 0.696170 0.000000
O O15 0.500000 0.500000 0.822125
O O16 0.500000 0.340193 0.000000
#
# Coordination Sequence:
#
# PCOD8194216 Si02
#       6
#     8   8   4   4   8   4
#     4  10  18  30  48  64  85 114 144 178 222 269
#     4   9  16  24  34  50  74 105 138 173 209 245
#     4   9  18  31  49  70  86 107 146 189 222 259
#     4  11  21  29  41  65  91 108 135 176 221 267
#     4   9  16  25  37  56  79 105 137 172 211 259
#     4   9  15  23  35  49  69 103 144 179 202 233
#
# _framework density 15.720140000000001
#
# number of rings (size 3 to 8) (size 9 to 14) (size 15 to 20)
#    0.000    2.556    2.222    1.333    0.000    5.333 
#    0.000    0.000    0.000    1.333    0.000    0.000 
#    0.000    0.000    0.000    1.000    0.000   23.667 
#
# Total GULP energy -446050.224237 kJ/mol
# GULP energy per Si atom -12390.284007 kJ/mol
# Density = 1.568436 g / cm^3
# Si number density = 15.720140 Si / 1000 Ang^3
#
#
#
# Elastic Constant Matrix: (Units=GPa)
#
#
# Indices 1 2 3 4 5 6 
#
# 1 121.7396 60.9435 35.3861 0.0000 0.0000 0.0000
# 2 60.9435 105.4628 34.0379 0.0000 0.0000 0.0000
# 3 35.3861 34.0379 63.8728 0.0000 0.0000 0.0000
# 4 0.0000 0.0000 0.0000 315.9572 0.0000 0.0000
# 5 0.0000 0.0000 0.0000 0.0000 -1.3010 0.0000
# 6 0.0000 0.0000 0.0000 0.0000 0.0000 17.6488
#
#
#
# Elastic Compliance Matrix: (Units=1/GPa)
#
#
# Indices 1 2 3 4 5 6 
#
# 1 0.012217 -0.005888 -0.003631 0.000000 0.000000 0.000000
# 2 -0.005888 0.014289 -0.004353 0.000000 0.000000 0.000000
# 3 -0.003631 -0.004353 0.019987 0.000000 0.000000 0.000000
# 4 0.000000 0.000000 0.000000 0.003165 0.000000 0.000000
# 5 0.000000 0.000000 0.000000 0.000000 -0.768659 0.000000
# 6 0.000000 0.000000 0.000000 0.000000 0.000000 0.056661
#
#
# Mechanical properties :
#
#
# Convention : Reuss Voigt Hill
#
# Bulk Modulus (GPa) = 53.33149 61.31223 57.32186
# Shear Modulus (GPa) = -7.95740 77.17485 34.60873
#
# Velocity S-wave (km/s) = -2.25231 7.01424 4.69716
# Velocity P-wave (km/s) = 5.21875 10.23164 8.12163
#
# Compressibility (1/GPa) = 0.01875065
#
# Stress axis : x y z
#
# Youngs Moduli (GPa) = 81.85181 69.98187 50.03225
#
# Poissons Ratio (x) = 0.41206 0.18165
# Poissons Ratio (y) = 0.48195 0.21778
# Poissons Ratio (z) = 0.29717 0.30461
#
# Static dielectric constant tensor:
#      x y z
#    x 3.245200 0.000000 0.000000 
#    y 0.000000 3.129790 0.000000 
#    z 0.000000 0.000000 2.718380 
# 
# 
# High freq. dielectric constant tensor:
#      x y z
#    x 1.615130 0.000000 0.000000 
#    y 0.000000 1.609740 0.000000 
#    z 0.000000 0.000000 1.520780 
# 
# From -- ./inp_files/3989.got.cif
#   From: 2010.03.12/outbox.cif.g09.slc.cpg/sg47_2_cif.got.tgz:3989.got - 2010.04.14 03:12:58.
