data_PCOD8194590
_publ_section_title
;
Structure prediction by ZEFSAII (Michael W. Deem and Ramdas Pophale) SiO2 
 PCOD8194590
Probable space group: P M M M
;
_chemical_formula_sum "Si O2"
_cell_formula_units_Z 40
_cell_length_a 20.377749
_cell_length_b 8.692619
_cell_length_c 11.796796
_cell_angle_alpha 90.000000
_cell_angle_beta 90.000000
_cell_angle_gamma 90.000000
_cell_volume 2089.637352
_symmetry_space_group_name_H-M "P M M M"
_symmetry_group_IT_number 47
_symmetry_cell_setting 'orthorhombic'
loop_
_space_group_symop_operation_xyz
x,y,z
-x,-y,z
x,-y,-z
-x,y,-z
-x,-y,-z
x,y,-z
-x,y,z
x,-y,z
loop_
_atom_site_type_symbol
_atom_site_label
_atom_site_fract_x
_atom_site_fract_y
_atom_site_fract_z
Si Si1 0.372070 0.317104 0.247259
Si Si2 0.137450 0.682238 0.776643
Si Si3 0.000000 0.682444 0.869588
Si Si4 0.647681 0.682041 0.000000
Si Si5 0.207937 0.317134 0.000000
Si Si6 0.500000 0.316774 0.627068
Si Si7 0.245888 0.818625 0.630014
O O1 0.366868 0.500000 0.256820
O O2 0.386394 0.264550 0.116964
O O3 0.434205 0.251129 0.315430
O O4 0.303961 0.252294 0.294437
O O5 0.142845 0.500000 0.760979
O O6 0.062154 0.735741 0.793873
O O7 0.172507 0.744259 0.889004
O O8 0.174113 0.760796 0.670631
O O9 0.000000 0.500000 0.882735
O O10 0.000000 0.748850 0.000000
O O11 0.719950 0.753518 0.000000
O O12 0.652476 0.500000 0.000000
O O13 0.207172 0.500000 0.000000
O O14 0.500000 0.500000 0.633954
O O15 0.500000 0.255077 0.500000
O O16 0.255398 0.766018 0.500000
O O17 0.248936 0.000000 0.641606
#
# Coordination Sequence:
#
# PCOD8194590 Si02
#       7
#     8   8   4   4   4   4   8
#     4  10  19  34  57  81 108 139 173 217 268 322
#     4  10  18  32  56  83 110 139 171 212 264 320
#     4   9  16  28  54  89 116 136 165 212 269 320
#     4   9  16  27  49  83 110 132 167 210 261 317
#     4   9  14  25  49  81 110 132 163 208 259 315
#     4   9  18  31  50  80 111 139 178 223 260 302
#     4  11  24  39  53  73 103 141 186 228 263 306
#
# _framework density 19.142078000000001
#
# number of rings (size 3 to 8) (size 9 to 14) (size 15 to 20)
#    0.000    2.200    3.000    1.200    0.000    2.800 
#    0.000    5.500    0.000    5.400    0.000    1.400 
#    0.000    0.000    0.000    0.000    0.000    0.000 
#
# Total GULP energy -495724.971603 kJ/mol
# GULP energy per Si atom -12393.124290 kJ/mol
# Density = 1.909851 g / cm^3
# Si number density = 19.142078 Si / 1000 Ang^3
#
#
#
# Elastic Constant Matrix: (Units=GPa)
#
#
# Indices 1 2 3 4 5 6 
#
# 1 147.3334 17.7311 73.3160 0.0000 0.0000 0.0000
# 2 17.7311 28.4642 27.5424 0.0000 0.0000 0.0000
# 3 73.3160 27.5424 155.6555 0.0000 0.0000 0.0000
# 4 0.0000 0.0000 0.0000 14.1209 0.0000 0.0000
# 5 0.0000 0.0000 0.0000 0.0000 34.1381 0.0000
# 6 0.0000 0.0000 0.0000 0.0000 0.0000 7.3271
#
#
#
# Elastic Compliance Matrix: (Units=1/GPa)
#
#
# Indices 1 2 3 4 5 6 
#
# 1 0.008941 -0.001803 -0.003892 0.000000 0.000000 0.000000
# 2 -0.001803 0.042753 -0.006716 0.000000 0.000000 0.000000
# 3 -0.003892 -0.006716 0.009446 0.000000 0.000000 0.000000
# 4 0.000000 0.000000 0.000000 0.070817 0.000000 0.000000
# 5 0.000000 0.000000 0.000000 0.000000 0.029293 0.000000
# 6 0.000000 0.000000 0.000000 0.000000 0.000000 0.136479
#
#
# Mechanical properties :
#
#
# Convention : Reuss Voigt Hill
#
# Bulk Modulus (GPa) = 27.53458 63.18135 45.35797
# Shear Modulus (GPa) = 14.94061 25.30812 20.12436
#
# Velocity S-wave (km/s) = 2.79679 3.64004 3.24592
# Velocity P-wave (km/s) = 4.98447 7.12353 6.14775
#
# Compressibility (1/GPa) = 0.03631796
#
# Stress axis : x y z
#
# Youngs Moduli (GPa) = 111.84076 23.39004 105.86406
#
# Poissons Ratio (x) = 0.04218 0.41206
# Poissons Ratio (y) = 0.20170 0.71093
# Poissons Ratio (z) = 0.43532 0.15708
#
# Static dielectric constant tensor:
#      x y z
#    x 3.729870 0.000000 0.000000 
#    y 0.000000 2.961470 0.000000 
#    z 0.000000 0.000000 3.780360 
# 
# 
# High freq. dielectric constant tensor:
#      x y z
#    x 1.751430 0.000000 0.000000 
#    y 0.000000 1.691300 0.000000 
#    z 0.000000 0.000000 1.751660 
# 
# From -- ./inp_files/15143.got.cif
#   From: 2010.03.12/outbox.cif.g09.slc.cpg/sg47_8_cif.got.tgz:15143.got - 2010.04.14 03:12:58.
