data_PCOD8194860
_publ_section_title
;
Structure prediction by ZEFSAII (Michael W. Deem and Ramdas Pophale) SiO2 
 PCOD8194860
Probable space group: P M M M
;
_chemical_formula_sum "Si O2"
_cell_formula_units_Z 56
_cell_length_a 8.092726
_cell_length_b 13.798453
_cell_length_c 30.664702
_cell_angle_alpha 90.000000
_cell_angle_beta 90.000000
_cell_angle_gamma 90.000000
_cell_volume 3424.238325
_symmetry_space_group_name_H-M "P M M M"
_symmetry_group_IT_number 47
_symmetry_cell_setting 'orthorhombic'
loop_
_space_group_symop_operation_xyz
x,y,z
-x,-y,z
x,-y,-z
-x,y,-z
-x,-y,-z
x,y,-z
-x,y,z
x,-y,z
loop_
_atom_site_type_symbol
_atom_site_label
_atom_site_fract_x
_atom_site_fract_y
_atom_site_fract_z
Si Si1 0.306208 0.108686 0.219118
Si Si2 0.305313 0.794201 0.309243
Si Si3 0.500000 0.114947 0.451233
Si Si4 0.306523 0.609826 0.000000
Si Si5 0.813167 0.887079 0.395189
Si Si6 0.692051 0.394151 0.737094
Si Si7 0.191111 0.705021 0.177796
Si Si8 0.193945 0.391186 0.090874
O O1 0.500000 0.118134 0.211389
O O2 0.263236 0.136013 0.268811
O O3 0.217835 0.180437 0.185124
O O4 0.242572 0.000000 0.210108
O O5 0.500000 0.797363 0.320048
O O6 0.201309 0.829007 0.350326
O O7 0.241165 0.685799 0.297138
O O8 0.500000 0.158646 0.500000
O O9 0.330419 0.150756 0.427903
O O10 0.500000 0.000000 0.453136
O O11 0.241271 0.659200 0.044622
O O12 0.238174 0.500000 0.000000
O O13 0.500000 0.615218 0.000000
O O14 0.000000 0.870120 0.414065
O O15 0.783893 0.000000 0.385373
O O16 0.500000 0.404438 0.728691
O O17 0.776927 0.500000 0.729981
O O18 0.715125 0.357920 0.786239
O O19 0.262741 0.674583 0.130465
O O20 0.000000 0.679087 0.181677
O O21 0.270764 0.500000 0.094026
O O22 0.000000 0.397477 0.094687
#
# Coordination Sequence:
#
# PCOD8194860 Si02
#       8
#     8   8   4   4   8   8   8   8
#     4   9  18  31  46  63  86 118 152 186 223 260
#     4   9  16  28  45  63  88 121 154 190 228 266
#     4   9  18  32  48  66  93 127 157 191 234 275
#     4   9  17  27  41  63  84 103 134 177 217 252
#     4  10  19  29  45  69  94 123 158 192 229 275
#     4   9  18  31  45  62  88 123 157 187 221 261
#     4  10  19  29  43  64  88 116 149 182 218 262
#     4   9  17  29  43  59  84 116 143 169 210 264
#
# _framework density 16.354002000000001
#
# number of rings (size 3 to 8) (size 9 to 14) (size 15 to 20)
#    0.000    2.714    0.714    2.357    0.000    6.286 
#    0.000    2.857    0.000    0.000    0.000    0.500 
#    0.000    5.143    0.000    1.286    0.000    0.143 
#
# Total GULP energy -694053.439312 kJ/mol
# GULP energy per Si atom -12393.811416 kJ/mol
# Density = 1.631678 g / cm^3
# Si number density = 16.354002 Si / 1000 Ang^3
#
#
#
# Elastic Constant Matrix: (Units=GPa)
#
#
# Indices 1 2 3 4 5 6 
#
# 1 51.3366 19.8490 36.5335 0.0000 0.0000 0.0000
# 2 19.8490 87.8076 42.5005 0.0000 0.0000 0.0000
# 3 36.5335 42.5005 118.7832 0.0000 0.0000 0.0000
# 4 0.0000 0.0000 0.0000 28.8030 0.0000 0.0000
# 5 0.0000 0.0000 0.0000 0.0000 20.4231 0.0000
# 6 0.0000 0.0000 0.0000 0.0000 0.0000 15.2359
#
#
#
# Elastic Compliance Matrix: (Units=1/GPa)
#
#
# Indices 1 2 3 4 5 6 
#
# 1 0.025337 -0.002365 -0.006947 0.000000 0.000000 0.000000
# 2 -0.002365 0.013995 -0.004280 0.000000 0.000000 0.000000
# 3 -0.006947 -0.004280 0.012087 0.000000 0.000000 0.000000
# 4 0.000000 0.000000 0.000000 0.034719 0.000000 0.000000
# 5 0.000000 0.000000 0.000000 0.000000 0.048964 0.000000
# 6 0.000000 0.000000 0.000000 0.000000 0.000000 0.065635
#
#
# Mechanical properties :
#
#
# Convention : Reuss Voigt Hill
#
# Bulk Modulus (GPa) = 41.26220 50.63260 45.94740
# Shear Modulus (GPa) = 21.18664 23.49534 22.34099
#
# Velocity S-wave (km/s) = 3.60321 3.79446 3.70007
# Velocity P-wave (km/s) = 6.52658 7.08695 6.81253
#
# Compressibility (1/GPa) = 0.02423526
#
# Stress axis : x y z
#
# Youngs Moduli (GPa) = 39.46748 71.45556 82.73672
#
# Poissons Ratio (x) = 0.16901 0.57474
# Poissons Ratio (y) = 0.09335 0.35410
# Poissons Ratio (z) = 0.27416 0.30582
#
# Static dielectric constant tensor:
#      x y z
#    x 3.033710 0.000000 0.000000 
#    y 0.000000 3.323980 0.000000 
#    z 0.000000 0.000000 3.188770 
# 
# 
# High freq. dielectric constant tensor:
#      x y z
#    x 1.629780 0.000000 0.000000 
#    y 0.000000 1.597980 0.000000 
#    z 0.000000 0.000000 1.614420 
# 
# From -- ./inp_files/34400.got.cif
#   From: 2010.03.12/outbox.cif.g09.slc.cpg/sg47_18_cif.got.tgz:34400.got - 2010.04.14 03:12:58.
