data_PCOD8194078
_publ_section_title
;
Structure prediction by ZEFSAII (Michael W. Deem and Ramdas Pophale) SiO2 
 PCOD8194078
Probable space group: P M M M
;
_chemical_formula_sum "Si O2"
_cell_formula_units_Z 64
_cell_length_a 20.719944
_cell_length_b 14.271702
_cell_length_c 14.249072
_cell_angle_alpha 90.000000
_cell_angle_beta 90.000000
_cell_angle_gamma 90.000000
_cell_volume 4213.576926
_symmetry_space_group_name_H-M "P M M M"
_symmetry_group_IT_number 47
_symmetry_cell_setting 'orthorhombic'
loop_
_space_group_symop_operation_xyz
x,y,z
-x,-y,z
x,-y,-z
-x,y,-z
-x,-y,-z
x,y,-z
-x,y,z
x,-y,z
loop_
_atom_site_type_symbol
_atom_site_label
_atom_site_fract_x
_atom_site_fract_y
_atom_site_fract_z
Si Si1 0.195237 0.888352 0.394379
Si Si2 0.862044 0.107269 0.895165
Si Si3 0.573897 0.605046 0.731690
Si Si4 0.270324 0.795324 0.893541
Si Si5 0.575242 0.778807 0.391321
Si Si6 0.320579 0.889125 0.718332
Si Si7 0.672065 0.604008 0.894060
Si Si8 0.929706 0.109903 0.710726
O O1 0.201325 0.850295 0.500000
O O2 0.256748 0.852413 0.335936
O O3 0.128709 0.846947 0.350594
O O4 0.193689 0.000000 0.391956
O O5 0.802088 0.173391 0.871581
O O6 0.918103 0.130057 0.821159
O O7 0.838042 0.000000 0.883154
O O8 0.889013 0.124949 0.000000
O O9 0.500000 0.617570 0.761054
O O10 0.587828 0.500000 0.694291
O O11 0.592662 0.676115 0.648654
O O12 0.613410 0.627344 0.825279
O O13 0.319885 0.846179 0.822962
O O14 0.272924 0.682655 0.879578
O O15 0.289750 0.823600 0.000000
O O16 0.594762 0.780230 0.500000
O O17 0.500000 0.802691 0.377458
O O18 0.615790 0.856968 0.336587
O O19 0.322175 0.000000 0.725372
O O20 0.701101 0.500000 0.873784
O O21 0.644712 0.608903 0.000000
O O22 0.000000 0.153450 0.683885
O O23 0.932088 0.000000 0.691457
#
# Coordination Sequence:
#
# PCOD8194078 Si02
#       8
#     8   8   8   8   8   8   8   8
#     4   9  17  28  41  58  80 111 152 189 219 255
#     4   9  16  26  40  59  85 117 151 181 210 252
#     4   9  17  30  48  68  89 113 141 175 221 276
#     4  10  18  29  47  69  90 115 145 179 219 263
#     4  10  21  35  49  67  89 114 150 192 232 271
#     4  11  20  32  49  66  87 117 154 191 224 259
#     4   9  17  29  46  69  93 113 137 173 219 271
#     4   9  16  25  37  56  84 116 148 183 220 255
#
# _framework density 15.188995
#
# number of rings (size 3 to 8) (size 9 to 14) (size 15 to 20)
#    0.000    2.500    2.500    0.750    0.000    2.750 
#    0.000    5.625    0.000    0.375    0.000    0.875 
#    0.000    0.500    0.000    4.875    0.000    2.000 
#
# Total GULP energy -793296.363290 kJ/mol
# GULP energy per Si atom -12395.255676 kJ/mol
# Density = 1.515442 g / cm^3
# Si number density = 15.188995 Si / 1000 Ang^3
#
#
#
# Elastic Constant Matrix: (Units=GPa)
#
#
# Indices 1 2 3 4 5 6 
#
# 1 72.8349 32.1079 37.6879 0.0000 0.0000 0.0000
# 2 32.1079 60.5063 29.6242 0.0000 0.0000 0.0000
# 3 37.6879 29.6242 91.0707 0.0000 0.0000 0.0000
# 4 0.0000 0.0000 0.0000 17.7665 0.0000 0.0000
# 5 0.0000 0.0000 0.0000 0.0000 20.1940 0.0000
# 6 0.0000 0.0000 0.0000 0.0000 0.0000 9.2883
#
#
#
# Elastic Compliance Matrix: (Units=1/GPa)
#
#
# Indices 1 2 3 4 5 6 
#
# 1 0.020204 -0.007883 -0.005797 0.000000 0.000000 0.000000
# 2 -0.007883 0.022734 -0.004133 0.000000 0.000000 0.000000
# 3 -0.005797 -0.004133 0.014724 0.000000 0.000000 0.000000
# 4 0.000000 0.000000 0.000000 0.056286 0.000000 0.000000
# 5 0.000000 0.000000 0.000000 0.000000 0.049520 0.000000
# 6 0.000000 0.000000 0.000000 0.000000 0.000000 0.107662
#
#
# Mechanical properties :
#
#
# Convention : Reuss Voigt Hill
#
# Bulk Modulus (GPa) = 45.37980 47.02798 46.20389
# Shear Modulus (GPa) = 15.91846 17.78257 16.85052
#
# Velocity S-wave (km/s) = 3.24084 3.42534 3.33436
# Velocity P-wave (km/s) = 6.62915 6.83177 6.73122
#
# Compressibility (1/GPa) = 0.02203624
#
# Stress axis : x y z
#
# Youngs Moduli (GPa) = 49.49401 43.98709 67.91764
#
# Poissons Ratio (x) = 0.34677 0.39371
# Poissons Ratio (y) = 0.39018 0.28068
# Poissons Ratio (z) = 0.28691 0.18178
#
# Static dielectric constant tensor:
#      x y z
#    x 2.904420 0.000000 0.000000 
#    y 0.000000 2.789790 0.000000 
#    z 0.000000 0.000000 3.123800 
# 
# 
# High freq. dielectric constant tensor:
#      x y z
#    x 1.567310 0.000000 0.000000 
#    y 0.000000 1.547380 0.000000 
#    z 0.000000 0.000000 1.595980 
# 
# From -- ./inp_files/24092.got.cif
#   From: 2010.03.12/outbox.cif.g09.slc.cpg/sg47_13_cif.got.tgz:24092.got - 2010.04.14 03:12:58.
