data_PCOD8194079
_publ_section_title
;
Structure prediction by ZEFSAII (Michael W. Deem and Ramdas Pophale) SiO2 
 PCOD8194079
Probable space group: P M M M
;
_chemical_formula_sum "Si O2"
_cell_formula_units_Z 36
_cell_length_a 9.476052
_cell_length_b 10.361673
_cell_length_c 21.802150
_cell_angle_alpha 90.000000
_cell_angle_beta 90.000000
_cell_angle_gamma 90.000000
_cell_volume 2140.704101
_symmetry_space_group_name_H-M "P M M M"
_symmetry_group_IT_number 47
_symmetry_cell_setting 'orthorhombic'
loop_
_space_group_symop_operation_xyz
x,y,z
-x,-y,z
x,-y,-z
-x,y,-z
-x,-y,-z
x,y,-z
-x,y,z
x,-y,z
loop_
_atom_site_type_symbol
_atom_site_label
_atom_site_fract_x
_atom_site_fract_y
_atom_site_fract_z
Si Si1 0.667315 0.000000 0.930858
Si Si2 0.156242 0.653277 0.388894
Si Si3 0.667266 0.500000 0.068051
Si Si4 0.667492 0.748449 0.857831
Si Si5 0.658255 0.345789 0.500000
Si Si6 0.165681 0.351160 0.251431
O O1 0.719316 0.874633 0.894086
O O2 0.500000 0.000000 0.935516
O O3 0.730522 0.000000 0.000000
O O4 0.150368 0.500000 0.392379
O O5 0.264343 0.708499 0.439279
O O6 0.203743 0.693587 0.320535
O O7 0.000000 0.708181 0.403221
O O8 0.500000 0.500000 0.063888
O O9 0.720098 0.373304 0.102873
O O10 0.733044 0.500000 0.000000
O O11 0.500000 0.748371 0.847027
O O12 0.744805 0.742171 0.792461
O O13 0.659146 0.500000 0.500000
O O14 0.500000 0.291319 0.500000
O O15 0.210700 0.500000 0.241070
O O16 0.000000 0.334180 0.238738
#
# Coordination Sequence:
#
# PCOD8194079 Si02
#       6
#     4   8   4   8   4   8
#     4   9  18  32  49  69  93 120 149 186 233 281
#     4   8  14  24  37  52  76 115 154 181 214 266
#     4   9  16  26  43  67  89 110 143 184 221 265
#     4  10  18  29  47  69  90 115 150 190 230 272
#     4   9  15  21  31  53  83 114 147 186 225 256
#     4   9  17  29  44  63  89 120 152 189 232 273
#
# _framework density 16.816896
#
# number of rings (size 3 to 8) (size 9 to 14) (size 15 to 20)
#    0.000    3.000    1.111    2.333    0.000    4.889 
#    0.000    2.778    0.000    4.000    0.000    0.000 
#    0.000    0.889    0.000   10.000    0.000    7.556 
#
# Total GULP energy -446270.918452 kJ/mol
# GULP energy per Si atom -12396.414401 kJ/mol
# Density = 1.677862 g / cm^3
# Si number density = 16.816896 Si / 1000 Ang^3
#
#
#
# Elastic Constant Matrix: (Units=GPa)
#
#
# Indices 1 2 3 4 5 6 
#
# 1 66.5885 25.5775 70.6933 0.0000 0.0000 0.0000
# 2 25.5775 79.7137 51.8062 0.0000 0.0000 0.0000
# 3 70.6933 51.8062 170.2543 0.0000 0.0000 0.0000
# 4 0.0000 0.0000 0.0000 17.2000 0.0000 0.0000
# 5 0.0000 0.0000 0.0000 0.0000 25.4617 0.0000
# 6 0.0000 0.0000 0.0000 0.0000 0.0000 9.4794
#
#
#
# Elastic Compliance Matrix: (Units=1/GPa)
#
#
# Indices 1 2 3 4 5 6 
#
# 1 0.027044 -0.001720 -0.010706 0.000000 0.000000 0.000000
# 2 -0.001720 0.015747 -0.004077 0.000000 0.000000 0.000000
# 3 -0.010706 -0.004077 0.011560 0.000000 0.000000 0.000000
# 4 0.000000 0.000000 0.000000 0.058139 0.000000 0.000000
# 5 0.000000 0.000000 0.000000 0.000000 0.039275 0.000000
# 6 0.000000 0.000000 0.000000 0.000000 0.000000 0.105492
#
#
# Mechanical properties :
#
#
# Convention : Reuss Voigt Hill
#
# Bulk Modulus (GPa) = 46.85138 68.07895 57.46516
# Shear Modulus (GPa) = 16.81363 21.66019 19.23691
#
# Velocity S-wave (km/s) = 3.16540 3.59277 3.38583
# Velocity P-wave (km/s) = 6.42494 7.60138 7.03779
#
# Compressibility (1/GPa) = 0.02134409
#
# Stress axis : x y z
#
# Youngs Moduli (GPa) = 36.97659 63.50560 86.50777
#
# Poissons Ratio (x) = 0.10921 0.92615
# Poissons Ratio (y) = 0.06359 0.35273
# Poissons Ratio (z) = 0.39587 0.25894
#
# Static dielectric constant tensor:
#      x y z
#    x 2.977650 0.000000 0.000000 
#    y 0.000000 2.766770 0.000000 
#    z 0.000000 0.000000 3.413620 
# 
# 
# High freq. dielectric constant tensor:
#      x y z
#    x 1.623980 0.000000 0.000000 
#    y 0.000000 1.594420 0.000000 
#    z 0.000000 0.000000 1.666000 
# 
# From -- ./inp_files/15048.got.cif
#   From: 2010.03.12/outbox.cif.g09.slc.cpg/sg47_8_cif.got.tgz:15048.got - 2010.04.14 03:12:58.
