data_PCOD8194163
_publ_section_title
;
Structure prediction by ZEFSAII (Michael W. Deem and Ramdas Pophale) SiO2 
 PCOD8194163
Probable space group: P M M M
;
_chemical_formula_sum "Si O2"
_cell_formula_units_Z 40
_cell_length_a 8.604084
_cell_length_b 20.570376
_cell_length_c 11.861240
_cell_angle_alpha 90.000000
_cell_angle_beta 90.000000
_cell_angle_gamma 90.000000
_cell_volume 2099.311889
_symmetry_space_group_name_H-M "P M M M"
_symmetry_group_IT_number 47
_symmetry_cell_setting 'orthorhombic'
loop_
_space_group_symop_operation_xyz
x,y,z
-x,-y,z
x,-y,-z
-x,y,-z
-x,-y,-z
x,y,-z
-x,y,z
x,-y,z
loop_
_atom_site_type_symbol
_atom_site_label
_atom_site_fract_x
_atom_site_fract_y
_atom_site_fract_z
Si Si1 0.315503 0.201639 0.728669
Si Si2 0.678384 0.571061 0.726364
Si Si3 0.320707 0.739193 0.500000
Si Si4 0.819879 0.602962 0.500000
Si Si5 0.684444 0.928492 0.626956
Si Si6 0.818500 0.312308 0.869869
O O1 0.500000 0.209561 0.742026
O O2 0.247823 0.231967 0.613409
O O3 0.264257 0.125468 0.720012
O O4 0.235391 0.240532 0.830304
O O5 0.500000 0.585519 0.694582
O O6 0.693723 0.500000 0.786851
O O7 0.780185 0.563943 0.613063
O O8 0.734536 0.629236 0.805460
O O9 0.500000 0.758064 0.500000
O O10 0.294193 0.663523 0.500000
O O11 0.000000 0.623072 0.500000
O O12 0.744476 0.911337 0.500000
O O13 0.500000 0.929331 0.622348
O O14 0.747155 0.000000 0.663369
O O15 0.000000 0.319536 0.848371
O O16 0.774006 0.318643 0.000000
#
# Coordination Sequence:
#
# PCOD8194163 Si02
#       6
#     8   8   4   4   8   8
#     4  10  18  31  55  83 112 145 181 223 272 326
#     4  11  24  41  61  84 111 143 179 222 272 328
#     4  10  18  29  50  82 114 144 179 222 270 324
#     4  12  23  35  56  86 119 150 179 214 265 326
#     4   8  13  23  44  79 118 148 174 210 263 324
#     4  11  25  42  58  78 105 140 185 235 283 330
#
# _framework density 19.053861999999999
#
# number of rings (size 3 to 8) (size 9 to 14) (size 15 to 20)
#    0.000    1.800    3.000    3.000    0.000    4.800 
#    0.000    2.000    0.000    1.200    0.000    5.600 
#    0.000    0.000    0.000    0.000    0.000    0.000 
#
# Total GULP energy -495672.838368 kJ/mol
# GULP energy per Si atom -12391.820959 kJ/mol
# Density = 1.901049 g / cm^3
# Si number density = 19.053862 Si / 1000 Ang^3
#
#
#
# Elastic Constant Matrix: (Units=GPa)
#
#
# Indices 1 2 3 4 5 6 
#
# 1 47.7005 24.2992 37.5617 0.0000 0.0000 0.0000
# 2 24.2992 153.5075 54.0573 0.0000 0.0000 0.0000
# 3 37.5617 54.0573 92.1197 0.0000 0.0000 0.0000
# 4 0.0000 0.0000 0.0000-1443.5654 0.0000 0.0000
# 5 0.0000 0.0000 0.0000 0.0000 25.8528 0.0000
# 6 0.0000 0.0000 0.0000 0.0000 0.0000 5.0352
#
#
#
# Elastic Compliance Matrix: (Units=1/GPa)
#
#
# Indices 1 2 3 4 5 6 
#
# 1 0.030919 -0.000573 -0.012271 0.000000 0.000000 0.000000
# 2 -0.000573 0.008222 -0.004591 0.000000 0.000000 0.000000
# 3 -0.012271 -0.004591 0.018553 0.000000 0.000000 0.000000
# 4 0.000000 0.000000 0.000000 -0.000693 0.000000 0.000000
# 5 0.000000 0.000000 0.000000 0.000000 0.038681 0.000000
# 6 0.000000 0.000000 0.000000 0.000000 0.000000 0.198603
#
#
# Mechanical properties :
#
#
# Convention : Reuss Voigt Hill
#
# Bulk Modulus (GPa) = 43.81420 58.35159 51.08290
# Shear Modulus (GPa) = 14.84730 -270.70819 -127.93044
#
# Velocity S-wave (km/s) = 2.79449 -11.93246 -8.20288
# Velocity P-wave (km/s) = 5.78421 12.61562 7.92770
#
# Compressibility (1/GPa) = 0.02282365
#
# Stress axis : x y z
#
# Youngs Moduli (GPa) = 32.34289 121.62850 53.89997
#
# Poissons Ratio (x) = 0.06971 0.66139
# Poissons Ratio (y) = 0.01854 0.24745
# Poissons Ratio (z) = 0.39687 0.55839
#
# Static dielectric constant tensor:
#      x y z
#    x 3.219800 0.000000 0.000000 
#    y 0.000000 3.873250 0.000000 
#    z 0.000000 0.000000 3.365120 
# 
# 
# High freq. dielectric constant tensor:
#      x y z
#    x 1.716700 0.000000 0.000000 
#    y 0.000000 1.759230 0.000000 
#    z 0.000000 0.000000 1.709570 
# 
# From -- ./inp_files/21263.got.cif
#   From: 2010.03.12/outbox.cif.g09.slc.cpg/sg47_11_cif.got.tgz:21263.got - 2010.04.14 03:12:58.
