data_PCOD8194645
_publ_section_title
;
Structure prediction by ZEFSAII (Michael W. Deem and Ramdas Pophale) SiO2 
 PCOD8194645
Probable space group: P M M M
;
_chemical_formula_sum "Si O2"
_cell_formula_units_Z 56
_cell_length_a 13.876572
_cell_length_b 9.313454
_cell_length_c 28.861271
_cell_angle_alpha 90.000000
_cell_angle_beta 90.000000
_cell_angle_gamma 90.000000
_cell_volume 3729.996463
_symmetry_space_group_name_H-M "P M M M"
_symmetry_group_IT_number 47
_symmetry_cell_setting 'orthorhombic'
loop_
_space_group_symop_operation_xyz
x,y,z
-x,-y,z
x,-y,-z
-x,y,-z
-x,-y,-z
x,y,-z
-x,y,z
x,-y,z
loop_
_atom_site_type_symbol
_atom_site_label
_atom_site_fract_x
_atom_site_fract_y
_atom_site_fract_z
Si Si1 0.707892 0.669685 0.777403
Si Si2 0.387558 0.831617 0.860781
Si Si3 0.385745 0.339304 0.948995
Si Si4 0.893605 0.329882 0.724548
Si Si5 0.109841 0.166504 0.553033
Si Si6 0.790502 0.670056 0.632543
Si Si7 0.605766 0.329876 0.315676
O O1 0.699254 0.500000 0.787046
O O2 0.676669 0.756359 0.822180
O O3 0.817666 0.714925 0.764341
O O4 0.639544 0.718948 0.735226
O O5 0.500000 0.794522 0.852750
O O6 0.349968 0.772081 0.910179
O O7 0.368723 0.000000 0.859592
O O8 0.500000 0.338972 0.950346
O O9 0.348955 0.500000 0.936864
O O10 0.346630 0.293081 0.000000
O O11 0.896251 0.500000 0.722268
O O12 0.859980 0.275358 0.673943
O O13 0.000000 0.266851 0.735814
O O14 0.138152 0.197072 0.500000
O O15 0.181266 0.257306 0.584620
O O16 0.000000 0.214775 0.562138
O O17 0.122280 0.000000 0.564887
O O18 0.797308 0.500000 0.626401
O O19 0.681586 0.719813 0.645199
O O20 0.500000 0.264082 0.326225
O O21 0.601986 0.500000 0.315715
#
# Coordination Sequence:
#
# PCOD8194645 Si02
#       7
#     8   8   8   8   8   8   8
#     4   9  16  26  42  60  77 105 141 167 191 232
#     4  10  19  27  36  54  82 112 137 167 206 237
#     4   8  14  25  40  56  74 100 136 172 201 235
#     4   8  14  25  41  62  86 106 126 160 204 241
#     4   9  18  31  44  59  82 109 131 155 196 247
#     4   9  16  26  44  67  84 102 132 167 199 232
#     4   8  14  25  41  61  84 108 134 165 199 233
#
# _framework density 15.01342
#
# number of rings (size 3 to 8) (size 9 to 14) (size 15 to 20)
#    0.000    3.286    0.000    3.857    0.000    2.857 
#    0.000    5.000    0.000    3.000    0.000    3.000 
#    0.000    0.571    0.000    6.571    0.000    2.143 
#
# Total GULP energy -693998.087479 kJ/mol
# GULP energy per Si atom -12392.822991 kJ/mol
# Density = 1.497925 g / cm^3
# Si number density = 15.013420 Si / 1000 Ang^3
#
#
#
# Elastic Constant Matrix: (Units=GPa)
#
#
# Indices 1 2 3 4 5 6 
#
# 1 107.5175 32.2680 59.4119 0.0000 0.0000 0.0000
# 2 32.2680 48.4217 49.2775 0.0000 0.0000 0.0000
# 3 59.4119 49.2775 117.6078 0.0000 0.0000 0.0000
# 4 0.0000 0.0000 0.0000 0.0622 0.0000 0.0000
# 5 0.0000 0.0000 0.0000 0.0000 20.3176 0.0000
# 6 0.0000 0.0000 0.0000 0.0000 0.0000 13.6039
#
#
#
# Elastic Compliance Matrix: (Units=1/GPa)
#
#
# Indices 1 2 3 4 5 6 
#
# 1 0.013237 -0.003515 -0.005214 0.000000 0.000000 0.000000
# 2 -0.003515 0.036937 -0.013701 0.000000 0.000000 0.000000
# 3 -0.005214 -0.013701 0.016878 0.000000 0.000000 0.000000
# 4 0.000000 0.000000 0.000000 16.087608 0.000000 0.000000
# 5 0.000000 0.000000 0.000000 0.000000 0.049218 0.000000
# 6 0.000000 0.000000 0.000000 0.000000 0.000000 0.073508
#
#
# Mechanical properties :
#
#
# Convention : Reuss Voigt Hill
#
# Bulk Modulus (GPa) = 45.06166 61.71797 53.38982
# Shear Modulus (GPa) = 0.30619 15.63604 7.97112
#
# Velocity S-wave (km/s) = 0.45209 3.23068 2.30670
# Velocity P-wave (km/s) = 5.50926 7.42389 6.53705
#
# Compressibility (1/GPa) = 0.02219181
#
# Stress axis : x y z
#
# Youngs Moduli (GPa) = 75.54640 27.07282 59.24958
#
# Poissons Ratio (x) = 0.09515 0.30894
# Poissons Ratio (y) = 0.26551 0.81180
# Poissons Ratio (z) = 0.39392 0.37093
#
# Static dielectric constant tensor:
#      x y z
#    x 3.105110 0.000000 0.000000 
#    y 0.000000 2.633740 0.000000 
#    z 0.000000 0.000000 2.932720 
# 
# 
# High freq. dielectric constant tensor:
#      x y z
#    x 1.551800 0.000000 0.000000 
#    y 0.000000 1.549940 0.000000 
#    z 0.000000 0.000000 1.571410 
# 
# From -- ./inp_files/8146.got.cif
#   From: 2010.03.12/outbox.cif.g09.slc.cpg/sg47_5_cif.got.tgz:8146.got - 2010.04.14 03:12:58.
