data_PCOD8194964
_publ_section_title
;
Structure prediction by ZEFSAII (Michael W. Deem and Ramdas Pophale) SiO2 
 PCOD8194964
Probable space group: P M M M
;
_chemical_formula_sum "Si O2"
_cell_formula_units_Z 52
_cell_length_a 18.024257
_cell_length_b 9.034936
_cell_length_c 24.694078
_cell_angle_alpha 90.000000
_cell_angle_beta 90.000000
_cell_angle_gamma 90.000000
_cell_volume 4021.381423
_symmetry_space_group_name_H-M "P M M M"
_symmetry_group_IT_number 47
_symmetry_cell_setting 'orthorhombic'
loop_
_space_group_symop_operation_xyz
x,y,z
-x,-y,z
x,-y,-z
-x,y,-z
-x,-y,-z
x,y,-z
-x,y,z
x,-y,z
loop_
_atom_site_type_symbol
_atom_site_label
_atom_site_fract_x
_atom_site_fract_y
_atom_site_fract_z
Si Si1 0.411774 0.333610 0.059548
Si Si2 0.773841 0.328843 0.563755
Si Si3 0.500000 0.175748 0.560361
Si Si4 0.081512 0.834232 0.564209
Si Si5 0.588154 0.165260 0.162856
Si Si6 0.642534 0.175987 0.625516
Si Si7 0.586100 0.325883 0.729142
O O1 0.500000 0.334214 0.062989
O O2 0.382084 0.500000 0.068284
O O3 0.378438 0.230599 0.106900
O O4 0.386861 0.274937 0.000000
O O5 0.763453 0.298921 0.500000
O O6 0.762356 0.500000 0.578121
O O7 0.855574 0.279705 0.584018
O O8 0.716031 0.229568 0.595969
O O9 0.500000 0.242977 0.500000
O O10 0.572664 0.233983 0.590893
O O11 0.500000 0.000000 0.558149
O O12 0.079730 0.835478 0.500000
O O13 0.000000 0.784112 0.585861
O O14 0.099756 0.000000 0.585285
O O15 0.500000 0.162710 0.159339
O O16 0.613465 0.267273 0.212728
O O17 0.619606 0.000000 0.170958
O O18 0.636988 0.246506 0.684777
O O19 0.643499 0.000000 0.630727
O O20 0.500000 0.284277 0.719212
O O21 0.599074 0.500000 0.726749
#
# Coordination Sequence:
#
# PCOD8194964 Si02
#       7
#     8   8   4   8   8   8   8
#     4   8  13  21  32  46  65  87 108 131 166 211
#     4  10  20  31  42  59  81 100 118 142 177 220
#     4   9  18  30  43  57  69  85 112 147 186 225
#     4   8  14  26  44  63  80  98 119 140 165 203
#     4   9  16  24  35  50  66  84 110 141 173 210
#     4  11  20  31  45  57  72  92 120 154 186 222
#     4  10  19  30  42  53  68  88 114 148 187 225
#
# _framework density 12.930878999999999
#
# number of rings (size 3 to 8) (size 9 to 14) (size 15 to 20)
#    0.000    2.692    0.769    3.231    0.000    4.615 
#    0.000    3.077    0.000    1.846    0.000    0.000 
#    0.000    0.000    0.000    0.000    0.000    0.000 
#
# Total GULP energy -644592.456829 kJ/mol
# GULP energy per Si atom -12396.008785 kJ/mol
# Density = 1.290145 g / cm^3
# Si number density = 12.930879 Si / 1000 Ang^3
#
#
#
# Elastic Constant Matrix: (Units=GPa)
#
#
# Indices 1 2 3 4 5 6 
#
# 1 54.0540 25.1131 26.0095 0.0000 0.0000 0.0000
# 2 25.1131 73.5536 40.1557 0.0000 0.0000 0.0000
# 3 26.0095 40.1557 84.4247 0.0000 0.0000 0.0000
# 4 0.0000 0.0000 0.0000 22.7893 0.0000 0.0000
# 5 0.0000 0.0000 0.0000 0.0000 1.8356 0.0000
# 6 0.0000 0.0000 0.0000 0.0000 0.0000 14.8269
#
#
#
# Elastic Compliance Matrix: (Units=1/GPa)
#
#
# Indices 1 2 3 4 5 6 
#
# 1 0.023224 -0.005434 -0.004570 0.000000 0.000000 0.000000
# 2 -0.005434 0.019636 -0.007665 0.000000 0.000000 0.000000
# 3 -0.004570 -0.007665 0.016899 0.000000 0.000000 0.000000
# 4 0.000000 0.000000 0.000000 0.043880 0.000000 0.000000
# 5 0.000000 0.000000 0.000000 0.000000 0.544781 0.000000
# 6 0.000000 0.000000 0.000000 0.000000 0.000000 0.067445
#
#
# Mechanical properties :
#
#
# Convention : Reuss Voigt Hill
#
# Bulk Modulus (GPa) = 40.95172 43.84320 42.39746
# Shear Modulus (GPa) = 6.58464 15.94062 11.26263
#
# Velocity S-wave (km/s) = 2.25903 3.51487 2.95445
# Velocity P-wave (km/s) = 6.20828 7.10295 6.67063
#
# Compressibility (1/GPa) = 0.02441900
#
# Stress axis : x y z
#
# Youngs Moduli (GPa) = 43.05949 50.92763 59.17602
#
# Poissons Ratio (x) = 0.27675 0.27043
# Poissons Ratio (y) = 0.23399 0.45360
# Poissons Ratio (z) = 0.19678 0.39038
#
# Static dielectric constant tensor:
#      x y z
#    x 2.403470 0.000000 0.000000 
#    y 0.000000 2.693610 0.000000 
#    z 0.000000 0.000000 2.629900 
# 
# 
# High freq. dielectric constant tensor:
#      x y z
#    x 1.439390 0.000000 0.000000 
#    y 0.000000 1.501350 0.000000 
#    z 0.000000 0.000000 1.477290 
# 
# From -- ./inp_files/10077.got.cif
#   From: 2010.03.12/outbox.cif.g09.slc.cpg/sg47_6_cif.got.tgz:10077.got - 2010.04.14 03:12:58.
