data_PCOD8194609
_publ_section_title
;
Structure prediction by ZEFSAII (Michael W. Deem and Ramdas Pophale) SiO2 
 PCOD8194609
Probable space group: P M M M
;
_chemical_formula_sum "Si O2"
_cell_formula_units_Z 40
_cell_length_a 24.164990
_cell_length_b 9.174310
_cell_length_c 10.245436
_cell_angle_alpha 90.000000
_cell_angle_beta 90.000000
_cell_angle_gamma 90.000000
_cell_volume 2271.383546
_symmetry_space_group_name_H-M "P M M M"
_symmetry_group_IT_number 47
_symmetry_cell_setting 'orthorhombic'
loop_
_space_group_symop_operation_xyz
x,y,z
-x,-y,z
x,-y,-z
-x,y,-z
-x,-y,-z
x,y,-z
-x,y,z
x,-y,z
loop_
_atom_site_type_symbol
_atom_site_label
_atom_site_fract_x
_atom_site_fract_y
_atom_site_fract_z
Si Si1 0.120507 0.827072 0.260485
Si Si2 0.236013 0.827865 0.644030
Si Si3 0.062179 0.173048 0.000000
Si Si4 0.436338 0.329341 0.853067
Si Si5 0.641995 0.171209 0.651391
Si Si6 0.934579 0.667495 0.500000
O O1 0.185684 0.782722 0.260803
O O2 0.095079 0.770076 0.125610
O O3 0.088026 0.747231 0.373508
O O4 0.113169 0.000000 0.279442
O O5 0.222664 0.764298 0.500000
O O6 0.296231 0.772403 0.691664
O O7 0.240216 0.000000 0.632882
O O8 0.000000 0.237324 0.000000
O O9 0.060030 0.000000 0.000000
O O10 0.500000 0.286828 0.830662
O O11 0.427476 0.500000 0.834494
O O12 0.401143 0.248269 0.744695
O O13 0.418339 0.283113 0.000000
O O14 0.630278 0.210950 0.500000
O O15 0.636087 0.000000 0.673436
O O16 0.915234 0.500000 0.500000
O O17 0.000000 0.681196 0.500000
#
# Coordination Sequence:
#
# PCOD8194609 Si02
#       6
#     8   8   4   8   8   4
#     4  10  18  33  56  76  98 133 172 209 252 303
#     4   8  14  28  50  75 100 127 163 207 251 296
#     4   9  18  30  47  77 107 125 158 213 258 296
#     4   9  19  36  54  72 100 138 177 215 251 289
#     4   9  18  32  51  77 107 133 162 207 260 308
#     4  11  23  35  49  75 105 131 168 215 256 299
#
# _framework density 17.610412
#
# number of rings (size 3 to 8) (size 9 to 14) (size 15 to 20)
#    0.000    2.800    1.000    2.700    0.000    3.200 
#    1.800    4.500    0.000    1.800    0.000    0.000 
#    0.000    0.000    0.000    0.000    0.000    0.000 
#
# Total GULP energy -495757.695776 kJ/mol
# GULP energy per Si atom -12393.942394 kJ/mol
# Density = 1.757033 g / cm^3
# Si number density = 17.610412 Si / 1000 Ang^3
#
#
#
# Elastic Constant Matrix: (Units=GPa)
#
#
# Indices 1 2 3 4 5 6 
#
# 1 146.9181 43.1888 99.9853 0.0000 0.0000 0.0000
# 2 43.1888 40.6987 47.0114 0.0000 0.0000 0.0000
# 3 99.9853 47.0114 153.5203 0.0000 0.0000 0.0000
# 4 0.0000 0.0000 0.0000 15.7412 0.0000 0.0000
# 5 0.0000 0.0000 0.0000 0.0000 33.8736 0.0000
# 6 0.0000 0.0000 0.0000 0.0000 0.0000 10.1842
#
#
#
# Elastic Compliance Matrix: (Units=1/GPa)
#
#
# Indices 1 2 3 4 5 6 
#
# 1 0.013194 -0.006306 -0.006662 0.000000 0.000000 0.000000
# 2 -0.006306 0.041033 -0.008458 0.000000 0.000000 0.000000
# 3 -0.006662 -0.008458 0.013443 0.000000 0.000000 0.000000
# 4 0.000000 0.000000 0.000000 0.063528 0.000000 0.000000
# 5 0.000000 0.000000 0.000000 0.000000 0.029521 0.000000
# 6 0.000000 0.000000 0.000000 0.000000 0.000000 0.098191
#
#
# Mechanical properties :
#
#
# Convention : Reuss Voigt Hill
#
# Bulk Modulus (GPa) = 40.29463 80.16757 60.23110
# Shear Modulus (GPa) = 16.12723 22.02325 19.07524
#
# Velocity S-wave (km/s) = 3.02947 3.54019 3.29474
# Velocity P-wave (km/s) = 5.93024 7.89508 6.98212
#
# Compressibility (1/GPa) = 0.02481720
#
# Stress axis : x y z
#
# Youngs Moduli (GPa) = 75.79115 24.37075 74.38918
#
# Poissons Ratio (x) = 0.15368 0.49559
# Poissons Ratio (y) = 0.47794 0.62920
# Poissons Ratio (z) = 0.50493 0.20613
#
# Static dielectric constant tensor:
#      x y z
#    x 3.618510 0.000000 0.000000 
#    y 0.000000 2.932000 0.000000 
#    z 0.000000 0.000000 3.159610 
# 
# 
# High freq. dielectric constant tensor:
#      x y z
#    x 1.696420 0.000000 0.000000 
#    y 0.000000 1.644000 0.000000 
#    z 0.000000 0.000000 1.677710 
# 
# From -- ./inp_files/13048.got.cif
#   From: 2010.03.12/outbox.cif.g09.slc.cpg/sg47_7_cif.got.tgz:13048.got - 2010.04.14 03:12:58.
