data_PCOD8194209
_publ_section_title
;
Structure prediction by ZEFSAII (Michael W. Deem and Ramdas Pophale) SiO2 
 PCOD8194209
Probable space group: P M M M
;
_chemical_formula_sum "Si O2"
_cell_formula_units_Z 64
_cell_length_a 9.434129
_cell_length_b 20.168534
_cell_length_c 19.589297
_cell_angle_alpha 90.000000
_cell_angle_beta 90.000000
_cell_angle_gamma 90.000000
_cell_volume 3727.305522
_symmetry_space_group_name_H-M "P M M M"
_symmetry_group_IT_number 47
_symmetry_cell_setting 'orthorhombic'
loop_
_space_group_symop_operation_xyz
x,y,z
-x,-y,z
x,-y,-z
-x,y,-z
-x,-y,-z
x,y,-z
-x,y,z
x,-y,z
loop_
_atom_site_type_symbol
_atom_site_label
_atom_site_fract_x
_atom_site_fract_y
_atom_site_fract_z
Si Si1 0.340430 0.776195 0.074688
Si Si2 0.167048 0.813196 0.349647
Si Si3 0.165859 0.382261 0.797769
Si Si4 0.340576 0.618573 0.924606
Si Si5 0.661655 0.923092 0.578709
Si Si6 0.162422 0.228280 0.200036
Si Si7 0.339205 0.425930 0.328420
Si Si8 0.664433 0.303789 0.420882
O O1 0.500000 0.801314 0.086030
O O2 0.333728 0.697426 0.075582
O O3 0.247344 0.804467 0.136979
O O4 0.285470 0.801045 0.000000
O O5 0.229248 0.882377 0.375565
O O6 0.199967 0.810318 0.269148
O O7 0.240225 0.752712 0.388050
O O8 0.000000 0.809661 0.364201
O O9 0.232733 0.409880 0.868291
O O10 0.201487 0.304933 0.788217
O O11 0.234900 0.420872 0.735379
O O12 0.000000 0.397171 0.798955
O O13 0.500000 0.594988 0.907036
O O14 0.296886 0.592336 0.000000
O O15 0.685208 0.903723 0.500000
O O16 0.500000 0.906569 0.599655
O O17 0.694576 0.000000 0.590666
O O18 0.000000 0.220945 0.179849
O O19 0.500000 0.412202 0.303498
O O20 0.325207 0.500000 0.359183
O O21 0.296596 0.374125 0.387097
O O22 0.702377 0.309688 0.500000
O O23 0.500000 0.285155 0.409816
#
# Coordination Sequence:
#
# PCOD8194209 Si02
#       8
#     8   8   8   8   8   8   8   8
#     4   8  14  24  39  62  91 123 160 199 238 282
#     4  11  21  33  50  76 108 136 167 205 243 289
#     4  10  18  30  47  67  94 125 158 197 242 294
#     4   8  14  25  42  65  92 121 154 193 237 286
#     4   9  19  36  55  75 102 136 173 210 247 291
#     4   9  18  29  42  65  97 130 162 197 238 285
#     4  10  21  36  53  71  91 120 160 205 253 304
#     4  10  21  36  54  75  97 124 160 202 251 303
#
# _framework density 17.170580999999999
#
# number of rings (size 3 to 8) (size 9 to 14) (size 15 to 20)
#    0.000    2.625    1.250    2.250    0.000    4.750 
#    0.000    4.375    0.000    0.375    0.000    4.375 
#    0.000    0.500    0.000    5.500    0.000    4.250 
#
# Total GULP energy -793456.648833 kJ/mol
# GULP energy per Si atom -12397.760138 kJ/mol
# Density = 1.713150 g / cm^3
# Si number density = 17.170581 Si / 1000 Ang^3
#
#
#
# Elastic Constant Matrix: (Units=GPa)
#
#
# Indices 1 2 3 4 5 6 
#
# 1 90.4434 40.3636 69.7159 0.0000 0.0000 0.0000
# 2 40.3636 61.8217 46.7439 0.0000 0.0000 0.0000
# 3 69.7159 46.7439 126.9131 0.0000 0.0000 0.0000
# 4 0.0000 0.0000 0.0000 11.9745 0.0000 0.0000
# 5 0.0000 0.0000 0.0000 0.0000 28.4419 0.0000
# 6 0.0000 0.0000 0.0000 0.0000 0.0000 17.5350
#
#
#
# Elastic Compliance Matrix: (Units=1/GPa)
#
#
# Indices 1 2 3 4 5 6 
#
# 1 0.021136 -0.006959 -0.009048 0.000000 0.000000 0.000000
# 2 -0.006959 0.024710 -0.005278 0.000000 0.000000 0.000000
# 3 -0.009048 -0.005278 0.014793 0.000000 0.000000 0.000000
# 4 0.000000 0.000000 0.000000 0.083511 0.000000 0.000000
# 5 0.000000 0.000000 0.000000 0.000000 0.035159 0.000000
# 6 0.000000 0.000000 0.000000 0.000000 0.000000 0.057029
#
#
# Mechanical properties :
#
#
# Convention : Reuss Voigt Hill
#
# Bulk Modulus (GPa) = 55.33993 65.86942 60.60468
# Shear Modulus (GPa) = 17.54801 19.74726 18.64763
#
# Velocity S-wave (km/s) = 3.20031 3.39494 3.29906
# Velocity P-wave (km/s) = 6.77905 7.33570 7.06286
#
# Compressibility (1/GPa) = 0.01807014
#
# Stress axis : x y z
#
# Youngs Moduli (GPa) = 47.31163 40.46911 67.59746
#
# Poissons Ratio (x) = 0.28163 0.61159
# Poissons Ratio (y) = 0.32925 0.35680
# Poissons Ratio (z) = 0.42805 0.21361
#
# Static dielectric constant tensor:
#      x y z
#    x 3.259200 0.000000 0.000000 
#    y 0.000000 2.851570 0.000000 
#    z 0.000000 0.000000 3.461350 
# 
# 
# High freq. dielectric constant tensor:
#      x y z
#    x 1.663970 0.000000 0.000000 
#    y 0.000000 1.620310 0.000000 
#    z 0.000000 0.000000 1.670140 
# 
# From -- ./inp_files/11666.got.cif
#   From: 2010.03.12/outbox.cif.g09.slc.cpg/sg47_6_cif.got.tgz:11666.got - 2010.04.14 03:12:58.
