data_PCOD8194656
_publ_section_title
;
Structure prediction by ZEFSAII (Michael W. Deem and Ramdas Pophale) SiO2 
 PCOD8194656
Probable space group: P M M M
;
_chemical_formula_sum "Si O2"
_cell_formula_units_Z 48
_cell_length_a 23.560960
_cell_length_b 13.691388
_cell_length_c 9.336937
_cell_angle_alpha 90.000000
_cell_angle_beta 90.000000
_cell_angle_gamma 90.000000
_cell_volume 3011.930099
_symmetry_space_group_name_H-M "P M M M"
_symmetry_group_IT_number 47
_symmetry_cell_setting 'orthorhombic'
loop_
_space_group_symop_operation_xyz
x,y,z
-x,-y,z
x,-y,-z
-x,y,-z
-x,-y,-z
x,y,-z
-x,y,z
x,-y,z
loop_
_atom_site_type_symbol
_atom_site_label
_atom_site_fract_x
_atom_site_fract_y
_atom_site_fract_z
Si Si1 0.111045 0.110898 0.334968
Si Si2 0.562414 0.115910 0.660708
Si Si3 0.330012 0.113392 0.168091
Si Si4 0.158446 0.389762 0.665025
Si Si5 0.770405 0.793476 0.336738
Si Si6 0.064824 0.284780 0.164889
O O1 0.094684 0.129300 0.500000
O O2 0.177168 0.133948 0.310696
O O3 0.072146 0.179084 0.237270
O O4 0.099320 0.000000 0.289099
O O5 0.576085 0.152642 0.500000
O O6 0.500000 0.154868 0.708744
O O7 0.610888 0.154244 0.767660
O O8 0.561422 0.000000 0.663707
O O9 0.279492 0.177531 0.230899
O O10 0.320526 0.000000 0.208940
O O11 0.332165 0.129180 0.000000
O O12 0.140393 0.374886 0.500000
O O13 0.178638 0.500000 0.696334
O O14 0.210294 0.317048 0.701115
O O15 0.103544 0.366008 0.759800
O O16 0.748663 0.801335 0.500000
O O17 0.000000 0.318839 0.180442
O O18 0.083059 0.276141 0.000000
#
# Coordination Sequence:
#
# PCOD8194656 Si02
#       6
#     8   8   8   8   8   8
#     4   9  18  32  49  67  87 116 153 188 220 254
#     4   8  14  25  40  57  80 115 157 193 221 249
#     4  10  19  27  38  61  92 124 154 182 213 250
#     4   9  19  36  55  71  86 108 141 182 227 270
#     4   9  17  30  47  65  86 111 141 179 220 262
#     4  10  21  34  47  67  94 119 143 174 215 266
#
# _framework density 15.936626
#
# number of rings (size 3 to 8) (size 9 to 14) (size 15 to 20)
#    0.000    2.833    0.000    3.000    0.000    7.333 
#    0.000    5.000    0.000    0.000    0.000    0.000 
#    0.000    0.667    0.000    7.667    0.000    2.500 
#
# Total GULP energy -595122.313331 kJ/mol
# GULP energy per Si atom -12398.381528 kJ/mol
# Density = 1.590035 g / cm^3
# Si number density = 15.936626 Si / 1000 Ang^3
#
#
#
# Elastic Constant Matrix: (Units=GPa)
#
#
# Indices 1 2 3 4 5 6 
#
# 1 98.1910 33.9802 61.5617 0.0000 0.0000 0.0000
# 2 33.9802 80.8084 39.1497 0.0000 0.0000 0.0000
# 3 61.5617 39.1497 91.3384 0.0000 0.0000 0.0000
# 4 0.0000 0.0000 0.0000 13.2946 0.0000 0.0000
# 5 0.0000 0.0000 0.0000 0.0000 20.3470 0.0000
# 6 0.0000 0.0000 0.0000 0.0000 0.0000 12.2532
#
#
#
# Elastic Compliance Matrix: (Units=1/GPa)
#
#
# Indices 1 2 3 4 5 6 
#
# 1 0.017922 -0.002125 -0.011168 0.000000 0.000000 0.000000
# 2 -0.002125 0.015870 -0.005370 0.000000 0.000000 0.000000
# 3 -0.011168 -0.005370 0.020777 0.000000 0.000000 0.000000
# 4 0.000000 0.000000 0.000000 0.075219 0.000000 0.000000
# 5 0.000000 0.000000 0.000000 0.000000 0.049147 0.000000
# 6 0.000000 0.000000 0.000000 0.000000 0.000000 0.081611
#
#
# Mechanical properties :
#
#
# Convention : Reuss Voigt Hill
#
# Bulk Modulus (GPa) = 57.99666 59.96899 58.98282
# Shear Modulus (GPa) = 16.46792 18.22204 17.34498
#
# Velocity S-wave (km/s) = 3.21804 3.38510 3.30263
# Velocity P-wave (km/s) = 7.09075 7.27941 7.18570
#
# Compressibility (1/GPa) = 0.01724237
#
# Stress axis : x y z
#
# Youngs Moduli (GPa) = 55.79817 63.01102 48.12975
#
# Poissons Ratio (x) = 0.13393 0.53752
# Poissons Ratio (y) = 0.11860 0.25845
# Poissons Ratio (z) = 0.62316 0.33836
#
# Static dielectric constant tensor:
#      x y z
#    x 3.066400 0.000000 0.000000 
#    y 0.000000 2.902720 0.000000 
#    z 0.000000 0.000000 3.067920 
# 
# 
# High freq. dielectric constant tensor:
#      x y z
#    x 1.605200 0.000000 0.000000 
#    y 0.000000 1.580030 0.000000 
#    z 0.000000 0.000000 1.616710 
# 
# From -- ./inp_files/6812.got.cif
#   From: 2010.03.12/outbox.cif.g09.slc.cpg/sg47_4_cif.got.tgz:6812.got - 2010.04.14 03:12:58.
