data_PCOD8194076
_publ_section_title
;
Structure prediction by ZEFSAII (Michael W. Deem and Ramdas Pophale) SiO2 
 PCOD8194076
Probable space group: P M M M
;
_chemical_formula_sum "Si O2"
_cell_formula_units_Z 64
_cell_length_a 20.263990
_cell_length_b 19.906828
_cell_length_c 8.987955
_cell_angle_alpha 90.000000
_cell_angle_beta 90.000000
_cell_angle_gamma 90.000000
_cell_volume 3625.667018
_symmetry_space_group_name_H-M "P M M M"
_symmetry_group_IT_number 47
_symmetry_cell_setting 'orthorhombic'
loop_
_space_group_symop_operation_xyz
x,y,z
-x,-y,z
x,-y,-z
-x,y,-z
-x,-y,-z
x,y,-z
-x,y,z
x,-y,z
loop_
_atom_site_type_symbol
_atom_site_label
_atom_site_fract_x
_atom_site_fract_y
_atom_site_fract_z
Si Si1 0.282569 0.705166 0.824791
Si Si2 0.724263 0.573508 0.326902
Si Si3 0.575682 0.922085 0.169665
Si Si4 0.809251 0.076849 0.326472
Si Si5 0.869197 0.285837 0.173114
Si Si6 0.925990 0.149467 0.823090
Si Si7 0.683744 0.838068 0.324817
Si Si8 0.137978 0.428584 0.828282
O O1 0.310954 0.633974 0.763361
O O2 0.206544 0.712957 0.773325
O O3 0.322895 0.766095 0.753521
O O4 0.291959 0.706906 0.000000
O O5 0.721198 0.591363 0.500000
O O6 0.690901 0.500000 0.296103
O O7 0.799804 0.568337 0.278030
O O8 0.500000 0.901092 0.194377
O O9 0.619580 0.880265 0.283132
O O10 0.585538 0.000000 0.206660
O O11 0.597004 0.907094 0.000000
O O12 0.821562 0.088160 0.500000
O O13 0.876339 0.094635 0.241341
O O14 0.749301 0.123107 0.268316
O O15 0.790716 0.000000 0.291108
O O16 0.908249 0.223499 0.245565
O O17 0.902123 0.359605 0.210604
O O18 0.871893 0.271872 0.000000
O O19 0.000000 0.131528 0.771403
O O20 0.920586 0.148194 0.000000
O O21 0.685898 0.827879 0.500000
O O22 0.098049 0.500000 0.809076
O O23 0.162490 0.421756 0.000000
#
# Coordination Sequence:
#
# PCOD8194076 Si02
#       8
#     8   8   8   8   8   8   8   8
#     4  10  18  29  47  68  95 131 168 205 248 298
#     4   9  16  25  38  61  95 129 161 201 248 294
#     4   9  19  36  56  78 106 141 177 208 241 288
#     4  10  22  38  53  71  96 124 155 198 253 308
#     4   8  14  26  43  63  87 116 152 196 244 291
#     4  10  20  34  51  69  90 119 160 208 254 302
#     4  11  21  33  52  78 106 133 165 207 253 300
#     4   8  13  22  38  59  83 115 154 192 233 287
#
# _framework density 17.651923
#
# number of rings (size 3 to 8) (size 9 to 14) (size 15 to 20)
#    0.000    2.625    1.250    2.625    0.000    3.000 
#    0.000    1.875    0.000    0.375    0.000    2.625 
#    0.000    0.500    0.000   22.125    0.000   18.375 
#
# Total GULP energy -792989.308310 kJ/mol
# GULP energy per Si atom -12390.457942 kJ/mol
# Density = 1.761175 g / cm^3
# Si number density = 17.651923 Si / 1000 Ang^3
#
#
#
# Elastic Constant Matrix: (Units=GPa)
#
#
# Indices 1 2 3 4 5 6 
#
# 1 56.8583 35.5881 27.1230 0.0000 0.0000 0.0000
# 2 35.5881 122.2136 45.0513 0.0000 0.0000 0.0000
# 3 27.1230 45.0513 61.1020 0.0000 0.0000 0.0000
# 4 0.0000 0.0000 0.0000 28.1022 0.0000 0.0000
# 5 0.0000 0.0000 0.0000 0.0000 18.9367 0.0000
# 6 0.0000 0.0000 0.0000 0.0000 0.0000 17.4079
#
#
#
# Elastic Compliance Matrix: (Units=1/GPa)
#
#
# Indices 1 2 3 4 5 6 
#
# 1 0.023760 -0.004162 -0.007478 0.000000 0.000000 0.000000
# 2 -0.004162 0.011965 -0.006975 0.000000 0.000000 0.000000
# 3 -0.007478 -0.006975 0.024828 0.000000 0.000000 0.000000
# 4 0.000000 0.000000 0.000000 0.035584 0.000000 0.000000
# 5 0.000000 0.000000 0.000000 0.000000 0.052807 0.000000
# 6 0.000000 0.000000 0.000000 0.000000 0.000000 0.057445
#
#
# Mechanical properties :
#
#
# Convention : Reuss Voigt Hill
#
# Bulk Modulus (GPa) = 42.87516 50.63320 46.75418
# Shear Modulus (GPa) = 19.88901 21.71681 20.80291
#
# Velocity S-wave (km/s) = 3.36033 3.51134 3.43666
# Velocity P-wave (km/s) = 6.27676 6.72204 6.50321
#
# Compressibility (1/GPa) = 0.02332353
#
# Stress axis : x y z
#
# Youngs Moduli (GPa) = 42.08753 83.57375 40.27683
#
# Poissons Ratio (x) = 0.34785 0.30120
# Poissons Ratio (y) = 0.17518 0.28092
# Poissons Ratio (z) = 0.31474 0.58291
#
# Static dielectric constant tensor:
#      x y z
#    x 2.844810 0.000000 0.000000 
#    y 0.000000 3.799210 0.000000 
#    z 0.000000 0.000000 3.121250 
# 
# 
# High freq. dielectric constant tensor:
#      x y z
#    x 1.622420 0.000000 0.000000 
#    y 0.000000 1.707820 0.000000 
#    z 0.000000 0.000000 1.672050 
# 
# From -- ./inp_files/10072.got.cif
#   From: 2010.03.12/outbox.cif.g09.slc.cpg/sg47_6_cif.got.tgz:10072.got - 2010.04.14 03:12:58.
