data_PCOD8194107
_publ_section_title
;
Structure prediction by ZEFSAII (Michael W. Deem and Ramdas Pophale) SiO2 
 PCOD8194107
Probable space group: P M M M
;
_chemical_formula_sum "Si O2"
_cell_formula_units_Z 48
_cell_length_a 9.775833
_cell_length_b 13.366258
_cell_length_c 22.690887
_cell_angle_alpha 90.000000
_cell_angle_beta 90.000000
_cell_angle_gamma 90.000000
_cell_volume 2964.934385
_symmetry_space_group_name_H-M "P M M M"
_symmetry_group_IT_number 47
_symmetry_cell_setting 'orthorhombic'
loop_
_space_group_symop_operation_xyz
x,y,z
-x,-y,z
x,-y,-z
-x,y,-z
-x,-y,-z
x,y,-z
-x,y,z
x,-y,z
loop_
_atom_site_type_symbol
_atom_site_label
_atom_site_fract_x
_atom_site_fract_y
_atom_site_fract_z
Si Si1 0.160273 0.884998 0.657063
Si Si2 0.153473 0.615107 0.067200
Si Si3 0.660324 0.229000 0.114353
Si Si4 0.849714 0.500000 0.570067
Si Si5 0.344872 0.115582 0.767393
Si Si6 0.163228 0.716587 0.566053
Si Si7 0.337674 0.889498 0.000000
O O1 0.242573 0.855105 0.715315
O O2 0.212143 0.808509 0.606761
O O3 0.000000 0.871337 0.670017
O O4 0.191811 0.000000 0.637886
O O5 0.155761 0.500000 0.084527
O O6 0.257158 0.667756 0.112171
O O7 0.000000 0.657668 0.074867
O O8 0.203212 0.630591 0.000000
O O9 0.500000 0.251261 0.109873
O O10 0.699133 0.175211 0.174790
O O11 0.713796 0.164339 0.059095
O O12 0.862343 0.500000 0.500000
O O13 0.778330 0.393226 0.588202
O O14 0.000000 0.500000 0.599013
O O15 0.500000 0.141723 0.748130
O O16 0.332086 0.000000 0.784009
O O17 0.216810 0.739340 0.500000
O O18 0.000000 0.709686 0.565724
O O19 0.500000 0.894851 0.000000
O O20 0.273848 0.000000 0.000000
#
# Coordination Sequence:
#
# PCOD8194107 Si02
#       7
#     8   8   8   4   8   8   4
#     4   9  17  28  43  65  91 119 150 183 221 264
#     4   9  18  32  48  66  91 121 146 173 220 277
#     4  10  18  29  48  71  88 111 149 190 226 259
#     4   7  10  18  34  58  87 115 141 172 215 262
#     4   9  18  32  48  65  88 121 155 182 217 268
#     4   8  13  22  39  64  91 116 144 183 226 263
#     4   9  16  26  42  67  94 110 131 179 232 269
#
# _framework density 16.189229000000001
#
# number of rings (size 3 to 8) (size 9 to 14) (size 15 to 20)
#    0.000    3.167    0.833    2.000    0.000    3.333 
#    0.000    2.500    1.833    2.500    0.000    2.333 
#    0.000    2.000    0.000    0.000    0.000    0.000 
#
# Total GULP energy -594803.955814 kJ/mol
# GULP energy per Si atom -12391.749079 kJ/mol
# Density = 1.615238 g / cm^3
# Si number density = 16.189229 Si / 1000 Ang^3
#
#
#
# Elastic Constant Matrix: (Units=GPa)
#
#
# Indices 1 2 3 4 5 6 
#
# 1 38.3489 39.6061 39.6879 0.0000 0.0000 0.0000
# 2 39.6061 111.7979 71.6051 0.0000 0.0000 0.0000
# 3 39.6879 71.6051 105.8290 0.0000 0.0000 0.0000
# 4 0.0000 0.0000 0.0000 24.6111 0.0000 0.0000
# 5 0.0000 0.0000 0.0000 0.0000 17.2346 0.0000
# 6 0.0000 0.0000 0.0000 0.0000 0.0000 18.9417
#
#
#
# Elastic Compliance Matrix: (Units=1/GPa)
#
#
# Indices 1 2 3 4 5 6 
#
# 1 0.047852 -0.009633 -0.011428 0.000000 0.000000 0.000000
# 2 -0.009633 0.017725 -0.008380 0.000000 0.000000 0.000000
# 3 -0.011428 -0.008380 0.019405 0.000000 0.000000 0.000000
# 4 0.000000 0.000000 0.000000 0.040632 0.000000 0.000000
# 5 0.000000 0.000000 0.000000 0.000000 0.058023 0.000000
# 6 0.000000 0.000000 0.000000 0.000000 0.000000 0.052793
#
#
# Mechanical properties :
#
#
# Convention : Reuss Voigt Hill
#
# Bulk Modulus (GPa) = 38.31434 61.97488 50.14461
# Shear Modulus (GPa) = 16.44676 19.16260 17.80468
#
# Velocity S-wave (km/s) = 3.19079 3.44417 3.31990
# Velocity P-wave (km/s) = 6.10678 7.36078 6.76291
#
# Compressibility (1/GPa) = 0.02609989
#
# Stress axis : x y z
#
# Youngs Moduli (GPa) = 20.89788 56.41823 51.53340
#
# Poissons Ratio (x) = 0.54348 0.58890
# Poissons Ratio (y) = 0.20131 0.43186
# Poissons Ratio (z) = 0.23881 0.47280
#
# Static dielectric constant tensor:
#      x y z
#    x 2.760740 0.000000 0.000000 
#    y 0.000000 3.293190 0.000000 
#    z 0.000000 0.000000 2.938940 
# 
# 
# High freq. dielectric constant tensor:
#      x y z
#    x 1.586900 0.000000 0.000000 
#    y 0.000000 1.631130 0.000000 
#    z 0.000000 0.000000 1.602790 
# 
# From -- ./inp_files/26492.got.cif
#   From: 2010.03.12/outbox.cif.g09.slc.cpg/sg47_14_cif.got.tgz:26492.got - 2010.04.14 03:12:58.
