data_PCOD8194032
_publ_section_title
;
Structure prediction by ZEFSAII (Michael W. Deem and Ramdas Pophale) SiO2 
 PCOD8194032
Probable space group: P M M M
;
_chemical_formula_sum "Si O2"
_cell_formula_units_Z 44
_cell_length_a 15.831887
_cell_length_b 14.506557
_cell_length_c 11.856322
_cell_angle_alpha 90.000000
_cell_angle_beta 90.000000
_cell_angle_gamma 90.000000
_cell_volume 2722.996078
_symmetry_space_group_name_H-M "P M M M"
_symmetry_group_IT_number 47
_symmetry_cell_setting 'orthorhombic'
loop_
_space_group_symop_operation_xyz
x,y,z
-x,-y,z
x,-y,-z
-x,y,-z
-x,-y,-z
x,y,-z
-x,y,z
x,-y,z
loop_
_atom_site_type_symbol
_atom_site_label
_atom_site_fract_x
_atom_site_fract_y
_atom_site_fract_z
Si Si1 0.094171 0.891990 0.500000
Si Si2 0.753246 0.603896 0.865311
Si Si3 0.323162 0.897660 0.128498
Si Si4 0.592013 0.712913 0.132116
Si Si5 0.847118 0.894563 0.741075
Si Si6 0.906752 0.727174 0.130314
O O1 0.147168 0.862958 0.389488
O O2 0.000000 0.846476 0.500000
O O3 0.081874 0.000000 0.500000
O O4 0.757370 0.500000 0.818534
O O5 0.667936 0.651514 0.816543
O O6 0.835260 0.658924 0.819385
O O7 0.753091 0.604434 0.000000
O O8 0.393360 0.821410 0.156227
O O9 0.248032 0.883231 0.216346
O O10 0.362714 0.000000 0.142272
O O11 0.289109 0.883854 0.000000
O O12 0.500000 0.686477 0.184361
O O13 0.589221 0.693791 0.000000
O O14 0.906611 0.826899 0.811441
O O15 0.878648 0.000000 0.757609
O O16 0.000000 0.683145 0.148154
O O17 0.887482 0.744049 0.000000
#
# Coordination Sequence:
#
# PCOD8194032 Si02
#       6
#     4   8   8   8   8   8
#     4   9  18  30  42  60  86 116 151 186 218 254
#     4   9  17  29  42  58  86 119 149 183 220 260
#     4   9  16  26  42  64  91 121 148 176 215 263
#     4   9  16  26  41  62  89 119 149 179 215 263
#     4  10  18  29  45  63  88 120 149 181 216 254
#     4  10  19  29  43  64  89 118 150 180 217 265
#
# _framework density 16.158671999999999
#
# number of rings (size 3 to 8) (size 9 to 14) (size 15 to 20)
#    0.000    2.636    1.818    1.091    0.000    3.273 
#    0.000    6.364    0.000    0.000    0.000    1.273 
#    0.000    5.818    0.000    1.636    0.000    0.727 
#
# Total GULP energy -545250.923006 kJ/mol
# GULP energy per Si atom -12392.066432 kJ/mol
# Density = 1.612189 g / cm^3
# Si number density = 16.158672 Si / 1000 Ang^3
#
#
#
# Elastic Constant Matrix: (Units=GPa)
#
#
# Indices 1 2 3 4 5 6 
#
# 1 126.3358 59.7328 30.7767 0.0000 0.0000 0.0000
# 2 59.7328 105.4571 22.3232 0.0000 0.0000 0.0000
# 3 30.7767 22.3232 45.3931 0.0000 0.0000 0.0000
# 4 0.0000 0.0000 0.0000 5.7996 0.0000 0.0000
# 5 0.0000 0.0000 0.0000 0.0000 6.1001 0.0000
# 6 0.0000 0.0000 0.0000 0.0000 0.0000 14.8913
#
#
#
# Elastic Compliance Matrix: (Units=1/GPa)
#
#
# Indices 1 2 3 4 5 6 
#
# 1 0.011846 -0.005592 -0.005282 0.000000 0.000000 0.000000
# 2 -0.005592 0.013224 -0.002712 0.000000 0.000000 0.000000
# 3 -0.005282 -0.002712 0.026944 0.000000 0.000000 0.000000
# 4 0.000000 0.000000 0.000000 0.172425 0.000000 0.000000
# 5 0.000000 0.000000 0.000000 0.000000 0.163932 0.000000
# 6 0.000000 0.000000 0.000000 0.000000 0.000000 0.067153
#
#
# Mechanical properties :
#
#
# Convention : Reuss Voigt Hill
#
# Bulk Modulus (GPa) = 40.25201 55.87238 48.06220
# Shear Modulus (GPa) = 10.18379 16.31509 13.24944
#
# Velocity S-wave (km/s) = 2.51318 3.18099 2.86660
# Velocity P-wave (km/s) = 5.77806 6.93859 6.38475
#
# Compressibility (1/GPa) = 0.02484348
#
# Stress axis : x y z
#
# Youngs Moduli (GPa) = 84.41730 75.62095 37.11333
#
# Poissons Ratio (x) = 0.42285 0.19602
# Poissons Ratio (y) = 0.47204 0.10065
# Poissons Ratio (z) = 0.44587 0.20508
#
# Static dielectric constant tensor:
#      x y z
#    x 3.213900 0.000000 0.000000 
#    y 0.000000 3.161440 0.000000 
#    z 0.000000 0.000000 2.765880 
# 
# 
# High freq. dielectric constant tensor:
#      x y z
#    x 1.624020 0.000000 0.000000 
#    y 0.000000 1.616460 0.000000 
#    z 0.000000 0.000000 1.557440 
# 
# From -- ./inp_files/6135.got.cif
#   From: 2010.03.12/outbox.cif.g09.slc.cpg/sg47_4_cif.got.tgz:6135.got - 2010.04.14 03:12:58.
