data_PCOD8194890
_publ_section_title
;
Structure prediction by ZEFSAII (Michael W. Deem and Ramdas Pophale) SiO2 
 PCOD8194890
Probable space group: P M M M
;
_chemical_formula_sum "Si O2"
_cell_formula_units_Z 64
_cell_length_a 9.462139
_cell_length_b 21.005480
_cell_length_c 17.787415
_cell_angle_alpha 90.000000
_cell_angle_beta 90.000000
_cell_angle_gamma 90.000000
_cell_volume 3535.369179
_symmetry_space_group_name_H-M "P M M M"
_symmetry_group_IT_number 47
_symmetry_cell_setting 'orthorhombic'
loop_
_space_group_symop_operation_xyz
x,y,z
-x,-y,z
x,-y,-z
-x,y,-z
-x,-y,-z
x,y,-z
-x,y,z
x,-y,z
loop_
_atom_site_type_symbol
_atom_site_label
_atom_site_fract_x
_atom_site_fract_y
_atom_site_fract_z
Si Si1 0.163560 0.428963 0.245564
Si Si2 0.339866 0.688758 0.707516
Si Si3 0.654841 0.925931 0.915459
Si Si4 0.839767 0.609494 0.081324
Si Si5 0.342532 0.276032 0.880630
Si Si6 0.159831 0.804835 0.671700
Si Si7 0.843151 0.834118 0.845863
Si Si8 0.167512 0.929342 0.414212
O O1 0.195485 0.500000 0.276122
O O2 0.257677 0.379031 0.292784
O O3 0.198061 0.431280 0.155565
O O4 0.000000 0.410420 0.258253
O O5 0.500000 0.679890 0.675990
O O6 0.346046 0.711789 0.792246
O O7 0.257610 0.742168 0.657255
O O8 0.500000 0.896180 0.897758
O O9 0.771860 0.902610 0.856342
O O10 0.644485 0.000000 0.904591
O O11 0.701408 0.908401 0.000000
O O12 0.733405 0.667857 0.075418
O O13 0.000000 0.634948 0.090440
O O14 0.825540 0.572594 0.000000
O O15 0.500000 0.268253 0.913034
O O16 0.252855 0.212869 0.895672
O O17 0.153403 0.816489 0.759496
O O18 0.226189 0.868658 0.633037
O O19 0.000000 0.791397 0.641518
O O20 0.000000 0.833863 0.879454
O O21 0.215758 0.919403 0.500000
O O22 0.000000 0.929153 0.407176
O O23 0.221798 0.000000 0.386478
#
# Coordination Sequence:
#
# PCOD8194890 Si02
#       8
#     8   8   8   8   8   8   8   8
#     4   9  17  29  45  64  87 116 149 188 237 289
#     4   9  17  29  45  64  87 116 151 190 229 270
#     4   9  19  35  49  58  73 101 136 175 222 276
#     4   9  17  28  41  58  81 108 140 180 225 275
#     4   9  17  29  43  57  76 104 137 174 218 266
#     4   9  17  29  47  71  98 126 156 193 232 268
#     4  10  19  29  44  66  87 107 137 181 230 275
#     4   8  14  26  46  73 104 136 167 195 223 261
#
# _framework density 18.102778000000001
#
# number of rings (size 3 to 8) (size 9 to 14) (size 15 to 20)
#    0.000    3.000    0.000    1.875    0.000    5.750 
#    0.000    3.125    0.000    0.750    0.000    4.375 
#    0.000    0.500    0.000    5.750    0.000    1.625 
#
# Total GULP energy -792836.411778 kJ/mol
# GULP energy per Si atom -12388.068934 kJ/mol
# Density = 1.806157 g / cm^3
# Si number density = 18.102778 Si / 1000 Ang^3
#
#
#
# Elastic Constant Matrix: (Units=GPa)
#
#
# Indices 1 2 3 4 5 6 
#
# 1 112.6504 62.8545 17.3146 0.0000 0.0000 0.0000
# 2 62.8545 121.0785 28.6988 0.0000 0.0000 0.0000
# 3 17.3146 28.6988 12.1260 0.0000 0.0000 0.0000
# 4 0.0000 0.0000 0.0000 12.7668 0.0000 0.0000
# 5 0.0000 0.0000 0.0000 0.0000 -0.0423 0.0000
# 6 0.0000 0.0000 0.0000 0.0000 0.0000 24.9183
#
#
#
# Elastic Compliance Matrix: (Units=1/GPa)
#
#
# Indices 1 2 3 4 5 6 
#
# 1 0.012670 -0.005214 -0.005751 0.000000 0.000000 0.000000
# 2 -0.005214 0.020958 -0.042157 0.000000 0.000000 0.000000
# 3 -0.005751 -0.042157 0.190453 0.000000 0.000000 0.000000
# 4 0.000000 0.000000 0.000000 0.078328 0.000000 0.000000
# 5 0.000000 0.000000 0.000000 0.000000-23.618039 0.000000
# 6 0.000000 0.000000 0.000000 0.000000 0.000000 0.040131
#
#
# Mechanical properties :
#
#
# Convention : Reuss Voigt Hill
#
# Bulk Modulus (GPa) = 8.48629 51.51006 29.99818
# Shear Modulus (GPa) = -0.21617 16.66103 8.22243
#
# Velocity S-wave (km/s) = -0.34594 3.03703 2.13353
# Velocity P-wave (km/s) = 2.13037 6.38859 4.76196
#
# Compressibility (1/GPa) = 0.11783708
#
# Stress axis : x y z
#
# Youngs Moduli (GPa) = 78.92440 47.71410 5.25064
#
# Poissons Ratio (x) = 0.24879 0.03020
# Poissons Ratio (y) = 0.41153 0.22135
# Poissons Ratio (z) = 0.45392 2.01147
#
# Static dielectric constant tensor:
#      x y z
#    x 3.642750 0.000000 0.000000 
#    y 0.000000 3.444800 0.000000 
#    z 0.000000 0.000000 2.945370 
# 
# 
# High freq. dielectric constant tensor:
#      x y z
#    x 1.693070 0.000000 0.000000 
#    y 0.000000 1.700990 0.000000 
#    z 0.000000 0.000000 1.648550 
# 
# From -- ./inp_files/30178.got.cif
#   From: 2010.03.12/outbox.cif.g09.slc.cpg/sg47_16_cif.got.tgz:30178.got - 2010.04.14 03:12:58.
