data_PCOD8194101
_publ_section_title
;
Structure prediction by ZEFSAII (Michael W. Deem and Ramdas Pophale) SiO2 
 PCOD8194101
Probable space group: P M M M
;
_chemical_formula_sum "Si O2"
_cell_formula_units_Z 52
_cell_length_a 14.481475
_cell_length_b 9.495566
_cell_length_c 20.917426
_cell_angle_alpha 90.000000
_cell_angle_beta 90.000000
_cell_angle_gamma 90.000000
_cell_volume 2876.351100
_symmetry_space_group_name_H-M "P M M M"
_symmetry_group_IT_number 47
_symmetry_cell_setting 'orthorhombic'
loop_
_space_group_symop_operation_xyz
x,y,z
-x,-y,z
x,-y,-z
-x,y,-z
-x,-y,-z
x,y,-z
-x,y,z
x,-y,z
loop_
_atom_site_type_symbol
_atom_site_label
_atom_site_fract_x
_atom_site_fract_y
_atom_site_fract_z
Si Si1 0.789750 0.666771 0.625760
Si Si2 0.391714 0.657497 0.823630
Si Si3 0.099879 0.166620 0.873600
Si Si4 0.712070 0.165971 0.928376
Si Si5 0.601472 0.666743 0.681222
Si Si6 0.892822 0.841060 0.729897
Si Si7 0.894057 0.332485 0.500000
O O1 0.801268 0.500000 0.630353
O O2 0.680751 0.709954 0.630027
O O3 0.840413 0.733367 0.685324
O O4 0.837066 0.724343 0.561079
O O5 0.500000 0.652719 0.834736
O O6 0.350226 0.500000 0.831338
O O7 0.350877 0.758489 0.877040
O O8 0.370713 0.719410 0.752587
O O9 0.181384 0.216055 0.920427
O O10 0.123848 0.214699 0.801650
O O11 0.000000 0.229890 0.895316
O O12 0.090804 0.000000 0.873279
O O13 0.703484 0.000000 0.916449
O O14 0.680303 0.206182 0.000000
O O15 0.500000 0.727392 0.660674
O O16 0.593208 0.500000 0.685692
O O17 0.000000 0.837566 0.712157
O O18 0.854474 0.000000 0.720854
O O19 0.896181 0.500000 0.500000
O O20 0.000000 0.274828 0.500000
#
# Coordination Sequence:
#
# PCOD8194101 Si02
#       7
#     8   8   8   8   8   8   4
#     4  10  18  29  48  69  91 124 157 183 220 268
#     4   9  18  33  51  68  88 117 150 185 230 279
#     4   8  15  29  47  66  90 119 149 184 229 276
#     4  10  20  31  45  68  94 119 150 188 226 265
#     4   8  15  29  49  72  93 112 145 195 237 265
#     4   9  17  29  46  68  92 117 148 190 234 268
#     4   9  18  30  42  64 100 131 153 181 218 263
#
# _framework density 18.078461000000001
#
# number of rings (size 3 to 8) (size 9 to 14) (size 15 to 20)
#    0.000    3.000    0.000    3.231    0.000    2.154 
#    0.000    3.846    0.000    6.462    0.000    1.077 
#    0.000    1.231    0.000    0.000    0.000    0.000 
#
# Total GULP energy -644371.982472 kJ/mol
# GULP energy per Si atom -12391.768894 kJ/mol
# Density = 1.803731 g / cm^3
# Si number density = 18.078461 Si / 1000 Ang^3
#
#
#
# Elastic Constant Matrix: (Units=GPa)
#
#
# Indices 1 2 3 4 5 6 
#
# 1 100.9639 22.4809 69.4868 0.0000 0.0000 0.0000
# 2 22.4809 24.3201 20.5069 0.0000 0.0000 0.0000
# 3 69.4868 20.5069 83.9140 0.0000 0.0000 0.0000
# 4 0.0000 0.0000 0.0000 19.6435 0.0000 0.0000
# 5 0.0000 0.0000 0.0000 0.0000 27.5381 0.0000
# 6 0.0000 0.0000 0.0000 0.0000 0.0000 18.3389
#
#
#
# Elastic Compliance Matrix: (Units=1/GPa)
#
#
# Indices 1 2 3 4 5 6 
#
# 1 0.023891 -0.006805 -0.018120 0.000000 0.000000 0.000000
# 2 -0.006805 0.053729 -0.007495 0.000000 0.000000 0.000000
# 3 -0.018120 -0.007495 0.028753 0.000000 0.000000 0.000000
# 4 0.000000 0.000000 0.000000 0.050907 0.000000 0.000000
# 5 0.000000 0.000000 0.000000 0.000000 0.036313 0.000000
# 6 0.000000 0.000000 0.000000 0.000000 0.000000 0.054529
#
#
# Mechanical properties :
#
#
# Convention : Reuss Voigt Hill
#
# Bulk Modulus (GPa) = 24.07782 48.23858 36.15820
# Shear Modulus (GPa) = 15.29956 19.55233 17.42594
#
# Velocity S-wave (km/s) = 2.91226 3.29222 3.10805
# Velocity P-wave (km/s) = 4.96545 6.41814 5.73795
#
# Compressibility (1/GPa) = 0.04153200
#
# Stress axis : x y z
#
# Youngs Moduli (GPa) = 41.85743 18.61208 34.77840
#
# Poissons Ratio (x) = 0.12665 0.63019
# Poissons Ratio (y) = 0.28483 0.26068
# Poissons Ratio (z) = 0.75846 0.13950
#
# Static dielectric constant tensor:
#      x y z
#    x 3.834070 0.000000 0.000000 
#    y 0.000000 2.967040 0.000000 
#    z 0.000000 0.000000 3.380380 
# 
# 
# High freq. dielectric constant tensor:
#      x y z
#    x 1.712430 0.000000 0.000000 
#    y 0.000000 1.651970 0.000000 
#    z 0.000000 0.000000 1.691700 
# 
# From -- ./inp_files/7087.got.cif
#   From: 2010.03.12/outbox.cif.g09.slc.cpg/sg47_4_cif.got.tgz:7087.got - 2010.04.14 03:12:58.
