data_PCOD8194173
_publ_section_title
;
Structure prediction by ZEFSAII (Michael W. Deem and Ramdas Pophale) SiO2 
 PCOD8194173
Probable space group: P M M M
;
_chemical_formula_sum "Si O2"
_cell_formula_units_Z 48
_cell_length_a 18.205870
_cell_length_b 23.290527
_cell_length_c 8.209544
_cell_angle_alpha 90.000000
_cell_angle_beta 90.000000
_cell_angle_gamma 90.000000
_cell_volume 3481.046204
_symmetry_space_group_name_H-M "P M M M"
_symmetry_group_IT_number 47
_symmetry_cell_setting 'orthorhombic'
loop_
_space_group_symop_operation_xyz
x,y,z
-x,-y,z
x,-y,-z
-x,y,-z
-x,-y,-z
x,y,-z
-x,y,z
x,-y,z
loop_
_atom_site_type_symbol
_atom_site_label
_atom_site_fract_x
_atom_site_fract_y
_atom_site_fract_z
Si Si1 0.768614 0.065970 0.186422
Si Si2 0.636585 0.865284 0.684883
Si Si3 0.500000 0.067865 0.814505
Si Si4 0.587224 0.631771 0.681462
Si Si5 0.416627 0.248657 0.814105
Si Si6 0.079537 0.068037 0.684208
Si Si7 0.587435 0.434469 0.000000
O O1 0.714709 0.104482 0.292608
O O2 0.851984 0.089626 0.207553
O O3 0.763179 0.000000 0.246399
O O4 0.744603 0.071129 0.000000
O O5 0.626684 0.846590 0.500000
O O6 0.573087 0.909578 0.730444
O O7 0.633947 0.806967 0.789195
O O8 0.500000 0.000000 0.800312
O O9 0.500000 0.089267 0.000000
O O10 0.614985 0.611736 0.500000
O O11 0.500000 0.627258 0.687485
O O12 0.611071 0.698051 0.705641
O O13 0.619095 0.594001 0.832250
O O14 0.500000 0.231201 0.767101
O O15 0.412352 0.269321 0.000000
O O16 0.092139 0.089279 0.500000
O O17 0.000000 0.091554 0.748522
O O18 0.076677 0.000000 0.690612
O O19 0.613791 0.500000 0.000000
O O20 0.500000 0.429057 0.000000
#
# Coordination Sequence:
#
# PCOD8194173 Si02
#       7
#     8   8   4   8   8   8   4
#     4  10  20  32  44  58  78 101 123 152 194 242
#     4  12  23  32  44  60  74  95 127 162 201 243
#     4  11  23  37  47  55  71  95 123 158 203 252
#     4   9  16  26  40  57  75  98 126 156 191 231
#     4  10  18  30  46  58  73  95 125 164 202 234
#     4   8  14  26  44  63  80  97 117 143 179 227
#     4   9  16  26  38  56  80 102 122 150 191 234
#
# _framework density 13.788959
#
# number of rings (size 3 to 8) (size 9 to 14) (size 15 to 20)
#    0.000    2.167    1.667    3.750    0.000    5.000 
#    0.000    3.333    0.000    0.000    0.000    0.000 
#    0.000    0.000    0.000    0.000    0.000    0.000 
#
# Total GULP energy -594960.889262 kJ/mol
# GULP energy per Si atom -12395.018526 kJ/mol
# Density = 1.375757 g / cm^3
# Si number density = 13.788959 Si / 1000 Ang^3
#
#
#
# Elastic Constant Matrix: (Units=GPa)
#
#
# Indices 1 2 3 4 5 6 
#
# 1 60.6443 20.4887 15.1409 0.0000 0.0000 0.0000
# 2 20.4887 60.1394 30.8075 0.0000 0.0000 0.0000
# 3 15.1409 30.8075 77.5803 0.0000 0.0000 0.0000
# 4 0.0000 0.0000 0.0000 15.8015 0.0000 0.0000
# 5 0.0000 0.0000 0.0000 0.0000 15.7639 0.0000
# 6 0.0000 0.0000 0.0000 0.0000 0.0000 6.7830
#
#
#
# Elastic Compliance Matrix: (Units=1/GPa)
#
#
# Indices 1 2 3 4 5 6 
#
# 1 0.018756 -0.005668 -0.001410 0.000000 0.000000 0.000000
# 2 -0.005668 0.022587 -0.007863 0.000000 0.000000 0.000000
# 3 -0.001410 -0.007863 0.016288 0.000000 0.000000 0.000000
# 4 0.000000 0.000000 0.000000 0.063285 0.000000 0.000000
# 5 0.000000 0.000000 0.000000 0.000000 0.063436 0.000000
# 6 0.000000 0.000000 0.000000 0.000000 0.000000 0.147428
#
#
# Mechanical properties :
#
#
# Convention : Reuss Voigt Hill
#
# Bulk Modulus (GPa) = 36.03712 36.80423 36.42067
# Shear Modulus (GPa) = 13.48030 16.46481 14.97256
#
# Velocity S-wave (km/s) = 3.13008 3.45926 3.29878
# Velocity P-wave (km/s) = 6.26535 6.53486 6.40152
#
# Compressibility (1/GPa) = 0.02774916
#
# Stress axis : x y z
#
# Youngs Moduli (GPa) = 53.31496 44.27305 61.39649
#
# Poissons Ratio (x) = 0.25093 0.08656
# Poissons Ratio (y) = 0.30218 0.48278
# Poissons Ratio (z) = 0.07517 0.34813
#
# Static dielectric constant tensor:
#      x y z
#    x 2.637220 0.000000 0.000000 
#    y 0.000000 2.514750 0.000000 
#    z 0.000000 0.000000 2.949270 
# 
# 
# High freq. dielectric constant tensor:
#      x y z
#    x 1.479510 0.000000 0.000000 
#    y 0.000000 1.493880 0.000000 
#    z 0.000000 0.000000 1.544120 
# 
# From -- ./inp_files/9764.got.cif
#   From: 2010.03.12/outbox.cif.g09.slc.cpg/sg47_5_cif.got.tgz:9764.got - 2010.04.14 03:12:58.
