data_PCOD8194615
_publ_section_title
;
Structure prediction by ZEFSAII (Michael W. Deem and Ramdas Pophale) SiO2 
 PCOD8194615
Probable space group: P M M M
;
_chemical_formula_sum "Si O2"
_cell_formula_units_Z 52
_cell_length_a 20.761388
_cell_length_b 14.684269
_cell_length_c 8.931646
_cell_angle_alpha 90.000000
_cell_angle_beta 90.000000
_cell_angle_gamma 90.000000
_cell_volume 2722.953459
_symmetry_space_group_name_H-M "P M M M"
_symmetry_group_IT_number 47
_symmetry_cell_setting 'orthorhombic'
loop_
_space_group_symop_operation_xyz
x,y,z
-x,-y,z
x,-y,-z
-x,y,-z
-x,-y,-z
x,y,-z
-x,y,z
x,-y,z
loop_
_atom_site_type_symbol
_atom_site_label
_atom_site_fract_x
_atom_site_fract_y
_atom_site_fract_z
Si Si1 0.607308 0.226861 0.832100
Si Si2 0.070747 0.000000 0.321907
Si Si3 0.926453 0.500000 0.178022
Si Si4 0.500000 0.893139 0.322778
Si Si5 0.172573 0.349956 0.823075
Si Si6 0.684363 0.397389 0.177997
Si Si7 0.843022 0.162768 0.673594
Si Si8 0.726274 0.099198 0.163386
O O1 0.560824 0.166534 0.729508
O O2 0.627736 0.327133 0.766548
O O3 0.674152 0.176381 0.837089
O O4 0.577548 0.235114 0.000000
O O5 0.104512 0.091723 0.265749
O O6 0.071603 0.000000 0.500000
O O7 0.000000 0.000000 0.253138
O O8 0.884630 0.414592 0.236780
O O9 0.000000 0.500000 0.243921
O O10 0.931093 0.500000 0.000000
O O11 0.500000 0.896697 0.500000
O O12 0.500000 0.000000 0.263247
O O13 0.243887 0.374390 0.757714
O O14 0.150286 0.251258 0.773600
O O15 0.176749 0.357163 0.000000
O O16 0.665581 0.500000 0.229051
O O17 0.687133 0.389818 0.000000
O O18 0.851218 0.187256 0.500000
O O19 0.774206 0.116228 0.700124
O O20 0.693968 0.000000 0.186977
O O21 0.761407 0.102882 0.000000
#
# Coordination Sequence:
#
# PCOD8194615 Si02
#       8
#     8   4   4   4   8   8   8   8
#     4  10  20  36  60  87 113 146 189 228 270 328
#     4   9  20  38  53  67  99 150 197 230 273 339
#     4   9  18  32  55  85 113 146 187 234 292 348
#     4  11  25  43  60  83 118 156 189 225 274 329
#     4  10  18  33  56  80 111 146 183 231 283 337
#     4   9  16  30  56  87 111 142 186 230 274 321
#     4  11  21  33  52  78 106 141 187 234 281 335
#     4  10  19  32  54  83 111 139 178 231 283 329
#
# _framework density 19.096910000000001
#
# number of rings (size 3 to 8) (size 9 to 14) (size 15 to 20)
#    0.000    2.077    3.077    1.154    0.000    2.462 
#    0.000    0.769    0.000    7.385    0.000    0.000 
#    0.000    0.000    0.000    0.000    0.000    0.000 
#
# Total GULP energy -644254.547980 kJ/mol
# GULP energy per Si atom -12389.510538 kJ/mol
# Density = 1.905344 g / cm^3
# Si number density = 19.096910 Si / 1000 Ang^3
#
#
#
# Elastic Constant Matrix: (Units=GPa)
#
#
# Indices 1 2 3 4 5 6 
#
# 1 99.7814 60.5363 20.5869 0.0000 0.0000 0.0000
# 2 60.5363 171.2073 15.9784 0.0000 0.0000 0.0000
# 3 20.5869 15.9784 21.3155 0.0000 0.0000 0.0000
# 4 0.0000 0.0000 0.0000 18.5500 0.0000 0.0000
# 5 0.0000 0.0000 0.0000 0.0000 18.2849 0.0000
# 6 0.0000 0.0000 0.0000 0.0000 0.0000 41.1410
#
#
#
# Elastic Compliance Matrix: (Units=1/GPa)
#
#
# Indices 1 2 3 4 5 6 
#
# 1 0.014898 -0.004220 -0.011226 0.000000 0.000000 0.000000
# 2 -0.004220 0.007476 -0.001528 0.000000 0.000000 0.000000
# 3 -0.011226 -0.001528 0.058901 0.000000 0.000000 0.000000
# 4 0.000000 0.000000 0.000000 0.053908 0.000000 0.000000
# 5 0.000000 0.000000 0.000000 0.000000 0.054690 0.000000
# 6 0.000000 0.000000 0.000000 0.000000 0.000000 0.024307
#
#
# Mechanical properties :
#
#
# Convention : Reuss Voigt Hill
#
# Bulk Modulus (GPa) = 21.12912 54.05639 37.59275
# Shear Modulus (GPa) = 18.94630 28.60868 23.77749
#
# Velocity S-wave (km/s) = 3.15320 3.87470 3.53242
# Velocity P-wave (km/s) = 4.93407 6.95597 6.03037
#
# Compressibility (1/GPa) = 0.04732805
#
# Stress axis : x y z
#
# Youngs Moduli (GPa) = 67.12178 133.76753 16.97751
#
# Poissons Ratio (x) = 0.56452 0.19058
# Poissons Ratio (y) = 0.28326 0.02594
# Poissons Ratio (z) = 0.75348 0.20439
#
# Static dielectric constant tensor:
#      x y z
#    x 3.615300 0.000000 0.000000 
#    y 0.000000 3.983500 0.000000 
#    z 0.000000 0.000000 3.153350 
# 
# 
# High freq. dielectric constant tensor:
#      x y z
#    x 1.729270 0.000000 0.000000 
#    y 0.000000 1.765360 0.000000 
#    z 0.000000 0.000000 1.697990 
# 
# From -- ./inp_files/11110.got.cif
#   From: 2010.03.12/outbox.cif.g09.slc.cpg/sg47_6_cif.got.tgz:11110.got - 2010.04.14 03:12:58.
