data_PCOD8194198
_publ_section_title
;
Structure prediction by ZEFSAII (Michael W. Deem and Ramdas Pophale) SiO2 
 PCOD8194198
Probable space group: P M M M
;
_chemical_formula_sum "Si O2"
_cell_formula_units_Z 52
_cell_length_a 27.150882
_cell_length_b 8.757799
_cell_length_c 12.183666
_cell_angle_alpha 90.000000
_cell_angle_beta 90.000000
_cell_angle_gamma 90.000000
_cell_volume 2897.056070
_symmetry_space_group_name_H-M "P M M M"
_symmetry_group_IT_number 47
_symmetry_cell_setting 'orthorhombic'
loop_
_space_group_symop_operation_xyz
x,y,z
-x,-y,z
x,-y,-z
-x,y,-z
-x,-y,-z
x,y,-z
-x,y,z
x,-y,z
loop_
_atom_site_type_symbol
_atom_site_label
_atom_site_fract_x
_atom_site_fract_y
_atom_site_fract_z
Si Si1 0.554623 0.681223 0.622792
Si Si2 0.678942 0.320355 0.000000
Si Si3 0.864587 0.820263 0.834031
Si Si4 0.790679 0.318432 0.000000
Si Si5 0.270014 0.175230 0.375326
Si Si6 0.644893 0.318848 0.765297
Si Si7 0.054362 0.819786 0.000000
Si Si8 0.833599 0.321543 0.376620
O O1 0.569253 0.738335 0.500000
O O2 0.500000 0.742806 0.653435
O O3 0.554023 0.500000 0.623060
O O4 0.593398 0.740208 0.713585
O O5 0.734637 0.254015 0.000000
O O6 0.648068 0.268866 0.892788
O O7 0.684547 0.500000 0.000000
O O8 0.868599 0.768413 0.707785
O O9 0.857326 0.000000 0.844341
O O10 0.817565 0.741809 0.890898
O O11 0.915140 0.767548 0.892691
O O12 0.792138 0.500000 0.000000
O O13 0.288411 0.194345 0.500000
O O14 0.312018 0.233463 0.296528
O O15 0.222528 0.277729 0.353294
O O16 0.256712 0.000000 0.348985
O O17 0.651232 0.500000 0.750159
O O18 0.000000 0.743001 0.000000
O O19 0.048361 0.000000 0.000000
O O20 0.848963 0.273688 0.500000
O O21 0.840148 0.500000 0.357697
#
# Coordination Sequence:
#
# PCOD8194198 Si02
#       8
#     8   4   8   4   8   8   4   8
#     4   8  14  25  43  67  89 110 145 194 241 284
#     4   9  19  30  41  63  92 122 157 192 222 263
#     4  10  19  31  51  77 101 128 166 211 252 286
#     4  10  18  30  47  66  96 134 167 203 244 289
#     4  10  20  32  47  70  98 123 153 198 242 280
#     4  10  18  30  47  65  90 124 158 191 233 285
#     4   8  16  32  53  77 103 130 163 206 252 294
#     4  10  20  33  49  70  99 135 169 197 235 295
#
# _framework density 17.949255000000001
#
# number of rings (size 3 to 8) (size 9 to 14) (size 15 to 20)
#    0.000    2.538    0.000    3.923    0.000    3.692 
#    0.000    1.538    0.000   11.538    0.000    5.385 
#    0.000    1.231    0.000    0.000    0.000    0.000 
#
# Total GULP energy -644647.134658 kJ/mol
# GULP energy per Si atom -12397.060282 kJ/mol
# Density = 1.790840 g / cm^3
# Si number density = 17.949255 Si / 1000 Ang^3
#
#
#
# Elastic Constant Matrix: (Units=GPa)
#
#
# Indices 1 2 3 4 5 6 
#
# 1 118.1730 17.4333 81.5262 0.0000 0.0000 0.0000
# 2 17.4333 39.6209 29.1641 0.0000 0.0000 0.0000
# 3 81.5262 29.1641 149.7387 0.0000 0.0000 0.0000
# 4 0.0000 0.0000 0.0000 23.5277 0.0000 0.0000
# 5 0.0000 0.0000 0.0000 0.0000 20.0034 0.0000
# 6 0.0000 0.0000 0.0000 0.0000 0.0000 8.8627
#
#
#
# Elastic Compliance Matrix: (Units=1/GPa)
#
#
# Indices 1 2 3 4 5 6 
#
# 1 0.013566 -0.000621 -0.007265 0.000000 0.000000 0.000000
# 2 -0.000621 0.029492 -0.005406 0.000000 0.000000 0.000000
# 3 -0.007265 -0.005406 0.011687 0.000000 0.000000 0.000000
# 4 0.000000 0.000000 0.000000 0.042503 0.000000 0.000000
# 5 0.000000 0.000000 0.000000 0.000000 0.049992 0.000000
# 6 0.000000 0.000000 0.000000 0.000000 0.000000 0.112832
#
#
# Mechanical properties :
#
#
# Convention : Reuss Voigt Hill
#
# Bulk Modulus (GPa) = 35.51137 62.64218 49.07677
# Shear Modulus (GPa) = 16.88951 22.43936 19.66443
#
# Velocity S-wave (km/s) = 3.07083 3.53959 3.31351
# Velocity P-wave (km/s) = 5.69215 7.18890 6.48386
#
# Compressibility (1/GPa) = 0.02816000
#
# Stress axis : x y z
#
# Youngs Moduli (GPa) = 73.71439 33.90794 85.56799
#
# Poissons Ratio (x) = 0.02107 0.62165
# Poissons Ratio (y) = 0.04581 0.46255
# Poissons Ratio (z) = 0.53553 0.18329
#
# Static dielectric constant tensor:
#      x y z
#    x 3.430740 0.000000 0.000000 
#    y 0.000000 3.087330 0.000000 
#    z 0.000000 0.000000 3.686460 
# 
# 
# High freq. dielectric constant tensor:
#      x y z
#    x 1.674580 0.000000 0.000000 
#    y 0.000000 1.672240 0.000000 
#    z 0.000000 0.000000 1.702860 
# 
# From -- ./inp_files/19902.got.cif
#   From: 2010.03.12/outbox.cif.g09.slc.cpg/sg47_10_cif.got.tgz:19902.got - 2010.04.14 03:12:58.
