data_PCOD8194240
_publ_section_title
;
Structure prediction by ZEFSAII (Michael W. Deem and Ramdas Pophale) SiO2 
 PCOD8194240
Probable space group: P M M M
;
_chemical_formula_sum "Si O2"
_cell_formula_units_Z 64
_cell_length_a 14.334928
_cell_length_b 31.602268
_cell_length_c 9.567978
_cell_angle_alpha 90.000000
_cell_angle_beta 90.000000
_cell_angle_gamma 90.000000
_cell_volume 4334.449384
_symmetry_space_group_name_H-M "P M M M"
_symmetry_group_IT_number 47
_symmetry_cell_setting 'orthorhombic'
loop_
_space_group_symop_operation_xyz
x,y,z
-x,-y,z
x,-y,-z
-x,y,-z
-x,-y,-z
x,y,-z
-x,y,z
x,-y,z
loop_
_atom_site_type_symbol
_atom_site_label
_atom_site_fract_x
_atom_site_fract_y
_atom_site_fract_z
Si Si1 0.702385 0.799669 0.834324
Si Si2 0.604486 0.455193 0.333924
Si Si3 0.391553 0.287010 0.838265
Si Si4 0.100465 0.827990 0.834716
Si Si5 0.611592 0.364677 0.342550
Si Si6 0.268848 0.953162 0.340204
Si Si7 0.105764 0.923617 0.161548
Si Si8 0.608552 0.874084 0.662531
O O1 0.662514 0.754542 0.787595
O O2 0.811430 0.799767 0.787783
O O3 0.646837 0.836018 0.755366
O O4 0.690179 0.807074 0.000000
O O5 0.600067 0.452900 0.500000
O O6 0.500000 0.457117 0.273360
O O7 0.655078 0.500000 0.288115
O O8 0.651227 0.410496 0.285658
O O9 0.500000 0.279719 0.805227
O O10 0.350606 0.327163 0.754945
O O11 0.373952 0.296252 0.000000
O O12 0.116166 0.875711 0.781773
O O13 0.000000 0.810618 0.776508
O O14 0.093998 0.829300 0.000000
O O15 0.646301 0.355683 0.500000
O O16 0.500000 0.366748 0.338064
O O17 0.240584 0.944894 0.500000
O O18 0.174786 0.952440 0.250053
O O19 0.342603 0.917831 0.290609
O O20 0.313747 0.000000 0.322243
O O21 0.000000 0.939717 0.182575
O O22 0.134906 0.926698 0.000000
O O23 0.627011 0.863786 0.500000
O O24 0.500000 0.879666 0.693837
#
# Coordination Sequence:
#
# PCOD8194240 Si02
#       8
#     8   8   8   8   8   8   8   8
#     4  10  18  30  49  67  83 105 133 164 198 238
#     4   7   9  14  26  44  63  84 118 165 206 233
#     4   9  17  26  35  52  78 105 131 159 193 230
#     4   8  14  26  46  69  87 102 124 157 195 232
#     4   8  13  21  33  48  67  95 130 165 200 233
#     4  10  21  35  49  66  88 112 136 161 193 235
#     4   9  17  31  51  72  91 110 132 159 193 232
#     4  10  21  35  49  65  84 106 134 168 201 230
#
# _framework density 14.765427000000001
#
# number of rings (size 3 to 8) (size 9 to 14) (size 15 to 20)
#    0.000    3.125    1.250    2.250    0.000    2.250 
#    0.000    3.750    0.000    0.750    0.000    4.375 
#    0.000    0.000    0.000    0.000    0.000    0.625 
#
# Total GULP energy -792858.092159 kJ/mol
# GULP energy per Si atom -12388.407690 kJ/mol
# Density = 1.473182 g / cm^3
# Si number density = 14.765427 Si / 1000 Ang^3
#
#
#
# Elastic Constant Matrix: (Units=GPa)
#
#
# Indices 1 2 3 4 5 6 
#
# 1 66.1295 49.7093 26.5535 0.0000 0.0000 0.0000
# 2 49.7093 145.5238 44.9685 0.0000 0.0000 0.0000
# 3 26.5535 44.9685 37.8447 0.0000 0.0000 0.0000
# 4 0.0000 0.0000 0.0000 16.9310 0.0000 0.0000
# 5 0.0000 0.0000 0.0000 0.0000 14.3157 0.0000
# 6 0.0000 0.0000 0.0000 0.0000 0.0000 5.6383
#
#
#
# Elastic Compliance Matrix: (Units=1/GPa)
#
#
# Indices 1 2 3 4 5 6 
#
# 1 0.022770 -0.004489 -0.010642 0.000000 0.000000 0.000000
# 2 -0.004489 0.011744 -0.010805 0.000000 0.000000 0.000000
# 3 -0.010642 -0.010805 0.046729 0.000000 0.000000 0.000000
# 4 0.000000 0.000000 0.000000 0.059063 0.000000 0.000000
# 5 0.000000 0.000000 0.000000 0.000000 0.069853 0.000000
# 6 0.000000 0.000000 0.000000 0.000000 0.000000 0.177358
#
#
# Mechanical properties :
#
#
# Convention : Reuss Voigt Hill
#
# Bulk Modulus (GPa) = 34.04713 54.66229 44.35471
# Shear Modulus (GPa) = 11.13140 15.92810 13.52975
#
# Velocity S-wave (km/s) = 2.74867 3.28799 3.03035
# Velocity P-wave (km/s) = 5.76041 7.17742 6.50760
#
# Compressibility (1/GPa) = 0.02937105
#
# Stress axis : x y z
#
# Youngs Moduli (GPa) = 43.91831 85.14945 21.39996
#
# Poissons Ratio (x) = 0.38227 0.22773
# Poissons Ratio (y) = 0.19717 0.23122
# Poissons Ratio (z) = 0.46736 0.92002
#
# Static dielectric constant tensor:
#      x y z
#    x 2.827400 0.000000 0.000000 
#    y 0.000000 3.156730 0.000000 
#    z 0.000000 0.000000 2.682280 
# 
# 
# High freq. dielectric constant tensor:
#      x y z
#    x 1.526940 0.000000 0.000000 
#    y 0.000000 1.567460 0.000000 
#    z 0.000000 0.000000 1.543440 
# 
# From -- ./inp_files/8284.got.cif
#   From: 2010.03.12/outbox.cif.g09.slc.cpg/sg47_5_cif.got.tgz:8284.got - 2010.04.14 03:12:58.
