data_PCOD8194826
_publ_section_title
;
Structure prediction by ZEFSAII (Michael W. Deem and Ramdas Pophale) SiO2 
 PCOD8194826
Probable space group: P M M M
;
_chemical_formula_sum "Si O2"
_cell_formula_units_Z 52
_cell_length_a 13.709984
_cell_length_b 26.603238
_cell_length_c 9.224421
_cell_angle_alpha 90.000000
_cell_angle_beta 90.000000
_cell_angle_gamma 90.000000
_cell_volume 3364.422770
_symmetry_space_group_name_H-M "P M M M"
_symmetry_group_IT_number 47
_symmetry_cell_setting 'orthorhombic'
loop_
_space_group_symop_operation_xyz
x,y,z
-x,-y,z
x,-y,-z
-x,y,-z
-x,-y,-z
x,y,-z
-x,y,z
x,-y,z
loop_
_atom_site_type_symbol
_atom_site_label
_atom_site_fract_x
_atom_site_fract_y
_atom_site_fract_z
Si Si1 0.612334 0.249248 0.331468
Si Si2 0.889286 0.701619 0.830752
Si Si3 0.778133 0.197587 0.170348
Si Si4 0.885524 0.108938 0.328631
Si Si5 0.275008 0.650239 0.669399
Si Si6 0.390912 0.444449 0.327929
Si Si7 0.887002 0.000000 0.331736
O O1 0.627354 0.236659 0.500000
O O2 0.500000 0.245363 0.285351
O O3 0.672270 0.208774 0.238213
O O4 0.648639 0.305446 0.296362
O O5 0.850831 0.756946 0.791649
O O6 0.827352 0.659474 0.748284
O O7 0.000000 0.697763 0.776496
O O8 0.879924 0.690980 0.000000
O O9 0.821907 0.147989 0.240256
O O10 0.766255 0.189486 0.000000
O O11 0.867925 0.115741 0.500000
O O12 0.847069 0.053627 0.272840
O O13 0.000000 0.116026 0.293353
O O14 0.253247 0.646076 0.500000
O O15 0.319528 0.598516 0.733530
O O16 0.395116 0.439737 0.500000
O O17 0.500000 0.436135 0.266081
O O18 0.352722 0.500000 0.282315
O O19 0.866279 0.000000 0.500000
O O20 0.000000 0.000000 0.298497
#
# Coordination Sequence:
#
# PCOD8194826 Si02
#       7
#     8   8   8   8   8   8   4
#     4   9  17  29  44  62  85 111 139 172 208 247
#     4   9  18  31  43  56  80 114 145 171 204 246
#     4  10  19  29  42  62  87 113 141 173 210 251
#     4   9  16  27  44  64  87 115 145 175 206 243
#     4   9  16  26  43  66  86 105 135 173 207 241
#     4   8  13  22  39  64  90 111 130 158 203 255
#     4   7  12  24  41  61  84 111 142 173 205 242
#
# _framework density 15.455845999999999
#
# number of rings (size 3 to 8) (size 9 to 14) (size 15 to 20)
#    0.000    3.154    0.000    2.769    0.000    4.000 
#    0.000    0.385    0.000    3.692    0.000    4.846 
#    0.000    4.308    0.000    0.000    0.000    0.000 
#
# Total GULP energy -644458.313434 kJ/mol
# GULP energy per Si atom -12393.429105 kJ/mol
# Density = 1.542067 g / cm^3
# Si number density = 15.455846 Si / 1000 Ang^3
#
#
#
# Elastic Constant Matrix: (Units=GPa)
#
#
# Indices 1 2 3 4 5 6 
#
# 1 118.7841 70.9407 42.3772 0.0000 0.0000 0.0000
# 2 70.9407 134.8241 43.3581 0.0000 0.0000 0.0000
# 3 42.3772 43.3581 40.6855 0.0000 0.0000 0.0000
# 4 0.0000 0.0000 0.0000 13.2365 0.0000 0.0000
# 5 0.0000 0.0000 0.0000 0.0000 18.3188 0.0000
# 6 0.0000 0.0000 0.0000 0.0000 0.0000 26.7198
#
#
#
# Elastic Compliance Matrix: (Units=1/GPa)
#
#
# Indices 1 2 3 4 5 6 
#
# 1 0.014893 -0.004333 -0.010895 0.000000 0.000000 0.000000
# 2 -0.004333 0.012545 -0.008856 0.000000 0.000000 0.000000
# 3 -0.010895 -0.008856 0.045365 0.000000 0.000000 0.000000
# 4 0.000000 0.000000 0.000000 0.075548 0.000000 0.000000
# 5 0.000000 0.000000 0.000000 0.000000 0.054589 0.000000
# 6 0.000000 0.000000 0.000000 0.000000 0.000000 0.037425
#
#
# Mechanical properties :
#
#
# Convention : Reuss Voigt Hill
#
# Bulk Modulus (GPa) = 40.59263 67.51618 54.05440
# Shear Modulus (GPa) = 16.84948 20.82953 18.83951
#
# Velocity S-wave (km/s) = 3.30535 3.67506 3.49510
# Velocity P-wave (km/s) = 6.39435 7.86042 7.16498
#
# Compressibility (1/GPa) = 0.02463502
#
# Stress axis : x y z
#
# Youngs Moduli (GPa) = 67.14517 79.71444 22.04344
#
# Poissons Ratio (x) = 0.34537 0.24017
# Poissons Ratio (y) = 0.29091 0.19522
# Poissons Ratio (z) = 0.73156 0.70596
#
# Static dielectric constant tensor:
#      x y z
#    x 2.902140 0.000000 0.000000 
#    y 0.000000 3.163130 0.000000 
#    z 0.000000 0.000000 2.735010 
# 
# 
# High freq. dielectric constant tensor:
#      x y z
#    x 1.574360 0.000000 0.000000 
#    y 0.000000 1.592890 0.000000 
#    z 0.000000 0.000000 1.571000 
# 
# From -- ./inp_files/7693.got.cif
#   From: 2010.03.12/outbox.cif.g09.slc.cpg/sg47_4_cif.got.tgz:7693.got - 2010.04.14 03:12:58.
