data_PCOD8194865
_publ_section_title
;
Structure prediction by ZEFSAII (Michael W. Deem and Ramdas Pophale) SiO2 
 PCOD8194865
Probable space group: P M M M
;
_chemical_formula_sum "Si O2"
_cell_formula_units_Z 52
_cell_length_a 23.525150
_cell_length_b 14.278365
_cell_length_c 9.400383
_cell_angle_alpha 90.000000
_cell_angle_beta 90.000000
_cell_angle_gamma 90.000000
_cell_volume 3157.595027
_symmetry_space_group_name_H-M "P M M M"
_symmetry_group_IT_number 47
_symmetry_cell_setting 'orthorhombic'
loop_
_space_group_symop_operation_xyz
x,y,z
-x,-y,z
x,-y,-z
-x,y,-z
-x,-y,-z
x,y,-z
-x,y,z
x,-y,z
loop_
_atom_site_type_symbol
_atom_site_label
_atom_site_fract_x
_atom_site_fract_y
_atom_site_fract_z
Si Si1 0.225219 0.396302 0.665771
Si Si2 0.661605 0.396117 0.163449
Si Si3 0.937518 0.105874 0.669295
Si Si4 0.500000 0.893640 0.830964
Si Si5 0.829473 0.789219 0.667691
Si Si6 0.716379 0.109782 0.334615
Si Si7 0.385665 0.797489 0.166196
O O1 0.239615 0.387932 0.500000
O O2 0.202385 0.500000 0.705116
O O3 0.283214 0.372787 0.745132
O O4 0.177522 0.320320 0.709266
O O5 0.637042 0.500000 0.201747
O O6 0.615086 0.315168 0.193477
O O7 0.680856 0.393338 0.000000
O O8 0.936664 0.110090 0.500000
O O9 0.888232 0.172132 0.735438
O O10 0.000000 0.138742 0.723785
O O11 0.925555 0.000000 0.720011
O O12 0.555241 0.838560 0.774028
O O13 0.500000 0.000000 0.771714
O O14 0.500000 0.894270 0.000000
O O15 0.832983 0.803303 0.500000
O O16 0.775231 0.846993 0.724198
O O17 0.707546 0.134482 0.500000
O O18 0.664994 0.152829 0.247472
O O19 0.718567 0.000000 0.307735
O O20 0.378766 0.820481 0.000000
#
# Coordination Sequence:
#
# PCOD8194865 Si02
#       7
#     8   8   8   4   8   8   8
#     4   9  16  26  42  63  86 114 145 173 210 266
#     4   9  17  29  45  66  90 112 138 178 222 258
#     4   8  13  21  34  53  79 114 151 179 207 251
#     4   9  18  32  48  64  84 115 151 179 208 255
#     4   9  15  24  38  58  85 113 142 178 218 255
#     4  10  19  29  43  65  91 115 141 179 225 262
#     4  10  19  32  49  66  86 115 148 179 213 259
#
# _framework density 16.468229999999998
#
# number of rings (size 3 to 8) (size 9 to 14) (size 15 to 20)
#    0.000    2.846    1.538    1.385    0.000    2.769 
#    0.000    0.769    0.000    4.154    0.000    3.231 
#    0.000    6.154    0.000   12.308    0.000   11.692 
#
# Total GULP energy -644443.716314 kJ/mol
# GULP energy per Si atom -12393.148391 kJ/mol
# Density = 1.643075 g / cm^3
# Si number density = 16.468230 Si / 1000 Ang^3
#
#
#
# Elastic Constant Matrix: (Units=GPa)
#
#
# Indices 1 2 3 4 5 6 
#
# 1 149.4934 93.5666 22.7534 0.0000 0.0000 0.0000
# 2 93.5666 140.6283 24.4847 0.0000 0.0000 0.0000
# 3 22.7534 24.4847 19.9569 0.0000 0.0000 0.0000
# 4 0.0000 0.0000 0.0000 16.0336 0.0000 0.0000
# 5 0.0000 0.0000 0.0000 0.0000 -25.5516 0.0000
# 6 0.0000 0.0000 0.0000 0.0000 0.0000 28.5992
#
#
#
# Elastic Compliance Matrix: (Units=1/GPa)
#
#
# Indices 1 2 3 4 5 6 
#
# 1 0.011823 -0.007019 -0.004869 0.000000 0.000000 0.000000
# 2 -0.007019 0.013209 -0.008204 0.000000 0.000000 0.000000
# 3 -0.004869 -0.008204 0.065724 0.000000 0.000000 0.000000
# 4 0.000000 0.000000 0.000000 0.062369 0.000000 0.000000
# 5 0.000000 0.000000 0.000000 0.000000 -0.039136 0.000000
# 6 0.000000 0.000000 0.000000 0.000000 0.000000 0.034966
#
#
# Mechanical properties :
#
#
# Convention : Reuss Voigt Hill
#
# Bulk Modulus (GPa) = 19.77308 65.74311 42.75809
# Shear Modulus (GPa) = 24.27227 15.10116 19.68671
#
# Velocity S-wave (km/s) = 3.84328 3.03146 3.46126
# Velocity P-wave (km/s) = 5.63270 7.22917 6.48029
#
# Compressibility (1/GPa) = 0.05057381
#
# Stress axis : x y z
#
# Youngs Moduli (GPa) = 84.57788 75.70397 15.21512
#
# Poissons Ratio (x) = 0.53136 0.07408
# Poissons Ratio (y) = 0.59365 0.12482
# Poissons Ratio (z) = 0.41179 0.62106
#
# Static dielectric constant tensor:
#      x y z
#    x 3.265290 0.000000 0.000000 
#    y 0.000000 3.484980 0.000000 
#    z 0.000000 0.000000 2.764300 
# 
# 
# High freq. dielectric constant tensor:
#      x y z
#    x 1.618770 0.000000 0.000000 
#    y 0.000000 1.649730 0.000000 
#    z 0.000000 0.000000 1.590880 
# 
# From -- ./inp_files/10945.got.cif
#   From: 2010.03.12/outbox.cif.g09.slc.cpg/sg47_6_cif.got.tgz:10945.got - 2010.04.14 03:12:58.
