data_PCOD8194103
_publ_section_title
;
Structure prediction by ZEFSAII (Michael W. Deem and Ramdas Pophale) SiO2 
 PCOD8194103
Probable space group: P M M M
;
_chemical_formula_sum "Si O2"
_cell_formula_units_Z 64
_cell_length_a 14.257328
_cell_length_b 31.611805
_cell_length_c 8.822623
_cell_angle_alpha 90.000000
_cell_angle_beta 90.000000
_cell_angle_gamma 90.000000
_cell_volume 3976.355062
_symmetry_space_group_name_H-M "P M M M"
_symmetry_group_IT_number 47
_symmetry_cell_setting 'orthorhombic'
loop_
_space_group_symop_operation_xyz
x,y,z
-x,-y,z
x,-y,-z
-x,y,-z
-x,-y,-z
x,y,-z
-x,y,z
x,-y,z
loop_
_atom_site_type_symbol
_atom_site_label
_atom_site_fract_x
_atom_site_fract_y
_atom_site_fract_z
Si Si1 0.391608 0.208319 0.678253
Si Si2 0.394539 0.046420 0.820048
Si Si3 0.611269 0.455286 0.330218
Si Si4 0.715315 0.713166 0.178433
Si Si5 0.608266 0.363837 0.680267
Si Si6 0.104055 0.168749 0.173291
Si Si7 0.293815 0.128855 0.822919
Si Si8 0.106191 0.743116 0.676509
O O1 0.377355 0.212196 0.500000
O O2 0.500000 0.211180 0.724604
O O3 0.337651 0.246670 0.754860
O O4 0.351140 0.164037 0.733758
O O5 0.500000 0.056255 0.762927
O O6 0.324894 0.082907 0.759756
O O7 0.362493 0.000000 0.759397
O O8 0.393071 0.045761 0.000000
O O9 0.651525 0.456913 0.500000
O O10 0.500000 0.453653 0.337386
O O11 0.642761 0.500000 0.247800
O O12 0.642730 0.410384 0.257517
O O13 0.670834 0.670018 0.235676
O O14 0.823735 0.713354 0.230023
O O15 0.708583 0.715360 0.000000
O O16 0.622190 0.360725 0.500000
O O17 0.500000 0.355469 0.722251
O O18 0.182128 0.133138 0.206842
O O19 0.124020 0.208108 0.281847
O O20 0.000000 0.149707 0.203674
O O21 0.112613 0.184847 0.000000
O O22 0.317954 0.133743 0.000000
O O23 0.126921 0.737507 0.500000
O O24 0.000000 0.729852 0.717952
#
# Coordination Sequence:
#
# PCOD8194103 Si02
#       8
#     8   8   8   8   8   8   8   8
#     4  11  23  35  46  63  90 122 154 191 231 269
#     4   8  14  25  42  65  91 117 149 190 229 267
#     4   7  10  19  38  63  87 113 151 197 238 272
#     4  12  23  33  46  65  92 126 158 189 226 272
#     4   9  17  29  45  65  92 127 163 198 234 271
#     4   9  17  29  45  67  93 117 144 182 229 274
#     4  10  18  29  48  70  89 116 152 189 228 272
#     4  10  20  34  52  70  88 114 150 191 232 274
#
# _framework density 16.095141000000002
#
# number of rings (size 3 to 8) (size 9 to 14) (size 15 to 20)
#    0.000    2.500    1.250    4.125    0.000    4.000 
#    0.000    0.000    0.000    1.125    0.000    6.125 
#    0.000    0.500    0.000   10.000    0.000    6.500 
#
# Total GULP energy -793046.352505 kJ/mol
# GULP energy per Si atom -12391.349258 kJ/mol
# Density = 1.605851 g / cm^3
# Si number density = 16.095141 Si / 1000 Ang^3
#
#
#
# Elastic Constant Matrix: (Units=GPa)
#
#
# Indices 1 2 3 4 5 6 
#
# 1 102.9380 66.7717 36.6682 0.0000 0.0000 0.0000
# 2 66.7717 138.9567 35.2127 0.0000 0.0000 0.0000
# 3 36.6682 35.2127 44.2621 0.0000 0.0000 0.0000
# 4 0.0000 0.0000 0.0000 16.9591 0.0000 0.0000
# 5 0.0000 0.0000 0.0000 0.0000 18.0556 0.0000
# 6 0.0000 0.0000 0.0000 0.0000 0.0000 4.2502
#
#
#
# Elastic Compliance Matrix: (Units=1/GPa)
#
#
# Indices 1 2 3 4 5 6 
#
# 1 0.016718 -0.005666 -0.009342 0.000000 0.000000 0.000000
# 2 -0.005666 0.010934 -0.004005 0.000000 0.000000 0.000000
# 3 -0.009342 -0.004005 0.033518 0.000000 0.000000 0.000000
# 4 0.000000 0.000000 0.000000 0.058965 0.000000 0.000000
# 5 0.000000 0.000000 0.000000 0.000000 0.055384 0.000000
# 6 0.000000 0.000000 0.000000 0.000000 0.000000 0.235282
#
#
# Mechanical properties :
#
#
# Convention : Reuss Voigt Hill
#
# Bulk Modulus (GPa) = 43.20710 62.60689 52.90699
# Shear Modulus (GPa) = 10.95193 17.68659 14.31926
#
# Velocity S-wave (km/s) = 2.61137 3.31853 2.98596
# Velocity P-wave (km/s) = 5.99962 7.32571 6.69557
#
# Compressibility (1/GPa) = 0.02314435
#
# Stress axis : x y z
#
# Youngs Moduli (GPa) = 59.81749 91.45916 29.83488
#
# Poissons Ratio (x) = 0.51819 0.27872
# Poissons Ratio (y) = 0.33891 0.11948
# Poissons Ratio (z) = 0.55881 0.36626
#
# Static dielectric constant tensor:
#      x y z
#    x 3.139470 0.000000 0.000000 
#    y 0.000000 3.454630 0.000000 
#    z 0.000000 0.000000 2.877960 
# 
# 
# High freq. dielectric constant tensor:
#      x y z
#    x 1.602770 0.000000 0.000000 
#    y 0.000000 1.614140 0.000000 
#    z 0.000000 0.000000 1.598850 
# 
# From -- ./inp_files/8216.got.cif
#   From: 2010.03.12/outbox.cif.g09.slc.cpg/sg47_5_cif.got.tgz:8216.got - 2010.04.14 03:12:58.
