data_PCOD8194668
_publ_section_title
;
Structure prediction by ZEFSAII (Michael W. Deem and Ramdas Pophale) SiO2 
 PCOD8194668
Probable space group: P M M M
;
_chemical_formula_sum "Si O2"
_cell_formula_units_Z 64
_cell_length_a 27.360218
_cell_length_b 18.071892
_cell_length_c 9.115966
_cell_angle_alpha 90.000000
_cell_angle_beta 90.000000
_cell_angle_gamma 90.000000
_cell_volume 4507.397637
_symmetry_space_group_name_H-M "P M M M"
_symmetry_group_IT_number 47
_symmetry_cell_setting 'orthorhombic'
loop_
_space_group_symop_operation_xyz
x,y,z
-x,-y,z
x,-y,-z
-x,y,-z
-x,-y,-z
x,y,-z
-x,y,z
x,-y,z
loop_
_atom_site_type_symbol
_atom_site_label
_atom_site_fract_x
_atom_site_fract_y
_atom_site_fract_z
Si Si1 0.551630 0.412283 0.164087
Si Si2 0.800912 0.798761 0.661943
Si Si3 0.945270 0.178973 0.169536
Si Si4 0.342394 0.414127 0.825464
Si Si5 0.837260 0.586328 0.168010
Si Si6 0.103617 0.301489 0.335778
Si Si7 0.145516 0.082855 0.172906
Si Si8 0.252665 0.342731 0.674381
O O1 0.500000 0.387315 0.244045
O O2 0.553234 0.500000 0.156504
O O3 0.603602 0.387936 0.233905
O O4 0.549823 0.380250 0.000000
O O5 0.790041 0.830197 0.500000
O O6 0.848768 0.748852 0.660401
O O7 0.808946 0.868682 0.768012
O O8 0.757334 0.743954 0.713652
O O9 0.939518 0.255094 0.259387
O O10 0.906620 0.117007 0.222951
O O11 0.000000 0.147986 0.195162
O O12 0.935791 0.197848 0.000000
O O13 0.332416 0.500000 0.787374
O O14 0.305236 0.362693 0.738203
O O15 0.337703 0.401942 0.000000
O O16 0.847537 0.500000 0.177203
O O17 0.884009 0.625560 0.242243
O O18 0.787287 0.604237 0.252232
O O19 0.832053 0.613156 0.000000
O O20 0.087481 0.324099 0.500000
O O21 0.148790 0.000000 0.237603
O O22 0.149964 0.081391 0.000000
O O23 0.250581 0.355093 0.500000
#
# Coordination Sequence:
#
# PCOD8194668 Si02
#       8
#     8   8   8   8   8   8   8   8
#     4   7  10  18  32  48  66  91 126 167 205 238
#     4   8  16  29  41  54  73 100 130 153 178 218
#     4   9  17  29  45  63  83 107 129 148 175 212
#     4   9  16  24  35  53  75  99 131 170 208 242
#     4  10  19  29  42  59  77  97 123 156 193 233
#     4   9  17  29  44  60  78 100 126 155 185 220
#     4   9  17  28  43  64  85 102 123 151 180 211
#     4  10  19  28  38  54  77 103 130 160 194 231
#
# _framework density 14.198879
#
# number of rings (size 3 to 8) (size 9 to 14) (size 15 to 20)
#    0.000    3.125    0.000    3.375    0.000    7.000 
#    0.000    1.250    0.000    0.750    0.000    7.875 
#    0.000    0.000    0.000    0.000    0.000    0.625 
#
# Total GULP energy -792914.902617 kJ/mol
# GULP energy per Si atom -12389.295353 kJ/mol
# Density = 1.416656 g / cm^3
# Si number density = 14.198879 Si / 1000 Ang^3
#
#
#
# Elastic Constant Matrix: (Units=GPa)
#
#
# Indices 1 2 3 4 5 6 
#
# 1 76.0429 46.1757 29.7071 0.0000 0.0000 0.0000
# 2 46.1757 76.9071 37.5522 0.0000 0.0000 0.0000
# 3 29.7071 37.5522 59.1514 0.0000 0.0000 0.0000
# 4 0.0000 0.0000 0.0000 15.9824 0.0000 0.0000
# 5 0.0000 0.0000 0.0000 0.0000 10.5936 0.0000
# 6 0.0000 0.0000 0.0000 0.0000 0.0000 12.0226
#
#
#
# Elastic Compliance Matrix: (Units=1/GPa)
#
#
# Indices 1 2 3 4 5 6 
#
# 1 0.021248 -0.010938 -0.003728 0.000000 0.000000 0.000000
# 2 -0.010938 0.024474 -0.010044 0.000000 0.000000 0.000000
# 3 -0.003728 -0.010044 0.025155 0.000000 0.000000 0.000000
# 4 0.000000 0.000000 0.000000 0.062569 0.000000 0.000000
# 5 0.000000 0.000000 0.000000 0.000000 0.094397 0.000000
# 6 0.000000 0.000000 0.000000 0.000000 0.000000 0.083177
#
#
# Mechanical properties :
#
#
# Convention : Reuss Voigt Hill
#
# Bulk Modulus (GPa) = 46.60281 48.77456 47.68869
# Shear Modulus (GPa) = 13.60206 14.29747 13.94976
#
# Velocity S-wave (km/s) = 3.09846 3.17668 3.13781
# Velocity P-wave (km/s) = 6.75969 6.91958 6.84010
#
# Compressibility (1/GPa) = 0.02145793
#
# Stress axis : x y z
#
# Youngs Moduli (GPa) = 47.06242 40.85947 39.75427
#
# Poissons Ratio (x) = 0.44690 0.14819
# Poissons Ratio (y) = 0.51475 0.39930
# Poissons Ratio (z) = 0.17544 0.41040
#
# Static dielectric constant tensor:
#      x y z
#    x 2.950200 0.000000 0.000000 
#    y 0.000000 2.694500 0.000000 
#    z 0.000000 0.000000 2.806530 
# 
# 
# High freq. dielectric constant tensor:
#      x y z
#    x 1.524700 0.000000 0.000000 
#    y 0.000000 1.509040 0.000000 
#    z 0.000000 0.000000 1.538330 
# 
# From -- ./inp_files/13489.got.cif
#   From: 2010.03.12/outbox.cif.g09.slc.cpg/sg47_7_cif.got.tgz:13489.got - 2010.04.14 03:12:58.
