data_PCOD8194121
_publ_section_title
;
Structure prediction by ZEFSAII (Michael W. Deem and Ramdas Pophale) SiO2 
 PCOD8194121
Probable space group: P M M M
;
_chemical_formula_sum "Si O2"
_cell_formula_units_Z 52
_cell_length_a 28.058608
_cell_length_b 11.854951
_cell_length_c 9.246838
_cell_angle_alpha 90.000000
_cell_angle_beta 90.000000
_cell_angle_gamma 90.000000
_cell_volume 3075.807376
_symmetry_space_group_name_H-M "P M M M"
_symmetry_group_IT_number 47
_symmetry_cell_setting 'orthorhombic'
loop_
_space_group_symop_operation_xyz
x,y,z
-x,-y,z
x,-y,-z
-x,y,-z
-x,-y,-z
x,y,-z
-x,y,z
x,-y,z
loop_
_atom_site_type_symbol
_atom_site_label
_atom_site_fract_x
_atom_site_fract_y
_atom_site_fract_z
Si Si1 0.907060 0.868810 0.330622
Si Si2 0.555180 0.127778 0.832199
Si Si3 0.814227 0.261124 0.328016
Si Si4 0.000000 0.866112 0.162881
Si Si5 0.276114 0.126104 0.327745
Si Si6 0.672174 0.500000 0.328476
Si Si7 0.780136 0.500000 0.672155
Si Si8 0.367229 0.263177 0.328639
O O1 0.916222 0.850380 0.500000
O O2 0.863036 0.794554 0.271791
O O3 0.953197 0.823256 0.246182
O O4 0.896273 0.000000 0.297856
O O5 0.500000 0.152042 0.801523
O O6 0.584417 0.218690 0.741307
O O7 0.567989 0.000000 0.783736
O O8 0.567079 0.143562 0.000000
O O9 0.813314 0.255547 0.500000
O O10 0.769809 0.190659 0.265229
O O11 0.808951 0.389960 0.273173
O O12 0.000000 0.000000 0.162794
O O13 0.000000 0.817901 0.000000
O O14 0.274577 0.126502 0.500000
O O15 0.323706 0.186721 0.272880
O O16 0.275748 0.000000 0.265417
O O17 0.676609 0.500000 0.500000
O O18 0.726126 0.500000 0.265466
O O19 0.643121 0.609494 0.275764
O O20 0.777238 0.500000 0.500000
O O21 0.372832 0.256962 0.500000
#
# Coordination Sequence:
#
# PCOD8194121 Si02
#       8
#     8   8   8   4   8   4   4   8
#     4   9  16  26  42  66  93 117 145 186 230 267
#     4   9  19  36  54  70  92 123 156 193 242 294
#     4   9  15  23  38  62  92 122 150 181 223 272
#     4   9  17  29  45  64  87 118 152 183 224 279
#     4   9  15  22  36  63  96 122 146 182 228 275
#     4   9  16  28  44  68 102 133 158 191 234 275
#     4   9  14  24  40  61  93 129 157 181 220 271
#     4  10  18  29  48  73  98 126 160 196 231 273
#
# _framework density 16.906130000000001
#
# number of rings (size 3 to 8) (size 9 to 14) (size 15 to 20)
#    0.000    2.846    1.538    1.615    0.000    4.000 
#    0.000    1.538    0.000    3.692    0.000    5.923 
#    0.000    0.000    0.000    0.000    0.000    0.000 
#
# Total GULP energy -644662.194615 kJ/mol
# GULP energy per Si atom -12397.349896 kJ/mol
# Density = 1.686765 g / cm^3
# Si number density = 16.906130 Si / 1000 Ang^3
#
#
#
# Elastic Constant Matrix: (Units=GPa)
#
#
# Indices 1 2 3 4 5 6 
#
# 1 135.5542 77.6957 37.1194 0.0000 0.0000 0.0000
# 2 77.6957 141.7698 26.6336 0.0000 0.0000 0.0000
# 3 37.1194 26.6336 30.1580 0.0000 0.0000 0.0000
# 4 0.0000 0.0000 0.0000 10.9611 0.0000 0.0000
# 5 0.0000 0.0000 0.0000 0.0000 1.1804 0.0000
# 6 0.0000 0.0000 0.0000 0.0000 0.0000 21.3692
#
#
#
# Elastic Compliance Matrix: (Units=1/GPa)
#
#
# Indices 1 2 3 4 5 6 
#
# 1 0.013735 -0.005217 -0.012298 0.000000 0.000000 0.000000
# 2 -0.005217 0.010438 -0.002797 0.000000 0.000000 0.000000
# 3 -0.012298 -0.002797 0.050766 0.000000 0.000000 0.000000
# 4 0.000000 0.000000 0.000000 0.091232 0.000000 0.000000
# 5 0.000000 0.000000 0.000000 0.000000 0.847183 0.000000
# 6 0.000000 0.000000 0.000000 0.000000 0.000000 0.046796
#
#
# Mechanical properties :
#
#
# Convention : Reuss Voigt Hill
#
# Bulk Modulus (GPa) = 29.14218 65.59771 47.36995
# Shear Modulus (GPa) = 4.49554 17.77103 11.13328
#
# Velocity S-wave (km/s) = 1.63245 3.24568 2.56898
# Velocity P-wave (km/s) = 4.56380 7.27539 6.07287
#
# Compressibility (1/GPa) = 0.03431452
#
# Stress axis : x y z
#
# Youngs Moduli (GPa) = 72.80679 95.80109 19.69826
#
# Poissons Ratio (x) = 0.49979 0.24225
# Poissons Ratio (y) = 0.37983 0.05510
# Poissons Ratio (z) = 0.89539 0.26798
#
# Static dielectric constant tensor:
#      x y z
#    x 3.239810 0.000000 0.000000 
#    y 0.000000 3.287670 0.000000 
#    z 0.000000 0.000000 2.666730 
# 
# 
# High freq. dielectric constant tensor:
#      x y z
#    x 1.657840 0.000000 0.000000 
#    y 0.000000 1.647300 0.000000 
#    z 0.000000 0.000000 1.597600 
# 
# From -- ./inp_files/13335.got.cif
#   From: 2010.03.12/outbox.cif.g09.slc.cpg/sg47_7_cif.got.tgz:13335.got - 2010.04.14 03:12:58.
