data_PCOD8194789
_publ_section_title
;
Structure prediction by ZEFSAII (Michael W. Deem and Ramdas Pophale) SiO2 
 PCOD8194789
Probable space group: P M M M
;
_chemical_formula_sum "Si O2"
_cell_formula_units_Z 40
_cell_length_a 9.097657
_cell_length_b 15.409318
_cell_length_c 19.347116
_cell_angle_alpha 90.000000
_cell_angle_beta 90.000000
_cell_angle_gamma 90.000000
_cell_volume 2712.246843
_symmetry_space_group_name_H-M "P M M M"
_symmetry_group_IT_number 47
_symmetry_cell_setting 'orthorhombic'
loop_
_space_group_symop_operation_xyz
x,y,z
-x,-y,z
x,-y,-z
-x,y,-z
-x,-y,-z
x,y,-z
-x,y,z
x,-y,z
loop_
_atom_site_type_symbol
_atom_site_label
_atom_site_fract_x
_atom_site_fract_y
_atom_site_fract_z
Si Si1 0.835217 0.896992 0.923981
Si Si2 0.829038 0.669417 0.578977
Si Si3 0.669313 0.897323 0.209713
Si Si4 0.173336 0.155238 0.656070
Si Si5 0.665720 0.500000 0.417810
Si Si6 0.667890 0.000000 0.581730
O O1 0.723968 0.863770 0.865165
O O2 0.000000 0.863285 0.907949
O O3 0.835290 0.000000 0.924327
O O4 0.784267 0.863354 0.000000
O O5 0.781672 0.689119 0.500000
O O6 0.786846 0.751376 0.625349
O O7 0.744475 0.586506 0.610146
O O8 0.000000 0.647791 0.582923
O O9 0.500000 0.871584 0.217974
O O10 0.765710 0.848100 0.266445
O O11 0.693221 0.000000 0.218923
O O12 0.251370 0.084779 0.608629
O O13 0.000000 0.137191 0.655959
O O14 0.500000 0.500000 0.390329
O O15 0.675191 0.500000 0.500000
O O16 0.500000 0.000000 0.609106
O O17 0.674123 0.000000 0.500000
#
# Coordination Sequence:
#
# PCOD8194789 Si02
#       6
#     8   8   8   8   4   4
#     4   8  14  25  41  59  78 103 139 179 214 250
#     4   9  18  32  48  65  84 107 139 179 220 261
#     4  10  19  29  41  58  84 114 144 179 219 258
#     4  11  21  32  47  63  82 113 150 184 216 255
#     4   9  17  29  47  69  87 105 130 165 216 271
#     4  11  23  35  45  59  82 111 144 185 227 259
#
# _framework density 14.747920000000001
#
# number of rings (size 3 to 8) (size 9 to 14) (size 15 to 20)
#    0.000    2.400    1.000    3.000    0.000    5.600 
#    0.000    4.000    0.000    0.000    0.000    0.000 
#    0.000    0.000    0.000    0.900    0.000   17.400 
#
# Total GULP energy -495958.964675 kJ/mol
# GULP energy per Si atom -12398.974117 kJ/mol
# Density = 1.471435 g / cm^3
# Si number density = 14.747920 Si / 1000 Ang^3
#
#
#
# Elastic Constant Matrix: (Units=GPa)
#
#
# Indices 1 2 3 4 5 6 
#
# 1 97.3474 56.6612 51.4311 0.0000 0.0000 0.0000
# 2 56.6612 87.1251 42.3519 0.0000 0.0000 0.0000
# 3 51.4311 42.3519 93.0790 0.0000 0.0000 0.0000
# 4 0.0000 0.0000 0.0000 -11.3597 0.0000 0.0000
# 5 0.0000 0.0000 0.0000 0.0000 23.9442 0.0000
# 6 0.0000 0.0000 0.0000 0.0000 0.0000 9.7851
#
#
#
# Elastic Compliance Matrix: (Units=1/GPa)
#
#
# Indices 1 2 3 4 5 6 
#
# 1 0.019002 -0.009314 -0.006262 0.000000 0.000000 0.000000
# 2 -0.009314 0.019303 -0.003636 0.000000 0.000000 0.000000
# 3 -0.006262 -0.003636 0.015858 0.000000 0.000000 0.000000
# 4 0.000000 0.000000 0.000000 -0.088030 0.000000 0.000000
# 5 0.000000 0.000000 0.000000 0.000000 0.041764 0.000000
# 6 0.000000 0.000000 0.000000 0.000000 0.000000 0.102196
#
#
# Mechanical properties :
#
#
# Convention : Reuss Voigt Hill
#
# Bulk Modulus (GPa) = 63.53807 64.27108 63.90458
# Shear Modulus (GPa) = 32.51776 12.94775 22.73276
#
# Velocity S-wave (km/s) = 4.70074 2.96622 3.93035
# Velocity P-wave (km/s) = 8.52284 7.44349 8.00139
#
# Compressibility (1/GPa) = 0.01573859
#
# Stress axis : x y z
#
# Youngs Moduli (GPa) = 52.62653 51.80626 63.05945
#
# Poissons Ratio (x) = 0.48252 0.39485
# Poissons Ratio (y) = 0.49016 0.22931
# Poissons Ratio (z) = 0.32953 0.18839
#
# Static dielectric constant tensor:
#      x y z
#    x 3.011420 0.000000 0.000000 
#    y 0.000000 2.624670 0.000000 
#    z 0.000000 0.000000 2.982360 
# 
# 
# High freq. dielectric constant tensor:
#      x y z
#    x 1.577850 0.000000 0.000000 
#    y 0.000000 1.522080 0.000000 
#    z 0.000000 0.000000 1.555720 
# 
# From -- ./inp_files/29418.got.cif
#   From: 2010.03.12/outbox.cif.g09.slc.cpg/sg47_15_cif.got.tgz:29418.got - 2010.04.14 03:12:58.
