data_PCOD8194091
_publ_section_title
;
Structure prediction by ZEFSAII (Michael W. Deem and Ramdas Pophale) SiO2 
 PCOD8194091
Probable space group: P M M M
;
_chemical_formula_sum "Si O2"
_cell_formula_units_Z 56
_cell_length_a 17.052834
_cell_length_b 20.491767
_cell_length_c 9.163575
_cell_angle_alpha 90.000000
_cell_angle_beta 90.000000
_cell_angle_gamma 90.000000
_cell_volume 3202.144399
_symmetry_space_group_name_H-M "P M M M"
_symmetry_group_IT_number 47
_symmetry_cell_setting 'orthorhombic'
loop_
_space_group_symop_operation_xyz
x,y,z
-x,-y,z
x,-y,-z
-x,y,-z
-x,-y,-z
x,y,-z
-x,y,z
x,-y,z
loop_
_atom_site_type_symbol
_atom_site_label
_atom_site_fract_x
_atom_site_fract_y
_atom_site_fract_z
Si Si1 0.412560 0.072282 0.173065
Si Si2 0.000000 0.380465 0.836073
Si Si3 0.308998 0.191267 0.173413
Si Si4 0.410302 0.684323 0.170946
Si Si5 0.153861 0.774987 0.669457
Si Si6 0.318980 0.574563 0.669799
Si Si7 0.848164 0.378658 0.667737
Si Si8 0.000000 0.774922 0.165983
O O1 0.500000 0.085270 0.235033
O O2 0.353861 0.127194 0.232048
O O3 0.383671 0.000000 0.221405
O O4 0.415951 0.076975 0.000000
O O5 0.078058 0.406774 0.757004
O O6 0.000000 0.302802 0.831156
O O7 0.000000 0.407434 0.000000
O O8 0.358938 0.254191 0.222024
O O9 0.226640 0.189988 0.254870
O O10 0.295506 0.190480 0.000000
O O11 0.500000 0.697972 0.215348
O O12 0.381412 0.618855 0.248001
O O13 0.401826 0.673096 0.000000
O O14 0.149698 0.794055 0.500000
O O15 0.162604 0.698012 0.691481
O O16 0.076055 0.801385 0.749232
O O17 0.322527 0.592677 0.500000
O O18 0.342419 0.500000 0.699477
O O19 0.230553 0.586995 0.726818
O O20 0.864056 0.396017 0.500000
O O21 0.000000 0.801082 0.000000
#
# Coordination Sequence:
#
# PCOD8194091 Si02
#       8
#     8   4   8   8   8   8   8   4
#     4   8  14  26  46  73 104 136 170 207 244 285
#     4   9  17  27  46  72  95 121 153 190 235 288
#     4  10  18  29  49  76 103 131 165 204 245 288
#     4  10  21  35  51  72  98 126 158 201 252 300
#     4  10  18  29  47  71 100 131 164 201 244 293
#     4  10  21  37  54  70  90 122 165 208 249 295
#     4   9  17  31  48  67  92 123 157 195 240 289
#     4   9  17  29  45  70 101 130 162 200 244 290
#
# _framework density 17.488281000000001
#
# number of rings (size 3 to 8) (size 9 to 14) (size 15 to 20)
#    0.000    2.571    1.429    1.714    0.000    5.429 
#    0.000    1.786    0.000    3.857    0.000    1.500 
#    0.000    4.000    0.000    0.000    0.000    0.000 
#
# Total GULP energy -694394.434215 kJ/mol
# GULP energy per Si atom -12399.900611 kJ/mol
# Density = 1.744848 g / cm^3
# Si number density = 17.488281 Si / 1000 Ang^3
#
#
#
# Elastic Constant Matrix: (Units=GPa)
#
#
# Indices 1 2 3 4 5 6 
#
# 1 144.4824 56.2655 54.9091 0.0000 0.0000 0.0000
# 2 56.2655 79.6660 31.7252 0.0000 0.0000 0.0000
# 3 54.9091 31.7252 64.2149 0.0000 0.0000 0.0000
# 4 0.0000 0.0000 0.0000 12.6552 0.0000 0.0000
# 5 0.0000 0.0000 0.0000 0.0000 27.9790 0.0000
# 6 0.0000 0.0000 0.0000 0.0000 0.0000 23.8158
#
#
#
# Elastic Compliance Matrix: (Units=1/GPa)
#
#
# Indices 1 2 3 4 5 6 
#
# 1 0.011868 -0.005404 -0.007478 0.000000 0.000000 0.000000
# 2 -0.005404 0.018087 -0.004315 0.000000 0.000000 0.000000
# 3 -0.007478 -0.004315 0.024099 0.000000 0.000000 0.000000
# 4 0.000000 0.000000 0.000000 0.079019 0.000000 0.000000
# 5 0.000000 0.000000 0.000000 0.000000 0.035741 0.000000
# 6 0.000000 0.000000 0.000000 0.000000 0.000000 0.041989
#
#
# Mechanical properties :
#
#
# Convention : Reuss Voigt Hill
#
# Bulk Modulus (GPa) = 50.86551 63.79588 57.33069
# Shear Modulus (GPa) = 19.86091 22.58757 21.22424
#
# Velocity S-wave (km/s) = 3.37363 3.59776 3.48749
# Velocity P-wave (km/s) = 6.65761 7.33600 7.00502
#
# Compressibility (1/GPa) = 0.01965969
#
# Stress axis : x y z
#
# Youngs Moduli (GPa) = 84.26317 55.28716 41.49536
#
# Poissons Ratio (x) = 0.29876 0.31031
# Poissons Ratio (y) = 0.45533 0.17907
# Poissons Ratio (z) = 0.63013 0.23859
#
# Static dielectric constant tensor:
#      x y z
#    x 3.393190 0.000000 0.000000 
#    y 0.000000 3.091310 0.000000 
#    z 0.000000 0.000000 3.110370 
# 
# 
# High freq. dielectric constant tensor:
#      x y z
#    x 1.685890 0.000000 0.000000 
#    y 0.000000 1.644200 0.000000 
#    z 0.000000 0.000000 1.659970 
# 
# From -- ./inp_files/7403.got.cif
#   From: 2010.03.12/outbox.cif.g09.slc.cpg/sg47_4_cif.got.tgz:7403.got - 2010.04.14 03:12:58.
