data_PCOD8194637
_publ_section_title
;
Structure prediction by ZEFSAII (Michael W. Deem and Ramdas Pophale) SiO2 
 PCOD8194637
Probable space group: P M M M
;
_chemical_formula_sum "Si O2"
_cell_formula_units_Z 64
_cell_length_a 9.508208
_cell_length_b 18.315203
_cell_length_c 26.292136
_cell_angle_alpha 90.000000
_cell_angle_beta 90.000000
_cell_angle_gamma 90.000000
_cell_volume 4578.637705
_symmetry_space_group_name_H-M "P M M M"
_symmetry_group_IT_number 47
_symmetry_cell_setting 'orthorhombic'
loop_
_space_group_symop_operation_xyz
x,y,z
-x,-y,z
x,-y,-z
-x,y,-z
-x,-y,-z
x,y,-z
-x,y,z
x,-y,z
loop_
_atom_site_type_symbol
_atom_site_label
_atom_site_fract_x
_atom_site_fract_y
_atom_site_fract_z
Si Si1 0.165581 0.417244 0.156053
Si Si2 0.665930 0.157320 0.740789
Si Si3 0.342946 0.086523 0.443797
Si Si4 0.838164 0.334226 0.056290
Si Si5 0.344966 0.699520 0.204238
Si Si6 0.835171 0.914226 0.650938
Si Si7 0.332521 0.080832 0.156971
Si Si8 0.343646 0.215377 0.098853
O O1 0.217740 0.500000 0.162678
O O2 0.211332 0.391653 0.099217
O O3 0.236805 0.367772 0.199706
O O4 0.000000 0.410712 0.163402
O O5 0.500000 0.145067 0.730391
O O6 0.697826 0.243141 0.751625
O O7 0.757374 0.132839 0.693320
O O8 0.719490 0.108930 0.788268
O O9 0.301630 0.116546 0.500000
O O10 0.500000 0.114234 0.428954
O O11 0.228559 0.113013 0.402800
O O12 0.343701 0.000000 0.445453
O O13 0.755964 0.257685 0.059859
O O14 0.000000 0.314748 0.064656
O O15 0.811935 0.368002 0.000000
O O16 0.500000 0.667354 0.215617
O O17 0.348802 0.743359 0.152098
O O18 0.000000 0.896604 0.651390
O O19 0.806181 0.000000 0.660068
O O20 0.500000 0.081466 0.157636
O O21 0.282853 0.134284 0.111109
O O22 0.271462 0.000000 0.146932
O O23 0.500000 0.211476 0.075006
#
# Coordination Sequence:
#
# PCOD8194637 Si02
#       8
#     8   8   8   8   8   8   8   8
#     4   9  17  28  42  60  79  98 120 144 172 210
#     4   9  16  26  40  55  72  97 127 155 185 225
#     4   8  14  25  39  51  64  90 131 172 205 238
#     4   9  17  28  41  56  74  96 119 143 173 209
#     4   8  15  27  41  57  75  96 122 149 179 215
#     4  10  19  26  33  51  78 103 128 163 205 239
#     4   8  13  22  38  57  72  88 114 149 186 220
#     4   8  14  25  40  56  72  90 115 146 177 213
#
# _framework density 13.977957
#
# number of rings (size 3 to 8) (size 9 to 14) (size 15 to 20)
#    0.000    3.375    0.000    2.625    0.000    2.750 
#    0.000    4.375    0.000    1.500    0.000    6.125 
#    0.000    0.000    0.000    0.000    0.000    0.625 
#
# Total GULP energy -793055.123182 kJ/mol
# GULP energy per Si atom -12391.486300 kJ/mol
# Density = 1.394614 g / cm^3
# Si number density = 13.977957 Si / 1000 Ang^3
#
#
#
# Elastic Constant Matrix: (Units=GPa)
#
#
# Indices 1 2 3 4 5 6 
#
# 1 57.7783 37.3385 35.0666 0.0000 0.0000 0.0000
# 2 37.3385 88.6582 31.3126 0.0000 0.0000 0.0000
# 3 35.0666 31.3126 55.0097 0.0000 0.0000 0.0000
# 4 0.0000 0.0000 0.0000 11.6358 0.0000 0.0000
# 5 0.0000 0.0000 0.0000 0.0000 18.8829 0.0000
# 6 0.0000 0.0000 0.0000 0.0000 0.0000 18.2515
#
#
#
# Elastic Compliance Matrix: (Units=1/GPa)
#
#
# Indices 1 2 3 4 5 6 
#
# 1 0.032091 -0.007873 -0.015975 0.000000 0.000000 0.000000
# 2 -0.007873 0.016049 -0.004117 0.000000 0.000000 0.000000
# 3 -0.015975 -0.004117 0.030706 0.000000 0.000000 0.000000
# 4 0.000000 0.000000 0.000000 0.085942 0.000000 0.000000
# 5 0.000000 0.000000 0.000000 0.000000 0.052958 0.000000
# 6 0.000000 0.000000 0.000000 0.000000 0.000000 0.054790
#
#
# Mechanical properties :
#
#
# Convention : Reuss Voigt Hill
#
# Bulk Modulus (GPa) = 43.63840 45.43127 44.53484
# Shear Modulus (GPa) = 14.87637 16.26927 15.57282
#
# Velocity S-wave (km/s) = 3.26586 3.41533 3.34143
# Velocity P-wave (km/s) = 6.74599 6.93724 6.84228
#
# Compressibility (1/GPa) = 0.02291560
#
# Stress axis : x y z
#
# Youngs Moduli (GPa) = 31.16142 62.30963 32.56737
#
# Poissons Ratio (x) = 0.49056 0.52028
# Poissons Ratio (y) = 0.24533 0.13407
# Poissons Ratio (z) = 0.49781 0.25651
#
# Static dielectric constant tensor:
#      x y z
#    x 2.753450 0.000000 0.000000 
#    y 0.000000 2.786220 0.000000 
#    z 0.000000 0.000000 2.710780 
# 
# 
# High freq. dielectric constant tensor:
#      x y z
#    x 1.526150 0.000000 0.000000 
#    y 0.000000 1.505480 0.000000 
#    z 0.000000 0.000000 1.508980 
# 
# From -- ./inp_files/33476.got.cif
#   From: 2010.03.12/outbox.cif.g09.slc.cpg/sg47_17_cif.got.tgz:33476.got - 2010.04.14 03:12:58.
