data_PCOD8194297
_publ_section_title
;
Structure prediction by ZEFSAII (Michael W. Deem and Ramdas Pophale) SiO2 
 PCOD8194297
Probable space group: P M M M
;
_chemical_formula_sum "Si O2"
_cell_formula_units_Z 56
_cell_length_a 13.690484
_cell_length_b 15.848370
_cell_length_c 14.150770
_cell_angle_alpha 90.000000
_cell_angle_beta 90.000000
_cell_angle_gamma 90.000000
_cell_volume 3070.318829
_symmetry_space_group_name_H-M "P M M M"
_symmetry_group_IT_number 47
_symmetry_cell_setting 'orthorhombic'
loop_
_space_group_symop_operation_xyz
x,y,z
-x,-y,z
x,-y,-z
-x,y,-z
-x,-y,-z
x,y,-z
-x,y,z
x,-y,z
loop_
_atom_site_type_symbol
_atom_site_label
_atom_site_fract_x
_atom_site_fract_y
_atom_site_fract_z
Si Si1 0.107150 0.400363 0.894189
Si Si2 0.106042 0.905383 0.611540
Si Si3 0.385779 0.251984 0.895526
Si Si4 0.307857 0.838209 0.607518
Si Si5 0.614678 0.349460 0.606867
Si Si6 0.613722 0.091440 0.212890
Si Si7 0.297991 0.595592 0.790997
O O1 0.100021 0.500000 0.895672
O O2 0.188254 0.372847 0.816961
O O3 0.000000 0.363623 0.865775
O O4 0.135950 0.368530 0.000000
O O5 0.098625 0.908349 0.500000
O O6 0.193842 0.842355 0.640709
O O7 0.000000 0.874439 0.651766
O O8 0.128653 0.000000 0.649571
O O9 0.500000 0.236962 0.902282
O O10 0.337564 0.170653 0.842791
O O11 0.371100 0.339452 0.840397
O O12 0.339384 0.258350 0.000000
O O13 0.319664 0.870636 0.500000
O O14 0.349547 0.745329 0.618746
O O15 0.369605 0.898812 0.675001
O O16 0.633104 0.381963 0.500000
O O17 0.500000 0.355822 0.632155
O O18 0.679707 0.404870 0.678684
O O19 0.500000 0.091038 0.192124
O O20 0.657022 0.000000 0.180442
O O21 0.314677 0.500000 0.828903
#
# Coordination Sequence:
#
# PCOD8194297 Si02
#       7
#     8   8   8   8   8   8   8
#     4   8  15  30  53  81 110 136 165 208 265 326
#     4   8  14  25  42  67  99 131 163 204 258 316
#     4  10  21  36  52  73 104 136 168 214 267 316
#     4  10  18  30  50  73  99 133 173 218 265 311
#     4  10  21  36  52  71 103 148 188 223 266 317
#     4  10  20  33  50  72  99 135 177 214 253 308
#     4  11  21  34  56  82 106 135 174 220 268 319
#
# _framework density 18.239148
#
# number of rings (size 3 to 8) (size 9 to 14) (size 15 to 20)
#    0.000    2.429    1.429    2.571    0.000    4.286 
#    0.000    4.286    0.000    1.286    0.000    2.000 
#    0.000    0.000    0.000    6.000    0.000    0.571 
#
# Total GULP energy -693784.105530 kJ/mol
# GULP energy per Si atom -12389.001884 kJ/mol
# Density = 1.819763 g / cm^3
# Si number density = 18.239148 Si / 1000 Ang^3
#
#
#
# Elastic Constant Matrix: (Units=GPa)
#
#
# Indices 1 2 3 4 5 6 
#
# 1 80.5517 17.9715 40.7833 0.0000 0.0000 0.0000
# 2 17.9715 87.5128 39.7300 0.0000 0.0000 0.0000
# 3 40.7833 39.7300 99.3004 0.0000 0.0000 0.0000
# 4 0.0000 0.0000 0.0000 -18.9931 0.0000 0.0000
# 5 0.0000 0.0000 0.0000 0.0000 23.5786 0.0000
# 6 0.0000 0.0000 0.0000 0.0000 0.0000 16.5552
#
#
#
# Elastic Compliance Matrix: (Units=1/GPa)
#
#
# Indices 1 2 3 4 5 6 
#
# 1 0.015683 -0.000362 -0.006296 0.000000 0.000000 0.000000
# 2 -0.000362 0.013972 -0.005441 0.000000 0.000000 0.000000
# 3 -0.006296 -0.005441 0.014833 0.000000 0.000000 0.000000
# 4 0.000000 0.000000 0.000000 -0.052651 0.000000 0.000000
# 5 0.000000 0.000000 0.000000 0.000000 0.042411 0.000000
# 6 0.000000 0.000000 0.000000 0.000000 0.000000 0.060404
#
#
# Mechanical properties :
#
#
# Convention : Reuss Voigt Hill
#
# Bulk Modulus (GPa) = 49.28873 51.59272 50.44073
# Shear Modulus (GPa) = 39.80426 15.48680 27.64553
#
# Velocity S-wave (km/s) = 4.67663 2.91709 3.89745
# Velocity P-wave (km/s) = 7.49956 6.30032 6.92595
#
# Compressibility (1/GPa) = 0.02028861
#
# Stress axis : x y z
#
# Youngs Moduli (GPa) = 63.76349 71.57398 67.41562
#
# Poissons Ratio (x) = 0.02593 0.42446
# Poissons Ratio (y) = 0.02310 0.36682
# Poissons Ratio (z) = 0.40147 0.38945
#
# Static dielectric constant tensor:
#      x y z
#    x 3.646480 0.000000 0.000000 
#    y 0.000000 3.405600 0.000000 
#    z 0.000000 0.000000 3.495480 
# 
# 
# High freq. dielectric constant tensor:
#      x y z
#    x 1.694390 0.000000 0.000000 
#    y 0.000000 1.691180 0.000000 
#    z 0.000000 0.000000 1.690540 
# 
# From -- ./inp_files/23820.got.cif
#   From: 2010.03.12/outbox.cif.g09.slc.cpg/sg47_12_cif.got.tgz:23820.got - 2010.04.14 03:12:58.
