data_PCOD8194027
_publ_section_title
;
Structure prediction by ZEFSAII (Michael W. Deem and Ramdas Pophale) SiO2 
 PCOD8194027
Probable space group: P M M M
;
_chemical_formula_sum "Si O2"
_cell_formula_units_Z 64
_cell_length_a 20.053240
_cell_length_b 20.146678
_cell_length_c 9.435867
_cell_angle_alpha 90.000000
_cell_angle_beta 90.000000
_cell_angle_gamma 90.000000
_cell_volume 3812.148479
_symmetry_space_group_name_H-M "P M M M"
_symmetry_group_IT_number 47
_symmetry_cell_setting 'orthorhombic'
loop_
_space_group_symop_operation_xyz
x,y,z
-x,-y,z
x,-y,-z
-x,y,-z
-x,-y,-z
x,y,-z
-x,y,z
x,-y,z
loop_
_atom_site_type_symbol
_atom_site_label
_atom_site_fract_x
_atom_site_fract_y
_atom_site_fract_z
Si Si1 0.244472 0.213356 0.665283
Si Si2 0.883264 0.248556 0.838793
Si Si3 0.675103 0.335811 0.665471
Si Si4 0.925801 0.101623 0.839805
Si Si5 0.793444 0.428133 0.667621
Si Si6 0.578086 0.425153 0.163824
Si Si7 0.072545 0.364806 0.662474
Si Si8 0.798237 0.928021 0.663488
O O1 0.226045 0.221890 0.500000
O O2 0.186585 0.245224 0.757336
O O3 0.312008 0.256599 0.695751
O O4 0.250125 0.134324 0.706174
O O5 0.923145 0.180519 0.832798
O O6 0.930383 0.300352 0.760434
O O7 0.868943 0.270383 0.000000
O O8 0.661561 0.348113 0.500000
O O9 0.741005 0.373808 0.721163
O O10 0.612851 0.366103 0.748981
O O11 0.868539 0.070601 0.743532
O O12 0.000000 0.079138 0.789637
O O13 0.913189 0.077006 0.000000
O O14 0.791744 0.431020 0.500000
O O15 0.773965 0.500000 0.731322
O O16 0.868434 0.411952 0.718804
O O17 0.500000 0.415789 0.188010
O O18 0.598985 0.500000 0.213826
O O19 0.596851 0.416305 0.000000
O O20 0.086321 0.343532 0.500000
O O21 0.000000 0.400350 0.675010
O O22 0.816691 0.920626 0.500000
O O23 0.762870 0.000000 0.692752
#
# Coordination Sequence:
#
# PCOD8194027 Si02
#       8
#     8   8   8   8   8   8   8   8
#     4   9  17  31  49  68  93 119 149 190 233 275
#     4  10  18  29  45  63  84 109 143 190 239 286
#     4  10  18  30  51  74  97 125 159 199 234 267
#     4   9  18  30  42  58  81 110 144 183 232 288
#     4   9  17  29  44  64  89 114 146 190 235 277
#     4   9  19  35  52  73 106 142 167 189 223 270
#     4  10  19  30  44  60  81 112 149 191 242 291
#     4   9  18  31  46  64  87 116 148 184 230 284
#
# _framework density 16.788433000000001
#
# number of rings (size 3 to 8) (size 9 to 14) (size 15 to 20)
#    0.000    2.625    1.250    1.500    0.000    3.750 
#    0.000    3.125    0.000    0.375    0.000    0.875 
#    0.000    0.500    0.000    6.250    0.000    1.000 
#
# Total GULP energy -792919.296998 kJ/mol
# GULP energy per Si atom -12389.364016 kJ/mol
# Density = 1.675022 g / cm^3
# Si number density = 16.788433 Si / 1000 Ang^3
#
#
#
# Elastic Constant Matrix: (Units=GPa)
#
#
# Indices 1 2 3 4 5 6 
#
# 1 62.6304 42.3846 26.2204 0.0000 0.0000 0.0000
# 2 42.3846 115.6980 31.1235 0.0000 0.0000 0.0000
# 3 26.2204 31.1235 49.1999 0.0000 0.0000 0.0000
# 4 0.0000 0.0000 0.0000 13.9660 0.0000 0.0000
# 5 0.0000 0.0000 0.0000 0.0000 19.7328 0.0000
# 6 0.0000 0.0000 0.0000 0.0000 0.0000 15.9754
#
#
#
# Elastic Compliance Matrix: (Units=1/GPa)
#
#
# Indices 1 2 3 4 5 6 
#
# 1 0.023967 -0.006440 -0.008699 0.000000 0.000000 0.000000
# 2 -0.006440 0.012146 -0.004251 0.000000 0.000000 0.000000
# 3 -0.008699 -0.004251 0.027651 0.000000 0.000000 0.000000
# 4 0.000000 0.000000 0.000000 0.071602 0.000000 0.000000
# 5 0.000000 0.000000 0.000000 0.000000 0.050677 0.000000
# 6 0.000000 0.000000 0.000000 0.000000 0.000000 0.062596
#
#
# Mechanical properties :
#
#
# Convention : Reuss Voigt Hill
#
# Bulk Modulus (GPa) = 40.02738 47.44283 43.73510
# Shear Modulus (GPa) = 16.90636 18.45485 17.68061
#
# Velocity S-wave (km/s) = 3.17681 3.31911 3.24874
# Velocity P-wave (km/s) = 6.11148 6.55814 6.33874
#
# Compressibility (1/GPa) = 0.02498290
#
# Stress axis : x y z
#
# Youngs Moduli (GPa) = 41.72476 82.33149 36.16559
#
# Poissons Ratio (x) = 0.53020 0.31460
# Poissons Ratio (y) = 0.26870 0.15376
# Poissons Ratio (z) = 0.36296 0.35003
#
# Static dielectric constant tensor:
#      x y z
#    x 2.853050 0.000000 0.000000 
#    y 0.000000 3.460950 0.000000 
#    z 0.000000 0.000000 3.078470 
# 
# 
# High freq. dielectric constant tensor:
#      x y z
#    x 1.607620 0.000000 0.000000 
#    y 0.000000 1.650510 0.000000 
#    z 0.000000 0.000000 1.634520 
# 
# From -- ./inp_files/11868.got.cif
#   From: 2010.03.12/outbox.cif.g09.slc.cpg/sg47_6_cif.got.tgz:11868.got - 2010.04.14 03:12:58.
