data_PCOD8194135
_publ_section_title
;
Structure prediction by ZEFSAII (Michael W. Deem and Ramdas Pophale) SiO2 
 PCOD8194135
Probable space group: P M M M
;
_chemical_formula_sum "Si O2"
_cell_formula_units_Z 52
_cell_length_a 14.348847
_cell_length_b 25.374795
_cell_length_c 7.826954
_cell_angle_alpha 90.000000
_cell_angle_beta 90.000000
_cell_angle_gamma 90.000000
_cell_volume 2849.786524
_symmetry_space_group_name_H-M "P M M M"
_symmetry_group_IT_number 47
_symmetry_cell_setting 'orthorhombic'
loop_
_space_group_symop_operation_xyz
x,y,z
-x,-y,z
x,-y,-z
-x,y,-z
-x,-y,-z
x,y,-z
-x,y,z
x,-y,z
loop_
_atom_site_type_symbol
_atom_site_label
_atom_site_fract_x
_atom_site_fract_y
_atom_site_fract_z
Si Si1 0.890250 0.633827 0.197273
Si Si2 0.604072 0.105797 0.700854
Si Si3 0.106103 0.157712 0.795906
Si Si4 0.787880 0.057309 0.804271
Si Si5 0.602836 0.774662 0.702003
Si Si6 0.110280 0.441356 0.500000
Si Si7 0.794627 0.260947 0.195836
O O1 0.857508 0.587454 0.325024
O O2 0.838828 0.685804 0.270636
O O3 0.000000 0.644124 0.210379
O O4 0.862559 0.620052 0.000000
O O5 0.620415 0.102578 0.500000
O O6 0.500000 0.086570 0.748298
O O7 0.677710 0.068543 0.793527
O O8 0.618371 0.165629 0.765668
O O9 0.153140 0.104664 0.717602
O O10 0.160361 0.208544 0.718855
O O11 0.000000 0.160131 0.733280
O O12 0.113732 0.156963 0.000000
O O13 0.809004 0.000000 0.718273
O O14 0.817459 0.053742 0.000000
O O15 0.609353 0.772142 0.500000
O O16 0.500000 0.755012 0.761732
O O17 0.682872 0.737937 0.781377
O O18 0.154116 0.500000 0.500000
O O19 0.000000 0.444845 0.500000
O O20 0.823171 0.260151 0.000000
#
# Coordination Sequence:
#
# PCOD8194135 Si02
#       7
#     8   8   8   8   8   4   8
#     4   9  18  31  47  73 108 140 174 217 256 291
#     4   9  18  33  50  66  86 114 148 185 234 297
#     4   9  17  30  47  66  89 118 152 191 239 294
#     4  10  20  32  46  66  88 111 148 196 240 284
#     4   9  18  31  47  68  94 123 153 190 240 296
#     4   9  18  32  50  74 105 145 188 216 244 291
#     4  10  18  29  49  73  96 126 160 197 245 293
#
# _framework density 18.246981000000002
#
# number of rings (size 3 to 8) (size 9 to 14) (size 15 to 20)
#    0.000    2.692    1.538    1.385    1.077    3.692 
#    0.000    6.154    0.000    1.385    0.000    1.077 
#    0.000    1.231    0.000    3.385    0.000    0.154 
#
# Total GULP energy -644494.559177 kJ/mol
# GULP energy per Si atom -12394.126138 kJ/mol
# Density = 1.820545 g / cm^3
# Si number density = 18.246981 Si / 1000 Ang^3
#
#
#
# Elastic Constant Matrix: (Units=GPa)
#
#
# Indices 1 2 3 4 5 6 
#
# 1 101.7433 58.1968 11.5763 0.0000 0.0000 0.0000
# 2 58.1968 149.5248 36.5130 0.0000 0.0000 0.0000
# 3 11.5763 36.5130 40.6761 0.0000 0.0000 0.0000
# 4 0.0000 0.0000 0.0000 15.9811 0.0000 0.0000
# 5 0.0000 0.0000 0.0000 0.0000 10.3403 0.0000
# 6 0.0000 0.0000 0.0000 0.0000 0.0000 17.9995
#
#
#
# Elastic Compliance Matrix: (Units=1/GPa)
#
#
# Indices 1 2 3 4 5 6 
#
# 1 0.012678 -0.005191 0.001052 0.000000 0.000000 0.000000
# 2 -0.005191 0.010691 -0.008119 0.000000 0.000000 0.000000
# 3 0.001052 -0.008119 0.031574 0.000000 0.000000 0.000000
# 4 0.000000 0.000000 0.000000 0.062574 0.000000 0.000000
# 5 0.000000 0.000000 0.000000 0.000000 0.096709 0.000000
# 6 0.000000 0.000000 0.000000 0.000000 0.000000 0.055557
#
#
# Mechanical properties :
#
#
# Convention : Reuss Voigt Hill
#
# Bulk Modulus (GPa) = 32.86763 56.05738 44.46251
# Shear Modulus (GPa) = 16.42346 21.24141 18.83243
#
# Velocity S-wave (km/s) = 3.00336 3.41560 3.21609
# Velocity P-wave (km/s) = 5.48440 6.80759 6.18150
#
# Compressibility (1/GPa) = 0.03042507
#
# Stress axis : x y z
#
# Youngs Moduli (GPa) = 78.87380 93.53521 31.67210
#
# Poissons Ratio (x) = 0.48559 -0.03332
# Poissons Ratio (y) = 0.40947 0.25716
# Poissons Ratio (z) = -0.08297 0.75946
#
# Static dielectric constant tensor:
#      x y z
#    x 3.411660 0.000000 0.000000 
#    y 0.000000 3.476500 0.000000 
#    z 0.000000 0.000000 3.113920 
# 
# 
# High freq. dielectric constant tensor:
#      x y z
#    x 1.695040 0.000000 0.000000 
#    y 0.000000 1.680020 0.000000 
#    z 0.000000 0.000000 1.689900 
# 
# From -- ./inp_files/7007.got.cif
#   From: 2010.03.12/outbox.cif.g09.slc.cpg/sg47_4_cif.got.tgz:7007.got - 2010.04.14 03:12:58.
