data_PCOD8194452
_publ_section_title
;
Structure prediction by ZEFSAII (Michael W. Deem and Ramdas Pophale) SiO2 
 PCOD8194452
Probable space group: P M M M
;
_chemical_formula_sum "Si O2"
_cell_formula_units_Z 52
_cell_length_a 15.656927
_cell_length_b 9.498183
_cell_length_c 19.113586
_cell_angle_alpha 90.000000
_cell_angle_beta 90.000000
_cell_angle_gamma 90.000000
_cell_volume 2842.426441
_symmetry_space_group_name_H-M "P M M M"
_symmetry_group_IT_number 47
_symmetry_cell_setting 'orthorhombic'
loop_
_space_group_symop_operation_xyz
x,y,z
-x,-y,z
x,-y,-z
-x,y,-z
-x,-y,-z
x,y,-z
-x,y,z
x,-y,z
loop_
_atom_site_type_symbol
_atom_site_label
_atom_site_fract_x
_atom_site_fract_y
_atom_site_fract_z
Si Si1 0.862407 0.340567 0.308677
Si Si2 0.594523 0.166509 0.575941
Si Si3 0.695886 0.164835 0.294584
Si Si4 0.258787 0.337705 0.081412
Si Si5 0.400892 0.164451 0.846644
Si Si6 0.909083 0.339752 0.154450
Si Si7 0.000000 0.667305 0.580415
O O1 0.831540 0.500000 0.323880
O O2 0.784723 0.241448 0.289285
O O3 0.917402 0.334696 0.238272
O O4 0.916408 0.282968 0.375692
O O5 0.633886 0.204865 0.500000
O O6 0.500000 0.231369 0.582326
O O7 0.652988 0.230130 0.636135
O O8 0.588237 0.000000 0.585557
O O9 0.633360 0.199346 0.230604
O O10 0.714081 0.000000 0.300461
O O11 0.274123 0.500000 0.103667
O O12 0.344697 0.251716 0.098368
O O13 0.177049 0.269047 0.122684
O O14 0.239014 0.323708 0.000000
O O15 0.500000 0.210566 0.851859
O O16 0.391053 0.000000 0.863984
O O17 0.904568 0.500000 0.128093
O O18 0.000000 0.273551 0.127010
O O19 0.000000 0.500000 0.578835
O O20 0.000000 0.726969 0.500000
#
# Coordination Sequence:
#
# PCOD8194452 Si02
#       7
#     8   8   8   8   8   8   4
#     4  10  18  31  52  73  97 134 171 204 247 300
#     4   8  14  26  45  68  94 125 160 199 244 292
#     4  10  19  31  50  76 102 127 166 217 259 298
#     4  10  21  36  55  81 109 134 167 216 267 313
#     4  10  21  36  54  76 104 142 182 217 259 315
#     4   9  16  30  54  79 102 131 168 207 251 307
#     4   9  18  32  51  77 106 138 179 218 251 304
#
# _framework density 18.294228
#
# number of rings (size 3 to 8) (size 9 to 14) (size 15 to 20)
#    0.000    2.538    2.308    0.923    0.000    3.692 
#    0.000    3.462    0.000    3.231    0.000    2.154 
#    0.000    0.000    0.000    0.000    0.000    0.000 
#
# Total GULP energy -644316.520145 kJ/mol
# GULP energy per Si atom -12390.702310 kJ/mol
# Density = 1.825259 g / cm^3
# Si number density = 18.294228 Si / 1000 Ang^3
#
#
#
# Elastic Constant Matrix: (Units=GPa)
#
#
# Indices 1 2 3 4 5 6 
#
# 1 141.6980 35.3584 46.1250 0.0000 0.0000 0.0000
# 2 35.3584 27.9616 24.5294 0.0000 0.0000 0.0000
# 3 46.1250 24.5294 94.5987 0.0000 0.0000 0.0000
# 4 0.0000 0.0000 0.0000 17.4068 0.0000 0.0000
# 5 0.0000 0.0000 0.0000 0.0000 30.1193 0.0000
# 6 0.0000 0.0000 0.0000 0.0000 0.0000 11.2044
#
#
#
# Elastic Compliance Matrix: (Units=1/GPa)
#
#
# Indices 1 2 3 4 5 6 
#
# 1 0.010654 -0.011540 -0.002202 0.000000 0.000000 0.000000
# 2 -0.011540 0.058794 -0.009619 0.000000 0.000000 0.000000
# 3 -0.002202 -0.009619 0.014139 0.000000 0.000000 0.000000
# 4 0.000000 0.000000 0.000000 0.057449 0.000000 0.000000
# 5 0.000000 0.000000 0.000000 0.000000 0.033201 0.000000
# 6 0.000000 0.000000 0.000000 0.000000 0.000000 0.089250
#
#
# Mechanical properties :
#
#
# Convention : Reuss Voigt Hill
#
# Bulk Modulus (GPa) = 27.12603 52.92043 40.02323
# Shear Modulus (GPa) = 15.50399 22.29581 18.89990
#
# Velocity S-wave (km/s) = 2.91431 3.49483 3.21769
# Velocity P-wave (km/s) = 5.11704 6.72869 5.97743
#
# Compressibility (1/GPa) = 0.03686496
#
# Stress axis : x y z
#
# Youngs Moduli (GPa) = 93.86332 17.00849 70.72713
#
# Poissons Ratio (x) = 0.19628 0.15576
# Poissons Ratio (y) = 1.08320 0.68029
# Poissons Ratio (z) = 0.20671 0.16360
#
# Static dielectric constant tensor:
#      x y z
#    x 3.514250 0.000000 0.000000 
#    y 0.000000 2.932220 0.000000 
#    z 0.000000 0.000000 3.536750 
# 
# 
# High freq. dielectric constant tensor:
#      x y z
#    x 1.718980 0.000000 0.000000 
#    y 0.000000 1.655010 0.000000 
#    z 0.000000 0.000000 1.716060 
# 
# From -- ./inp_files/6997.got.cif
#   From: 2010.03.12/outbox.cif.g09.slc.cpg/sg47_4_cif.got.tgz:6997.got - 2010.04.14 03:12:58.
