data_PCOD8194346
_publ_section_title
;
Structure prediction by ZEFSAII (Michael W. Deem and Ramdas Pophale) SiO2 
 PCOD8194346
Probable space group: P M M M
;
_chemical_formula_sum "Si O2"
_cell_formula_units_Z 52
_cell_length_a 27.088448
_cell_length_b 9.205220
_cell_length_c 12.040300
_cell_angle_alpha 90.000000
_cell_angle_beta 90.000000
_cell_angle_gamma 90.000000
_cell_volume 3002.310491
_symmetry_space_group_name_H-M "P M M M"
_symmetry_group_IT_number 47
_symmetry_cell_setting 'orthorhombic'
loop_
_space_group_symop_operation_xyz
x,y,z
-x,-y,z
x,-y,-z
-x,y,-z
-x,-y,-z
x,y,-z
-x,y,z
x,-y,z
loop_
_atom_site_type_symbol
_atom_site_label
_atom_site_fract_x
_atom_site_fract_y
_atom_site_fract_z
Si Si1 0.223432 0.664571 0.628999
Si Si2 0.555672 0.328023 0.000000
Si Si3 0.500000 0.672228 0.375565
Si Si4 0.945033 0.163908 0.130356
Si Si5 0.677905 0.171303 0.372176
Si Si6 0.944240 0.326739 0.500000
Si Si7 0.881808 0.328274 0.293639
Si Si8 0.405840 0.327483 0.762331
O O1 0.209642 0.669182 0.500000
O O2 0.238239 0.500000 0.663192
O O3 0.267732 0.772701 0.658195
O O4 0.175155 0.719911 0.694357
O O5 0.585277 0.278158 0.110058
O O6 0.550581 0.500000 0.000000
O O7 0.500000 0.262322 0.000000
O O8 0.500000 0.500000 0.380253
O O9 0.500000 0.738088 0.500000
O O10 0.452074 0.726865 0.310270
O O11 0.903019 0.266148 0.179948
O O12 0.000000 0.218724 0.163641
O O13 0.937548 0.000000 0.173179
O O14 0.938374 0.170903 0.000000
O O15 0.664645 0.212859 0.500000
O O16 0.641561 0.248019 0.286229
O O17 0.675795 0.000000 0.354129
O O18 0.944219 0.500000 0.500000
O O19 0.915509 0.265909 0.392955
O O20 0.000000 0.265722 0.500000
O O21 0.884780 0.500000 0.291773
O O22 0.398382 0.500000 0.753319
#
# Coordination Sequence:
#
# PCOD8194346 Si02
#       8
#     8   4   4   8   8   4   8   8
#     4   9  17  32  53  76 102 132 167 206 252 307
#     4   9  16  30  53  81 107 135 171 211 250 295
#     4   9  16  25  44  76 107 133 166 203 242 294
#     4   9  19  35  51  68  96 135 173 207 247 295
#     4  10  21  35  51  74 104 135 170 211 256 301
#     4   9  16  26  43  73 111 139 155 186 247 308
#     4  10  18  30  51  78 103 129 164 207 252 300
#     4  10  18  31  53  78 105 136 171 210 251 296
#
# _framework density 17.319994999999999
#
# number of rings (size 3 to 8) (size 9 to 14) (size 15 to 20)
#    0.000    2.538    1.538    1.846    0.000    3.385 
#    0.000    1.923    1.692    3.231    0.000    0.000 
#    0.000    0.000    0.000    0.000    0.000    0.000 
#
# Total GULP energy -644727.598213 kJ/mol
# GULP energy per Si atom -12398.607658 kJ/mol
# Density = 1.728057 g / cm^3
# Si number density = 17.319995 Si / 1000 Ang^3
#
#
#
# Elastic Constant Matrix: (Units=GPa)
#
#
# Indices 1 2 3 4 5 6 
#
# 1 139.0611 48.0999 70.7384 0.0000 0.0000 0.0000
# 2 48.0999 38.4788 33.2684 0.0000 0.0000 0.0000
# 3 70.7384 33.2684 102.8974 0.0000 0.0000 0.0000
# 4 0.0000 0.0000 0.0000 19.3277 0.0000 0.0000
# 5 0.0000 0.0000 0.0000 0.0000 28.7750 0.0000
# 6 0.0000 0.0000 0.0000 0.0000 0.0000 11.3456
#
#
#
# Elastic Compliance Matrix: (Units=1/GPa)
#
#
# Indices 1 2 3 4 5 6 
#
# 1 0.014821 -0.013488 -0.005828 0.000000 0.000000 0.000000
# 2 -0.013488 0.048347 -0.006359 0.000000 0.000000 0.000000
# 3 -0.005828 -0.006359 0.015781 0.000000 0.000000 0.000000
# 4 0.000000 0.000000 0.000000 0.051739 0.000000 0.000000
# 5 0.000000 0.000000 0.000000 0.000000 0.034752 0.000000
# 6 0.000000 0.000000 0.000000 0.000000 0.000000 0.088140
#
#
# Mechanical properties :
#
#
# Convention : Reuss Voigt Hill
#
# Bulk Modulus (GPa) = 36.23323 64.96117 50.59720
# Shear Modulus (GPa) = 15.91699 20.44503 18.18101
#
# Velocity S-wave (km/s) = 3.03478 3.43946 3.24344
# Velocity P-wave (km/s) = 5.76586 7.30487 6.58051
#
# Compressibility (1/GPa) = 0.02759897
#
# Stress axis : x y z
#
# Youngs Moduli (GPa) = 67.47109 20.68399 63.36778
#
# Poissons Ratio (x) = 0.27899 0.36932
# Poissons Ratio (y) = 0.91005 0.40293
# Poissons Ratio (z) = 0.39323 0.13152
#
# Static dielectric constant tensor:
#      x y z
#    x 3.290580 0.000000 0.000000 
#    y 0.000000 2.921340 0.000000 
#    z 0.000000 0.000000 3.227800 
# 
# 
# High freq. dielectric constant tensor:
#      x y z
#    x 1.674190 0.000000 0.000000 
#    y 0.000000 1.639800 0.000000 
#    z 0.000000 0.000000 1.660210 
# 
# From -- ./inp_files/19843.got.cif
#   From: 2010.03.12/outbox.cif.g09.slc.cpg/sg47_10_cif.got.tgz:19843.got - 2010.04.14 03:12:58.
