data_PCOD8194702
_publ_section_title
;
Structure prediction by ZEFSAII (Michael W. Deem and Ramdas Pophale) SiO2 
 PCOD8194702
Probable space group: P M M M
;
_chemical_formula_sum "Si O2"
_cell_formula_units_Z 52
_cell_length_a 9.228092
_cell_length_b 13.539680
_cell_length_c 26.954395
_cell_angle_alpha 90.000000
_cell_angle_beta 90.000000
_cell_angle_gamma 90.000000
_cell_volume 3367.828007
_symmetry_space_group_name_H-M "P M M M"
_symmetry_group_IT_number 47
_symmetry_cell_setting 'orthorhombic'
loop_
_space_group_symop_operation_xyz
x,y,z
-x,-y,z
x,-y,-z
-x,y,-z
-x,-y,-z
x,y,-z
-x,y,z
x,-y,z
loop_
_atom_site_type_symbol
_atom_site_label
_atom_site_fract_x
_atom_site_fract_y
_atom_site_fract_z
Si Si1 0.837722 0.382847 0.552437
Si Si2 0.669828 0.699074 0.751272
Si Si3 0.166835 0.610555 0.159154
Si Si4 0.665490 0.109938 0.809075
Si Si5 0.827673 0.385800 0.340267
Si Si6 0.830167 0.198324 0.897579
Si Si7 0.172445 0.887585 0.000000
O O1 0.758851 0.349713 0.500000
O O2 0.844706 0.500000 0.554372
O O3 0.768324 0.349755 0.605117
O O4 0.000000 0.340428 0.550499
O O5 0.500000 0.677647 0.746423
O O6 0.734572 0.626262 0.792671
O O7 0.704658 0.812160 0.766103
O O8 0.746377 0.681978 0.699012
O O9 0.193197 0.500000 0.138612
O O10 0.208307 0.687691 0.115586
O O11 0.000000 0.625551 0.175452
O O12 0.500000 0.124869 0.825705
O O13 0.761465 0.125329 0.857616
O O14 0.693516 0.000000 0.788037
O O15 0.787854 0.500000 0.330408
O O16 0.000000 0.370677 0.336500
O O17 0.768362 0.170914 0.951810
O O18 0.000000 0.179136 0.895951
O O19 0.000000 0.887885 0.000000
O O20 0.231268 0.000000 0.000000
#
# Coordination Sequence:
#
# PCOD8194702 Si02
#       7
#     8   8   8   8   8   8   4
#     4   7  10  18  33  52  73 100 135 167 190 218
#     4  10  19  28  40  59  80 103 132 164 198 237
#     4   9  17  29  43  58  79 107 136 164 192 223
#     4   9  18  32  46  59  78 103 130 162 200 238
#     4   9  16  25  38  57  82 110 136 163 194 226
#     4   9  17  29  45  64  83 104 131 159 190 234
#     4   9  16  26  42  64  86 103 123 159 204 241
#
# _framework density 15.440219000000001
#
# number of rings (size 3 to 8) (size 9 to 14) (size 15 to 20)
#    0.000    3.154    0.000    2.769    0.000    4.000 
#    0.000    0.769    0.000    4.154    0.000    2.154 
#    0.000    5.538    0.000    7.692    0.000    0.308 
#
# Total GULP energy -644253.369867 kJ/mol
# GULP energy per Si atom -12389.487882 kJ/mol
# Density = 1.540508 g / cm^3
# Si number density = 15.440219 Si / 1000 Ang^3
#
#
#
# Elastic Constant Matrix: (Units=GPa)
#
#
# Indices 1 2 3 4 5 6 
#
# 1 33.7500 24.5240 38.9105 0.0000 0.0000 0.0000
# 2 24.5240 90.3069 59.2207 0.0000 0.0000 0.0000
# 3 38.9105 59.2207 156.3441 0.0000 0.0000 0.0000
# 4 0.0000 0.0000 0.0000 16.3310 0.0000 0.0000
# 5 0.0000 0.0000 0.0000 0.0000 3.5195 0.0000
# 6 0.0000 0.0000 0.0000 0.0000 0.0000 16.5785
#
#
#
# Elastic Compliance Matrix: (Units=1/GPa)
#
#
# Indices 1 2 3 4 5 6 
#
# 1 0.044140 -0.006363 -0.008575 0.000000 0.000000 0.000000
# 2 -0.006363 0.015650 -0.004344 0.000000 0.000000 0.000000
# 3 -0.008575 -0.004344 0.010176 0.000000 0.000000 0.000000
# 4 0.000000 0.000000 0.000000 0.061233 0.000000 0.000000
# 5 0.000000 0.000000 0.000000 0.000000 0.284134 0.000000
# 6 0.000000 0.000000 0.000000 0.000000 0.000000 0.060319
#
#
# Mechanical properties :
#
#
# Convention : Reuss Voigt Hill
#
# Bulk Modulus (GPa) = 31.84692 58.41237 45.12964
# Shear Modulus (GPa) = 9.52954 17.80217 13.66586
#
# Velocity S-wave (km/s) = 2.48702 3.39923 2.97826
# Velocity P-wave (km/s) = 5.37753 7.30204 6.41239
#
# Compressibility (1/GPa) = 0.03140021
#
# Stress axis : x y z
#
# Youngs Moduli (GPa) = 22.65535 63.89624 98.27191
#
# Poissons Ratio (x) = 0.40660 0.84268
# Poissons Ratio (y) = 0.14417 0.42693
# Poissons Ratio (z) = 0.19427 0.27759
#
# Static dielectric constant tensor:
#      x y z
#    x 2.771860 0.000000 0.000000 
#    y 0.000000 2.871780 0.000000 
#    z 0.000000 0.000000 3.265690 
# 
# 
# High freq. dielectric constant tensor:
#      x y z
#    x 1.569780 0.000000 0.000000 
#    y 0.000000 1.567360 0.000000 
#    z 0.000000 0.000000 1.593350 
# 
# From -- ./inp_files/33397.got.cif
#   From: 2010.03.12/outbox.cif.g09.slc.cpg/sg47_17_cif.got.tgz:33397.got - 2010.04.14 03:12:58.
