data_PCOD8194146
_publ_section_title
;
Structure prediction by ZEFSAII (Michael W. Deem and Ramdas Pophale) SiO2 
 PCOD8194146
Probable space group: P M M M
;
_chemical_formula_sum "Si O2"
_cell_formula_units_Z 52
_cell_length_a 9.508355
_cell_length_b 23.186030
_cell_length_c 14.239404
_cell_angle_alpha 90.000000
_cell_angle_beta 90.000000
_cell_angle_gamma 90.000000
_cell_volume 3139.233306
_symmetry_space_group_name_H-M "P M M M"
_symmetry_group_IT_number 47
_symmetry_cell_setting 'orthorhombic'
loop_
_space_group_symop_operation_xyz
x,y,z
-x,-y,z
x,-y,-z
-x,y,-z
-x,-y,-z
x,y,-z
-x,y,z
x,-y,z
loop_
_atom_site_type_symbol
_atom_site_label
_atom_site_fract_x
_atom_site_fract_y
_atom_site_fract_z
Si Si1 0.834967 0.778193 0.223501
Si Si2 0.838033 0.108042 0.890899
Si Si3 0.167064 0.330852 0.104847
Si Si4 0.661668 0.610462 0.606641
Si Si5 0.162408 0.435341 0.230099
Si Si6 0.663177 0.256387 0.393602
Si Si7 0.340727 0.000000 0.111638
O O1 0.797232 0.835152 0.165924
O O2 0.778004 0.723621 0.164294
O O3 0.756215 0.781572 0.323079
O O4 0.000000 0.772789 0.242895
O O5 0.000000 0.090371 0.875113
O O6 0.740674 0.056570 0.852041
O O7 0.809184 0.120994 0.000000
O O8 0.219682 0.390015 0.153245
O O9 0.000000 0.329063 0.098735
O O10 0.231335 0.328123 0.000000
O O11 0.687671 0.590571 0.500000
O O12 0.500000 0.601646 0.634593
O O13 0.755737 0.570772 0.672530
O O14 0.705056 0.676963 0.618903
O O15 0.184326 0.500000 0.190541
O O16 0.000000 0.422704 0.251846
O O17 0.695656 0.236407 0.500000
O O18 0.500000 0.246922 0.370253
O O19 0.500000 0.000000 0.150833
O O20 0.339183 0.000000 0.000000
#
# Coordination Sequence:
#
# PCOD8194146 Si02
#       7
#     8   8   8   8   8   8   4
#     4  10  18  29  49  75  97 122 158 197 236 278
#     4   9  17  29  46  70 101 134 165 197 234 276
#     4   9  17  30  47  67  93 122 153 192 235 279
#     4   9  18  33  51  68  88 118 153 188 234 292
#     4  10  20  32  47  69  93 118 153 196 240 283
#     4   9  18  32  49  69  94 123 153 189 237 289
#     4   9  17  29  45  67  98 135 172 203 231 268
#
# _framework density 16.564554999999999
#
# number of rings (size 3 to 8) (size 9 to 14) (size 15 to 20)
#    0.000    2.692    1.538    1.615    0.000    4.923 
#    0.000    4.615    0.000    2.769    0.000    1.615 
#    0.000    4.308    0.000    0.000    0.000    0.000 
#
# Total GULP energy -644799.482147 kJ/mol
# GULP energy per Si atom -12399.990041 kJ/mol
# Density = 1.652685 g / cm^3
# Si number density = 16.564555 Si / 1000 Ang^3
#
#
#
# Elastic Constant Matrix: (Units=GPa)
#
#
# Indices 1 2 3 4 5 6 
#
# 1 55.8159 49.7883 42.9370 0.0000 0.0000 0.0000
# 2 49.7883 119.1317 55.4781 0.0000 0.0000 0.0000
# 3 42.9370 55.4781 99.5503 0.0000 0.0000 0.0000
# 4 0.0000 0.0000 0.0000 21.8364 0.0000 0.0000
# 5 0.0000 0.0000 0.0000 0.0000 18.7447 0.0000
# 6 0.0000 0.0000 0.0000 0.0000 0.0000 20.6343
#
#
#
# Elastic Compliance Matrix: (Units=1/GPa)
#
#
# Indices 1 2 3 4 5 6 
#
# 1 0.033652 -0.009865 -0.009017 0.000000 0.000000 0.000000
# 2 -0.009865 0.014228 -0.003674 0.000000 0.000000 0.000000
# 3 -0.009017 -0.003674 0.015982 0.000000 0.000000 0.000000
# 4 0.000000 0.000000 0.000000 0.045795 0.000000 0.000000
# 5 0.000000 0.000000 0.000000 0.000000 0.053349 0.000000
# 6 0.000000 0.000000 0.000000 0.000000 0.000000 0.048463
#
#
# Mechanical properties :
#
#
# Convention : Reuss Voigt Hill
#
# Bulk Modulus (GPa) = 53.33408 63.43387 58.38397
# Shear Modulus (GPa) = 19.02367 20.66269 19.84318
#
# Velocity S-wave (km/s) = 3.39256 3.53569 3.46487
# Velocity P-wave (km/s) = 6.90026 7.41932 7.16449
#
# Compressibility (1/GPa) = 0.01874974
#
# Stress axis : x y z
#
# Youngs Moduli (GPa) = 29.71584 70.28417 62.57137
#
# Poissons Ratio (x) = 0.69336 0.56419
# Poissons Ratio (y) = 0.29315 0.22990
# Poissons Ratio (z) = 0.26794 0.25823
#
# Static dielectric constant tensor:
#      x y z
#    x 2.949990 0.000000 0.000000 
#    y 0.000000 3.066190 0.000000 
#    z 0.000000 0.000000 3.061040 
# 
# 
# High freq. dielectric constant tensor:
#      x y z
#    x 1.621330 0.000000 0.000000 
#    y 0.000000 1.629180 0.000000 
#    z 0.000000 0.000000 1.625410 
# 
# From -- ./inp_files/7644.got.cif
#   From: 2010.03.12/outbox.cif.g09.slc.cpg/sg47_4_cif.got.tgz:7644.got - 2010.04.14 03:12:58.
