data_PCOD8194266
_publ_section_title
;
Structure prediction by ZEFSAII (Michael W. Deem and Ramdas Pophale) SiO2 
 PCOD8194266
Probable space group: P M M M
;
_chemical_formula_sum "Si O2"
_cell_formula_units_Z 52
_cell_length_a 26.092565
_cell_length_b 9.130768
_cell_length_c 12.942615
_cell_angle_alpha 90.000000
_cell_angle_beta 90.000000
_cell_angle_gamma 90.000000
_cell_volume 3083.515350
_symmetry_space_group_name_H-M "P M M M"
_symmetry_group_IT_number 47
_symmetry_cell_setting 'orthorhombic'
loop_
_space_group_symop_operation_xyz
x,y,z
-x,-y,z
x,-y,-z
-x,y,-z
-x,-y,-z
x,y,-z
-x,y,z
x,-y,z
loop_
_atom_site_type_symbol
_atom_site_label
_atom_site_fract_x
_atom_site_fract_y
_atom_site_fract_z
Si Si1 0.400941 0.830616 0.618892
Si Si2 0.940785 0.827251 0.685774
Si Si3 0.231353 0.173791 0.886380
Si Si4 0.709922 0.172785 0.312392
Si Si5 0.115039 0.670817 0.500000
Si Si6 0.235365 0.670893 0.500000
Si Si7 0.500000 0.334404 0.377049
Si Si8 0.883467 0.826181 0.886376
O O1 0.390439 0.788081 0.500000
O O2 0.350234 0.789254 0.682730
O O3 0.448759 0.742002 0.666329
O O4 0.414969 0.000000 0.629152
O O5 0.908561 0.743328 0.600901
O O6 0.922181 0.770590 0.798205
O O7 0.000000 0.786730 0.673002
O O8 0.931459 0.000000 0.672348
O O9 0.270213 0.230049 0.798656
O O10 0.173962 0.231252 0.862041
O O11 0.231015 0.000000 0.886603
O O12 0.248897 0.230814 0.000000
O O13 0.741052 0.256984 0.398993
O O14 0.718923 0.000000 0.329231
O O15 0.101805 0.500000 0.500000
O O16 0.175172 0.700813 0.500000
O O17 0.248579 0.500000 0.500000
O O18 0.500000 0.500000 0.338239
O O19 0.500000 0.320135 0.500000
O O20 0.883218 0.000000 0.887841
O O21 0.901102 0.768745 0.000000
#
# Coordination Sequence:
#
# PCOD8194266 Si02
#       8
#     8   8   8   8   4   4   4   8
#     4   9  16  27  41  62  92 124 157 191 228 274
#     4  10  20  33  51  74  94 116 153 197 234 274
#     4   8  14  25  44  70  96 122 154 190 227 274
#     4  10  18  30  49  72  98 128 159 190 233 284
#     4  11  24  38  49  64  91 129 162 189 230 280
#     4  11  23  34  46  68  97 124 156 195 233 276
#     4   9  17  27  41  61  86 123 162 194 233 274
#     4   8  14  26  45  71 100 123 144 181 236 286
#
# _framework density 16.863869999999999
#
# number of rings (size 3 to 8) (size 9 to 14) (size 15 to 20)
#    0.000    2.692    0.769    2.769    0.000    5.538 
#    0.000    1.538    0.000    0.923    0.000    5.923 
#    0.000    4.308    0.000    0.000    0.000    0.000 
#
# Total GULP energy -644620.613829 kJ/mol
# GULP energy per Si atom -12396.550266 kJ/mol
# Density = 1.682549 g / cm^3
# Si number density = 16.863870 Si / 1000 Ang^3
#
#
#
# Elastic Constant Matrix: (Units=GPa)
#
#
# Indices 1 2 3 4 5 6 
#
# 1 120.4270 51.9433 65.4026 0.0000 0.0000 0.0000
# 2 51.9433 49.9111 38.7354 0.0000 0.0000 0.0000
# 3 65.4026 38.7354 117.1428 0.0000 0.0000 0.0000
# 4 0.0000 0.0000 0.0000 -0.3759 0.0000 0.0000
# 5 0.0000 0.0000 0.0000 0.0000 11.3351 0.0000
# 6 0.0000 0.0000 0.0000 0.0000 0.0000 18.5666
#
#
#
# Elastic Compliance Matrix: (Units=1/GPa)
#
#
# Indices 1 2 3 4 5 6 
#
# 1 0.016909 -0.013816 -0.004872 0.000000 0.000000 0.000000
# 2 -0.013816 0.038242 -0.004931 0.000000 0.000000 0.000000
# 3 -0.004872 -0.004931 0.012887 0.000000 0.000000 0.000000
# 4 0.000000 0.000000 0.000000 -2.660283 0.000000 0.000000
# 5 0.000000 0.000000 0.000000 0.000000 0.088221 0.000000
# 6 0.000000 0.000000 0.000000 0.000000 0.000000 0.053860
#
#
# Mechanical properties :
#
#
# Convention : Reuss Voigt Hill
#
# Bulk Modulus (GPa) = 48.08015 66.62705 57.35360
# Shear Modulus (GPa) = -2.08682 14.66516 6.28917
#
# Velocity S-wave (km/s) = -1.11361 2.95213 1.93325
# Velocity P-wave (km/s) = 5.18836 7.15644 6.25035
#
# Compressibility (1/GPa) = 0.02079860
#
# Stress axis : x y z
#
# Youngs Moduli (GPa) = 59.13985 26.14935 77.59573
#
# Poissons Ratio (x) = 0.36129 0.37804
# Poissons Ratio (y) = 0.81711 0.38266
# Poissons Ratio (z) = 0.28812 0.12895
#
# Static dielectric constant tensor:
#      x y z
#    x 3.300770 0.000000 0.000000 
#    y 0.000000 2.894340 0.000000 
#    z 0.000000 0.000000 3.436280 
# 
# 
# High freq. dielectric constant tensor:
#      x y z
#    x 1.655160 0.000000 0.000000 
#    y 0.000000 1.617290 0.000000 
#    z 0.000000 0.000000 1.638290 
# 
# From -- ./inp_files/19848.got.cif
#   From: 2010.03.12/outbox.cif.g09.slc.cpg/sg47_10_cif.got.tgz:19848.got - 2010.04.14 03:12:58.
