data_PCOD8194002
_publ_section_title
;
Structure prediction by ZEFSAII (Michael W. Deem and Ramdas Pophale) SiO2 
 PCOD8194002
Probable space group: P M M M
;
_chemical_formula_sum "Si O2"
_cell_formula_units_Z 40
_cell_length_a 15.356802
_cell_length_b 9.206650
_cell_length_c 19.616432
_cell_angle_alpha 90.000000
_cell_angle_beta 90.000000
_cell_angle_gamma 90.000000
_cell_volume 2773.463376
_symmetry_space_group_name_H-M "P M M M"
_symmetry_group_IT_number 47
_symmetry_cell_setting 'orthorhombic'
loop_
_space_group_symop_operation_xyz
x,y,z
-x,-y,z
x,-y,-z
-x,y,-z
-x,-y,-z
x,y,-z
-x,y,z
x,-y,z
loop_
_atom_site_type_symbol
_atom_site_label
_atom_site_fract_x
_atom_site_fract_y
_atom_site_fract_z
Si Si1 0.000000 0.327607 0.076135
Si Si2 0.672094 0.829098 0.079467
Si Si3 0.500000 0.663878 0.080718
Si Si4 0.172043 0.329255 0.847948
Si Si5 0.098794 0.668739 0.296281
Si Si6 0.896526 0.835872 0.574354
O O1 0.085800 0.272243 0.114173
O O2 0.000000 0.500000 0.076288
O O3 0.000000 0.263744 0.000000
O O4 0.584688 0.750912 0.105699
O O5 0.749086 0.765020 0.124519
O O6 0.662767 0.000000 0.092325
O O7 0.690115 0.795442 0.000000
O O8 0.500000 0.500000 0.110977
O O9 0.500000 0.657360 0.000000
O O10 0.188630 0.500000 0.861817
O O11 0.159995 0.296530 0.767978
O O12 0.096441 0.500000 0.311630
O O13 0.141362 0.742998 0.362987
O O14 0.000000 0.723768 0.281584
O O15 0.864044 0.777991 0.500000
O O16 0.000000 0.826911 0.576078
O O17 0.864429 0.000000 0.584263
#
# Coordination Sequence:
#
# PCOD8194002 Si02
#       6
#     4   8   4   8   8   8
#     4   9  16  26  41  57  74 103 144 184 213 237
#     4  10  20  32  45  63  86 108 133 171 217 259
#     4   9  17  31  51  69  81  99 130 167 210 261
#     4  10  18  29  43  60  81 109 145 179 210 249
#     4   9  16  26  39  56  79 105 137 177 213 243
#     4   8  14  24  37  53  73  99 133 169 204 247
#
# _framework density 14.422401000000001
#
# number of rings (size 3 to 8) (size 9 to 14) (size 15 to 20)
#    0.000    2.800    1.000    2.100    0.000    4.400 
#    0.000    2.500    0.000    1.800    0.000    0.000 
#    0.000    0.000    0.000    0.900    0.000   16.800 
#
# Total GULP energy -495818.160354 kJ/mol
# GULP energy per Si atom -12395.454009 kJ/mol
# Density = 1.438958 g / cm^3
# Si number density = 14.422401 Si / 1000 Ang^3
#
#
#
# Elastic Constant Matrix: (Units=GPa)
#
#
# Indices 1 2 3 4 5 6 
#
# 1 87.7144 44.2268 43.3602 0.0000 0.0000 0.0000
# 2 44.2268 69.4986 50.5769 0.0000 0.0000 0.0000
# 3 43.3602 50.5769 107.1067 0.0000 0.0000 0.0000
# 4 0.0000 0.0000 0.0000 24.5160 0.0000 0.0000
# 5 0.0000 0.0000 0.0000 0.0000 3.2483 0.0000
# 6 0.0000 0.0000 0.0000 0.0000 0.0000 17.5575
#
#
#
# Elastic Compliance Matrix: (Units=1/GPa)
#
#
# Indices 1 2 3 4 5 6 
#
# 1 0.017303 -0.009010 -0.002750 0.000000 0.000000 0.000000
# 2 -0.009010 0.026613 -0.008920 0.000000 0.000000 0.000000
# 3 -0.002750 -0.008920 0.014662 0.000000 0.000000 0.000000
# 4 0.000000 0.000000 0.000000 0.040790 0.000000 0.000000
# 5 0.000000 0.000000 0.000000 0.000000 0.307852 0.000000
# 6 0.000000 0.000000 0.000000 0.000000 0.000000 0.056956
#
#
# Mechanical properties :
#
#
# Convention : Reuss Voigt Hill
#
# Bulk Modulus (GPa) = 58.07563 60.07197 59.07380
# Shear Modulus (GPa) = 9.77947 17.47474 13.62711
#
# Velocity S-wave (km/s) = 2.60681 3.48464 3.07719
# Velocity P-wave (km/s) = 7.02963 7.61134 7.32626
#
# Compressibility (1/GPa) = 0.01721893
#
# Stress axis : x y z
#
# Youngs Moduli (GPa) = 57.79349 37.57493 68.20364
#
# Poissons Ratio (x) = 0.33853 0.18759
# Poissons Ratio (y) = 0.52069 0.60837
# Poissons Ratio (z) = 0.15896 0.33516
#
# Static dielectric constant tensor:
#      x y z
#    x 2.601520 0.000000 0.000000 
#    y 0.000000 2.803670 0.000000 
#    z 0.000000 0.000000 2.989080 
# 
# 
# High freq. dielectric constant tensor:
#      x y z
#    x 1.512100 0.000000 0.000000 
#    y 0.000000 1.548070 0.000000 
#    z 0.000000 0.000000 1.543260 
# 
# From -- ./inp_files/4127.got.cif
#   From: 2010.03.12/outbox.cif.g09.slc.cpg/sg47_3_cif.got.tgz:4127.got - 2010.04.14 03:12:58.
