data_PCOD8194972
_publ_section_title
;
Structure prediction by ZEFSAII (Michael W. Deem and Ramdas Pophale) SiO2 
 PCOD8194972
Probable space group: P M M M
;
_chemical_formula_sum "Si O2"
_cell_formula_units_Z 52
_cell_length_a 9.009353
_cell_length_b 30.052217
_cell_length_c 12.892619
_cell_angle_alpha 90.000000
_cell_angle_beta 90.000000
_cell_angle_gamma 90.000000
_cell_volume 3490.689892
_symmetry_space_group_name_H-M "P M M M"
_symmetry_group_IT_number 47
_symmetry_cell_setting 'orthorhombic'
loop_
_space_group_symop_operation_xyz
x,y,z
-x,-y,z
x,-y,-z
-x,y,-z
-x,-y,-z
x,y,-z
-x,y,z
x,-y,z
loop_
_atom_site_type_symbol
_atom_site_label
_atom_site_fract_x
_atom_site_fract_y
_atom_site_fract_z
Si Si1 0.833547 0.634463 0.123846
Si Si2 0.333329 0.721099 0.123300
Si Si3 0.828147 0.809886 0.877675
Si Si4 0.323972 0.049663 0.614335
Si Si5 0.666932 0.451157 0.876695
Si Si6 0.828377 0.947317 0.000000
Si Si7 0.676926 0.897547 0.812547
O O1 0.738107 0.675732 0.167210
O O2 0.768898 0.588143 0.168889
O O3 0.000000 0.639712 0.165563
O O4 0.830293 0.634172 0.000000
O O5 0.500000 0.725677 0.167220
O O6 0.235177 0.762677 0.160670
O O7 0.335527 0.719408 0.000000
O O8 0.735761 0.847516 0.819046
O O9 0.000000 0.812647 0.846902
O O10 0.805317 0.816505 0.000000
O O11 0.268683 0.065296 0.500000
O O12 0.500000 0.048108 0.615964
O O13 0.267939 0.083675 0.701750
O O14 0.262671 0.000000 0.637910
O O15 0.500000 0.443977 0.835650
O O16 0.725956 0.500000 0.841060
O O17 0.667458 0.448784 0.000000
O O18 0.748418 0.928462 0.100653
O O19 0.000000 0.931901 0.000000
O O20 0.812934 0.000000 0.000000
O O21 0.500000 0.898094 0.825491
#
# Coordination Sequence:
#
# PCOD8194972 Si02
#       7
#     8   8   8   8   8   4   8
#     4   9  15  21  29  42  59  79 106 140 183 231
#     4   9  16  25  37  50  65  87 119 154 185 223
#     4  10  19  30  42  56  80 108 130 155 195 239
#     4   8  15  29  48  69  90 109 132 166 204 235
#     4   8  13  20  28  37  51  73 102 138 181 226
#     4  11  23  35  45  61  89 119 139 161 198 239
#     4  11  20  30  48  69  87 108 138 169 197 237
#
# _framework density 14.896769000000001
#
# number of rings (size 3 to 8) (size 9 to 14) (size 15 to 20)
#    0.000    2.692    0.769    3.462    0.000    5.846 
#    0.000    1.538    0.000    1.846    0.000    5.385 
#    0.000    0.000    0.000    0.000    0.000    0.000 
#
# Total GULP energy -644570.152776 kJ/mol
# GULP energy per Si atom -12395.579861 kJ/mol
# Density = 1.486286 g / cm^3
# Si number density = 14.896769 Si / 1000 Ang^3
#
#
#
# Elastic Constant Matrix: (Units=GPa)
#
#
# Indices 1 2 3 4 5 6 
#
# 1 96.2346 58.1118 25.5231 0.0000 0.0000 0.0000
# 2 58.1118 132.0755 37.4659 0.0000 0.0000 0.0000
# 3 25.5231 37.4659 50.7142 0.0000 0.0000 0.0000
# 4 0.0000 0.0000 0.0000 5.5675 0.0000 0.0000
# 5 0.0000 0.0000 0.0000 0.0000 1.7578 0.0000
# 6 0.0000 0.0000 0.0000 0.0000 0.0000 28.1776
#
#
#
# Elastic Compliance Matrix: (Units=1/GPa)
#
#
# Indices 1 2 3 4 5 6 
#
# 1 0.014571 -0.005479 -0.003285 0.000000 0.000000 0.000000
# 2 -0.005479 0.011639 -0.005841 0.000000 0.000000 0.000000
# 3 -0.003285 -0.005841 0.025687 0.000000 0.000000 0.000000
# 4 0.000000 0.000000 0.000000 0.179613 0.000000 0.000000
# 5 0.000000 0.000000 0.000000 0.000000 0.568896 0.000000
# 6 0.000000 0.000000 0.000000 0.000000 0.000000 0.035489
#
#
# Mechanical properties :
#
#
# Convention : Reuss Voigt Hill
#
# Bulk Modulus (GPa) = 44.08017 57.91400 50.99709
# Shear Modulus (GPa) = 5.72954 17.62880 11.67917
#
# Velocity S-wave (km/s) = 1.96329 3.44379 2.80305
# Velocity P-wave (km/s) = 5.89865 7.40096 6.69209
#
# Compressibility (1/GPa) = 0.02268594
#
# Stress axis : x y z
#
# Youngs Moduli (GPa) = 68.62800 85.91680 38.93013
#
# Poissons Ratio (x) = 0.47076 0.12790
# Poissons Ratio (y) = 0.37603 0.22739
# Poissons Ratio (z) = 0.22548 0.50185
#
# Static dielectric constant tensor:
#      x y z
#    x 2.963350 0.000000 0.000000 
#    y 0.000000 3.146540 0.000000 
#    z 0.000000 0.000000 2.476800 
# 
# 
# High freq. dielectric constant tensor:
#      x y z
#    x 1.575160 0.000000 0.000000 
#    y 0.000000 1.586010 0.000000 
#    z 0.000000 0.000000 1.489450 
# 
# From -- ./inp_files/15656.got.cif
#   From: 2010.03.12/outbox.cif.g09.slc.cpg/sg47_8_cif.got.tgz:15656.got - 2010.04.14 03:12:58.
