data_PCOD8194907
_publ_section_title
;
Structure prediction by ZEFSAII (Michael W. Deem and Ramdas Pophale) SiO2 
 PCOD8194907
Probable space group: P M M M
;
_chemical_formula_sum "Si O2"
_cell_formula_units_Z 64
_cell_length_a 19.218765
_cell_length_b 23.593320
_cell_length_c 8.908498
_cell_angle_alpha 90.000000
_cell_angle_beta 90.000000
_cell_angle_gamma 90.000000
_cell_volume 4039.420093
_symmetry_space_group_name_H-M "P M M M"
_symmetry_group_IT_number 47
_symmetry_cell_setting 'orthorhombic'
loop_
_space_group_symop_operation_xyz
x,y,z
-x,-y,z
x,-y,-z
-x,y,-z
-x,-y,-z
x,y,-z
-x,y,z
x,-y,z
loop_
_atom_site_type_symbol
_atom_site_label
_atom_site_fract_x
_atom_site_fract_y
_atom_site_fract_z
Si Si1 0.925110 0.745527 0.677804
Si Si2 0.645608 0.831834 0.322604
Si Si3 0.922770 0.627024 0.171793
Si Si4 0.784671 0.564524 0.175532
Si Si5 0.419685 0.725101 0.825829
Si Si6 0.220597 0.228517 0.677348
Si Si7 0.699376 0.339083 0.677660
Si Si8 0.580050 0.935571 0.826417
O O1 0.926763 0.748889 0.500000
O O2 0.913799 0.680654 0.721411
O O3 0.858332 0.781221 0.740284
O O4 0.000000 0.768042 0.741782
O O5 0.637704 0.825156 0.500000
O O6 0.594667 0.786486 0.246906
O O7 0.725530 0.819968 0.269871
O O8 0.627508 0.895256 0.274126
O O9 0.863997 0.581599 0.216192
O O10 0.000000 0.600039 0.194373
O O11 0.913272 0.647125 0.000000
O O12 0.774253 0.500000 0.226782
O O13 0.728072 0.601344 0.264052
O O14 0.770551 0.572285 0.000000
O O15 0.500000 0.709836 0.801764
O O16 0.375844 0.674966 0.748142
O O17 0.399883 0.728759 0.000000
O O18 0.217294 0.229118 0.500000
O O19 0.248103 0.289698 0.731867
O O20 0.690968 0.341194 0.500000
O O21 0.500000 0.927095 0.780555
O O22 0.603187 0.000000 0.794685
O O23 0.590642 0.920171 0.000000
#
# Coordination Sequence:
#
# PCOD8194907 Si02
#       8
#     8   8   8   8   8   8   8   8
#     4   9  15  25  43  62  83 115 150 180 216 266
#     4  10  19  29  44  68  98 126 154 190 225 261
#     4   9  17  28  42  62  87 114 147 186 222 258
#     4  10  20  32  46  64  87 117 151 184 221 271
#     4  10  20  33  50  71  94 119 146 179 221 270
#     4   8  15  27  41  62  89 114 142 180 224 263
#     4  10  19  32  49  67  89 114 143 183 228 272
#     4   9  18  32  47  63  89 126 163 196 228 264
#
# _framework density 15.843859
#
# number of rings (size 3 to 8) (size 9 to 14) (size 15 to 20)
#    0.000    2.625    1.250    2.625    0.000    3.500 
#    0.000    2.500    0.000    0.375    0.000    5.250 
#    0.000    0.500    0.000    6.250    0.000    1.000 
#
# Total GULP energy -793188.945266 kJ/mol
# GULP energy per Si atom -12393.577270 kJ/mol
# Density = 1.580780 g / cm^3
# Si number density = 15.843859 Si / 1000 Ang^3
#
#
#
# Elastic Constant Matrix: (Units=GPa)
#
#
# Indices 1 2 3 4 5 6 
#
# 1 130.0743 58.7477 42.8635 0.0000 0.0000 0.0000
# 2 58.7477 79.7189 28.3358 0.0000 0.0000 0.0000
# 3 42.8635 28.3358 48.8952 0.0000 0.0000 0.0000
# 4 0.0000 0.0000 0.0000 22.6342 0.0000 0.0000
# 5 0.0000 0.0000 0.0000 0.0000 18.6901 0.0000
# 6 0.0000 0.0000 0.0000 0.0000 0.0000 24.7939
#
#
#
# Elastic Compliance Matrix: (Units=1/GPa)
#
#
# Indices 1 2 3 4 5 6 
#
# 1 0.013453 -0.007206 -0.007617 0.000000 0.000000 0.000000
# 2 -0.007206 0.019659 -0.005075 0.000000 0.000000 0.000000
# 3 -0.007617 -0.005075 0.030070 0.000000 0.000000 0.000000
# 4 0.000000 0.000000 0.000000 0.044181 0.000000 0.000000
# 5 0.000000 0.000000 0.000000 0.000000 0.053504 0.000000
# 6 0.000000 0.000000 0.000000 0.000000 0.000000 0.040332
#
#
# Mechanical properties :
#
#
# Convention : Reuss Voigt Hill
#
# Bulk Modulus (GPa) = 42.76297 57.62028 50.19162
# Shear Modulus (GPa) = 20.09718 21.80641 20.95179
#
# Velocity S-wave (km/s) = 3.56540 3.71392 3.64042
# Velocity P-wave (km/s) = 6.63312 7.40523 7.02978
#
# Compressibility (1/GPa) = 0.02338472
#
# Stress axis : x y z
#
# Youngs Moduli (GPa) = 74.33489 50.86817 33.25535
#
# Poissons Ratio (x) = 0.36657 0.25330
# Poissons Ratio (y) = 0.53568 0.16878
# Poissons Ratio (z) = 0.56620 0.25817
#
# Static dielectric constant tensor:
#      x y z
#    x 3.443560 0.000000 0.000000 
#    y 0.000000 2.762850 0.000000 
#    z 0.000000 0.000000 2.945060 
# 
# 
# High freq. dielectric constant tensor:
#      x y z
#    x 1.615520 0.000000 0.000000 
#    y 0.000000 1.570150 0.000000 
#    z 0.000000 0.000000 1.605040 
# 
# From -- ./inp_files/11810.got.cif
#   From: 2010.03.12/outbox.cif.g09.slc.cpg/sg47_6_cif.got.tgz:11810.got - 2010.04.14 03:12:58.
