data_PCOD8194019
_publ_section_title
;
Structure prediction by ZEFSAII (Michael W. Deem and Ramdas Pophale) SiO2 
 PCOD8194019
Probable space group: P M M M
;
_chemical_formula_sum "Si O2"
_cell_formula_units_Z 56
_cell_length_a 13.393391
_cell_length_b 18.094767
_cell_length_c 14.076332
_cell_angle_alpha 90.000000
_cell_angle_beta 90.000000
_cell_angle_gamma 90.000000
_cell_volume 3411.403135
_symmetry_space_group_name_H-M "P M M M"
_symmetry_group_IT_number 47
_symmetry_cell_setting 'orthorhombic'
loop_
_space_group_symop_operation_xyz
x,y,z
-x,-y,z
x,-y,-z
-x,y,-z
-x,-y,-z
x,y,-z
-x,y,z
x,-y,z
loop_
_atom_site_type_symbol
_atom_site_label
_atom_site_fract_x
_atom_site_fract_y
_atom_site_fract_z
Si Si1 0.701769 0.083917 0.896491
Si Si2 0.881652 0.581786 0.770200
Si Si3 0.794955 0.157099 0.392772
Si Si4 0.886036 0.862439 0.200661
Si Si5 0.886737 0.312661 0.393697
Si Si6 0.614272 0.912821 0.297301
Si Si7 0.882299 0.288159 0.895645
O O1 0.818423 0.087209 0.867314
O O2 0.635964 0.117453 0.810071
O O3 0.669620 0.000000 0.908988
O O4 0.683937 0.123137 0.000000
O O5 0.833199 0.500000 0.777956
O O6 0.850576 0.619654 0.671081
O O7 0.840689 0.634329 0.854587
O O8 0.000000 0.574896 0.776426
O O9 0.824128 0.130834 0.500000
O O10 0.864830 0.119782 0.311925
O O11 0.809637 0.245025 0.384784
O O12 0.680781 0.133549 0.371693
O O13 0.855886 0.777471 0.177399
O O14 0.000000 0.880529 0.176145
O O15 0.887381 0.343838 0.500000
O O16 0.000000 0.286191 0.364708
O O17 0.500000 0.897654 0.323668
O O18 0.640506 0.000000 0.304646
O O19 0.000000 0.293460 0.905379
O O20 0.834847 0.274142 0.000000
#
# Coordination Sequence:
#
# PCOD8194019 Si02
#       7
#     8   8   8   8   8   8   8
#     4   9  18  31  47  69  93 117 149 186 222 263
#     4   9  16  25  37  56  83 115 151 188 223 259
#     4  10  19  30  47  67  86 114 152 189 226 270
#     4  10  18  29  44  62  89 124 158 188 220 260
#     4   9  16  27  43  62  86 118 153 186 222 262
#     4   9  19  35  52  70  92 116 143 181 231 280
#     4   9  16  25  37  54  78 113 153 185 216 255
#
# _framework density 16.415531999999999
#
# number of rings (size 3 to 8) (size 9 to 14) (size 15 to 20)
#    0.000    2.714    1.429    0.857    0.000    3.429 
#    0.000    5.714    0.000    1.286    0.000    8.000 
#    0.000    0.571    0.000    3.143    0.000    8.286 
#
# Total GULP energy -693828.979293 kJ/mol
# GULP energy per Si atom -12389.803202 kJ/mol
# Density = 1.637817 g / cm^3
# Si number density = 16.415532 Si / 1000 Ang^3
#
#
#
# Elastic Constant Matrix: (Units=GPa)
#
#
# Indices 1 2 3 4 5 6 
#
# 1 50.8051 22.6107 14.1340 0.0000 0.0000 0.0000
# 2 22.6107 48.1166 22.7736 0.0000 0.0000 0.0000
# 3 14.1340 22.7736 111.1474 0.0000 0.0000 0.0000
# 4 0.0000 0.0000 0.0000 19.9365 0.0000 0.0000
# 5 0.0000 0.0000 0.0000 0.0000 11.8443 0.0000
# 6 0.0000 0.0000 0.0000 0.0000 0.0000 8.0606
#
#
#
# Elastic Compliance Matrix: (Units=1/GPa)
#
#
# Indices 1 2 3 4 5 6 
#
# 1 0.024961 -0.011325 -0.000854 0.000000 0.000000 0.000000
# 2 -0.011325 0.028153 -0.004328 0.000000 0.000000 0.000000
# 3 -0.000854 -0.004328 0.009992 0.000000 0.000000 0.000000
# 4 0.000000 0.000000 0.000000 0.050159 0.000000 0.000000
# 5 0.000000 0.000000 0.000000 0.000000 0.084429 0.000000
# 6 0.000000 0.000000 0.000000 0.000000 0.000000 0.124060
#
#
# Mechanical properties :
#
#
# Convention : Reuss Voigt Hill
#
# Bulk Modulus (GPa) = 33.23140 36.56730 34.89935
# Shear Modulus (GPa) = 13.70614 18.00502 15.85558
#
# Velocity S-wave (km/s) = 2.89268 3.31543 3.11125
# Velocity P-wave (km/s) = 5.60755 6.08116 5.84915
#
# Compressibility (1/GPa) = 0.03009202
#
# Stress axis : x y z
#
# Youngs Moduli (GPa) = 40.06270 35.51967 100.07538
#
# Poissons Ratio (x) = 0.40228 0.08542
# Poissons Ratio (y) = 0.45373 0.43316
# Poissons Ratio (z) = 0.03420 0.15374
#
# Static dielectric constant tensor:
#      x y z
#    x 2.711470 0.000000 0.000000 
#    y 0.000000 3.052640 0.000000 
#    z 0.000000 0.000000 3.539360 
# 
# 
# High freq. dielectric constant tensor:
#      x y z
#    x 1.573560 0.000000 0.000000 
#    y 0.000000 1.606650 0.000000 
#    z 0.000000 0.000000 1.655030 
# 
# From -- ./inp_files/23989.got.cif
#   From: 2010.03.12/outbox.cif.g09.slc.cpg/sg47_12_cif.got.tgz:23989.got - 2010.04.14 03:12:58.
