data_PCOD8194778
_publ_section_title
;
Structure prediction by ZEFSAII (Michael W. Deem and Ramdas Pophale) SiO2 
 PCOD8194778
Probable space group: P M M M
;
_chemical_formula_sum "Si O2"
_cell_formula_units_Z 48
_cell_length_a 9.011829
_cell_length_b 20.858466
_cell_length_c 19.490764
_cell_angle_alpha 90.000000
_cell_angle_beta 90.000000
_cell_angle_gamma 90.000000
_cell_volume 3663.735994
_symmetry_space_group_name_H-M "P M M M"
_symmetry_group_IT_number 47
_symmetry_cell_setting 'orthorhombic'
loop_
_space_group_symop_operation_xyz
x,y,z
-x,-y,z
x,-y,-z
-x,y,-z
-x,-y,-z
x,y,-z
-x,y,z
x,-y,z
loop_
_atom_site_type_symbol
_atom_site_label
_atom_site_fract_x
_atom_site_fract_y
_atom_site_fract_z
Si Si1 0.333341 0.076049 0.924784
Si Si2 0.676240 0.500000 0.424868
Si Si3 0.323631 0.000000 0.576643
Si Si4 0.173347 0.074691 0.209483
Si Si5 0.666091 0.637017 0.581712
Si Si6 0.172373 0.763340 0.580248
Si Si7 0.323724 0.876997 0.340901
O O1 0.500000 0.100254 0.908713
O O2 0.222858 0.100306 0.865447
O O3 0.331308 0.000000 0.926594
O O4 0.282038 0.101886 0.000000
O O5 0.500000 0.500000 0.432649
O O6 0.751281 0.500000 0.500000
O O7 0.720756 0.432527 0.387527
O O8 0.264279 0.062770 0.615231
O O9 0.500000 0.000000 0.574596
O O10 0.257349 0.000000 0.500000
O O11 0.259300 0.117348 0.264735
O O12 0.000000 0.086120 0.217978
O O13 0.216061 0.000000 0.219129
O O14 0.663498 0.630456 0.500000
O O15 0.500000 0.653893 0.608022
O O16 0.778793 0.692511 0.604792
O O17 0.207823 0.773450 0.500000
O O18 0.267187 0.813092 0.623474
O O19 0.000000 0.772580 0.596304
O O20 0.500000 0.875591 0.337101
#
# Coordination Sequence:
#
# PCOD8194778 Si02
#       7
#     8   4   4   8   8   8   8
#     4   8  14  25  41  59  77  96 118 142 169 207
#     4   7  10  18  35  57  75  89 111 143 174 207
#     4   9  18  30  43  57  66  77 110 159 201 234
#     4  10  19  29  41  57  78  97 115 144 185 230
#     4   8  13  23  39  56  72  92 117 144 176 216
#     4  10  20  31  40  53  74  96 119 152 194 235
#     4  11  20  31  45  56  69  91 122 159 193 230
#
# _framework density 13.101380000000001
#
# number of rings (size 3 to 8) (size 9 to 14) (size 15 to 20)
#    0.000    2.833    0.833    3.500    0.000    2.667 
#    0.000    2.083    0.000    4.500    0.000    0.000 
#    0.000    0.000    0.000    0.000    0.000    0.000 
#
# Total GULP energy -594829.066333 kJ/mol
# GULP energy per Si atom -12392.272215 kJ/mol
# Density = 1.307156 g / cm^3
# Si number density = 13.101380 Si / 1000 Ang^3
#
#
#
# Elastic Constant Matrix: (Units=GPa)
#
#
# Indices 1 2 3 4 5 6 
#
# 1 58.1297 29.0587 33.0076 0.0000 0.0000 0.0000
# 2 29.0587 80.3866 32.7460 0.0000 0.0000 0.0000
# 3 33.0076 32.7460 72.2142 0.0000 0.0000 0.0000
# 4 0.0000 0.0000 0.0000 1.7472 0.0000 0.0000
# 5 0.0000 0.0000 0.0000 0.0000 17.8221 0.0000
# 6 0.0000 0.0000 0.0000 0.0000 0.0000 13.3353
#
#
#
# Elastic Compliance Matrix: (Units=1/GPa)
#
#
# Indices 1 2 3 4 5 6 
#
# 1 0.024992 -0.005373 -0.008987 0.000000 0.000000 0.000000
# 2 -0.005373 0.016414 -0.004987 0.000000 0.000000 0.000000
# 3 -0.008987 -0.004987 0.020217 0.000000 0.000000 0.000000
# 4 0.000000 0.000000 0.000000 0.572353 0.000000 0.000000
# 5 0.000000 0.000000 0.000000 0.000000 0.056110 0.000000
# 6 0.000000 0.000000 0.000000 0.000000 0.000000 0.074989
#
#
# Mechanical properties :
#
#
# Convention : Reuss Voigt Hill
#
# Bulk Modulus (GPa) = 43.61404 44.48388 44.04896
# Shear Modulus (GPa) = 6.16211 14.30881 10.23546
#
# Velocity S-wave (km/s) = 2.17109 3.30837 2.79812
# Velocity P-wave (km/s) = 6.29657 6.97288 6.64333
#
# Compressibility (1/GPa) = 0.02292840
#
# Stress axis : x y z
#
# Youngs Moduli (GPa) = 40.01290 60.92458 49.46430
#
# Poissons Ratio (x) = 0.32738 0.44452
# Poissons Ratio (y) = 0.21501 0.24667
# Poissons Ratio (z) = 0.35958 0.30382
#
# Static dielectric constant tensor:
#      x y z
#    x 2.574900 0.000000 0.000000 
#    y 0.000000 2.671240 0.000000 
#    z 0.000000 0.000000 2.576160 
# 
# 
# High freq. dielectric constant tensor:
#      x y z
#    x 1.497500 0.000000 0.000000 
#    y 0.000000 1.473750 0.000000 
#    z 0.000000 0.000000 1.464860 
# 
# From -- ./inp_files/11715.got.cif
#   From: 2010.03.12/outbox.cif.g09.slc.cpg/sg47_6_cif.got.tgz:11715.got - 2010.04.14 03:12:58.
