data_PCOD8194154
_publ_section_title
;
Structure prediction by ZEFSAII (Michael W. Deem and Ramdas Pophale) SiO2 
 PCOD8194154
Probable space group: P M M M
;
_chemical_formula_sum "Si O2"
_cell_formula_units_Z 64
_cell_length_a 16.481388
_cell_length_b 22.601338
_cell_length_c 9.553080
_cell_angle_alpha 90.000000
_cell_angle_beta 90.000000
_cell_angle_gamma 90.000000
_cell_volume 3558.535874
_symmetry_space_group_name_H-M "P M M M"
_symmetry_group_IT_number 47
_symmetry_cell_setting 'orthorhombic'
loop_
_space_group_symop_operation_xyz
x,y,z
-x,-y,z
x,-y,-z
-x,y,-z
-x,-y,-z
x,y,-z
-x,y,z
x,-y,z
loop_
_atom_site_type_symbol
_atom_site_label
_atom_site_fract_x
_atom_site_fract_y
_atom_site_fract_z
Si Si1 0.204860 0.124309 0.658329
Si Si2 0.591071 0.187664 0.844570
Si Si3 0.340591 0.065768 0.160733
Si Si4 0.409403 0.566716 0.834123
Si Si5 0.750559 0.637739 0.167475
Si Si6 0.909863 0.433447 0.834171
Si Si7 0.281257 0.751759 0.660936
Si Si8 0.905227 0.065274 0.152915
O O1 0.208485 0.102449 0.500000
O O2 0.264670 0.082815 0.745479
O O3 0.219256 0.193995 0.670263
O O4 0.117956 0.111960 0.726746
O O5 0.500000 0.210069 0.840768
O O6 0.592533 0.116992 0.812893
O O7 0.634703 0.226330 0.727279
O O8 0.628339 0.199893 0.000000
O O9 0.373892 0.000000 0.201499
O O10 0.312575 0.065747 0.000000
O O11 0.500000 0.590009 0.786323
O O12 0.397268 0.500000 0.777041
O O13 0.333149 0.605876 0.780869
O O14 0.406689 0.565897 0.000000
O O15 0.832202 0.603925 0.218906
O O16 0.755835 0.699607 0.247011
O O17 0.750012 0.646657 0.000000
O O18 0.899426 0.500000 0.776018
O O19 0.000000 0.409092 0.786612
O O20 0.907165 0.434486 0.000000
O O21 0.295768 0.732227 0.500000
O O22 0.000000 0.060225 0.153771
O O23 0.868127 0.000000 0.182972
O O24 0.875171 0.087463 0.000000
#
# Coordination Sequence:
#
# PCOD8194154 Si02
#       8
#     8   8   8   8   8   8   8   8
#     4  10  20  33  48  65  89 124 164 201 234 276
#     4   9  18  33  52  72  94 122 159 202 242 284
#     4   9  17  29  47  71  96 121 149 187 242 300
#     4   8  14  25  43  71 104 130 154 192 242 290
#     4  10  18  29  50  76  98 126 167 209 244 285
#     4   8  14  26  47  77 108 131 155 196 249 298
#     4  10  22  37  49  65  94 131 167 201 240 284
#     4   9  18  32  50  73  98 120 144 182 238 299
#
# _framework density 17.984923999999999
#
# number of rings (size 3 to 8) (size 9 to 14) (size 15 to 20)
#    0.000    2.875    0.000    2.625    0.000    6.250 
#    0.000    3.750    0.000    4.125    0.000    5.250 
#    0.000    0.000    0.000    0.000    0.000    0.000 
#
# Total GULP energy -792856.789172 kJ/mol
# GULP energy per Si atom -12388.387331 kJ/mol
# Density = 1.794399 g / cm^3
# Si number density = 17.984924 Si / 1000 Ang^3
#
#
#
# Elastic Constant Matrix: (Units=GPa)
#
#
# Indices 1 2 3 4 5 6 
#
# 1 103.6710 50.8074 36.5038 0.0000 0.0000 0.0000
# 2 50.8074 86.8330 46.6225 0.0000 0.0000 0.0000
# 3 36.5038 46.6225 73.7176 0.0000 0.0000 0.0000
# 4 0.0000 0.0000 0.0000 15.9078 0.0000 0.0000
# 5 0.0000 0.0000 0.0000 0.0000 1.0386 0.0000
# 6 0.0000 0.0000 0.0000 0.0000 0.0000 15.5728
#
#
#
# Elastic Compliance Matrix: (Units=1/GPa)
#
#
# Indices 1 2 3 4 5 6 
#
# 1 0.013851 -0.006696 -0.002624 0.000000 0.000000 0.000000
# 2 -0.006696 0.020674 -0.009760 0.000000 0.000000 0.000000
# 3 -0.002624 -0.009760 0.021037 0.000000 0.000000 0.000000
# 4 0.000000 0.000000 0.000000 0.062862 0.000000 0.000000
# 5 0.000000 0.000000 0.000000 0.000000 0.962809 0.000000
# 6 0.000000 0.000000 0.000000 0.000000 0.000000 0.064214
#
#
# Mechanical properties :
#
#
# Convention : Reuss Voigt Hill
#
# Bulk Modulus (GPa) = 57.45979 59.12099 58.29039
# Shear Modulus (GPa) = 4.20377 15.18970 9.69673
#
# Velocity S-wave (km/s) = 1.53051 2.90932 2.32450
# Velocity P-wave (km/s) = 5.92803 6.65052 6.29964
#
# Compressibility (1/GPa) = 0.01740347
#
# Stress axis : x y z
#
# Youngs Moduli (GPa) = 72.19506 48.36919 47.53426
#
# Poissons Ratio (x) = 0.32386 0.12475
# Poissons Ratio (y) = 0.48339 0.46393
# Poissons Ratio (z) = 0.18947 0.47208
#
# Static dielectric constant tensor:
#      x y z
#    x 3.500540 0.000000 0.000000 
#    y 0.000000 3.356710 0.000000 
#    z 0.000000 0.000000 3.371470 
# 
# 
# High freq. dielectric constant tensor:
#      x y z
#    x 1.694370 0.000000 0.000000 
#    y 0.000000 1.688870 0.000000 
#    z 0.000000 0.000000 1.665000 
# 
# From -- ./inp_files/9959.got.cif
#   From: 2010.03.12/outbox.cif.g09.slc.cpg/sg47_5_cif.got.tgz:9959.got - 2010.04.14 03:12:58.
