data_PCOD8194352
_publ_section_title
;
Structure prediction by ZEFSAII (Michael W. Deem and Ramdas Pophale) SiO2 
 PCOD8194352
Probable space group: P M M M
;
_chemical_formula_sum "Si O2"
_cell_formula_units_Z 52
_cell_length_a 9.171376
_cell_length_b 17.828051
_cell_length_c 16.889491
_cell_angle_alpha 90.000000
_cell_angle_beta 90.000000
_cell_angle_gamma 90.000000
_cell_volume 2761.562825
_symmetry_space_group_name_H-M "P M M M"
_symmetry_group_IT_number 47
_symmetry_cell_setting 'orthorhombic'
loop_
_space_group_symop_operation_xyz
x,y,z
-x,-y,z
x,-y,-z
-x,y,-z
-x,-y,-z
x,y,-z
-x,y,z
x,-y,z
loop_
_atom_site_type_symbol
_atom_site_label
_atom_site_fract_x
_atom_site_fract_y
_atom_site_fract_z
Si Si1 0.830286 0.288648 0.409368
Si Si2 0.172762 0.000000 0.588375
Si Si3 0.668002 0.647558 0.846950
Si Si4 0.669788 0.823916 0.155790
Si Si5 0.836237 0.645817 0.000000
Si Si6 0.329075 0.585686 0.319175
Si Si7 0.834028 0.824402 0.000000
Si Si8 0.827200 0.857013 0.312541
O O1 0.793412 0.269606 0.500000
O O2 0.747481 0.363750 0.384733
O O3 0.778186 0.218854 0.356533
O O4 0.000000 0.303631 0.397157
O O5 0.225873 0.926127 0.634008
O O6 0.240184 0.000000 0.500000
O O7 0.000000 0.000000 0.582390
O O8 0.500000 0.629066 0.863256
O O9 0.693802 0.735473 0.834934
O O10 0.726864 0.606032 0.768781
O O11 0.756742 0.615441 0.921558
O O12 0.500000 0.844910 0.151095
O O13 0.743697 0.864672 0.229882
O O14 0.749343 0.854450 0.077119
O O15 0.831352 0.735099 0.000000
O O16 0.000000 0.614845 0.000000
O O17 0.500000 0.601473 0.324086
O O18 0.289927 0.500000 0.338209
O O19 0.000000 0.854534 0.000000
O O20 0.000000 0.858576 0.297215
#
# Coordination Sequence:
#
# PCOD8194352 Si02
#       8
#     8   4   8   8   4   8   4   8
#     4  10  21  36  55  79 106 136 173 219 271 323
#     4   9  18  34  57  84 113 144 181 223 266 319
#     4   9  17  31  49  71 100 136 175 215 261 311
#     4  10  18  30  51  78 109 143 180 220 266 318
#     4   9  17  27  46  74 102 133 171 215 260 309
#     4  10  21  37  55  75 101 137 181 225 268 316
#     4   9  17  29  47  77 111 141 179 223 264 309
#     4  10  19  33  56  83 110 142 180 220 264 316
#
# _framework density 18.829917999999999
#
# number of rings (size 3 to 8) (size 9 to 14) (size 15 to 20)
#    0.000    2.385    1.538    1.385    0.000    5.846 
#    0.000    2.308    0.000    4.615    0.000    3.231 
#    0.000    0.000    0.000    0.000    0.000    0.000 
#
# Total GULP energy -644918.964279 kJ/mol
# GULP energy per Si atom -12402.287775 kJ/mol
# Density = 1.878706 g / cm^3
# Si number density = 18.829918 Si / 1000 Ang^3
#
#
#
# Elastic Constant Matrix: (Units=GPa)
#
#
# Indices 1 2 3 4 5 6 
#
# 1 76.2257 32.9782 61.4461 0.0000 0.0000 0.0000
# 2 32.9782 76.3696 51.7771 0.0000 0.0000 0.0000
# 3 61.4461 51.7771 153.6152 0.0000 0.0000 0.0000
# 4 0.0000 0.0000 0.0000 22.4616 0.0000 0.0000
# 5 0.0000 0.0000 0.0000 0.0000 32.8898 0.0000
# 6 0.0000 0.0000 0.0000 0.0000 0.0000 17.1476
#
#
#
# Elastic Compliance Matrix: (Units=1/GPa)
#
#
# Indices 1 2 3 4 5 6 
#
# 1 0.020369 -0.004241 -0.006718 0.000000 0.000000 0.000000
# 2 -0.004241 0.017856 -0.004322 0.000000 0.000000 0.000000
# 3 -0.006718 -0.004322 0.010654 0.000000 0.000000 0.000000
# 4 0.000000 0.000000 0.000000 0.044520 0.000000 0.000000
# 5 0.000000 0.000000 0.000000 0.000000 0.030405 0.000000
# 6 0.000000 0.000000 0.000000 0.000000 0.000000 0.058317
#
#
# Mechanical properties :
#
#
# Convention : Reuss Voigt Hill
#
# Bulk Modulus (GPa) = 54.59605 66.51259 60.55432
# Shear Modulus (GPa) = 22.85301 25.16708 24.01004
#
# Velocity S-wave (km/s) = 3.48753 3.65985 3.57473
# Velocity P-wave (km/s) = 6.72863 7.29786 7.01902
#
# Compressibility (1/GPa) = 0.01831634
#
# Stress axis : x y z
#
# Youngs Moduli (GPa) = 49.09306 56.00394 93.86276
#
# Poissons Ratio (x) = 0.23752 0.63060
# Poissons Ratio (y) = 0.20821 0.40567
# Poissons Ratio (z) = 0.32982 0.24205
#
# Static dielectric constant tensor:
#      x y z
#    x 3.342950 0.000000 0.000000 
#    y 0.000000 3.199210 0.000000 
#    z 0.000000 0.000000 3.600520 
# 
# 
# High freq. dielectric constant tensor:
#      x y z
#    x 1.719350 0.000000 0.000000 
#    y 0.000000 1.702670 0.000000 
#    z 0.000000 0.000000 1.746330 
# 
# From -- ./inp_files/26828.got.cif
#   From: 2010.03.12/outbox.cif.g09.slc.cpg/sg47_14_cif.got.tgz:26828.got - 2010.04.14 03:12:58.
