data_PCOD8194275
_publ_section_title
;
Structure prediction by ZEFSAII (Michael W. Deem and Ramdas Pophale) SiO2 
 PCOD8194275
Probable space group: P M M M
;
_chemical_formula_sum "Si O2"
_cell_formula_units_Z 52
_cell_length_a 27.454642
_cell_length_b 8.198060
_cell_length_c 12.880068
_cell_angle_alpha 90.000000
_cell_angle_beta 90.000000
_cell_angle_gamma 90.000000
_cell_volume 2898.978760
_symmetry_space_group_name_H-M "P M M M"
_symmetry_group_IT_number 47
_symmetry_cell_setting 'orthorhombic'
loop_
_space_group_symop_operation_xyz
x,y,z
-x,-y,z
x,-y,-z
-x,y,-z
-x,-y,-z
x,y,-z
-x,y,z
x,-y,z
loop_
_atom_site_type_symbol
_atom_site_label
_atom_site_fract_x
_atom_site_fract_y
_atom_site_fract_z
Si Si1 0.216617 0.816557 0.000000
Si Si2 0.221052 0.306261 0.613518
Si Si3 0.888061 0.684630 0.000000
Si Si4 0.053420 0.811785 0.192494
Si Si5 0.384462 0.685170 0.877977
Si Si6 0.888219 0.690041 0.618681
Si Si7 0.276682 0.688650 0.187304
Si Si8 0.445440 0.000000 0.876894
O O1 0.249978 0.791403 0.099986
O O2 0.170218 0.699355 0.000000
O O3 0.196688 0.000000 0.000000
O O4 0.237442 0.239196 0.500000
O O5 0.219920 0.500000 0.609128
O O6 0.166551 0.244173 0.639284
O O7 0.258658 0.245320 0.700892
O O8 0.909307 0.758117 0.104629
O O9 0.903510 0.500000 0.000000
O O10 0.074676 0.780682 0.306407
O O11 0.000000 0.726568 0.181512
O O12 0.045438 0.000000 0.177649
O O13 0.404715 0.500000 0.854419
O O14 0.334405 0.714239 0.817209
O O15 0.420152 0.830481 0.839352
O O16 0.374086 0.701405 0.000000
O O17 0.903540 0.725349 0.500000
O O18 0.890912 0.500000 0.644379
O O19 0.262908 0.500000 0.170433
O O20 0.500000 0.000000 0.830928
O O21 0.446732 0.000000 0.000000
#
# Coordination Sequence:
#
# PCOD8194275 Si02
#       8
#     4   8   4   8   8   8   8   4
#     4  12  24  33  51  78 104 136 169 204 247 304
#     4   8  15  29  50  74  99 129 164 204 250 297
#     4  12  25  41  58  75 100 130 167 209 250 307
#     4  11  24  40  57  77 102 129 161 207 261 312
#     4   9  17  28  44  68 101 135 173 221 265 309
#     4   9  18  34  56  80 104 132 169 209 247 298
#     4  10  18  30  49  74 104 137 173 211 254 305
#     4   9  18  30  46  66  95 139 183 219 262 314
#
# _framework density 17.937351
#
# number of rings (size 3 to 8) (size 9 to 14) (size 15 to 20)
#    0.000    2.231    0.769    3.923    1.077    4.308 
#    0.000    3.077    0.000    1.385    0.000    0.000 
#    0.000    1.231    0.000    6.000    0.000    0.154 
#
# Total GULP energy -644604.036373 kJ/mol
# GULP energy per Si atom -12396.231469 kJ/mol
# Density = 1.789652 g / cm^3
# Si number density = 17.937351 Si / 1000 Ang^3
#
#
#
# Elastic Constant Matrix: (Units=GPa)
#
#
# Indices 1 2 3 4 5 6 
#
# 1 106.3478 40.8036 46.4265 0.0000 0.0000 0.0000
# 2 40.8036 75.5210 27.6937 0.0000 0.0000 0.0000
# 3 46.4265 27.6937 93.2232 0.0000 0.0000 0.0000
# 4 0.0000 0.0000 0.0000 29.8519 0.0000 0.0000
# 5 0.0000 0.0000 0.0000 0.0000 -13.7994 0.0000
# 6 0.0000 0.0000 0.0000 0.0000 0.0000 26.1058
#
#
#
# Elastic Compliance Matrix: (Units=1/GPa)
#
#
# Indices 1 2 3 4 5 6 
#
# 1 0.013815 -0.005545 -0.005233 0.000000 0.000000 0.000000
# 2 -0.005545 0.017086 -0.002314 0.000000 0.000000 0.000000
# 3 -0.005233 -0.002314 0.014020 0.000000 0.000000 0.000000
# 4 0.000000 0.000000 0.000000 0.033499 0.000000 0.000000
# 5 0.000000 0.000000 0.000000 0.000000 -0.072467 0.000000
# 6 0.000000 0.000000 0.000000 0.000000 0.000000 0.038306
#
#
# Mechanical properties :
#
#
# Convention : Reuss Voigt Hill
#
# Bulk Modulus (GPa) = 53.36990 56.10438 54.73714
# Shear Modulus (GPa) = 65.19799 19.10951 42.15375
#
# Velocity S-wave (km/s) = 6.03544 3.26751 4.85300
# Velocity P-wave (km/s) = 8.85363 6.75140 7.87300
#
# Compressibility (1/GPa) = 0.01873715
#
# Stress axis : x y z
#
# Youngs Moduli (GPa) = 72.38423 58.52720 71.32473
#
# Poissons Ratio (x) = 0.32456 0.37323
# Poissons Ratio (y) = 0.40140 0.16505
# Poissons Ratio (z) = 0.37877 0.13544
#
# Static dielectric constant tensor:
#      x y z
#    x 3.314500 0.000000 0.000000 
#    y 0.000000 3.284180 0.000000 
#    z 0.000000 0.000000 3.441180 
# 
# 
# High freq. dielectric constant tensor:
#      x y z
#    x 1.681370 0.000000 0.000000 
#    y 0.000000 1.689040 0.000000 
#    z 0.000000 0.000000 1.678370 
# 
# From -- ./inp_files/19876.got.cif
#   From: 2010.03.12/outbox.cif.g09.slc.cpg/sg47_10_cif.got.tgz:19876.got - 2010.04.14 03:12:58.
