data_PCOD8194738
_publ_section_title
;
Structure prediction by ZEFSAII (Michael W. Deem and Ramdas Pophale) SiO2 
 PCOD8194738
Probable space group: P M M M
;
_chemical_formula_sum "Si O2"
_cell_formula_units_Z 52
_cell_length_a 14.005528
_cell_length_b 8.093264
_cell_length_c 28.136312
_cell_angle_alpha 90.000000
_cell_angle_beta 90.000000
_cell_angle_gamma 90.000000
_cell_volume 3189.263220
_symmetry_space_group_name_H-M "P M M M"
_symmetry_group_IT_number 47
_symmetry_cell_setting 'orthorhombic'
loop_
_space_group_symop_operation_xyz
x,y,z
-x,-y,z
x,-y,-z
-x,y,-z
-x,-y,-z
x,y,-z
-x,y,z
x,-y,z
loop_
_atom_site_type_symbol
_atom_site_label
_atom_site_fract_x
_atom_site_fract_y
_atom_site_fract_z
Si Si1 0.886166 0.500000 0.945992
Si Si2 0.113362 0.815939 0.888465
Si Si3 0.892591 0.807653 0.780942
Si Si4 0.896210 0.807943 0.604395
Si Si5 0.604361 0.306017 0.642300
Si Si6 0.711105 0.196494 0.553274
Si Si7 0.791310 0.308553 0.308315
O O1 0.845874 0.332002 0.921437
O O2 0.000000 0.500000 0.942961
O O3 0.849882 0.500000 0.000000
O O4 0.143555 0.775507 0.834482
O O5 0.000000 0.821306 0.891796
O O6 0.151932 0.000000 0.903559
O O7 0.816825 0.718868 0.746671
O O8 0.000000 0.735600 0.774086
O O9 0.893450 0.000000 0.769299
O O10 0.813844 0.731578 0.570749
O O11 0.870247 0.781660 0.659644
O O12 0.000000 0.725868 0.593874
O O13 0.904119 0.000000 0.594010
O O14 0.500000 0.228401 0.654425
O O15 0.597669 0.500000 0.647960
O O16 0.629044 0.262862 0.587788
O O17 0.685692 0.236597 0.678433
O O18 0.691172 0.260529 0.500000
O O19 0.712077 0.000000 0.555431
O O20 0.793700 0.500000 0.321142
#
# Coordination Sequence:
#
# PCOD8194738 Si02
#       7
#     4   8   8   8   8   8   8
#     4   9  16  24  36  54  76 108 151 195 230 255
#     4   8  15  26  37  52  77 109 145 184 223 260
#     4   9  17  28  41  58  83 113 139 167 207 250
#     4   9  17  29  43  58  81 110 132 154 190 239
#     4   9  19  35  49  60  79 105 131 161 199 247
#     4   9  18  31  46  65  84 100 126 164 199 234
#     4  10  19  28  42  63  80 100 133 168 202 241
#
# _framework density 16.304705999999999
#
# number of rings (size 3 to 8) (size 9 to 14) (size 15 to 20)
#    0.000    3.000    0.000    1.846    1.077    4.615 
#    0.000    4.615    0.000    0.000    0.000    4.308 
#    0.000    0.000    0.000    0.000    0.000    1.538 
#
# Total GULP energy -644392.082217 kJ/mol
# GULP energy per Si atom -12392.155427 kJ/mol
# Density = 1.626760 g / cm^3
# Si number density = 16.304706 Si / 1000 Ang^3
#
#
#
# Elastic Constant Matrix: (Units=GPa)
#
#
# Indices 1 2 3 4 5 6 
#
# 1 88.0987 18.5179 35.0208 0.0000 0.0000 0.0000
# 2 18.5179 42.6982 31.3465 0.0000 0.0000 0.0000
# 3 35.0208 31.3465 101.0289 0.0000 0.0000 0.0000
# 4 0.0000 0.0000 0.0000 24.0408 0.0000 0.0000
# 5 0.0000 0.0000 0.0000 0.0000 9.3184 0.0000
# 6 0.0000 0.0000 0.0000 0.0000 0.0000 12.6548
#
#
#
# Elastic Compliance Matrix: (Units=1/GPa)
#
#
# Indices 1 2 3 4 5 6 
#
# 1 0.013480 -0.003128 -0.003702 0.000000 0.000000 0.000000
# 2 -0.003128 0.031055 -0.008551 0.000000 0.000000 0.000000
# 3 -0.003702 -0.008551 0.013835 0.000000 0.000000 0.000000
# 4 0.000000 0.000000 0.000000 0.041596 0.000000 0.000000
# 5 0.000000 0.000000 0.000000 0.000000 0.107315 0.000000
# 6 0.000000 0.000000 0.000000 0.000000 0.000000 0.079022
#
#
# Mechanical properties :
#
#
# Convention : Reuss Voigt Hill
#
# Bulk Modulus (GPa) = 36.22350 44.62181 40.42266
# Shear Modulus (GPa) = 15.32489 18.99882 17.16186
#
# Velocity S-wave (km/s) = 3.06911 3.41726 3.24785
# Velocity P-wave (km/s) = 5.90120 6.55721 6.23783
#
# Compressibility (1/GPa) = 0.02760639
#
# Stress axis : x y z
#
# Youngs Moduli (GPa) = 74.18324 32.20143 72.28257
#
# Poissons Ratio (x) = 0.10074 0.26760
# Poissons Ratio (y) = 0.23207 0.61808
# Poissons Ratio (z) = 0.27464 0.27535
#
# Static dielectric constant tensor:
#      x y z
#    x 3.154290 0.000000 0.000000 
#    y 0.000000 3.102910 0.000000 
#    z 0.000000 0.000000 3.041710 
# 
# 
# High freq. dielectric constant tensor:
#      x y z
#    x 1.585750 0.000000 0.000000 
#    y 0.000000 1.626390 0.000000 
#    z 0.000000 0.000000 1.610860 
# 
# From -- ./inp_files/13411.got.cif
#   From: 2010.03.12/outbox.cif.g09.slc.cpg/sg47_7_cif.got.tgz:13411.got - 2010.04.14 03:12:58.
