data_PCOD8194330
_publ_section_title
;
Structure prediction by ZEFSAII (Michael W. Deem and Ramdas Pophale) SiO2 
 PCOD8194330
Probable space group: P M M M
;
_chemical_formula_sum "Si O2"
_cell_formula_units_Z 64
_cell_length_a 14.216092
_cell_length_b 30.659237
_cell_length_c 9.090638
_cell_angle_alpha 90.000000
_cell_angle_beta 90.000000
_cell_angle_gamma 90.000000
_cell_volume 3962.195788
_symmetry_space_group_name_H-M "P M M M"
_symmetry_group_IT_number 47
_symmetry_cell_setting 'orthorhombic'
loop_
_space_group_symop_operation_xyz
x,y,z
-x,-y,z
x,-y,-z
-x,y,-z
-x,-y,-z
x,y,-z
-x,y,z
x,-y,z
loop_
_atom_site_type_symbol
_atom_site_label
_atom_site_fract_x
_atom_site_fract_y
_atom_site_fract_z
Si Si1 0.888186 0.868088 0.332731
Si Si2 0.397766 0.332638 0.674746
Si Si3 0.106080 0.549503 0.827725
Si Si4 0.785463 0.790705 0.174464
Si Si5 0.888265 0.951969 0.165072
Si Si6 0.393697 0.766605 0.328460
Si Si7 0.209988 0.625192 0.672119
Si Si8 0.891063 0.713583 0.329207
O O1 0.854098 0.861956 0.500000
O O2 0.846488 0.830783 0.231032
O O3 0.850405 0.914898 0.275291
O O4 0.000000 0.865075 0.321462
O O5 0.395383 0.332262 0.500000
O O6 0.500000 0.350005 0.730140
O O7 0.383099 0.283095 0.727373
O O8 0.313632 0.362747 0.735222
O O9 0.134981 0.500000 0.789779
O O10 0.178489 0.581067 0.748544
O O11 0.000000 0.558565 0.771841
O O12 0.111854 0.557960 0.000000
O O13 0.679057 0.795529 0.234841
O O14 0.830347 0.745837 0.230874
O O15 0.784983 0.791006 0.000000
O O16 0.000000 0.951507 0.165103
O O17 0.852787 0.000000 0.216809
O O18 0.851533 0.942286 0.000000
O O19 0.368258 0.770563 0.500000
O O20 0.500000 0.783274 0.299457
O O21 0.214055 0.616072 0.500000
O O22 0.137976 0.664180 0.708383
O O23 0.870566 0.724084 0.500000
O O24 0.000000 0.719664 0.290540
#
# Coordination Sequence:
#
# PCOD8194330 Si02
#       8
#     8   8   8   8   8   8   8   8
#     4  10  20  32  46  64  90 128 171 209 241 280
#     4   8  14  27  49  73  94 117 146 183 228 276
#     4   9  19  35  51  67  92 125 155 185 227 279
#     4  12  23  32  45  66  96 129 160 197 237 282
#     4   8  14  26  44  65  90 120 155 198 247 294
#     4   9  17  33  55  71  88 120 158 194 235 282
#     4  10  18  30  51  75  95 115 150 196 232 268
#     4  10  20  33  47  65  93 126 159 195 232 274
#
# _framework density 16.152660000000001
#
# number of rings (size 3 to 8) (size 9 to 14) (size 15 to 20)
#    0.000    2.500    1.250    3.750    0.000    4.500 
#    0.000    1.875    0.000    0.750    0.000    2.625 
#    0.000    0.500    0.000    5.250    0.000    2.500 
#
# Total GULP energy -793407.985796 kJ/mol
# GULP energy per Si atom -12396.999778 kJ/mol
# Density = 1.611590 g / cm^3
# Si number density = 16.152660 Si / 1000 Ang^3
#
#
#
# Elastic Constant Matrix: (Units=GPa)
#
#
# Indices 1 2 3 4 5 6 
#
# 1 72.4057 26.5783 35.9508 0.0000 0.0000 0.0000
# 2 26.5783 76.3149 40.6886 0.0000 0.0000 0.0000
# 3 35.9508 40.6886 76.9918 0.0000 0.0000 0.0000
# 4 0.0000 0.0000 0.0000 26.7622 0.0000 0.0000
# 5 0.0000 0.0000 0.0000 0.0000 18.0743 0.0000
# 6 0.0000 0.0000 0.0000 0.0000 0.0000 5.5291
#
#
#
# Elastic Compliance Matrix: (Units=1/GPa)
#
#
# Indices 1 2 3 4 5 6 
#
# 1 0.018325 -0.002534 -0.007218 0.000000 0.000000 0.000000
# 2 -0.002534 0.018595 -0.008644 0.000000 0.000000 0.000000
# 3 -0.007218 -0.008644 0.020927 0.000000 0.000000 0.000000
# 4 0.000000 0.000000 0.000000 0.037366 0.000000 0.000000
# 5 0.000000 0.000000 0.000000 0.000000 0.055327 0.000000
# 6 0.000000 0.000000 0.000000 0.000000 0.000000 0.180862
#
#
# Mechanical properties :
#
#
# Convention : Reuss Voigt Hill
#
# Bulk Modulus (GPa) = 47.49282 48.01641 47.75462
# Shear Modulus (GPa) = 13.32585 18.23942 15.78264
#
# Velocity S-wave (km/s) = 2.87539 3.36399 3.12924
# Velocity P-wave (km/s) = 6.36318 6.69923 6.53337
#
# Compressibility (1/GPa) = 0.02105581
#
# Stress axis : x y z
#
# Youngs Moduli (GPa) = 54.57079 53.77899 47.78596
#
# Poissons Ratio (x) = 0.13627 0.34490
# Poissons Ratio (y) = 0.13827 0.41305
# Poissons Ratio (z) = 0.39387 0.46485
#
# Static dielectric constant tensor:
#      x y z
#    x 3.203460 0.000000 0.000000 
#    y 0.000000 3.079480 0.000000 
#    z 0.000000 0.000000 2.947400 
# 
# 
# High freq. dielectric constant tensor:
#      x y z
#    x 1.605970 0.000000 0.000000 
#    y 0.000000 1.609060 0.000000 
#    z 0.000000 0.000000 1.608370 
# 
# From -- ./inp_files/8259.got.cif
#   From: 2010.03.12/outbox.cif.g09.slc.cpg/sg47_5_cif.got.tgz:8259.got - 2010.04.14 03:12:58.
