data_PCOD8194422
_publ_section_title
;
Structure prediction by ZEFSAII (Michael W. Deem and Ramdas Pophale) SiO2 
 PCOD8194422
Probable space group: P M M M
;
_chemical_formula_sum "Si O2"
_cell_formula_units_Z 60
_cell_length_a 8.907959
_cell_length_b 18.939555
_cell_length_c 21.044684
_cell_angle_alpha 90.000000
_cell_angle_beta 90.000000
_cell_angle_gamma 90.000000
_cell_volume 3550.507130
_symmetry_space_group_name_H-M "P M M M"
_symmetry_group_IT_number 47
_symmetry_cell_setting 'orthorhombic'
loop_
_space_group_symop_operation_xyz
x,y,z
-x,-y,z
x,-y,-z
-x,y,-z
-x,-y,-z
x,y,-z
-x,y,z
x,-y,z
loop_
_atom_site_type_symbol
_atom_site_label
_atom_site_fract_x
_atom_site_fract_y
_atom_site_fract_z
Si Si1 0.822419 0.289403 0.930118
Si Si2 0.176332 0.283106 0.315965
Si Si3 0.177966 0.918137 0.500000
Si Si4 0.176186 0.797442 0.187968
Si Si5 0.324054 0.921045 0.251369
Si Si6 0.677007 0.843378 0.380249
Si Si7 0.828887 0.421148 0.852671
Si Si8 0.324486 0.579698 0.279930
O O1 0.759657 0.234511 0.877851
O O2 0.778826 0.368497 0.908493
O O3 0.000000 0.281849 0.933923
O O4 0.751885 0.274872 0.000000
O O5 0.218620 0.255013 0.245629
O O6 0.258163 0.235095 0.368800
O O7 0.235806 0.363363 0.322762
O O8 0.000000 0.280917 0.329024
O O9 0.243687 0.879252 0.560739
O O10 0.000000 0.911108 0.500000
O O11 0.228376 0.000000 0.500000
O O12 0.249946 0.873759 0.196787
O O13 0.000000 0.808158 0.184739
O O14 0.500000 0.919459 0.240694
O O15 0.281079 0.891802 0.320347
O O16 0.259748 0.000000 0.245419
O O17 0.500000 0.838578 0.392255
O O18 0.816759 0.500000 0.880496
O O19 0.721126 0.410972 0.793083
O O20 0.000000 0.404183 0.830313
O O21 0.500000 0.594694 0.286388
O O22 0.284401 0.500000 0.302996
#
# Coordination Sequence:
#
# PCOD8194422 Si02
#       8
#     8   8   4   8   8   8   8   8
#     4   9  16  27  43  64  90 119 155 199 245 295
#     4  10  18  31  50  72  99 128 164 208 251 295
#     4  11  23  37  53  77 112 149 180 207 237 277
#     4   9  17  29  45  67  91 118 152 194 244 292
#     4   9  18  32  50  72  95 120 153 194 239 286
#     4  10  20  34  53  77 104 136 170 203 242 289
#     4   9  16  27  43  63  88 120 158 198 243 293
#     4  10  19  29  44  68  97 129 164 204 250 296
#
# _framework density 16.898993999999998
#
# number of rings (size 3 to 8) (size 9 to 14) (size 15 to 20)
#    0.000    2.467    1.333    1.800    0.000    3.467 
#    0.000    1.333    0.000    2.000    0.000    5.133 
#    0.000    3.733    0.000    0.000    0.000    0.000 
#
# Total GULP energy -743901.704805 kJ/mol
# GULP energy per Si atom -12398.361747 kJ/mol
# Density = 1.686053 g / cm^3
# Si number density = 16.898994 Si / 1000 Ang^3
#
#
#
# Elastic Constant Matrix: (Units=GPa)
#
#
# Indices 1 2 3 4 5 6 
#
# 1 49.7696 45.4028 32.9880 0.0000 0.0000 0.0000
# 2 45.4028 148.6150 67.9966 0.0000 0.0000 0.0000
# 3 32.9880 67.9966 94.7117 0.0000 0.0000 0.0000
# 4 0.0000 0.0000 0.0000 24.2896 0.0000 0.0000
# 5 0.0000 0.0000 0.0000 0.0000 16.7489 0.0000
# 6 0.0000 0.0000 0.0000 0.0000 0.0000 28.7482
#
#
#
# Elastic Compliance Matrix: (Units=1/GPa)
#
#
# Indices 1 2 3 4 5 6 
#
# 1 0.029804 -0.006486 -0.005724 0.000000 0.000000 0.000000
# 2 -0.006486 0.011432 -0.005948 0.000000 0.000000 0.000000
# 3 -0.005724 -0.005948 0.016822 0.000000 0.000000 0.000000
# 4 0.000000 0.000000 0.000000 0.041170 0.000000 0.000000
# 5 0.000000 0.000000 0.000000 0.000000 0.059705 0.000000
# 6 0.000000 0.000000 0.000000 0.000000 0.000000 0.034785
#
#
# Mechanical properties :
#
#
# Convention : Reuss Voigt Hill
#
# Bulk Modulus (GPa) = 45.99548 65.09679 55.54613
# Shear Modulus (GPa) = 21.07200 23.73793 22.40497
#
# Velocity S-wave (km/s) = 3.53503 3.75199 3.64513
# Velocity P-wave (km/s) = 6.62864 7.57461 7.11736
#
# Compressibility (1/GPa) = 0.02174127
#
# Stress axis : x y z
#
# Youngs Moduli (GPa) = 33.55291 87.47447 59.44479
#
# Poissons Ratio (x) = 0.56739 0.34025
# Poissons Ratio (y) = 0.21764 0.35359
# Poissons Ratio (z) = 0.19205 0.52031
#
# Static dielectric constant tensor:
#      x y z
#    x 3.066450 0.000000 0.000000 
#    y 0.000000 3.450600 0.000000 
#    z 0.000000 0.000000 3.072170 
# 
# 
# High freq. dielectric constant tensor:
#      x y z
#    x 1.643640 0.000000 0.000000 
#    y 0.000000 1.660170 0.000000 
#    z 0.000000 0.000000 1.618110 
# 
# From -- ./inp_files/29944.got.cif
#   From: 2010.03.12/outbox.cif.g09.slc.cpg/sg47_15_cif.got.tgz:29944.got - 2010.04.14 03:12:58.
