data_PCOD8194220
_publ_section_title
;
Structure prediction by ZEFSAII (Michael W. Deem and Ramdas Pophale) SiO2 
 PCOD8194220
Probable space group: P M M M
;
_chemical_formula_sum "Si O2"
_cell_formula_units_Z 64
_cell_length_a 19.156889
_cell_length_b 13.903259
_cell_length_c 14.166968
_cell_angle_alpha 90.000000
_cell_angle_beta 90.000000
_cell_angle_gamma 90.000000
_cell_volume 3773.275441
_symmetry_space_group_name_H-M "P M M M"
_symmetry_group_IT_number 47
_symmetry_cell_setting 'orthorhombic'
loop_
_space_group_symop_operation_xyz
x,y,z
-x,-y,z
x,-y,-z
-x,y,-z
-x,-y,-z
x,y,-z
-x,y,z
x,-y,z
loop_
_atom_site_type_symbol
_atom_site_label
_atom_site_fract_x
_atom_site_fract_y
_atom_site_fract_z
Si Si1 0.357228 0.112881 0.890045
Si Si2 0.840391 0.613521 0.207723
Si Si3 0.922162 0.760685 0.110869
Si Si4 0.623057 0.387685 0.391205
Si Si5 0.421200 0.286622 0.210681
Si Si6 0.216265 0.386709 0.601035
Si Si7 0.199520 0.105401 0.889512
Si Si8 0.701358 0.613617 0.895118
O O1 0.403191 0.175804 0.817133
O O2 0.277222 0.146249 0.871267
O O3 0.367661 0.000000 0.867238
O O4 0.377314 0.132135 0.000000
O O5 0.847513 0.500000 0.200558
O O6 0.909333 0.658228 0.160919
O O7 0.834053 0.650245 0.315972
O O8 0.771286 0.652035 0.154509
O O9 0.862961 0.830930 0.153927
O O10 0.000000 0.798186 0.135247
O O11 0.913404 0.745868 0.000000
O O12 0.600838 0.368572 0.500000
O O13 0.607757 0.500000 0.365640
O O14 0.582625 0.313370 0.322380
O O15 0.703904 0.362598 0.375412
O O16 0.500000 0.306040 0.176767
O O17 0.369057 0.356783 0.156710
O O18 0.194345 0.340284 0.500000
O O19 0.209571 0.500000 0.593358
O O20 0.193576 0.000000 0.842832
O O21 0.186382 0.096071 0.000000
O O22 0.703356 0.500000 0.897111
O O23 0.700426 0.657893 0.000000
#
# Coordination Sequence:
#
# PCOD8194220 Si02
#       8
#     8   8   8   8   8   8   8   8
#     4   9  19  36  55  73  95 127 169 212 249 292
#     4  10  18  30  48  66  90 127 165 198 233 275
#     4  10  20  30  42  67 102 134 161 189 225 277
#     4   9  18  34  53  73  99 128 161 204 254 308
#     4  12  23  32  47  71  98 128 163 205 254 300
#     4   8  14  27  49  72  89 111 153 206 249 280
#     4   8  15  30  51  70  88 116 155 198 241 280
#     4  10  20  32  45  64  92 128 168 203 238 285
#
# _framework density 16.961390999999999
#
# number of rings (size 3 to 8) (size 9 to 14) (size 15 to 20)
#    0.000    2.500    1.250    3.375    0.000    4.750 
#    0.000    3.750    0.000    0.750    0.000    2.625 
#    0.000    0.500    0.000    1.125    0.000    0.125 
#
# Total GULP energy -793063.613078 kJ/mol
# GULP energy per Si atom -12391.618954 kJ/mol
# Density = 1.692279 g / cm^3
# Si number density = 16.961391 Si / 1000 Ang^3
#
#
#
# Elastic Constant Matrix: (Units=GPa)
#
#
# Indices 1 2 3 4 5 6 
#
# 1 71.9694 17.6181 29.4490 0.0000 0.0000 0.0000
# 2 17.6181 45.7409 30.9986 0.0000 0.0000 0.0000
# 3 29.4490 30.9986 77.5845 0.0000 0.0000 0.0000
# 4 0.0000 0.0000 0.0000 18.0647 0.0000 0.0000
# 5 0.0000 0.0000 0.0000 0.0000 28.9993 0.0000
# 6 0.0000 0.0000 0.0000 0.0000 0.0000 14.4122
#
#
#
# Elastic Compliance Matrix: (Units=1/GPa)
#
#
# Indices 1 2 3 4 5 6 
#
# 1 0.016732 -0.002936 -0.005178 0.000000 0.000000 0.000000
# 2 -0.002936 0.030495 -0.011070 0.000000 0.000000 0.000000
# 3 -0.005178 -0.011070 0.019278 0.000000 0.000000 0.000000
# 4 0.000000 0.000000 0.000000 0.055356 0.000000 0.000000
# 5 0.000000 0.000000 0.000000 0.000000 0.034484 0.000000
# 6 0.000000 0.000000 0.000000 0.000000 0.000000 0.069386
#
#
# Mechanical properties :
#
#
# Convention : Reuss Voigt Hill
#
# Bulk Modulus (GPa) = 35.53965 39.04735 37.29350
# Shear Modulus (GPa) = 18.28306 20.11053 19.19679
#
# Velocity S-wave (km/s) = 3.28673 3.44708 3.36786
# Velocity P-wave (km/s) = 5.94998 6.23815 6.09577
#
# Compressibility (1/GPa) = 0.02813758
#
# Stress axis : x y z
#
# Youngs Moduli (GPa) = 59.76469 32.79220 51.87357
#
# Poissons Ratio (x) = 0.09626 0.26861
# Poissons Ratio (y) = 0.17544 0.57424
# Poissons Ratio (z) = 0.30948 0.36301
#
# Static dielectric constant tensor:
#      x y z
#    x 3.093510 0.000000 0.000000 
#    y 0.000000 3.135900 0.000000 
#    z 0.000000 0.000000 2.761920 
# 
# 
# High freq. dielectric constant tensor:
#      x y z
#    x 1.642320 0.000000 0.000000 
#    y 0.000000 1.635270 0.000000 
#    z 0.000000 0.000000 1.634740 
# 
# From -- ./inp_files/24813.got.cif
#   From: 2010.03.12/outbox.cif.g09.slc.cpg/sg47_13_cif.got.tgz:24813.got - 2010.04.14 03:12:58.
