data_PCOD8194608
_publ_section_title
;
Structure prediction by ZEFSAII (Michael W. Deem and Ramdas Pophale) SiO2 
 PCOD8194608
Probable space group: P M M M
;
_chemical_formula_sum "Si O2"
_cell_formula_units_Z 56
_cell_length_a 9.121353
_cell_length_b 23.027759
_cell_length_c 14.612621
_cell_angle_alpha 90.000000
_cell_angle_beta 90.000000
_cell_angle_gamma 90.000000
_cell_volume 3069.298021
_symmetry_space_group_name_H-M "P M M M"
_symmetry_group_IT_number 47
_symmetry_cell_setting 'orthorhombic'
loop_
_space_group_symop_operation_xyz
x,y,z
-x,-y,z
x,-y,-z
-x,y,-z
-x,-y,-z
x,y,-z
-x,y,z
x,-y,z
loop_
_atom_site_type_symbol
_atom_site_label
_atom_site_fract_x
_atom_site_fract_y
_atom_site_fract_z
Si Si1 0.338610 0.931798 0.500000
Si Si2 0.326021 0.610631 0.284866
Si Si3 0.172611 0.065811 0.320284
Si Si4 0.171850 0.632017 0.103031
Si Si5 0.326012 0.275617 0.604484
Si Si6 0.325927 0.500000 0.602217
Si Si7 0.662700 0.747468 0.898991
Si Si8 0.668791 0.828181 0.266300
O O1 0.500000 0.902007 0.500000
O O2 0.247185 0.912017 0.586795
O O3 0.357460 0.000000 0.500000
O O4 0.500000 0.610945 0.273977
O O5 0.257410 0.599367 0.184161
O O6 0.269932 0.669998 0.334024
O O7 0.270112 0.557487 0.346617
O O8 0.233946 0.113754 0.251234
O O9 0.000000 0.069227 0.331104
O O10 0.219940 0.000000 0.293284
O O11 0.213793 0.699230 0.112048
O O12 0.000000 0.624463 0.118849
O O13 0.215141 0.609581 0.000000
O O14 0.263803 0.278281 0.500000
O O15 0.500000 0.278954 0.601453
O O16 0.276522 0.215431 0.652976
O O17 0.500000 0.500000 0.597850
O O18 0.259936 0.500000 0.500000
O O19 0.500000 0.720431 0.878709
O O20 0.694639 0.798771 0.830417
O O21 0.667534 0.774678 0.000000
O O22 0.500000 0.845604 0.282977
#
# Coordination Sequence:
#
# PCOD8194608 Si02
#       8
#     4   8   8   8   8   4   8   8
#     4   9  17  31  51  71  91 125 173 216 251 296
#     4  10  18  33  55  79 107 140 177 217 261 307
#     4  10  21  35  49  68  99 137 173 212 258 306
#     4  10  20  33  51  76 105 138 175 216 265 318
#     4   9  17  29  47  74 107 137 166 206 255 304
#     4   9  18  32  56  87 110 136 181 227 260 301
#     4   9  17  32  54  79 105 132 168 216 267 317
#     4  10  19  31  50  77 102 131 172 211 258 315
#
# _framework density 18.245214000000001
#
# number of rings (size 3 to 8) (size 9 to 14) (size 15 to 20)
#    0.000    2.429    1.429    1.500    1.000    4.857 
#    0.000    0.714    0.000    5.571    0.000    3.000 
#    0.000    0.000    0.000    0.000    0.000    0.000 
#
# Total GULP energy -694001.547307 kJ/mol
# GULP energy per Si atom -12392.884773 kJ/mol
# Density = 1.820369 g / cm^3
# Si number density = 18.245214 Si / 1000 Ang^3
#
#
#
# Elastic Constant Matrix: (Units=GPa)
#
#
# Indices 1 2 3 4 5 6 
#
# 1 49.2630 31.3058 35.1031 0.0000 0.0000 0.0000
# 2 31.3058 105.9021 51.2362 0.0000 0.0000 0.0000
# 3 35.1031 51.2362 137.0515 0.0000 0.0000 0.0000
# 4 0.0000 0.0000 0.0000 21.8207 0.0000 0.0000
# 5 0.0000 0.0000 0.0000 0.0000 18.8286 0.0000
# 6 0.0000 0.0000 0.0000 0.0000 0.0000 15.1677
#
#
#
# Elastic Compliance Matrix: (Units=1/GPa)
#
#
# Indices 1 2 3 4 5 6 
#
# 1 0.027427 -0.005749 -0.004876 0.000000 0.000000 0.000000
# 2 -0.005749 0.012733 -0.003288 0.000000 0.000000 0.000000
# 3 -0.004876 -0.003288 0.009774 0.000000 0.000000 0.000000
# 4 0.000000 0.000000 0.000000 0.045828 0.000000 0.000000
# 5 0.000000 0.000000 0.000000 0.000000 0.053111 0.000000
# 6 0.000000 0.000000 0.000000 0.000000 0.000000 0.065930
#
#
# Mechanical properties :
#
#
# Convention : Reuss Voigt Hill
#
# Bulk Modulus (GPa) = 45.22913 58.61186 51.92049
# Shear Modulus (GPa) = 20.00032 22.80149 21.40090
#
# Velocity S-wave (km/s) = 3.31448 3.53898 3.42857
# Velocity P-wave (km/s) = 6.28419 6.99238 6.64772
#
# Compressibility (1/GPa) = 0.02210965
#
# Stress axis : x y z
#
# Youngs Moduli (GPa) = 36.46090 78.53823 102.30803
#
# Poissons Ratio (x) = 0.45150 0.49882
# Poissons Ratio (y) = 0.20960 0.33635
# Poissons Ratio (z) = 0.17777 0.25820
#
# Static dielectric constant tensor:
#      x y z
#    x 3.132450 0.000000 0.000000 
#    y 0.000000 3.286920 0.000000 
#    z 0.000000 0.000000 3.658870 
# 
# 
# High freq. dielectric constant tensor:
#      x y z
#    x 1.678510 0.000000 0.000000 
#    y 0.000000 1.694270 0.000000 
#    z 0.000000 0.000000 1.712170 
# 
# From -- ./inp_files/21646.got.cif
#   From: 2010.03.12/outbox.cif.g09.slc.cpg/sg47_11_cif.got.tgz:21646.got - 2010.04.14 03:12:58.
