data_PCOD8194128
_publ_section_title
;
Structure prediction by ZEFSAII (Michael W. Deem and Ramdas Pophale) SiO2 
 PCOD8194128
Probable space group: P M M M
;
_chemical_formula_sum "Si O2"
_cell_formula_units_Z 52
_cell_length_a 14.145796
_cell_length_b 9.227163
_cell_length_c 23.145978
_cell_angle_alpha 90.000000
_cell_angle_beta 90.000000
_cell_angle_gamma 90.000000
_cell_volume 3021.141866
_symmetry_space_group_name_H-M "P M M M"
_symmetry_group_IT_number 47
_symmetry_cell_setting 'orthorhombic'
loop_
_space_group_symop_operation_xyz
x,y,z
-x,-y,z
x,-y,-z
-x,y,-z
-x,-y,-z
x,y,-z
-x,y,z
x,-y,z
loop_
_atom_site_type_symbol
_atom_site_label
_atom_site_fract_x
_atom_site_fract_y
_atom_site_fract_z
Si Si1 0.721606 0.827985 0.111388
Si Si2 0.606466 0.171962 0.000000
Si Si3 0.605599 0.172194 0.777658
Si Si4 0.892005 0.330653 0.155695
Si Si5 0.606802 0.670052 0.565775
Si Si6 0.894176 0.834788 0.727267
Si Si7 0.289376 0.168160 0.336391
O O1 0.666077 0.773084 0.168042
O O2 0.823863 0.750687 0.110388
O O3 0.736540 0.000000 0.110520
O O4 0.662262 0.773802 0.056358
O O5 0.500000 0.236562 0.000000
O O6 0.600091 0.000000 0.000000
O O7 0.500000 0.236171 0.782279
O O8 0.652008 0.228182 0.718398
O O9 0.603246 0.000000 0.778555
O O10 0.869049 0.500000 0.156006
O O11 0.872869 0.269909 0.219571
O O12 0.000000 0.300202 0.136847
O O13 0.629300 0.714262 0.500000
O O14 0.500000 0.718074 0.581804
O O15 0.618047 0.500000 0.574232
O O16 0.681915 0.748580 0.606172
O O17 0.821649 0.802371 0.675328
O O18 0.000000 0.811173 0.703082
O O19 0.879234 0.000000 0.749462
O O20 0.310942 0.000000 0.346363
#
# Coordination Sequence:
#
# PCOD8194128 Si02
#       7
#     8   4   8   8   8   8   8
#     4  10  18  32  52  74 100 132 167 204 247 295
#     4   9  18  32  54  81 102 128 171 213 246 291
#     4   9  16  26  43  70 102 128 152 193 247 294
#     4  10  20  33  50  73 100 130 165 206 252 299
#     4   9  19  35  51  68  96 135 172 204 243 289
#     4   9  17  31  51  75 103 132 162 199 247 300
#     4  10  18  29  48  76 102 126 161 202 248 296
#
# _framework density 17.212036000000001
#
# number of rings (size 3 to 8) (size 9 to 14) (size 15 to 20)
#    0.000    2.538    1.538    1.846    0.000    4.615 
#    0.000    1.538    0.000    5.077    0.000    3.231 
#    0.000    0.000    0.000    0.000    0.000    0.000 
#
# Total GULP energy -644767.415027 kJ/mol
# GULP energy per Si atom -12399.373366 kJ/mol
# Density = 1.717286 g / cm^3
# Si number density = 17.212036 Si / 1000 Ang^3
#
#
#
# Elastic Constant Matrix: (Units=GPa)
#
#
# Indices 1 2 3 4 5 6 
#
# 1 144.2465 46.9217 71.7007 0.0000 0.0000 0.0000
# 2 46.9217 46.8704 38.5598 0.0000 0.0000 0.0000
# 3 71.7007 38.5598 114.3371 0.0000 0.0000 0.0000
# 4 0.0000 0.0000 0.0000 13.8996 0.0000 0.0000
# 5 0.0000 0.0000 0.0000 0.0000 31.1602 0.0000
# 6 0.0000 0.0000 0.0000 0.0000 0.0000 21.1376
#
#
#
# Elastic Compliance Matrix: (Units=1/GPa)
#
#
# Indices 1 2 3 4 5 6 
#
# 1 0.011903 -0.007993 -0.004769 0.000000 0.000000 0.000000
# 2 -0.007993 0.034895 -0.006756 0.000000 0.000000 0.000000
# 3 -0.004769 -0.006756 0.014015 0.000000 0.000000 0.000000
# 4 0.000000 0.000000 0.000000 0.071944 0.000000 0.000000
# 5 0.000000 0.000000 0.000000 0.000000 0.032092 0.000000
# 6 0.000000 0.000000 0.000000 0.000000 0.000000 0.047309
#
#
# Mechanical properties :
#
#
# Convention : Reuss Voigt Hill
#
# Bulk Modulus (GPa) = 45.91808 68.86874 57.39341
# Shear Modulus (GPa) = 19.34588 23.12428 21.23508
#
# Velocity S-wave (km/s) = 3.35621 3.66935 3.51627
# Velocity P-wave (km/s) = 6.46178 7.61912 7.06419
#
# Compressibility (1/GPa) = 0.02177791
#
# Stress axis : x y z
#
# Youngs Moduli (GPa) = 84.01270 28.65737 71.35205
#
# Poissons Ratio (x) = 0.22905 0.34026
# Poissons Ratio (y) = 0.67149 0.48205
# Poissons Ratio (z) = 0.40064 0.19361
#
# Static dielectric constant tensor:
#      x y z
#    x 3.479130 0.000000 0.000000 
#    y 0.000000 2.928880 0.000000 
#    z 0.000000 0.000000 3.074060 
# 
# 
# High freq. dielectric constant tensor:
#      x y z
#    x 1.676760 0.000000 0.000000 
#    y 0.000000 1.635950 0.000000 
#    z 0.000000 0.000000 1.646170 
# 
# From -- ./inp_files/12476.got.cif
#   From: 2010.03.12/outbox.cif.g09.slc.cpg/sg47_7_cif.got.tgz:12476.got - 2010.04.14 03:12:58.
