data_PCOD8194013
_publ_section_title
;
Structure prediction by ZEFSAII (Michael W. Deem and Ramdas Pophale) SiO2 
 PCOD8194013
Probable space group: P M M M
;
_chemical_formula_sum "Si O2"
_cell_formula_units_Z 64
_cell_length_a 14.374880
_cell_length_b 31.445648
_cell_length_c 9.062371
_cell_angle_alpha 90.000000
_cell_angle_beta 90.000000
_cell_angle_gamma 90.000000
_cell_volume 4096.440151
_symmetry_space_group_name_H-M "P M M M"
_symmetry_group_IT_number 47
_symmetry_cell_setting 'orthorhombic'
loop_
_space_group_symop_operation_xyz
x,y,z
-x,-y,z
x,-y,-z
-x,y,-z
-x,-y,-z
x,y,-z
-x,y,z
x,-y,z
loop_
_atom_site_type_symbol
_atom_site_label
_atom_site_fract_x
_atom_site_fract_y
_atom_site_fract_z
Si Si1 0.101057 0.749552 0.824877
Si Si2 0.105086 0.845884 0.828670
Si Si3 0.394246 0.636555 0.676139
Si Si4 0.719753 0.873756 0.324771
Si Si5 0.389619 0.544974 0.664993
Si Si6 0.708373 0.712416 0.173308
Si Si7 0.604117 0.046913 0.324737
Si Si8 0.608094 0.200698 0.171788
O O1 0.115529 0.797701 0.769672
O O2 0.186046 0.720515 0.769321
O O3 0.000000 0.732289 0.768616
O O4 0.101190 0.750997 0.000000
O O5 0.174957 0.874762 0.734567
O O6 0.000000 0.862306 0.803116
O O7 0.132525 0.848739 0.000000
O O8 0.388812 0.637054 0.500000
O O9 0.500000 0.645704 0.728182
O O10 0.358802 0.590028 0.737683
O O11 0.326568 0.671426 0.741725
O O12 0.720011 0.872091 0.500000
O O13 0.672119 0.916762 0.263066
O O14 0.663839 0.833323 0.266153
O O15 0.348937 0.543239 0.500000
O O16 0.500000 0.546775 0.656924
O O17 0.358854 0.500000 0.745467
O O18 0.644229 0.752514 0.213704
O O19 0.705455 0.703135 0.000000
O O20 0.602976 0.048358 0.500000
O O21 0.500000 0.055844 0.265064
O O22 0.637530 0.000000 0.271454
O O23 0.500000 0.198011 0.213136
O O24 0.626240 0.191455 0.000000
#
# Coordination Sequence:
#
# PCOD8194013 Si02
#       8
#     8   8   8   8   8   8   8   8
#     4   8  14  27  47  64  77 102 144 184 210 244
#     4   9  17  32  52  68  86 116 150 180 215 263
#     4   9  17  27  39  58  85 115 145 177 213 252
#     4  11  20  29  47  73  95 112 140 186 230 262
#     4   7  10  19  36  55  74 101 140 180 212 246
#     4  10  18  29  44  60  82 113 148 178 206 249
#     4   8  15  29  47  66  90 120 150 177 211 260
#     4  10  20  32  44  60  87 123 156 180 205 251
#
# _framework density 15.623321000000001
#
# number of rings (size 3 to 8) (size 9 to 14) (size 15 to 20)
#    0.000    3.000    1.250    3.375    0.000    2.250 
#    0.000    0.000    0.000    2.625    0.000    8.750 
#    0.000    0.500    0.000    6.250    0.000    0.250 
#
# Total GULP energy -792907.728012 kJ/mol
# GULP energy per Si atom -12389.183250 kJ/mol
# Density = 1.558776 g / cm^3
# Si number density = 15.623321 Si / 1000 Ang^3
#
#
#
# Elastic Constant Matrix: (Units=GPa)
#
#
# Indices 1 2 3 4 5 6 
#
# 1 106.6847 61.8868 26.2645 0.0000 0.0000 0.0000
# 2 61.8868 124.8343 30.0680 0.0000 0.0000 0.0000
# 3 26.2645 30.0680 28.2227 0.0000 0.0000 0.0000
# 4 0.0000 0.0000 0.0000 -1.3751 0.0000 0.0000
# 5 0.0000 0.0000 0.0000 0.0000 20.4581 0.0000
# 6 0.0000 0.0000 0.0000 0.0000 0.0000 10.8628
#
#
#
# Elastic Compliance Matrix: (Units=1/GPa)
#
#
# Indices 1 2 3 4 5 6 
#
# 1 0.014315 -0.005230 -0.007750 0.000000 0.000000 0.000000
# 2 -0.005230 0.012687 -0.008649 0.000000 0.000000 0.000000
# 3 -0.007750 -0.008649 0.051859 0.000000 0.000000 0.000000
# 4 0.000000 0.000000 0.000000 -0.727203 0.000000 0.000000
# 5 0.000000 0.000000 0.000000 0.000000 0.048880 0.000000
# 6 0.000000 0.000000 0.000000 0.000000 0.000000 0.092057
#
#
# Mechanical properties :
#
#
# Convention : Reuss Voigt Hill
#
# Bulk Modulus (GPa) = 28.08743 55.13114 41.60928
# Shear Modulus (GPa) = -11.05512 15.42398 2.18443
#
# Velocity S-wave (km/s) = -2.66297 3.14545 1.18373
# Velocity P-wave (km/s) = 2.92604 6.96822 5.34405
#
# Compressibility (1/GPa) = 0.03560312
#
# Stress axis : x y z
#
# Youngs Moduli (GPa) = 69.85518 78.82279 19.28298
#
# Poissons Ratio (x) = 0.41226 0.14944
# Poissons Ratio (y) = 0.36535 0.16678
# Poissons Ratio (z) = 0.54138 0.68173
#
# Static dielectric constant tensor:
#      x y z
#    x 3.153630 0.000000 0.000000 
#    y 0.000000 3.262100 0.000000 
#    z 0.000000 0.000000 2.635680 
# 
# 
# High freq. dielectric constant tensor:
#      x y z
#    x 1.586130 0.000000 0.000000 
#    y 0.000000 1.596210 0.000000 
#    z 0.000000 0.000000 1.564090 
# 
# From -- ./inp_files/8256.got.cif
#   From: 2010.03.12/outbox.cif.g09.slc.cpg/sg47_5_cif.got.tgz:8256.got - 2010.04.14 03:12:58.
