data_PCOD8194201
_publ_section_title
;
Structure prediction by ZEFSAII (Michael W. Deem and Ramdas Pophale) SiO2 
 PCOD8194201
Probable space group: P M M M
;
_chemical_formula_sum "Si O2"
_cell_formula_units_Z 64
_cell_length_a 23.522757
_cell_length_b 18.917269
_cell_length_c 9.089846
_cell_angle_alpha 90.000000
_cell_angle_beta 90.000000
_cell_angle_gamma 90.000000
_cell_volume 4044.857137
_symmetry_space_group_name_H-M "P M M M"
_symmetry_group_IT_number 47
_symmetry_cell_setting 'orthorhombic'
loop_
_space_group_symop_operation_xyz
x,y,z
-x,-y,z
x,-y,-z
-x,y,-z
-x,-y,-z
x,y,-z
-x,y,z
x,-y,z
loop_
_atom_site_type_symbol
_atom_site_label
_atom_site_fract_x
_atom_site_fract_y
_atom_site_fract_z
Si Si1 0.228981 0.579783 0.327411
Si Si2 0.062448 0.214116 0.826031
Si Si3 0.719089 0.212776 0.172091
Si Si4 0.245185 0.920153 0.671292
Si Si5 0.872129 0.921232 0.831986
Si Si6 0.659806 0.335032 0.327269
Si Si7 0.831063 0.699615 0.171989
Si Si8 0.565819 0.580909 0.831209
O O1 0.218914 0.583057 0.500000
O O2 0.225192 0.500000 0.267714
O O3 0.290590 0.610025 0.284640
O O4 0.179606 0.625420 0.251881
O O5 0.079596 0.134038 0.783450
O O6 0.109729 0.268745 0.765772
O O7 0.000000 0.230415 0.758015
O O8 0.059802 0.221522 0.000000
O O9 0.714840 0.134492 0.241147
O O10 0.670771 0.260876 0.246355
O O11 0.781296 0.244517 0.207522
O O12 0.706692 0.208546 0.000000
O O13 0.246883 0.901223 0.500000
O O14 0.181027 0.912215 0.725964
O O15 0.267284 0.000000 0.700616
O O16 0.898028 0.000000 0.818957
O O17 0.851876 0.905668 0.000000
O O18 0.656953 0.320949 0.500000
O O19 0.600652 0.367244 0.273530
O O20 0.834242 0.684292 0.000000
O O21 0.500000 0.599686 0.809928
O O22 0.577321 0.500000 0.784668
O O23 0.584200 0.592549 0.000000
#
# Coordination Sequence:
#
# PCOD8194201 Si02
#       8
#     8   8   8   8   8   8   8   8
#     4   9  18  31  46  65  88 113 140 177 225 271
#     4   9  16  27  43  63  86 109 139 183 226 265
#     4  10  18  30  47  66  90 119 152 189 229 274
#     4  10  19  29  43  64  90 120 151 184 225 271
#     4   9  16  27  43  62  84 112 146 180 216 263
#     4  10  19  30  46  70  97 123 154 193 234 275
#     4   9  17  29  44  64  85 108 140 177 221 271
#     4   9  18  32  48  67  96 135 173 203 230 263
#
# _framework density 15.822562
#
# number of rings (size 3 to 8) (size 9 to 14) (size 15 to 20)
#    0.000    2.625    1.250    1.875    0.000    3.250 
#    0.000    1.875    0.000    1.875    0.000    4.375 
#    0.000    0.500    0.000    5.250    0.000    2.250 
#
# Total GULP energy -793536.161403 kJ/mol
# GULP energy per Si atom -12399.002522 kJ/mol
# Density = 1.578655 g / cm^3
# Si number density = 15.822562 Si / 1000 Ang^3
#
#
#
# Elastic Constant Matrix: (Units=GPa)
#
#
# Indices 1 2 3 4 5 6 
#
# 1 73.8926 48.8605 32.5860 0.0000 0.0000 0.0000
# 2 48.8605 114.9395 48.3728 0.0000 0.0000 0.0000
# 3 32.5860 48.3728 63.2808 0.0000 0.0000 0.0000
# 4 0.0000 0.0000 0.0000 27.5682 0.0000 0.0000
# 5 0.0000 0.0000 0.0000 0.0000 16.0282 0.0000
# 6 0.0000 0.0000 0.0000 0.0000 0.0000 25.5983
#
#
#
# Elastic Compliance Matrix: (Units=1/GPa)
#
#
# Indices 1 2 3 4 5 6 
#
# 1 0.020099 -0.006175 -0.005630 0.000000 0.000000 0.000000
# 2 -0.006175 0.014724 -0.008075 0.000000 0.000000 0.000000
# 3 -0.005630 -0.008075 0.024875 0.000000 0.000000 0.000000
# 4 0.000000 0.000000 0.000000 0.036274 0.000000 0.000000
# 5 0.000000 0.000000 0.000000 0.000000 0.062390 0.000000
# 6 0.000000 0.000000 0.000000 0.000000 0.000000 0.039065
#
#
# Mechanical properties :
#
#
# Convention : Reuss Voigt Hill
#
# Bulk Modulus (GPa) = 50.15702 56.86130 53.50916
# Shear Modulus (GPa) = 20.50601 21.99185 21.24893
#
# Velocity S-wave (km/s) = 3.60390 3.73219 3.66861
# Velocity P-wave (km/s) = 7.00614 7.38831 7.19976
#
# Compressibility (1/GPa) = 0.01993739
#
# Stress axis : x y z
#
# Youngs Moduli (GPa) = 49.75447 67.91812 40.20178
#
# Poissons Ratio (x) = 0.41937 0.22632
# Poissons Ratio (y) = 0.30721 0.32464
# Poissons Ratio (z) = 0.28010 0.54846
#
# Static dielectric constant tensor:
#      x y z
#    x 2.843210 0.000000 0.000000 
#    y 0.000000 3.157110 0.000000 
#    z 0.000000 0.000000 2.914540 
# 
# 
# High freq. dielectric constant tensor:
#      x y z
#    x 1.573450 0.000000 0.000000 
#    y 0.000000 1.608320 0.000000 
#    z 0.000000 0.000000 1.601900 
# 
# From -- ./inp_files/10200.got.cif
#   From: 2010.03.12/outbox.cif.g09.slc.cpg/sg47_6_cif.got.tgz:10200.got - 2010.04.14 03:12:58.
