data_PCOD8194696
_publ_section_title
;
Structure prediction by ZEFSAII (Michael W. Deem and Ramdas Pophale) SiO2 
 PCOD8194696
Probable space group: P M M M
;
_chemical_formula_sum "Si O2"
_cell_formula_units_Z 52
_cell_length_a 27.629927
_cell_length_b 9.120548
_cell_length_c 12.890319
_cell_angle_alpha 90.000000
_cell_angle_beta 90.000000
_cell_angle_gamma 90.000000
_cell_volume 3248.361360
_symmetry_space_group_name_H-M "P M M M"
_symmetry_group_IT_number 47
_symmetry_cell_setting 'orthorhombic'
loop_
_space_group_symop_operation_xyz
x,y,z
-x,-y,z
x,-y,-z
-x,y,-z
-x,-y,-z
x,y,-z
-x,y,z
x,-y,z
loop_
_atom_site_type_symbol
_atom_site_label
_atom_site_fract_x
_atom_site_fract_y
_atom_site_fract_z
Si Si1 0.725119 0.333111 0.883676
Si Si2 0.143886 0.661867 0.621379
Si Si3 0.371349 0.826088 0.830298
Si Si4 0.235110 0.173496 0.700045
Si Si5 0.661599 0.172714 0.612999
Si Si6 0.946651 0.835443 0.376623
Si Si7 0.553643 0.826601 0.000000
O O1 0.719341 0.500000 0.844169
O O2 0.673365 0.254633 0.882344
O O3 0.763551 0.246196 0.813559
O O4 0.745593 0.329221 0.000000
O O5 0.136164 0.646822 0.500000
O O6 0.152182 0.500000 0.670181
O O7 0.189177 0.767066 0.639413
O O8 0.095185 0.731824 0.671000
O O9 0.374441 0.780099 0.707555
O O10 0.362437 0.000000 0.840156
O O11 0.418900 0.776817 0.894415
O O12 0.283757 0.222136 0.639527
O O13 0.231281 0.000000 0.710774
O O14 0.646540 0.240872 0.500000
O O15 0.660257 0.000000 0.602786
O O16 0.943153 0.837550 0.500000
O O17 0.000000 0.777966 0.342566
O O18 0.938635 0.000000 0.334216
O O19 0.500000 0.755609 0.000000
O O20 0.549500 0.000000 0.000000
#
# Coordination Sequence:
#
# PCOD8194696 Si02
#       7
#     8   8   8   8   8   8   4
#     4  10  19  30  45  64  88 113 136 172 221 267
#     4  10  19  28  39  58  87 119 148 183 225 266
#     4   9  16  27  45  64  84 113 147 180 214 262
#     4  10  19  29  43  61  83 115 150 181 212 257
#     4   8  14  24  39  60  82 107 142 179 212 249
#     4   8  14  25  40  56  75 105 147 189 226 266
#     4   9  16  26  43  67  91 113 145 189 228 263
#
# _framework density 16.008071000000001
#
# number of rings (size 3 to 8) (size 9 to 14) (size 15 to 20)
#    0.000    2.846    0.769    3.231    0.000    2.769 
#    0.000    1.538    0.000    5.538    0.000    3.231 
#    0.000    0.615    0.000   12.000    0.000    9.231 
#
# Total GULP energy -644321.491729 kJ/mol
# GULP energy per Si atom -12390.797918 kJ/mol
# Density = 1.597164 g / cm^3
# Si number density = 16.008071 Si / 1000 Ang^3
#
#
#
# Elastic Constant Matrix: (Units=GPa)
#
#
# Indices 1 2 3 4 5 6 
#
# 1 93.4737 28.2997 36.9125 0.0000 0.0000 0.0000
# 2 28.2997 67.8454 21.5729 0.0000 0.0000 0.0000
# 3 36.9125 21.5729 92.4933 0.0000 0.0000 0.0000
# 4 0.0000 0.0000 0.0000 16.2787 0.0000 0.0000
# 5 0.0000 0.0000 0.0000 0.0000 13.7577 0.0000
# 6 0.0000 0.0000 0.0000 0.0000 0.0000 9.9710
#
#
#
# Elastic Compliance Matrix: (Units=1/GPa)
#
#
# Indices 1 2 3 4 5 6 
#
# 1 0.013780 -0.004320 -0.004492 0.000000 0.000000 0.000000
# 2 -0.004320 0.017274 -0.002305 0.000000 0.000000 0.000000
# 3 -0.004492 -0.002305 0.013142 0.000000 0.000000 0.000000
# 4 0.000000 0.000000 0.000000 0.061430 0.000000 0.000000
# 5 0.000000 0.000000 0.000000 0.000000 0.072687 0.000000
# 6 0.000000 0.000000 0.000000 0.000000 0.000000 0.100291
#
#
# Mechanical properties :
#
#
# Convention : Reuss Voigt Hill
#
# Bulk Modulus (GPa) = 45.53152 47.48696 46.50924
# Shear Modulus (GPa) = 16.22549 19.13663 17.68106
#
# Velocity S-wave (km/s) = 3.18713 3.46126 3.32702
# Velocity P-wave (km/s) = 6.48447 6.76037 6.62385
#
# Compressibility (1/GPa) = 0.02196281
#
# Stress axis : x y z
#
# Youngs Moduli (GPa) = 72.57021 57.89003 76.09294
#
# Poissons Ratio (x) = 0.25006 0.34179
# Poissons Ratio (y) = 0.31347 0.17540
# Poissons Ratio (z) = 0.32597 0.13344
#
# Static dielectric constant tensor:
#      x y z
#    x 3.060460 0.000000 0.000000 
#    y 0.000000 3.054520 0.000000 
#    z 0.000000 0.000000 3.145220 
# 
# 
# High freq. dielectric constant tensor:
#      x y z
#    x 1.594120 0.000000 0.000000 
#    y 0.000000 1.605560 0.000000 
#    z 0.000000 0.000000 1.591450 
# 
# From -- ./inp_files/25691.got.cif
#   From: 2010.03.12/outbox.cif.g09.slc.cpg/sg47_13_cif.got.tgz:25691.got - 2010.04.14 03:12:58.
