data_PCOD8194344
_publ_section_title
;
Structure prediction by ZEFSAII (Michael W. Deem and Ramdas Pophale) SiO2 
 PCOD8194344
Probable space group: P M M M
;
_chemical_formula_sum "Si O2"
_cell_formula_units_Z 56
_cell_length_a 15.981524
_cell_length_b 19.927437
_cell_length_c 8.871426
_cell_angle_alpha 90.000000
_cell_angle_beta 90.000000
_cell_angle_gamma 90.000000
_cell_volume 2825.290248
_symmetry_space_group_name_H-M "P M M M"
_symmetry_group_IT_number 47
_symmetry_cell_setting 'orthorhombic'
loop_
_space_group_symop_operation_xyz
x,y,z
-x,-y,z
x,-y,-z
-x,y,-z
-x,-y,-z
x,y,-z
-x,y,z
x,-y,z
loop_
_atom_site_type_symbol
_atom_site_label
_atom_site_fract_x
_atom_site_fract_y
_atom_site_fract_z
Si Si1 0.094619 0.159043 0.824903
Si Si2 0.094959 0.427847 0.321270
Si Si3 0.656137 0.289747 0.326449
Si Si4 0.756274 0.923372 0.678721
Si Si5 0.846542 0.287343 0.326359
Si Si6 0.598269 0.427778 0.326904
Si Si7 0.407799 0.152105 0.679746
O O1 0.161723 0.113556 0.739635
O O2 0.098164 0.235752 0.768350
O O3 0.000000 0.132416 0.795126
O O4 0.116565 0.157123 0.000000
O O5 0.100263 0.428438 0.500000
O O6 0.131233 0.500000 0.261662
O O7 0.144663 0.363050 0.259994
O O8 0.000000 0.420613 0.266611
O O9 0.630652 0.299565 0.500000
O O10 0.750948 0.265699 0.309533
O O11 0.639921 0.362288 0.246678
O O12 0.601916 0.228561 0.258221
O O13 0.758427 0.916522 0.500000
O O14 0.668389 0.893375 0.742708
O O15 0.760328 0.000000 0.732330
O O16 0.876314 0.284491 0.500000
O O17 0.627361 0.430992 0.500000
O O18 0.500000 0.418272 0.314134
O O19 0.624589 0.500000 0.252249
O O20 0.402051 0.152578 0.500000
O O21 0.500000 0.125328 0.731135
#
# Coordination Sequence:
#
# PCOD8194344 Si02
#       7
#     8   8   8   8   8   8   8
#     4  11  24  40  58  80 108 144 183 223 270 323
#     4   8  14  24  39  64  98 133 170 216 272 326
#     4   9  15  23  39  65  97 133 174 216 257 304
#     4  10  21  38  60  87 115 140 173 216 262 318
#     4  10  18  30  51  77 105 138 180 229 274 318
#     4   8  13  20  30  51  91 139 177 209 253 310
#     4   9  16  28  49  78 111 142 172 211 259 310
#
# _framework density 19.820972000000001
#
# number of rings (size 3 to 8) (size 9 to 14) (size 15 to 20)
#    0.000    2.714    1.429    2.143    0.000    4.857 
#    0.000    5.714    0.000    0.857    0.000    3.000 
#    0.000    0.000    0.000    1.571    0.000    1.429 
#
# Total GULP energy -693743.827335 kJ/mol
# GULP energy per Si atom -12388.282631 kJ/mol
# Density = 1.977586 g / cm^3
# Si number density = 19.820972 Si / 1000 Ang^3
#
#
#
# Elastic Constant Matrix: (Units=GPa)
#
#
# Indices 1 2 3 4 5 6 
#
# 1 99.8112 63.0074 12.7584 0.0000 0.0000 0.0000
# 2 63.0074 153.3896 18.6173 0.0000 0.0000 0.0000
# 3 12.7584 18.6173 12.2644 0.0000 0.0000 0.0000
# 4 0.0000 0.0000 0.0000 3.2013 0.0000 0.0000
# 5 0.0000 0.0000 0.0000 0.0000 6.1489 0.0000
# 6 0.0000 0.0000 0.0000 0.0000 0.0000 30.9221
#
#
#
# Elastic Compliance Matrix: (Units=1/GPa)
#
#
# Indices 1 2 3 4 5 6 
#
# 1 0.014022 -0.004890 -0.007163 0.000000 0.000000 0.000000
# 2 -0.004890 0.009697 -0.009633 0.000000 0.000000 0.000000
# 3 -0.007163 -0.009633 0.103612 0.000000 0.000000 0.000000
# 4 0.000000 0.000000 0.000000 0.312375 0.000000 0.000000
# 5 0.000000 0.000000 0.000000 0.000000 0.162631 0.000000
# 6 0.000000 0.000000 0.000000 0.000000 0.000000 0.032339
#
#
# Mechanical properties :
#
#
# Convention : Reuss Voigt Hill
#
# Bulk Modulus (GPa) = 11.91079 50.47015 31.19047
# Shear Modulus (GPa) = 7.08181 19.45993 13.27087
#
# Velocity S-wave (km/s) = 1.89226 3.13674 2.59035
# Velocity P-wave (km/s) = 3.28579 6.21588 4.97160
#
# Compressibility (1/GPa) = 0.08395752
#
# Stress axis : x y z
#
# Youngs Moduli (GPa) = 71.31879 103.12147 9.65143
#
# Poissons Ratio (x) = 0.50429 0.06913
# Poissons Ratio (y) = 0.34876 0.09297
# Poissons Ratio (z) = 0.51086 0.99340
#
# Static dielectric constant tensor:
#      x y z
#    x 3.644150 0.000000 0.000000 
#    y 0.000000 4.205690 0.000000 
#    z 0.000000 0.000000 2.864060 
# 
# 
# High freq. dielectric constant tensor:
#      x y z
#    x 1.776640 0.000000 0.000000 
#    y 0.000000 1.792970 0.000000 
#    z 0.000000 0.000000 1.682370 
# 
# From -- ./inp_files/7272.got.cif
#   From: 2010.03.12/outbox.cif.g09.slc.cpg/sg47_4_cif.got.tgz:7272.got - 2010.04.14 03:12:58.
