data_PCOD8194863
_publ_section_title
;
Structure prediction by ZEFSAII (Michael W. Deem and Ramdas Pophale) SiO2 
 PCOD8194863
Probable space group: P M M M
;
_chemical_formula_sum "Si O2"
_cell_formula_units_Z 56
_cell_length_a 14.669693
_cell_length_b 15.895396
_cell_length_c 13.809953
_cell_angle_alpha 90.000000
_cell_angle_beta 90.000000
_cell_angle_gamma 90.000000
_cell_volume 3220.212842
_symmetry_space_group_name_H-M "P M M M"
_symmetry_group_IT_number 47
_symmetry_cell_setting 'orthorhombic'
loop_
_space_group_symop_operation_xyz
x,y,z
-x,-y,z
x,-y,-z
-x,y,-z
-x,-y,-z
x,y,-z
-x,y,z
x,-y,z
loop_
_atom_site_type_symbol
_atom_site_label
_atom_site_fract_x
_atom_site_fract_y
_atom_site_fract_z
Si Si1 0.898020 0.335335 0.205543
Si Si2 0.603128 0.094027 0.209469
Si Si3 0.733178 0.592956 0.112601
Si Si4 0.895461 0.842810 0.111021
Si Si5 0.104431 0.763791 0.391035
Si Si6 0.790884 0.906738 0.291439
Si Si7 0.599689 0.734787 0.886856
O O1 0.828635 0.406085 0.169736
O O2 0.886544 0.255265 0.135705
O O3 0.874261 0.311328 0.316683
O O4 0.000000 0.372073 0.198660
O O5 0.500000 0.104971 0.251921
O O6 0.680539 0.103463 0.291798
O O7 0.625464 0.167973 0.132803
O O8 0.611645 0.000000 0.162048
O O9 0.689637 0.500000 0.127915
O O10 0.669253 0.666360 0.157971
O O11 0.752035 0.609603 0.000000
O O12 0.830178 0.894345 0.182706
O O13 0.000000 0.872341 0.125786
O O14 0.864239 0.857517 0.000000
O O15 0.122897 0.731848 0.500000
O O16 0.167867 0.843290 0.369116
O O17 0.000000 0.793266 0.376611
O O18 0.817024 0.000000 0.326075
O O19 0.500000 0.715185 0.842762
O O20 0.598289 0.720364 0.000000
#
# Coordination Sequence:
#
# PCOD8194863 Si02
#       7
#     8   8   8   8   8   8   8
#     4   9  17  30  47  65  88 119 153 189 228 270
#     4   9  18  31  46  66  92 122 158 200 242 282
#     4  10  20  31  45  69  99 129 160 192 227 273
#     4   9  17  28  42  61  87 121 158 193 230 275
#     4   9  18  32  50  71  92 117 153 196 240 285
#     4  10  19  29  43  64  91 123 156 193 239 287
#     4   9  17  29  45  64  89 124 162 199 238 276
#
# _framework density 17.390153999999999
#
# number of rings (size 3 to 8) (size 9 to 14) (size 15 to 20)
#    0.000    2.714    0.000    3.429    0.000    5.143 
#    0.000    6.429    0.000    0.857    0.000    4.000 
#    0.000    0.000    0.000    5.143    0.000    0.143 
#
# Total GULP energy -693973.001664 kJ/mol
# GULP energy per Si atom -12392.375030 kJ/mol
# Density = 1.735057 g / cm^3
# Si number density = 17.390154 Si / 1000 Ang^3
#
#
#
# Elastic Constant Matrix: (Units=GPa)
#
#
# Indices 1 2 3 4 5 6 
#
# 1 86.6498 46.2697 25.0992 0.0000 0.0000 0.0000
# 2 46.2697 91.9856 21.0877 0.0000 0.0000 0.0000
# 3 25.0992 21.0877 63.7255 0.0000 0.0000 0.0000
# 4 0.0000 0.0000 0.0000 14.7418 0.0000 0.0000
# 5 0.0000 0.0000 0.0000 0.0000 14.4558 0.0000
# 6 0.0000 0.0000 0.0000 0.0000 0.0000 22.1837
#
#
#
# Elastic Compliance Matrix: (Units=1/GPa)
#
#
# Indices 1 2 3 4 5 6 
#
# 1 0.016720 -0.007467 -0.004114 0.000000 0.000000 0.000000
# 2 -0.007467 0.015098 -0.002055 0.000000 0.000000 0.000000
# 3 -0.004114 -0.002055 0.017993 0.000000 0.000000 0.000000
# 4 0.000000 0.000000 0.000000 0.067834 0.000000 0.000000
# 5 0.000000 0.000000 0.000000 0.000000 0.069176 0.000000
# 6 0.000000 0.000000 0.000000 0.000000 0.000000 0.045078
#
#
# Mechanical properties :
#
#
# Convention : Reuss Voigt Hill
#
# Bulk Modulus (GPa) = 44.36998 47.47491 45.92245
# Shear Modulus (GPa) = 18.74864 20.26987 19.50926
#
# Velocity S-wave (km/s) = 3.28703 3.41778 3.35305
# Velocity P-wave (km/s) = 6.32265 6.55242 6.43856
#
# Compressibility (1/GPa) = 0.02253776
#
# Stress axis : x y z
#
# Youngs Moduli (GPa) = 59.80953 66.23212 55.57734
#
# Poissons Ratio (x) = 0.49455 0.22867
# Poissons Ratio (y) = 0.44660 0.11423
# Poissons Ratio (z) = 0.24608 0.13613
#
# Static dielectric constant tensor:
#      x y z
#    x 3.514490 0.000000 0.000000 
#    y 0.000000 3.157870 0.000000 
#    z 0.000000 0.000000 2.935090 
# 
# 
# High freq. dielectric constant tensor:
#      x y z
#    x 1.681480 0.000000 0.000000 
#    y 0.000000 1.660570 0.000000 
#    z 0.000000 0.000000 1.625420 
# 
# From -- ./inp_files/23792.got.cif
#   From: 2010.03.12/outbox.cif.g09.slc.cpg/sg47_12_cif.got.tgz:23792.got - 2010.04.14 03:12:58.
