data_PCOD8194138
_publ_section_title
;
Structure prediction by ZEFSAII (Michael W. Deem and Ramdas Pophale) SiO2 
 PCOD8194138
Probable space group: P M M M
;
_chemical_formula_sum "Si O2"
_cell_formula_units_Z 52
_cell_length_a 27.929030
_cell_length_b 9.200431
_cell_length_c 11.797480
_cell_angle_alpha 90.000000
_cell_angle_beta 90.000000
_cell_angle_gamma 90.000000
_cell_volume 3031.470001
_symmetry_space_group_name_H-M "P M M M"
_symmetry_group_IT_number 47
_symmetry_cell_setting 'orthorhombic'
loop_
_space_group_symop_operation_xyz
x,y,z
-x,-y,z
x,-y,-z
-x,y,-z
-x,-y,-z
x,y,-z
-x,y,z
x,-y,z
loop_
_atom_site_type_symbol
_atom_site_label
_atom_site_fract_x
_atom_site_fract_y
_atom_site_fract_z
Si Si1 0.814778 0.328563 0.226027
Si Si2 0.907677 0.331704 0.369733
Si Si3 0.301850 0.663414 0.000000
Si Si4 0.724823 0.673051 0.373101
Si Si5 0.205258 0.826939 0.000000
Si Si6 0.638573 0.333605 0.224876
Si Si7 0.000000 0.164147 0.634878
Si Si8 0.445785 0.829734 0.128459
O O1 0.810971 0.500000 0.200135
O O2 0.860670 0.290006 0.300676
O O3 0.767960 0.271846 0.293553
O O4 0.820269 0.239932 0.110158
O O5 0.897497 0.290522 0.500000
O O6 0.920682 0.500000 0.357518
O O7 0.952422 0.242788 0.318928
O O8 0.334114 0.688115 0.891878
O O9 0.279610 0.500000 0.000000
O O10 0.260624 0.782390 0.000000
O O11 0.730890 0.736046 0.500000
O O12 0.726508 0.500000 0.374909
O O13 0.673567 0.725655 0.323893
O O14 0.200205 0.000000 0.000000
O O15 0.624977 0.500000 0.247172
O O16 0.589225 0.245036 0.219327
O O17 0.000000 0.173349 0.500000
O O18 0.000000 0.000000 0.679773
O O19 0.500000 0.791698 0.164154
O O20 0.436683 0.000000 0.133405
O O21 0.436337 0.773588 0.000000
#
# Coordination Sequence:
#
# PCOD8194138 Si02
#       8
#     8   8   4   8   4   8   4   8
#     4  10  19  34  54  74 101 134 166 205 250 294
#     4   9  17  30  52  80 104 130 170 214 251 293
#     4  10  18  32  49  71  97 128 166 202 245 292
#     4   9  17  30  50  75 100 127 161 200 244 292
#     4  12  24  34  48  72 102 136 172 205 240 290
#     4  10  18  29  49  73  98 125 157 200 244 290
#     4   9  17  29  47  72 105 142 171 203 253 301
#     4   9  18  31  46  67  96 127 158 196 244 294
#
# _framework density 17.153395
#
# number of rings (size 3 to 8) (size 9 to 14) (size 15 to 20)
#    0.000    2.385    2.308    1.846    0.000    4.308 
#    0.000    0.769    0.000    3.692    0.000    6.462 
#    0.000    0.000    0.000    0.000    0.000    0.000 
#
# Total GULP energy -644729.170129 kJ/mol
# GULP energy per Si atom -12398.637887 kJ/mol
# Density = 1.711435 g / cm^3
# Si number density = 17.153395 Si / 1000 Ang^3
#
#
#
# Elastic Constant Matrix: (Units=GPa)
#
#
# Indices 1 2 3 4 5 6 
#
# 1 140.3218 56.6257 52.6504 0.0000 0.0000 0.0000
# 2 56.6257 64.5731 37.2825 0.0000 0.0000 0.0000
# 3 52.6504 37.2825 98.8675 0.0000 0.0000 0.0000
# 4 0.0000 0.0000 0.0000 11.4680 0.0000 0.0000
# 5 0.0000 0.0000 0.0000 0.0000 49.4601 0.0000
# 6 0.0000 0.0000 0.0000 0.0000 0.0000 19.8603
#
#
#
# Elastic Compliance Matrix: (Units=1/GPa)
#
#
# Indices 1 2 3 4 5 6 
#
# 1 0.011694 -0.008512 -0.003017 0.000000 0.000000 0.000000
# 2 -0.008512 0.025993 -0.005269 0.000000 0.000000 0.000000
# 3 -0.003017 -0.005269 0.013708 0.000000 0.000000 0.000000
# 4 0.000000 0.000000 0.000000 0.087199 0.000000 0.000000
# 5 0.000000 0.000000 0.000000 0.000000 0.020218 0.000000
# 6 0.000000 0.000000 0.000000 0.000000 0.000000 0.050352
#
#
# Mechanical properties :
#
#
# Convention : Reuss Voigt Hill
#
# Bulk Modulus (GPa) = 56.18583 66.31993 61.25288
# Shear Modulus (GPa) = 20.10506 26.63794 23.37150
#
# Velocity S-wave (km/s) = 3.42727 3.94499 3.69521
# Velocity P-wave (km/s) = 6.96331 7.71346 7.34796
#
# Compressibility (1/GPa) = 0.01779808
#
# Stress axis : x y z
#
# Youngs Moduli (GPa) = 85.51601 38.47186 72.94910
#
# Poissons Ratio (x) = 0.32749 0.22011
# Poissons Ratio (y) = 0.72795 0.38435
# Poissons Ratio (z) = 0.25803 0.20270
#
# Static dielectric constant tensor:
#      x y z
#    x 3.269800 0.000000 0.000000 
#    y 0.000000 2.991340 0.000000 
#    z 0.000000 0.000000 3.219460 
# 
# 
# High freq. dielectric constant tensor:
#      x y z
#    x 1.667180 0.000000 0.000000 
#    y 0.000000 1.638150 0.000000 
#    z 0.000000 0.000000 1.640910 
# 
# From -- ./inp_files/13290.got.cif
#   From: 2010.03.12/outbox.cif.g09.slc.cpg/sg47_7_cif.got.tgz:13290.got - 2010.04.14 03:12:58.
