data_PCOD8194709
_publ_section_title
;
Structure prediction by ZEFSAII (Michael W. Deem and Ramdas Pophale) SiO2 
 PCOD8194709
Probable space group: P M M M
;
_chemical_formula_sum "Si O2"
_cell_formula_units_Z 64
_cell_length_a 19.076009
_cell_length_b 23.754477
_cell_length_c 9.306190
_cell_angle_alpha 90.000000
_cell_angle_beta 90.000000
_cell_angle_gamma 90.000000
_cell_volume 4217.012679
_symmetry_space_group_name_H-M "P M M M"
_symmetry_group_IT_number 47
_symmetry_cell_setting 'orthorhombic'
loop_
_space_group_symop_operation_xyz
x,y,z
-x,-y,z
x,-y,-z
-x,y,-z
-x,-y,-z
x,y,-z
-x,y,z
x,-y,z
loop_
_atom_site_type_symbol
_atom_site_label
_atom_site_fract_x
_atom_site_fract_y
_atom_site_fract_z
Si Si1 0.079312 0.564660 0.332242
Si Si2 0.156666 0.341777 0.168039
Si Si3 0.421739 0.130884 0.835775
Si Si4 0.077465 0.231289 0.171224
Si Si5 0.579135 0.245402 0.332132
Si Si6 0.710179 0.938032 0.830031
Si Si7 0.791689 0.832521 0.829383
Si Si8 0.293549 0.723319 0.167520
O O1 0.087521 0.576304 0.500000
O O2 0.095729 0.500000 0.295963
O O3 0.136318 0.601578 0.249401
O O4 0.000000 0.579577 0.282966
O O5 0.105880 0.291766 0.222373
O O6 0.237281 0.325602 0.202411
O O7 0.146350 0.351974 0.000000
O O8 0.500000 0.106082 0.820175
O O9 0.410974 0.183826 0.733816
O O10 0.368215 0.081877 0.789957
O O11 0.406832 0.150406 0.000000
O O12 0.130127 0.182376 0.227785
O O13 0.000000 0.220748 0.235655
O O14 0.075923 0.230485 0.000000
O O15 0.595220 0.242103 0.500000
O O16 0.500000 0.267556 0.303225
O O17 0.635095 0.287390 0.257299
O O18 0.766115 0.892715 0.767005
O O19 0.723461 0.000000 0.762148
O O20 0.718741 0.941640 0.000000
O O21 0.738007 0.783513 0.783412
O O22 0.792978 0.834462 0.000000
O O23 0.312228 0.723247 0.000000
#
# Coordination Sequence:
#
# PCOD8194709 Si02
#       8
#     8   8   8   8   8   8   8   8
#     4   9  18  31  44  60  89 129 162 182 206 244
#     4   9  17  27  43  66  87 108 143 187 218 246
#     4   9  16  26  40  55  73 100 131 164 204 248
#     4   8  13  21  35  55  78 103 129 162 206 250
#     4  10  19  28  40  60  84 109 137 167 201 248
#     4   9  15  22  35  54  73  95 128 170 208 243
#     4   8  13  22  35  52  74  97 126 163 203 248
#     4   9  16  28  44  61  82 108 138 172 214 258
#
# _framework density 15.176621000000001
#
# number of rings (size 3 to 8) (size 9 to 14) (size 15 to 20)
#    0.000    3.125    1.250    2.625    0.000    2.500 
#    0.000    1.875    0.000    0.750    0.000    4.375 
#    0.000    0.500    0.000    5.500    0.000    8.250 
#
# Total GULP energy -793116.589921 kJ/mol
# GULP energy per Si atom -12392.446718 kJ/mol
# Density = 1.514208 g / cm^3
# Si number density = 15.176621 Si / 1000 Ang^3
#
#
#
# Elastic Constant Matrix: (Units=GPa)
#
#
# Indices 1 2 3 4 5 6 
#
# 1 126.3919 60.5589 40.9678 0.0000 0.0000 0.0000
# 2 60.5589 89.7450 31.0334 0.0000 0.0000 0.0000
# 3 40.9678 31.0334 40.3630 0.0000 0.0000 0.0000
# 4 0.0000 0.0000 0.0000 7.9066 0.0000 0.0000
# 5 0.0000 0.0000 0.0000 0.0000 17.1368 0.0000
# 6 0.0000 0.0000 0.0000 0.0000 0.0000 24.0916
#
#
#
# Elastic Compliance Matrix: (Units=1/GPa)
#
#
# Indices 1 2 3 4 5 6 
#
# 1 0.013890 -0.006127 -0.009388 0.000000 0.000000 0.000000
# 2 -0.006127 0.017880 -0.007529 0.000000 0.000000 0.000000
# 3 -0.009388 -0.007529 0.040092 0.000000 0.000000 0.000000
# 4 0.000000 0.000000 0.000000 0.126477 0.000000 0.000000
# 5 0.000000 0.000000 0.000000 0.000000 0.058354 0.000000
# 6 0.000000 0.000000 0.000000 0.000000 0.000000 0.041508
#
#
# Mechanical properties :
#
#
# Convention : Reuss Voigt Hill
#
# Bulk Modulus (GPa) = 38.79571 57.95776 48.37674
# Shear Modulus (GPa) = 14.16904 18.08964 16.12934
#
# Velocity S-wave (km/s) = 3.05882 3.45620 3.26356
# Velocity P-wave (km/s) = 6.17199 7.36198 6.79309
#
# Compressibility (1/GPa) = 0.02577604
#
# Stress axis : x y z
#
# Youngs Moduli (GPa) = 71.99220 55.92704 24.94235
#
# Poissons Ratio (x) = 0.34265 0.23416
# Poissons Ratio (y) = 0.44108 0.18779
# Poissons Ratio (z) = 0.67586 0.42107
#
# Static dielectric constant tensor:
#      x y z
#    x 3.244710 0.000000 0.000000 
#    y 0.000000 2.823830 0.000000 
#    z 0.000000 0.000000 2.579820 
# 
# 
# High freq. dielectric constant tensor:
#      x y z
#    x 1.587010 0.000000 0.000000 
#    y 0.000000 1.550730 0.000000 
#    z 0.000000 0.000000 1.545560 
# 
# From -- ./inp_files/11933.got.cif
#   From: 2010.03.12/outbox.cif.g09.slc.cpg/sg47_6_cif.got.tgz:11933.got - 2010.04.14 03:12:58.
