data_PCOD8194956
_publ_section_title
;
Structure prediction by ZEFSAII (Michael W. Deem and Ramdas Pophale) SiO2 
 PCOD8194956
Probable space group: P M M M
;
_chemical_formula_sum "Si O2"
_cell_formula_units_Z 64
_cell_length_a 9.462170
_cell_length_b 14.488480
_cell_length_c 26.014325
_cell_angle_alpha 90.000000
_cell_angle_beta 90.000000
_cell_angle_gamma 90.000000
_cell_volume 3566.367830
_symmetry_space_group_name_H-M "P M M M"
_symmetry_group_IT_number 47
_symmetry_cell_setting 'orthorhombic'
loop_
_space_group_symop_operation_xyz
x,y,z
-x,-y,z
x,-y,-z
-x,y,-z
-x,-y,-z
x,y,-z
-x,y,z
x,-y,z
loop_
_atom_site_type_symbol
_atom_site_label
_atom_site_fract_x
_atom_site_fract_y
_atom_site_fract_z
Si Si1 0.663480 0.106898 0.358053
Si Si2 0.657251 0.609170 0.705062
Si Si3 0.839289 0.603809 0.390046
Si Si4 0.836378 0.209262 0.845526
Si Si5 0.161334 0.603385 0.198431
Si Si6 0.832168 0.895986 0.943537
Si Si7 0.162574 0.785548 0.442927
Si Si8 0.664191 0.107184 0.758521
O O1 0.500000 0.123349 0.370281
O O2 0.752030 0.162328 0.399464
O O3 0.697935 0.140113 0.299851
O O4 0.702864 0.000000 0.363364
O O5 0.500000 0.653135 0.705753
O O6 0.648629 0.500000 0.703401
O O7 0.740113 0.643459 0.655056
O O8 0.740025 0.639378 0.755776
O O9 0.795774 0.500000 0.407553
O O10 0.821351 0.674523 0.437097
O O11 0.000000 0.603416 0.369421
O O12 0.819254 0.320948 0.846643
O O13 0.772175 0.171112 0.899135
O O14 0.756518 0.166603 0.797248
O O15 0.000000 0.180775 0.840109
O O16 0.203470 0.500000 0.179111
O O17 0.000000 0.602663 0.218316
O O18 0.000000 0.891841 0.944375
O O19 0.781299 0.000000 0.931407
O O20 0.775006 0.865354 0.000000
O O21 0.218078 0.811295 0.500000
O O22 0.000000 0.814846 0.436989
O O23 0.500000 0.122966 0.770933
O O24 0.703608 0.000000 0.764917
#
# Coordination Sequence:
#
# PCOD8194956 Si02
#       8
#     8   8   8   8   8   8   8   8
#     4   9  20  39  58  74  96 129 164 197 244 306
#     4   9  17  29  46  68  92 121 161 203 239 282
#     4   9  18  33  52  72  98 131 161 193 239 294
#     4  10  19  29  48  76 100 130 173 211 241 286
#     4   9  18  31  44  63  98 137 167 200 245 290
#     4   8  14  26  45  70 100 130 162 207 257 297
#     4  10  22  37  53  76 101 125 161 207 248 289
#     4   9  19  35  52  73 103 132 156 192 248 305
#
# _framework density 17.945429000000001
#
# number of rings (size 3 to 8) (size 9 to 14) (size 15 to 20)
#    0.000    2.875    0.000    1.875    1.750    4.750 
#    0.000    3.750    0.000    0.750    0.000    7.000 
#    0.000    0.000    0.000    4.250    0.000    4.625 
#
# Total GULP energy -793230.710677 kJ/mol
# GULP energy per Si atom -12394.229854 kJ/mol
# Density = 1.790458 g / cm^3
# Si number density = 17.945429 Si / 1000 Ang^3
#
#
#
# Elastic Constant Matrix: (Units=GPa)
#
#
# Indices 1 2 3 4 5 6 
#
# 1 59.1808 35.3109 45.0517 0.0000 0.0000 0.0000
# 2 35.3109 80.6192 71.1001 0.0000 0.0000 0.0000
# 3 45.0517 71.1001 131.9485 0.0000 0.0000 0.0000
# 4 0.0000 0.0000 0.0000 26.8579 0.0000 0.0000
# 5 0.0000 0.0000 0.0000 0.0000 9.2868 0.0000
# 6 0.0000 0.0000 0.0000 0.0000 0.0000 19.2013
#
#
#
# Elastic Compliance Matrix: (Units=1/GPa)
#
#
# Indices 1 2 3 4 5 6 
#
# 1 0.024438 -0.006374 -0.004909 0.000000 0.000000 0.000000
# 2 -0.006374 0.025299 -0.011456 0.000000 0.000000 0.000000
# 3 -0.004909 -0.011456 0.015428 0.000000 0.000000 0.000000
# 4 0.000000 0.000000 0.000000 0.037233 0.000000 0.000000
# 5 0.000000 0.000000 0.000000 0.000000 0.107679 0.000000
# 6 0.000000 0.000000 0.000000 0.000000 0.000000 0.052080
#
#
# Mechanical properties :
#
#
# Convention : Reuss Voigt Hill
#
# Bulk Modulus (GPa) = 50.79715 63.85266 57.32491
# Shear Modulus (GPa) = 15.91354 19.08826 17.50090
#
# Velocity S-wave (km/s) = 2.98111 3.26495 3.12625
# Velocity P-wave (km/s) = 6.34171 7.06202 6.71153
#
# Compressibility (1/GPa) = 0.01968614
#
# Stress axis : x y z
#
# Youngs Moduli (GPa) = 40.92035 39.52691 64.81733
#
# Poissons Ratio (x) = 0.25195 0.31820
# Poissons Ratio (y) = 0.26083 0.74255
# Poissons Ratio (z) = 0.20089 0.45282
#
# Static dielectric constant tensor:
#      x y z
#    x 3.261090 0.000000 0.000000 
#    y 0.000000 3.406670 0.000000 
#    z 0.000000 0.000000 3.344750 
# 
# 
# High freq. dielectric constant tensor:
#      x y z
#    x 1.677210 0.000000 0.000000 
#    y 0.000000 1.699340 0.000000 
#    z 0.000000 0.000000 1.676130 
# 
# From -- ./inp_files/32122.got.cif
#   From: 2010.03.12/outbox.cif.g09.slc.cpg/sg47_17_cif.got.tgz:32122.got - 2010.04.14 03:12:58.
