data_PCOD8194391
_publ_section_title
;
Structure prediction by ZEFSAII (Michael W. Deem and Ramdas Pophale) SiO2 
 PCOD8194391
Probable space group: P M M M
;
_chemical_formula_sum "Si O2"
_cell_formula_units_Z 64
_cell_length_a 20.443043
_cell_length_b 20.021376
_cell_length_c 9.056931
_cell_angle_alpha 90.000000
_cell_angle_beta 90.000000
_cell_angle_gamma 90.000000
_cell_volume 3706.982390
_symmetry_space_group_name_H-M "P M M M"
_symmetry_group_IT_number 47
_symmetry_cell_setting 'orthorhombic'
loop_
_space_group_symop_operation_xyz
x,y,z
-x,-y,z
x,-y,-z
-x,y,-z
-x,-y,-z
x,y,-z
-x,y,z
x,-y,z
loop_
_atom_site_type_symbol
_atom_site_label
_atom_site_fract_x
_atom_site_fract_y
_atom_site_fract_z
Si Si1 0.113700 0.297610 0.173930
Si Si2 0.191353 0.922968 0.327628
Si Si3 0.575052 0.923327 0.329747
Si Si4 0.927541 0.831046 0.669181
Si Si5 0.121718 0.573020 0.328290
Si Si6 0.689296 0.852037 0.175489
Si Si7 0.263449 0.713189 0.171848
Si Si8 0.742151 0.571050 0.170547
O O1 0.072849 0.235936 0.234900
O O2 0.085545 0.367292 0.240512
O O3 0.188663 0.288357 0.227262
O O4 0.105778 0.300496 0.000000
O O5 0.205552 0.911783 0.500000
O O6 0.126694 0.883439 0.274508
O O7 0.253914 0.899055 0.237084
O O8 0.178573 0.000000 0.291418
O O9 0.593861 0.912474 0.500000
O O10 0.500000 0.903668 0.301405
O O11 0.618832 0.876203 0.228702
O O12 0.587349 0.000000 0.285271
O O13 0.913458 0.811842 0.500000
O O14 0.000000 0.863202 0.686308
O O15 0.120548 0.591042 0.500000
O O16 0.088340 0.500000 0.300406
O O17 0.196059 0.568031 0.275395
O O18 0.698710 0.776483 0.240994
O O19 0.691428 0.855270 0.000000
O O20 0.297053 0.640218 0.208837
O O21 0.263682 0.727119 0.000000
O O22 0.702549 0.500000 0.190753
O O23 0.766047 0.577410 0.000000
#
# Coordination Sequence:
#
# PCOD8194391 Si02
#       8
#     8   8   8   8   8   8   8   8
#     4  10  18  31  49  67  92 125 160 196 238 293
#     4  10  21  36  53  73  97 126 161 200 244 296
#     4   9  19  36  54  71  96 131 168 204 242 287
#     4  10  21  36  53  72  93 120 158 204 252 299
#     4   9  16  25  40  65  94 121 152 193 239 284
#     4  11  20  31  49  75 106 133 161 199 241 287
#     4   8  15  26  41  65  95 124 154 193 237 278
#     4   8  13  23  39  59  87 125 164 196 231 279
#
# _framework density 17.264717000000001
#
# number of rings (size 3 to 8) (size 9 to 14) (size 15 to 20)
#    0.000    2.625    1.250    2.625    0.000    3.500 
#    0.000    2.500    0.000    0.375    0.000    4.375 
#    0.000    0.500    0.000    6.250    0.000    1.125 
#
# Total GULP energy -792921.705937 kJ/mol
# GULP energy per Si atom -12389.401655 kJ/mol
# Density = 1.722542 g / cm^3
# Si number density = 17.264717 Si / 1000 Ang^3
#
#
#
# Elastic Constant Matrix: (Units=GPa)
#
#
# Indices 1 2 3 4 5 6 
#
# 1 65.2431 45.4926 25.6114 0.0000 0.0000 0.0000
# 2 45.4926 141.2894 42.8192 0.0000 0.0000 0.0000
# 3 25.6114 42.8192 58.8971 0.0000 0.0000 0.0000
# 4 0.0000 0.0000 0.0000 24.6512 0.0000 0.0000
# 5 0.0000 0.0000 0.0000 0.0000 15.8403 0.0000
# 6 0.0000 0.0000 0.0000 0.0000 0.0000 12.5232
#
#
#
# Elastic Compliance Matrix: (Units=1/GPa)
#
#
# Indices 1 2 3 4 5 6 
#
# 1 0.021030 -0.005130 -0.005415 0.000000 0.000000 0.000000
# 2 -0.005130 0.010329 -0.005279 0.000000 0.000000 0.000000
# 3 -0.005415 -0.005279 0.023171 0.000000 0.000000 0.000000
# 4 0.000000 0.000000 0.000000 0.040566 0.000000 0.000000
# 5 0.000000 0.000000 0.000000 0.000000 0.063130 0.000000
# 6 0.000000 0.000000 0.000000 0.000000 0.000000 0.079852
#
#
# Mechanical properties :
#
#
# Convention : Reuss Voigt Hill
#
# Bulk Modulus (GPa) = 43.70151 54.80843 49.25497
# Shear Modulus (GPa) = 18.02749 20.70338 19.36543
#
# Velocity S-wave (km/s) = 3.23488 3.46666 3.35278
# Velocity P-wave (km/s) = 6.27058 6.91654 6.60147
#
# Compressibility (1/GPa) = 0.02288251
#
# Stress axis : x y z
#
# Youngs Moduli (GPa) = 47.55060 96.81241 43.15693
#
# Poissons Ratio (x) = 0.49667 0.23371
# Poissons Ratio (y) = 0.24394 0.22781
# Poissons Ratio (z) = 0.25750 0.51104
#
# Static dielectric constant tensor:
#      x y z
#    x 2.840730 0.000000 0.000000 
#    y 0.000000 3.795120 0.000000 
#    z 0.000000 0.000000 3.124400 
# 
# 
# High freq. dielectric constant tensor:
#      x y z
#    x 1.612800 0.000000 0.000000 
#    y 0.000000 1.688170 0.000000 
#    z 0.000000 0.000000 1.660020 
# 
# From -- ./inp_files/11793.got.cif
#   From: 2010.03.12/outbox.cif.g09.slc.cpg/sg47_6_cif.got.tgz:11793.got - 2010.04.14 03:12:58.
