data_PCOD8194807
_publ_section_title
;
Structure prediction by ZEFSAII (Michael W. Deem and Ramdas Pophale) SiO2 
 PCOD8194807
Probable space group: P M M M
;
_chemical_formula_sum "Si O2"
_cell_formula_units_Z 64
_cell_length_a 13.762146
_cell_length_b 9.261356
_cell_length_c 34.463909
_cell_angle_alpha 90.000000
_cell_angle_beta 90.000000
_cell_angle_gamma 90.000000
_cell_volume 4392.636584
_symmetry_space_group_name_H-M "P M M M"
_symmetry_group_IT_number 47
_symmetry_cell_setting 'orthorhombic'
loop_
_space_group_symop_operation_xyz
x,y,z
-x,-y,z
x,-y,-z
-x,y,-z
-x,-y,-z
x,y,-z
-x,y,z
x,-y,z
loop_
_atom_site_type_symbol
_atom_site_label
_atom_site_fract_x
_atom_site_fract_y
_atom_site_fract_z
Si Si1 0.290868 0.331059 0.117857
Si Si2 0.388691 0.329834 0.196348
Si Si3 0.890108 0.668064 0.835607
Si Si4 0.888981 0.832817 0.310168
Si Si5 0.783970 0.829929 0.230980
Si Si6 0.389811 0.671841 0.042481
Si Si7 0.884204 0.338037 0.615095
Si Si8 0.884455 0.162187 0.542759
O O1 0.304983 0.500000 0.113142
O O2 0.360212 0.278632 0.152931
O O3 0.179182 0.291586 0.127969
O O4 0.322843 0.260054 0.076792
O O5 0.500000 0.289358 0.204571
O O6 0.369430 0.500000 0.201362
O O7 0.321636 0.243404 0.226641
O O8 0.876195 0.500000 0.824442
O O9 0.861532 0.762805 0.798684
O O10 0.000000 0.702892 0.848050
O O11 0.821615 0.795131 0.273838
O O12 0.847594 0.744869 0.346729
O O13 0.000000 0.788961 0.300306
O O14 0.883283 0.000000 0.321290
O O15 0.776433 0.000000 0.223168
O O16 0.500000 0.722293 0.050117
O O17 0.384662 0.500000 0.042693
O O18 0.354672 0.728198 0.000000
O O19 0.843789 0.500000 0.616717
O O20 0.840732 0.263997 0.576319
O O21 0.000000 0.334550 0.613711
O O22 0.851420 0.217615 0.500000
O O23 0.000000 0.162656 0.545040
O O24 0.845877 0.000000 0.549576
#
# Coordination Sequence:
#
# PCOD8194807 Si02
#       8
#     8   8   8   8   8   8   8   8
#     4   8  13  22  36  53  74 101 130 156 184 223
#     4   9  17  29  44  60  79 104 130 154 185 229
#     4   9  17  28  41  56  75 101 131 161 194 233
#     4   9  17  28  39  50  69  98 127 155 190 232
#     4  10  19  29  42  60  79  99 126 161 199 233
#     4   8  12  17  28  49  75 100 125 154 189 229
#     4   9  16  23  32  48  67  88 118 157 196 228
#     4   8  13  21  32  44  60  86 119 153 190 232
#
# _framework density 14.569837
#
# number of rings (size 3 to 8) (size 9 to 14) (size 15 to 20)
#    0.000    3.250    0.000    3.000    0.000    5.250 
#    0.000    2.500    0.000    0.375    0.000    2.625 
#    0.000    8.000    0.000   32.000    0.000   30.625 
#
# Total GULP energy -793152.137702 kJ/mol
# GULP energy per Si atom -12393.002152 kJ/mol
# Density = 1.453667 g / cm^3
# Si number density = 14.569837 Si / 1000 Ang^3
#
#
#
# Elastic Constant Matrix: (Units=GPa)
#
#
# Indices 1 2 3 4 5 6 
#
# 1 82.3698 30.8989 53.8860 0.0000 0.0000 0.0000
# 2 30.8989 55.3710 54.7965 0.0000 0.0000 0.0000
# 3 53.8860 54.7965 138.8820 0.0000 0.0000 0.0000
# 4 0.0000 0.0000 0.0000 13.0926 0.0000 0.0000
# 5 0.0000 0.0000 0.0000 0.0000 12.7074 0.0000
# 6 0.0000 0.0000 0.0000 0.0000 0.0000 12.8762
#
#
#
# Elastic Compliance Matrix: (Units=1/GPa)
#
#
# Indices 1 2 3 4 5 6 
#
# 1 0.017033 -0.004864 -0.004690 0.000000 0.000000 0.000000
# 2 -0.004864 0.031018 -0.010351 0.000000 0.000000 0.000000
# 3 -0.004690 -0.010351 0.013104 0.000000 0.000000 0.000000
# 4 0.000000 0.000000 0.000000 0.076379 0.000000 0.000000
# 5 0.000000 0.000000 0.000000 0.000000 0.078694 0.000000
# 6 0.000000 0.000000 0.000000 0.000000 0.000000 0.077662
#
#
# Mechanical properties :
#
#
# Convention : Reuss Voigt Hill
#
# Bulk Modulus (GPa) = 46.84833 61.75397 54.30115
# Shear Modulus (GPa) = 14.67071 16.87133 15.77102
#
# Velocity S-wave (km/s) = 3.17665 3.40658 3.29362
# Velocity P-wave (km/s) = 6.75862 7.61248 7.19822
#
# Compressibility (1/GPa) = 0.02134548
#
# Stress axis : x y z
#
# Youngs Moduli (GPa) = 58.70988 32.23948 76.31277
#
# Poissons Ratio (x) = 0.15681 0.35788
# Poissons Ratio (y) = 0.28556 0.78992
# Poissons Ratio (z) = 0.27533 0.33371
#
# Static dielectric constant tensor:
#      x y z
#    x 2.628470 0.000000 0.000000 
#    y 0.000000 2.708230 0.000000 
#    z 0.000000 0.000000 3.060780 
# 
# 
# High freq. dielectric constant tensor:
#      x y z
#    x 1.513920 0.000000 0.000000 
#    y 0.000000 1.538790 0.000000 
#    z 0.000000 0.000000 1.559310 
# 
# From -- ./inp_files/34685.got.cif
#   From: 2010.03.12/outbox.cif.g09.slc.cpg/sg47_18_cif.got.tgz:34685.got - 2010.04.14 03:12:58.
