data_PCOD8194521
_publ_section_title
;
Structure prediction by ZEFSAII (Michael W. Deem and Ramdas Pophale) SiO2 
 PCOD8194521
Probable space group: P M M M
;
_chemical_formula_sum "Si O2"
_cell_formula_units_Z 60
_cell_length_a 8.694615
_cell_length_b 19.025913
_cell_length_c 21.195112
_cell_angle_alpha 90.000000
_cell_angle_beta 90.000000
_cell_angle_gamma 90.000000
_cell_volume 3506.158770
_symmetry_space_group_name_H-M "P M M M"
_symmetry_group_IT_number 47
_symmetry_cell_setting 'orthorhombic'
loop_
_space_group_symop_operation_xyz
x,y,z
-x,-y,z
x,-y,-z
-x,y,-z
-x,-y,-z
x,y,-z
-x,y,z
x,-y,z
loop_
_atom_site_type_symbol
_atom_site_label
_atom_site_fract_x
_atom_site_fract_y
_atom_site_fract_z
Si Si1 0.818244 0.289540 0.930691
Si Si2 0.181540 0.282503 0.314738
Si Si3 0.182125 0.919629 0.500000
Si Si4 0.179714 0.790135 0.187522
Si Si5 0.178728 0.920696 0.261567
Si Si6 0.680592 0.846601 0.378542
Si Si7 0.823867 0.421525 0.852955
Si Si8 0.320202 0.578905 0.280465
O O1 0.747353 0.234721 0.879202
O O2 0.776540 0.368298 0.908318
O O3 0.000000 0.280078 0.936013
O O4 0.744222 0.276485 0.000000
O O5 0.241081 0.256298 0.246067
O O6 0.257723 0.232504 0.367357
O O7 0.233994 0.363362 0.323779
O O8 0.000000 0.275890 0.321945
O O9 0.241010 0.878792 0.560583
O O10 0.000000 0.919256 0.500000
O O11 0.243750 0.000000 0.500000
O O12 0.216919 0.872057 0.200804
O O13 0.000000 0.775883 0.182690
O O14 0.280769 0.897479 0.320279
O O15 0.000000 0.911670 0.280896
O O16 0.218651 0.000000 0.242238
O O17 0.500000 0.843780 0.389033
O O18 0.801522 0.500000 0.879901
O O19 0.718266 0.408296 0.792585
O O20 0.000000 0.408331 0.831391
O O21 0.500000 0.588453 0.290665
O O22 0.267497 0.500000 0.300515
#
# Coordination Sequence:
#
# PCOD8194521 Si02
#       8
#     8   8   4   8   8   8   8   8
#     4   9  15  23  38  61  86 114 154 204 253 298
#     4  10  18  32  52  71  96 130 169 207 244 293
#     4  11  23  39  57  77 108 149 184 205 231 279
#     4   8  14  25  41  62  86 114 150 198 250 294
#     4   9  17  30  48  68  92 125 164 202 243 294
#     4  11  22  34  51  78 108 135 165 204 247 286
#     4   9  16  26  40  59  84 117 157 198 244 300
#     4  10  19  29  44  69  99 128 159 203 257 301
#
# _framework density 17.112745
#
# number of rings (size 3 to 8) (size 9 to 14) (size 15 to 20)
#    0.000    2.467    1.333    3.400    0.000    3.467 
#    0.000    1.333    0.000    0.800    0.000    5.133 
#    0.000    3.733    0.000    3.467    0.000    4.533 
#
# Total GULP energy -743702.695724 kJ/mol
# GULP energy per Si atom -12395.044929 kJ/mol
# Density = 1.707380 g / cm^3
# Si number density = 17.112745 Si / 1000 Ang^3
#
#
#
# Elastic Constant Matrix: (Units=GPa)
#
#
# Indices 1 2 3 4 5 6 
#
# 1 47.1268 29.8428 20.7496 0.0000 0.0000 0.0000
# 2 29.8428 146.1189 65.9280 0.0000 0.0000 0.0000
# 3 20.7496 65.9280 98.6565 0.0000 0.0000 0.0000
# 4 0.0000 0.0000 0.0000 24.7208 0.0000 0.0000
# 5 0.0000 0.0000 0.0000 0.0000 1.7173 0.0000
# 6 0.0000 0.0000 0.0000 0.0000 0.0000 20.3744
#
#
#
# Elastic Compliance Matrix: (Units=1/GPa)
#
#
# Indices 1 2 3 4 5 6 
#
# 1 0.024837 -0.003888 -0.002626 0.000000 0.000000 0.000000
# 2 -0.003888 0.010407 -0.006137 0.000000 0.000000 0.000000
# 3 -0.002626 -0.006137 0.014789 0.000000 0.000000 0.000000
# 4 0.000000 0.000000 0.000000 0.040452 0.000000 0.000000
# 5 0.000000 0.000000 0.000000 0.000000 0.582317 0.000000
# 6 0.000000 0.000000 0.000000 0.000000 0.000000 0.049081
#
#
# Mechanical properties :
#
#
# Convention : Reuss Voigt Hill
#
# Bulk Modulus (GPa) = 40.43214 58.32701 49.37957
# Shear Modulus (GPa) = 6.61876 21.05460 13.83668
#
# Velocity S-wave (km/s) = 1.96879 3.51143 2.84660
# Velocity P-wave (km/s) = 5.37088 7.11324 6.30256
#
# Compressibility (1/GPa) = 0.02473280
#
# Stress axis : x y z
#
# Youngs Moduli (GPa) = 40.26171 96.09282 67.61684
#
# Poissons Ratio (x) = 0.37361 0.17754
# Poissons Ratio (y) = 0.15654 0.41493
# Poissons Ratio (z) = 0.10571 0.58968
#
# Static dielectric constant tensor:
#      x y z
#    x 2.980780 0.000000 0.000000 
#    y 0.000000 3.502440 0.000000 
#    z 0.000000 0.000000 0.665000 
# 
# 
# High freq. dielectric constant tensor:
#      x y z
#    x 1.638610 0.000000 0.000000 
#    y 0.000000 1.671110 0.000000 
#    z 0.000000 0.000000 1.626440 
# 
# From -- ./inp_files/29943.got.cif
#   From: 2010.03.12/outbox.cif.g09.slc.cpg/sg47_15_cif.got.tgz:29943.got - 2010.04.14 03:12:58.
