data_PCOD8194249
_publ_section_title
;
Structure prediction by ZEFSAII (Michael W. Deem and Ramdas Pophale) SiO2 
 PCOD8194249
Probable space group: P M M M
;
_chemical_formula_sum "Si O2"
_cell_formula_units_Z 32
_cell_length_a 11.761118
_cell_length_b 9.154130
_cell_length_c 18.023576
_cell_angle_alpha 90.000000
_cell_angle_beta 90.000000
_cell_angle_gamma 90.000000
_cell_volume 1940.468714
_symmetry_space_group_name_H-M "P M M M"
_symmetry_group_IT_number 47
_symmetry_cell_setting 'orthorhombic'
loop_
_space_group_symop_operation_xyz
x,y,z
-x,-y,z
x,-y,-z
-x,y,-z
-x,-y,-z
x,y,-z
-x,y,z
x,-y,z
loop_
_atom_site_type_symbol
_atom_site_label
_atom_site_fract_x
_atom_site_fract_y
_atom_site_fract_z
Si Si1 0.760024 0.826783 0.643528
Si Si2 0.000000 0.827210 0.583612
Si Si3 0.634735 0.163474 0.081448
Si Si4 0.632001 0.671535 0.774744
Si Si5 0.626493 0.826459 0.500000
O O1 0.711416 0.748845 0.715331
O O2 0.689596 0.769644 0.572947
O O3 0.889922 0.777264 0.630063
O O4 0.748701 0.000000 0.654031
O O5 0.000000 0.760034 0.500000
O O6 0.000000 0.000000 0.574511
O O7 0.500000 0.162819 0.078836
O O8 0.675851 0.275105 0.144678
O O9 0.678851 0.000000 0.100044
O O10 0.681015 0.212457 0.000000
O O11 0.500000 0.714961 0.761396
O O12 0.649620 0.500000 0.769745
O O13 0.500000 0.761138 0.500000
O O14 0.625638 0.000000 0.500000
#
# Coordination Sequence:
#
# PCOD8194249 Si02
#       5
#     8   4   8   8   4
#     4  10  18  30  49  69  91 119 155 198 240 281
#     4   9  16  30  51  73  90 111 152 207 251 278
#     4   8  14  26  45  68  93 122 156 191 227 271
#     4  10  20  31  43  65  99 132 159 189 228 277
#     4   9  16  25  42  68  91 115 150 187 226 276
#
# _framework density 16.490860000000001
#
# number of rings (size 3 to 8) (size 9 to 14) (size 15 to 20)
#    0.000    2.750    1.250    2.250    0.000    3.000 
#    0.000    3.750    0.000    3.000    0.000    0.875 
#    0.000    7.000    0.000    0.000    0.000    0.000 
#
# Total GULP energy -396645.615744 kJ/mol
# GULP energy per Si atom -12395.175492 kJ/mol
# Density = 1.645333 g / cm^3
# Si number density = 16.490860 Si / 1000 Ang^3
#
#
#
# Elastic Constant Matrix: (Units=GPa)
#
#
# Indices 1 2 3 4 5 6 
#
# 1 104.5614 34.4009 66.2437 0.0000 0.0000 0.0000
# 2 34.4009 51.7777 52.0567 0.0000 0.0000 0.0000
# 3 66.2437 52.0567 154.1805 0.0000 0.0000 0.0000
# 4 0.0000 0.0000 0.0000 -0.9468 0.0000 0.0000
# 5 0.0000 0.0000 0.0000 0.0000 1.7421 0.0000
# 6 0.0000 0.0000 0.0000 0.0000 0.0000 13.1201
#
#
#
# Elastic Compliance Matrix: (Units=1/GPa)
#
#
# Indices 1 2 3 4 5 6 
#
# 1 0.013915 -0.004896 -0.004325 0.000000 0.000000 0.000000
# 2 -0.004896 0.030961 -0.008350 0.000000 0.000000 0.000000
# 3 -0.004325 -0.008350 0.011164 0.000000 0.000000 0.000000
# 4 0.000000 0.000000 0.000000 -1.056150 0.000000 0.000000
# 5 0.000000 0.000000 0.000000 0.000000 0.574029 0.000000
# 6 0.000000 0.000000 0.000000 0.000000 0.000000 0.076219
#
#
# Mechanical properties :
#
#
# Convention : Reuss Voigt Hill
#
# Bulk Modulus (GPa) = 47.85481 68.43579 58.14530
# Shear Modulus (GPa) = -16.24677 13.30428 -1.47124
#
# Velocity S-wave (km/s) = -3.14219 2.84345 -0.94556
# Velocity P-wave (km/s) = 3.98967 7.23668 5.84325
#
# Compressibility (1/GPa) = 0.02089654
#
# Stress axis : x y z
#
# Youngs Moduli (GPa) = 71.86496 32.29832 89.57750
#
# Poissons Ratio (x) = 0.15815 0.38746
# Poissons Ratio (y) = 0.35188 0.74796
# Poissons Ratio (z) = 0.31084 0.26969
#
# Static dielectric constant tensor:
#      x y z
#    x 3.009250 0.000000 0.000000 
#    y 0.000000 2.856790 0.000000 
#    z 0.000000 0.000000 3.435770 
# 
# 
# High freq. dielectric constant tensor:
#      x y z
#    x 1.601020 0.000000 0.000000 
#    y 0.000000 1.607500 0.000000 
#    z 0.000000 0.000000 1.646840 
# 
# From -- ./inp_files/3553.got.cif
#   From: 2010.03.12/outbox.cif.g09.slc.cpg/sg47_2_cif.got.tgz:3553.got - 2010.04.14 03:12:58.
