data_PCOD8194020
_publ_section_title
;
Structure prediction by ZEFSAII (Michael W. Deem and Ramdas Pophale) SiO2 
 PCOD8194020
Probable space group: P M M M
;
_chemical_formula_sum "Si O2"
_cell_formula_units_Z 52
_cell_length_a 14.868529
_cell_length_b 15.230790
_cell_length_c 14.257785
_cell_angle_alpha 90.000000
_cell_angle_beta 90.000000
_cell_angle_gamma 90.000000
_cell_volume 3228.810047
_symmetry_space_group_name_H-M "P M M M"
_symmetry_group_IT_number 47
_symmetry_cell_setting 'orthorhombic'
loop_
_space_group_symop_operation_xyz
x,y,z
-x,-y,z
x,-y,-z
-x,y,-z
-x,-y,-z
x,y,-z
-x,y,z
x,-y,z
loop_
_atom_site_type_symbol
_atom_site_label
_atom_site_fract_x
_atom_site_fract_y
_atom_site_fract_z
Si Si1 0.893209 0.500000 0.396155
Si Si2 0.896301 0.651417 0.737741
Si Si3 0.900412 0.813482 0.605814
Si Si4 0.280731 0.101310 0.398853
Si Si5 0.244113 0.602782 0.889964
Si Si6 0.600634 0.265682 0.889911
Si Si7 0.395590 0.899711 0.771449
O O1 0.849792 0.500000 0.500000
O O2 0.859089 0.416186 0.339144
O O3 0.000000 0.500000 0.405148
O O4 0.883881 0.744380 0.688322
O O5 0.840419 0.641910 0.833451
O O6 0.000000 0.632790 0.764005
O O7 0.892789 0.772234 0.500000
O O8 0.825380 0.887350 0.621613
O O9 0.000000 0.855106 0.617662
O O10 0.305041 0.144840 0.500000
O O11 0.342589 0.140752 0.317526
O O12 0.302931 0.000000 0.403754
O O13 0.259888 0.500000 0.867608
O O14 0.331953 0.657394 0.856885
O O15 0.224193 0.616763 0.000000
O O16 0.500000 0.291029 0.855186
O O17 0.627554 0.168409 0.853968
O O18 0.603668 0.257321 0.000000
O O19 0.500000 0.899643 0.745859
O O20 0.365284 0.000000 0.798193
#
# Coordination Sequence:
#
# PCOD8194020 Si02
#       7
#     4   8   8   8   8   8   8
#     4   9  16  26  41  61  84 109 137 171 211 252
#     4  10  18  29  44  63  88 116 143 177 218 258
#     4   9  17  28  43  63  86 114 148 184 220 257
#     4   9  17  28  42  62  89 119 148 178 212 253
#     4  10  20  32  46  65  89 117 149 182 216 260
#     4   9  18  32  49  68  89 113 143 182 224 262
#     4   9  17  29  46  68  92 116 142 175 217 265
#
# _framework density 16.105004000000001
#
# number of rings (size 3 to 8) (size 9 to 14) (size 15 to 20)
#    0.000    2.692    0.769    1.385    0.000    3.385 
#    0.000    6.923    0.000    0.000    0.000    0.000 
#    0.000    0.615    0.000   28.615    0.000    0.769 
#
# Total GULP energy -644346.119169 kJ/mol
# GULP energy per Si atom -12391.271522 kJ/mol
# Density = 1.606835 g / cm^3
# Si number density = 16.105004 Si / 1000 Ang^3
#
#
#
# Elastic Constant Matrix: (Units=GPa)
#
#
# Indices 1 2 3 4 5 6 
#
# 1 69.3521 30.0656 37.1025 0.0000 0.0000 0.0000
# 2 30.0656 45.4323 24.0638 0.0000 0.0000 0.0000
# 3 37.1025 24.0638 54.8726 0.0000 0.0000 0.0000
# 4 0.0000 0.0000 0.0000 19.9742 0.0000 0.0000
# 5 0.0000 0.0000 0.0000 0.0000 25.7742 0.0000
# 6 0.0000 0.0000 0.0000 0.0000 0.0000 24.7874
#
#
#
# Elastic Compliance Matrix: (Units=1/GPa)
#
#
# Indices 1 2 3 4 5 6 
#
# 1 0.025767 -0.010191 -0.012954 0.000000 0.000000 0.000000
# 2 -0.010191 0.032701 -0.007450 0.000000 0.000000 0.000000
# 3 -0.012954 -0.007450 0.030250 0.000000 0.000000 0.000000
# 4 0.000000 0.000000 0.000000 0.050065 0.000000 0.000000
# 5 0.000000 0.000000 0.000000 0.000000 0.038798 0.000000
# 6 0.000000 0.000000 0.000000 0.000000 0.000000 0.040343
#
#
# Mechanical properties :
#
#
# Convention : Reuss Voigt Hill
#
# Bulk Modulus (GPa) = 36.32543 39.12453 37.72498
# Shear Modulus (GPa) = 17.34373 19.33550 18.33962
#
# Velocity S-wave (km/s) = 3.28520 3.46871 3.37820
# Velocity P-wave (km/s) = 6.08230 6.35521 6.22025
#
# Compressibility (1/GPa) = 0.02752893
#
# Stress axis : x y z
#
# Youngs Moduli (GPa) = 38.80920 30.58043 33.05807
#
# Poissons Ratio (x) = 0.31164 0.42822
# Poissons Ratio (y) = 0.39550 0.24628
# Poissons Ratio (z) = 0.50272 0.22782
#
# Static dielectric constant tensor:
#      x y z
#    x 3.120660 0.000000 0.000000 
#    y 0.000000 3.002810 0.000000 
#    z 0.000000 0.000000 3.206320 
# 
# 
# High freq. dielectric constant tensor:
#      x y z
#    x 1.610660 0.000000 0.000000 
#    y 0.000000 1.608110 0.000000 
#    z 0.000000 0.000000 1.616890 
# 
# From -- ./inp_files/17775.got.cif
#   From: 2010.03.12/outbox.cif.g09.slc.cpg/sg47_9_cif.got.tgz:17775.got - 2010.04.14 03:12:58.
