data_PCOD8194730
_publ_section_title
;
Structure prediction by ZEFSAII (Michael W. Deem and Ramdas Pophale) SiO2 
 PCOD8194730
Probable space group: P M M M
;
_chemical_formula_sum "Si O2"
_cell_formula_units_Z 64
_cell_length_a 9.355414
_cell_length_b 19.196741
_cell_length_c 23.633336
_cell_angle_alpha 90.000000
_cell_angle_beta 90.000000
_cell_angle_gamma 90.000000
_cell_volume 4244.392572
_symmetry_space_group_name_H-M "P M M M"
_symmetry_group_IT_number 47
_symmetry_cell_setting 'orthorhombic'
loop_
_space_group_symop_operation_xyz
x,y,z
-x,-y,z
x,-y,-z
-x,y,-z
-x,-y,-z
x,y,-z
-x,y,z
x,-y,z
loop_
_atom_site_type_symbol
_atom_site_label
_atom_site_fract_x
_atom_site_fract_y
_atom_site_fract_z
Si Si1 0.667898 0.353589 0.162437
Si Si2 0.833472 0.290172 0.329817
Si Si3 0.164949 0.580067 0.065220
Si Si4 0.830691 0.211778 0.437853
Si Si5 0.335433 0.924377 0.258452
Si Si6 0.166094 0.077378 0.626976
Si Si7 0.164424 0.421541 0.737685
Si Si8 0.664237 0.777179 0.230568
O O1 0.500000 0.368501 0.159575
O O2 0.736453 0.369053 0.101795
O O3 0.735786 0.404003 0.209355
O O4 0.703153 0.272820 0.177760
O O5 0.779170 0.270896 0.393041
O O6 0.801542 0.371178 0.315594
O O7 0.756054 0.241130 0.285169
O O8 0.000000 0.272799 0.324495
O O9 0.201174 0.500000 0.079640
O O10 0.000000 0.595341 0.078994
O O11 0.198477 0.595848 0.000000
O O12 0.763601 0.226927 0.500000
O O13 0.779927 0.135101 0.417593
O O14 0.000000 0.213259 0.442769
O O15 0.500000 0.924319 0.276850
O O16 0.246026 0.911920 0.314469
O O17 0.306783 0.859091 0.215714
O O18 0.295999 0.000000 0.230526
O O19 0.000000 0.088439 0.640323
O O20 0.195239 0.000000 0.601932
O O21 0.195748 0.500000 0.717435
O O22 0.000000 0.412574 0.757302
O O23 0.500000 0.764338 0.247095
#
# Coordination Sequence:
#
# PCOD8194730 Si02
#       8
#     8   8   8   8   8   8   8   8
#     4  10  19  28  41  64  90 112 136 169 205 237
#     4   9  16  27  42  57  74  99 131 163 200 247
#     4   9  18  32  47  62  85 119 152 175 195 225
#     4   9  16  25  38  56  76  98 127 164 202 241
#     4   9  16  26  41  58  78 107 136 160 194 241
#     4   9  16  25  38  56  76  98 127 162 196 235
#     4   9  17  28  42  59  79 104 133 166 203 244
#     4   9  17  28  41  59  84 108 131 165 205 240
#
# _framework density 15.078719
#
# number of rings (size 3 to 8) (size 9 to 14) (size 15 to 20)
#    0.000    2.875    1.250    1.125    0.000    3.000 
#    0.000    1.875    0.000    1.875    0.000    4.375 
#    0.000    0.500    0.000   12.500    0.000    7.500 
#
# Total GULP energy -793052.270860 kJ/mol
# GULP energy per Si atom -12391.441732 kJ/mol
# Density = 1.504440 g / cm^3
# Si number density = 15.078719 Si / 1000 Ang^3
#
#
#
# Elastic Constant Matrix: (Units=GPa)
#
#
# Indices 1 2 3 4 5 6 
#
# 1 41.9197 36.5183 34.1361 0.0000 0.0000 0.0000
# 2 36.5183 133.4503 65.0421 0.0000 0.0000 0.0000
# 3 34.1361 65.0421 88.6525 0.0000 0.0000 0.0000
# 4 0.0000 0.0000 0.0000 22.4445 0.0000 0.0000
# 5 0.0000 0.0000 0.0000 0.0000 2.5378 0.0000
# 6 0.0000 0.0000 0.0000 0.0000 0.0000 16.3375
#
#
#
# Elastic Compliance Matrix: (Units=1/GPa)
#
#
# Indices 1 2 3 4 5 6 
#
# 1 0.036711 -0.004913 -0.010531 0.000000 0.000000 0.000000
# 2 -0.004913 0.012322 -0.007149 0.000000 0.000000 0.000000
# 3 -0.010531 -0.007149 0.020580 0.000000 0.000000 0.000000
# 4 0.000000 0.000000 0.000000 0.044554 0.000000 0.000000
# 5 0.000000 0.000000 0.000000 0.000000 0.394044 0.000000
# 6 0.000000 0.000000 0.000000 0.000000 0.000000 0.061209
#
#
# Mechanical properties :
#
#
# Convention : Reuss Voigt Hill
#
# Bulk Modulus (GPa) = 40.93802 59.49062 50.21432
# Shear Modulus (GPa) = 8.02893 16.81901 12.42397
#
# Velocity S-wave (km/s) = 2.31003 3.34340 2.87355
# Velocity P-wave (km/s) = 5.85862 7.37858 6.66209
#
# Compressibility (1/GPa) = 0.02442717
#
# Stress axis : x y z
#
# Youngs Moduli (GPa) = 27.23987 81.15576 48.59146
#
# Poissons Ratio (x) = 0.39873 0.51172
# Poissons Ratio (y) = 0.13383 0.34736
# Poissons Ratio (z) = 0.28687 0.58014
#
# Static dielectric constant tensor:
#      x y z
#    x 2.860410 0.000000 0.000000 
#    y 0.000000 3.233530 0.000000 
#    z 0.000000 0.000000 2.787610 
# 
# 
# High freq. dielectric constant tensor:
#      x y z
#    x 1.570270 0.000000 0.000000 
#    y 0.000000 1.583830 0.000000 
#    z 0.000000 0.000000 1.541170 
# 
# From -- ./inp_files/11780.got.cif
#   From: 2010.03.12/outbox.cif.g09.slc.cpg/sg47_6_cif.got.tgz:11780.got - 2010.04.14 03:12:58.
