data_PCOD8194234
_publ_section_title
;
Structure prediction by ZEFSAII (Michael W. Deem and Ramdas Pophale) SiO2 
 PCOD8194234
Probable space group: P M M M
;
_chemical_formula_sum "Si O2"
_cell_formula_units_Z 56
_cell_length_a 14.456311
_cell_length_b 15.737892
_cell_length_c 14.085861
_cell_angle_alpha 90.000000
_cell_angle_beta 90.000000
_cell_angle_gamma 90.000000
_cell_volume 3204.700453
_symmetry_space_group_name_H-M "P M M M"
_symmetry_group_IT_number 47
_symmetry_cell_setting 'orthorhombic'
loop_
_space_group_symop_operation_xyz
x,y,z
-x,-y,z
x,-y,-z
-x,y,-z
-x,-y,-z
x,y,-z
-x,y,z
x,-y,z
loop_
_atom_site_type_symbol
_atom_site_label
_atom_site_fract_x
_atom_site_fract_y
_atom_site_fract_z
Si Si1 0.106742 0.751621 0.895558
Si Si2 0.727767 0.905983 0.610170
Si Si3 0.235132 0.404523 0.896183
Si Si4 0.895664 0.655246 0.389044
Si Si5 0.710948 0.405029 0.305639
Si Si6 0.895185 0.164556 0.706393
Si Si7 0.603340 0.751974 0.387827
O O1 0.151196 0.659758 0.884841
O O2 0.140242 0.815645 0.813656
O O3 0.000000 0.733654 0.878488
O O4 0.126875 0.791460 0.000000
O O5 0.746785 0.888672 0.500000
O O6 0.825890 0.904875 0.664230
O O7 0.659472 0.833562 0.651986
O O8 0.684147 0.000000 0.625517
O O9 0.194786 0.500000 0.889881
O O10 0.304592 0.390046 0.807687
O O11 0.284198 0.390816 0.000000
O O12 0.872292 0.647980 0.500000
O O13 0.820048 0.601470 0.331051
O O14 0.887643 0.752834 0.359219
O O15 0.000000 0.621459 0.367997
O O16 0.677263 0.500000 0.333521
O O17 0.651479 0.336199 0.361141
O O18 0.000000 0.128547 0.706395
O O19 0.598567 0.757897 0.500000
O O20 0.500000 0.754415 0.344580
#
# Coordination Sequence:
#
# PCOD8194234 Si02
#       7
#     8   8   8   8   8   8   8
#     4   9  16  26  42  64  91 128 173 212 247 290
#     4  10  20  34  54  78 101 128 164 203 247 300
#     4   9  17  28  43  65  93 125 163 210 259 299
#     4  10  19  30  45  66  96 136 175 206 239 283
#     4  11  21  33  51  73 100 135 172 209 248 293
#     4  10  18  30  48  71 101 135 166 202 246 289
#     4  10  21  37  55  75 101 130 162 204 251 298
#
# _framework density 17.474332
#
# number of rings (size 3 to 8) (size 9 to 14) (size 15 to 20)
#    0.000    2.143    2.857    0.857    0.000    3.429 
#    0.000    6.429    0.000    0.857    0.000    4.000 
#    0.000    0.000    0.000    6.000    0.000    0.286 
#
# Total GULP energy -694024.806395 kJ/mol
# GULP energy per Si atom -12393.300114 kJ/mol
# Density = 1.743456 g / cm^3
# Si number density = 17.474332 Si / 1000 Ang^3
#
#
#
# Elastic Constant Matrix: (Units=GPa)
#
#
# Indices 1 2 3 4 5 6 
#
# 1 81.6262 39.6278 22.9089 0.0000 0.0000 0.0000
# 2 39.6278 86.5890 18.1445 0.0000 0.0000 0.0000
# 3 22.9089 18.1445 65.2855 0.0000 0.0000 0.0000
# 4 0.0000 0.0000 0.0000 19.2328 0.0000 0.0000
# 5 0.0000 0.0000 0.0000 0.0000 12.0622 0.0000
# 6 0.0000 0.0000 0.0000 0.0000 0.0000 9.0488
#
#
#
# Elastic Compliance Matrix: (Units=1/GPa)
#
#
# Indices 1 2 3 4 5 6 
#
# 1 0.016661 -0.006796 -0.003958 0.000000 0.000000 0.000000
# 2 -0.006796 0.015035 -0.001794 0.000000 0.000000 0.000000
# 3 -0.003958 -0.001794 0.017205 0.000000 0.000000 0.000000
# 4 0.000000 0.000000 0.000000 0.051994 0.000000 0.000000
# 5 0.000000 0.000000 0.000000 0.000000 0.082904 0.000000
# 6 0.000000 0.000000 0.000000 0.000000 0.000000 0.110512
#
#
# Mechanical properties :
#
#
# Convention : Reuss Voigt Hill
#
# Bulk Modulus (GPa) = 42.00646 43.87368 42.94007
# Shear Modulus (GPa) = 15.27463 18.25673 16.76568
#
# Velocity S-wave (km/s) = 2.95976 3.23580 3.10085
# Velocity P-wave (km/s) = 5.98092 6.25480 6.11939
#
# Compressibility (1/GPa) = 0.02380586
#
# Stress axis : x y z
#
# Youngs Moduli (GPa) = 60.02104 66.51259 58.12378
#
# Poissons Ratio (x) = 0.45199 0.23003
# Poissons Ratio (y) = 0.40788 0.10427
# Poissons Ratio (z) = 0.23754 0.11932
#
# Static dielectric constant tensor:
#      x y z
#    x 3.136260 0.000000 0.000000 
#    y 0.000000 3.084880 0.000000 
#    z 0.000000 0.000000 3.566580 
# 
# 
# High freq. dielectric constant tensor:
#      x y z
#    x 1.643140 0.000000 0.000000 
#    y 0.000000 1.660970 0.000000 
#    z 0.000000 0.000000 1.679390 
# 
# From -- ./inp_files/23804.got.cif
#   From: 2010.03.12/outbox.cif.g09.slc.cpg/sg47_12_cif.got.tgz:23804.got - 2010.04.14 03:12:58.
