data_PCOD8194386
_publ_section_title
;
Structure prediction by ZEFSAII (Michael W. Deem and Ramdas Pophale) SiO2 
 PCOD8194386
Probable space group: P M M M
;
_chemical_formula_sum "Si O2"
_cell_formula_units_Z 64
_cell_length_a 27.017619
_cell_length_b 13.143136
_cell_length_c 10.365618
_cell_angle_alpha 90.000000
_cell_angle_beta 90.000000
_cell_angle_gamma 90.000000
_cell_volume 3680.791987
_symmetry_space_group_name_H-M "P M M M"
_symmetry_group_IT_number 47
_symmetry_cell_setting 'orthorhombic'
loop_
_space_group_symop_operation_xyz
x,y,z
-x,-y,z
x,-y,-z
-x,y,-z
-x,-y,-z
x,y,-z
-x,y,z
x,-y,z
loop_
_atom_site_type_symbol
_atom_site_label
_atom_site_fract_x
_atom_site_fract_y
_atom_site_fract_z
Si Si1 0.055304 0.386756 0.652900
Si Si2 0.145261 0.252695 0.652556
Si Si3 0.235449 0.390414 0.647860
Si Si4 0.442720 0.700186 0.351525
Si Si5 0.378110 0.112140 0.647765
Si Si6 0.198861 0.881733 0.855160
Si Si7 0.374106 0.387247 0.138932
Si Si8 0.296730 0.767751 0.213916
O O1 0.057548 0.392182 0.500000
O O2 0.069494 0.500000 0.706124
O O3 0.092147 0.296820 0.697956
O O4 0.000000 0.357755 0.699950
O O5 0.146485 0.219741 0.500000
O O6 0.182092 0.345070 0.681446
O O7 0.160758 0.159049 0.745753
O O8 0.239754 0.413563 0.500000
O O9 0.241229 0.500000 0.720442
O O10 0.278022 0.309949 0.677775
O O11 0.433203 0.666789 0.500000
O O12 0.500000 0.692223 0.315760
O O13 0.425122 0.815686 0.328220
O O14 0.411943 0.628686 0.256492
O O15 0.361862 0.113332 0.500000
O O16 0.329570 0.143721 0.725439
O O17 0.394431 0.000000 0.693101
O O18 0.250737 0.820497 0.857136
O O19 0.208874 0.000000 0.823985
O O20 0.176382 0.869301 0.000000
O O21 0.351079 0.500000 0.159111
O O22 0.331001 0.302998 0.124822
O O23 0.402143 0.382594 0.000000
#
# Coordination Sequence:
#
# PCOD8194386 Si02
#       8
#     8   8   8   8   8   8   8   8
#     4   8  13  23  44  75 106 132 159 195 240 288
#     4   9  17  29  47  71  97 125 160 200 239 280
#     4   9  16  25  40  65  97 129 157 187 225 270
#     4   9  19  35  53  73  95 120 153 190 227 270
#     4   9  17  29  47  72  99 123 149 188 236 279
#     4  10  21  35  50  68  92 125 163 201 242 286
#     4  10  21  35  51  72  97 124 152 184 226 276
#     4  10  18  31  48  68  92 123 158 194 228 273
#
# _framework density 17.387563
#
# number of rings (size 3 to 8) (size 9 to 14) (size 15 to 20)
#    0.000    2.750    0.000    2.250    0.000    3.750 
#    0.000    2.500    0.000   11.625    0.000    7.000 
#    0.000    0.000    0.000    0.000    0.000    0.000 
#
# Total GULP energy -792882.818541 kJ/mol
# GULP energy per Si atom -12388.794040 kJ/mol
# Density = 1.734799 g / cm^3
# Si number density = 17.387563 Si / 1000 Ang^3
#
#
#
# Elastic Constant Matrix: (Units=GPa)
#
#
# Indices 1 2 3 4 5 6 
#
# 1 89.9166 38.1334 39.9523 0.0000 0.0000 0.0000
# 2 38.1334 114.7741 46.0922 0.0000 0.0000 0.0000
# 3 39.9523 46.0922 62.2635 0.0000 0.0000 0.0000
# 4 0.0000 0.0000 0.0000 18.7400 0.0000 0.0000
# 5 0.0000 0.0000 0.0000 0.0000 12.8738 0.0000
# 6 0.0000 0.0000 0.0000 0.0000 0.0000 20.7816
#
#
#
# Elastic Compliance Matrix: (Units=1/GPa)
#
#
# Indices 1 2 3 4 5 6 
#
# 1 0.015780 -0.001674 -0.008886 0.000000 0.000000 0.000000
# 2 -0.001674 0.012576 -0.008236 0.000000 0.000000 0.000000
# 3 -0.008886 -0.008236 0.027859 0.000000 0.000000 0.000000
# 4 0.000000 0.000000 0.000000 0.053362 0.000000 0.000000
# 5 0.000000 0.000000 0.000000 0.000000 0.077677 0.000000
# 6 0.000000 0.000000 0.000000 0.000000 0.000000 0.048120
#
#
# Mechanical properties :
#
#
# Convention : Reuss Voigt Hill
#
# Bulk Modulus (GPa) = 53.69511 57.25665 55.47588
# Shear Modulus (GPa) = 17.91003 19.99750 18.95377
#
# Velocity S-wave (km/s) = 3.21292 3.39500 3.30521
# Velocity P-wave (km/s) = 6.68672 6.95479 6.82207
#
# Compressibility (1/GPa) = 0.01862367
#
# Stress axis : x y z
#
# Youngs Moduli (GPa) = 63.37262 79.51383 35.89480
#
# Poissons Ratio (x) = 0.13313 0.31895
# Poissons Ratio (y) = 0.10610 0.29562
# Poissons Ratio (z) = 0.56312 0.65485
#
# Static dielectric constant tensor:
#      x y z
#    x 3.240810 0.000000 0.000000 
#    y 0.000000 3.356250 0.000000 
#    z 0.000000 0.000000 3.092860 
# 
# 
# High freq. dielectric constant tensor:
#      x y z
#    x 1.657100 0.000000 0.000000 
#    y 0.000000 1.676480 0.000000 
#    z 0.000000 0.000000 1.649860 
# 
# From -- ./inp_files/19654.got.cif
#   From: 2010.03.12/outbox.cif.g09.slc.cpg/sg47_10_cif.got.tgz:19654.got - 2010.04.14 03:12:58.
