data_PCOD8194250
_publ_section_title
;
Structure prediction by ZEFSAII (Michael W. Deem and Ramdas Pophale) SiO2 
 PCOD8194250
Probable space group: P M M M
;
_chemical_formula_sum "Si O2"
_cell_formula_units_Z 60
_cell_length_a 9.759884
_cell_length_b 18.767213
_cell_length_c 18.059142
_cell_angle_alpha 90.000000
_cell_angle_beta 90.000000
_cell_angle_gamma 90.000000
_cell_volume 3307.817587
_symmetry_space_group_name_H-M "P M M M"
_symmetry_group_IT_number 47
_symmetry_cell_setting 'orthorhombic'
loop_
_space_group_symop_operation_xyz
x,y,z
-x,-y,z
x,-y,-z
-x,y,-z
-x,-y,-z
x,y,-z
-x,y,z
x,-y,z
loop_
_atom_site_type_symbol
_atom_site_label
_atom_site_fract_x
_atom_site_fract_y
_atom_site_fract_z
Si Si1 0.158191 0.779694 0.086670
Si Si2 0.352118 0.227801 0.653822
Si Si3 0.158425 0.583134 0.725248
Si Si4 0.000000 0.083475 0.418154
Si Si5 0.843160 0.077985 0.166778
Si Si6 0.844049 0.670025 0.582439
Si Si7 0.337524 0.305415 0.197231
Si Si8 0.735264 0.920021 0.328023
O O1 0.197442 0.860617 0.109090
O O2 0.262643 0.725007 0.124790
O O3 0.000000 0.762784 0.108490
O O4 0.180802 0.771673 0.000000
O O5 0.500000 0.261305 0.635013
O O6 0.245014 0.259145 0.595505
O O7 0.308724 0.249605 0.736974
O O8 0.369798 0.142013 0.649397
O O9 0.188495 0.500000 0.729351
O O10 0.191681 0.608698 0.641577
O O11 0.262538 0.620464 0.782369
O O12 0.000000 0.600362 0.745840
O O13 0.129922 0.105760 0.370461
O O14 0.000000 0.119907 0.500000
O O15 0.000000 0.000000 0.429264
O O16 0.752877 0.082792 0.240186
O O17 0.000000 0.085928 0.192049
O O18 0.819247 0.000000 0.129399
O O19 0.815255 0.639866 0.500000
O O20 0.000000 0.695104 0.590874
O O21 0.500000 0.317415 0.182573
O O22 0.686896 0.000000 0.351911
#
# Coordination Sequence:
#
# PCOD8194250 Si02
#       8
#     8   8   8   4   8   8   8   8
#     4  10  20  33  53  80 108 141 178 220 270 319
#     4  10  21  34  49  71 100 136 177 222 268 311
#     4   9  18  34  58  86 113 141 172 211 259 307
#     4   9  18  30  44  68  95 119 162 222 274 317
#     4   9  16  28  48  75 104 135 175 222 273 326
#     4   9  19  34  53  79 108 140 176 212 256 313
#     4  10  20  35  54  77 107 143 179 213 253 308
#     4  10  18  30  49  69  94 133 176 223 275 320
#
# _framework density 18.138847999999999
#
# number of rings (size 3 to 8) (size 9 to 14) (size 15 to 20)
#    0.000    2.467    2.000    0.400    0.933    2.667 
#    0.000    2.667    0.000    0.800    0.000   10.267 
#    0.000    0.000    0.000    0.000    0.000    0.000 
#
# Total GULP energy -743627.572987 kJ/mol
# GULP energy per Si atom -12393.792883 kJ/mol
# Density = 1.809756 g / cm^3
# Si number density = 18.138848 Si / 1000 Ang^3
#
#
#
# Elastic Constant Matrix: (Units=GPa)
#
#
# Indices 1 2 3 4 5 6 
#
# 1 86.6125 49.7827 47.6244 0.0000 0.0000 0.0000
# 2 49.7827 121.3841 40.9631 0.0000 0.0000 0.0000
# 3 47.6244 40.9631 91.4342 0.0000 0.0000 0.0000
# 4 0.0000 0.0000 0.0000 19.8607 0.0000 0.0000
# 5 0.0000 0.0000 0.0000 0.0000 17.5931 0.0000
# 6 0.0000 0.0000 0.0000 0.0000 0.0000 16.6358
#
#
#
# Elastic Compliance Matrix: (Units=1/GPa)
#
#
# Indices 1 2 3 4 5 6 
#
# 1 0.018535 -0.005117 -0.007361 0.000000 0.000000 0.000000
# 2 -0.005117 0.011119 -0.002316 0.000000 0.000000 0.000000
# 3 -0.007361 -0.002316 0.015809 0.000000 0.000000 0.000000
# 4 0.000000 0.000000 0.000000 0.050351 0.000000 0.000000
# 5 0.000000 0.000000 0.000000 0.000000 0.056841 0.000000
# 6 0.000000 0.000000 0.000000 0.000000 0.000000 0.060111
#
#
# Mechanical properties :
#
#
# Convention : Reuss Voigt Hill
#
# Bulk Modulus (GPa) = 63.00072 64.01905 63.50989
# Shear Modulus (GPa) = 20.19025 21.55529 20.87277
#
# Velocity S-wave (km/s) = 3.33993 3.45098 3.39591
# Velocity P-wave (km/s) = 7.04850 7.15888 7.10390
#
# Compressibility (1/GPa) = 0.01587283
#
# Stress axis : x y z
#
# Youngs Moduli (GPa) = 53.95291 89.93979 63.25688
#
# Poissons Ratio (x) = 0.46025 0.46566
# Poissons Ratio (y) = 0.27609 0.14649
# Poissons Ratio (z) = 0.39717 0.20828
#
# Static dielectric constant tensor:
#      x y z
#    x 3.268090 0.000000 0.000000 
#    y 0.000000 3.265400 0.000000 
#    z 0.000000 0.000000 3.200860 
# 
# 
# High freq. dielectric constant tensor:
#      x y z
#    x 1.692420 0.000000 0.000000 
#    y 0.000000 1.693710 0.000000 
#    z 0.000000 0.000000 1.684060 
# 
# From -- ./inp_files/29993.got.cif
#   From: 2010.03.12/outbox.cif.g09.slc.cpg/sg47_15_cif.got.tgz:29993.got - 2010.04.14 03:12:58.
