data_PCOD8194531
_publ_section_title
;
Structure prediction by ZEFSAII (Michael W. Deem and Ramdas Pophale) SiO2 
 PCOD8194531
Probable space group: P M M M
;
_chemical_formula_sum "Si O2"
_cell_formula_units_Z 52
_cell_length_a 8.195748
_cell_length_b 11.910817
_cell_length_c 29.130059
_cell_angle_alpha 90.000000
_cell_angle_beta 90.000000
_cell_angle_gamma 90.000000
_cell_volume 2843.619690
_symmetry_space_group_name_H-M "P M M M"
_symmetry_group_IT_number 47
_symmetry_cell_setting 'orthorhombic'
loop_
_space_group_symop_operation_xyz
x,y,z
-x,-y,z
x,-y,-z
-x,y,-z
-x,-y,-z
x,y,-z
-x,y,z
x,-y,z
loop_
_atom_site_type_symbol
_atom_site_label
_atom_site_fract_x
_atom_site_fract_y
_atom_site_fract_z
Si Si1 0.807537 0.374406 0.687058
Si Si2 0.685094 0.369700 0.144299
Si Si3 0.681104 0.000000 0.764624
Si Si4 0.820874 0.000000 0.670103
Si Si5 0.811724 0.787536 0.393355
Si Si6 0.500000 0.130296 0.445763
Si Si7 0.815146 0.238716 0.227200
Si Si8 0.185679 0.366906 0.950335
O O1 0.731790 0.500000 0.688605
O O2 0.769424 0.321841 0.637024
O O3 0.729064 0.299976 0.728781
O O4 0.000000 0.381689 0.694202
O O5 0.500000 0.348752 0.158975
O O6 0.732609 0.500000 0.144800
O O7 0.798673 0.310039 0.181090
O O8 0.712403 0.319836 0.092945
O O9 0.686531 0.000000 0.709467
O O10 0.756939 0.113744 0.784042
O O11 0.500000 0.000000 0.782754
O O12 0.799880 0.108414 0.639974
O O13 0.000000 0.000000 0.693613
O O14 0.667184 0.805224 0.430545
O O15 0.000000 0.780314 0.413892
O O16 0.500000 0.133382 0.500000
O O17 0.500000 0.000000 0.428384
O O18 0.000000 0.228800 0.241716
O O19 0.198892 0.500000 0.951214
O O20 0.000000 0.328338 0.943628
O O21 0.251147 0.321349 0.000000
#
# Coordination Sequence:
#
# PCOD8194531 Si02
#       8
#     8   8   4   4   8   4   8   8
#     4   9  18  33  55  81 107 140 182 221 258 310
#     4  10  20  32  46  70 107 143 174 214 268 324
#     4  12  24  34  52  76 106 142 177 221 269 315
#     4  10  18  32  52  79 106 140 178 213 260 315
#     4  10  20  36  59  82 113 147 179 223 273 323
#     4  11  24  38  57  87 117 143 182 229 276 331
#     4  11  21  35  53  74 104 140 180 220 262 316
#     4   8  14  26  45  68  93 127 175 222 263 313
#
# _framework density 18.286553000000001
#
# number of rings (size 3 to 8) (size 9 to 14) (size 15 to 20)
#    0.000    2.077    2.308    2.538    1.077    2.154 
#    1.385    2.692    0.000    0.923    0.000    2.692 
#    0.000    4.308    0.000    0.000    0.000    0.000 
#
# Total GULP energy -644299.505715 kJ/mol
# GULP energy per Si atom -12390.375110 kJ/mol
# Density = 1.824493 g / cm^3
# Si number density = 18.286553 Si / 1000 Ang^3
#
#
#
# Elastic Constant Matrix: (Units=GPa)
#
#
# Indices 1 2 3 4 5 6 
#
# 1 69.7512 29.3271 35.0517 0.0000 0.0000 0.0000
# 2 29.3271 97.0428 34.2060 0.0000 0.0000 0.0000
# 3 35.0517 34.2060 89.7753 0.0000 0.0000 0.0000
# 4 0.0000 0.0000 0.0000 22.2036 0.0000 0.0000
# 5 0.0000 0.0000 0.0000 0.0000 26.2144 0.0000
# 6 0.0000 0.0000 0.0000 0.0000 0.0000 18.8970
#
#
#
# Elastic Compliance Matrix: (Units=1/GPa)
#
#
# Indices 1 2 3 4 5 6 
#
# 1 0.018858 -0.003585 -0.005997 0.000000 0.000000 0.000000
# 2 -0.003585 0.012585 -0.003395 0.000000 0.000000 0.000000
# 3 -0.005997 -0.003395 0.014774 0.000000 0.000000 0.000000
# 4 0.000000 0.000000 0.000000 0.045038 0.000000 0.000000
# 5 0.000000 0.000000 0.000000 0.000000 0.038147 0.000000
# 6 0.000000 0.000000 0.000000 0.000000 0.000000 0.052918
#
#
# Mechanical properties :
#
#
# Convention : Reuss Voigt Hill
#
# Bulk Modulus (GPa) = 49.35320 50.41545 49.88433
# Shear Modulus (GPa) = 23.25277 23.99529 23.62403
#
# Velocity S-wave (km/s) = 3.56979 3.62634 3.59817
# Velocity P-wave (km/s) = 6.63616 6.72036 6.67839
#
# Compressibility (1/GPa) = 0.02026211
#
# Stress axis : x y z
#
# Youngs Moduli (GPa) = 53.02916 79.45972 67.68673
#
# Poissons Ratio (x) = 0.28488 0.40590
# Poissons Ratio (y) = 0.19012 0.22982
# Poissons Ratio (z) = 0.31800 0.26979
#
# Static dielectric constant tensor:
#      x y z
#    x 3.417720 0.000000 0.000000 
#    y 0.000000 3.029290 0.000000 
#    z 0.000000 0.000000 3.483640 
# 
# 
# High freq. dielectric constant tensor:
#      x y z
#    x 1.700910 0.000000 0.000000 
#    y 0.000000 1.683740 0.000000 
#    z 0.000000 0.000000 1.698960 
# 
# From -- ./inp_files/33323.got.cif
#   From: 2010.03.12/outbox.cif.g09.slc.cpg/sg47_17_cif.got.tgz:33323.got - 2010.04.14 03:12:58.
