data_PCOD8194000
_publ_section_title
;
Structure prediction by ZEFSAII (Michael W. Deem and Ramdas Pophale) SiO2 
 PCOD8194000
Probable space group: P M M M
;
_chemical_formula_sum "Si O2"
_cell_formula_units_Z 52
_cell_length_a 14.474035
_cell_length_b 20.943977
_cell_length_c 11.752487
_cell_angle_alpha 90.000000
_cell_angle_beta 90.000000
_cell_angle_gamma 90.000000
_cell_volume 3562.694228
_symmetry_space_group_name_H-M "P M M M"
_symmetry_group_IT_number 47
_symmetry_cell_setting 'orthorhombic'
loop_
_space_group_symop_operation_xyz
x,y,z
-x,-y,z
x,-y,-z
-x,y,-z
-x,-y,-z
x,y,-z
-x,y,z
x,-y,z
loop_
_atom_site_type_symbol
_atom_site_label
_atom_site_fract_x
_atom_site_fract_y
_atom_site_fract_z
Si Si1 0.273504 0.570599 0.631896
Si Si2 0.891807 0.571454 0.000000
Si Si3 0.102891 0.250595 0.369333
Si Si4 0.105849 0.618990 0.241985
Si Si5 0.711500 0.190308 0.366597
Si Si6 0.604471 0.070349 0.635276
Si Si7 0.395953 0.686119 0.635769
O O1 0.259631 0.584380 0.500000
O O2 0.315192 0.500000 0.653694
O O3 0.172085 0.573438 0.686348
O O4 0.343232 0.623396 0.683303
O O5 0.862870 0.612427 0.110526
O O6 0.846361 0.500000 0.000000
O O7 0.000000 0.561742 0.000000
O O8 0.116944 0.274559 0.500000
O O9 0.118593 0.308619 0.283377
O O10 0.179016 0.196676 0.340023
O O11 0.000000 0.221448 0.353786
O O12 0.000000 0.596479 0.260082
O O13 0.692693 0.187969 0.500000
O O14 0.672550 0.124440 0.312569
O O15 0.656594 0.251314 0.316953
O O16 0.610205 0.069752 0.500000
O O17 0.500000 0.086430 0.673523
O O18 0.633492 0.000000 0.681307
O O19 0.397146 0.685356 0.500000
O O20 0.500000 0.685864 0.684024
#
# Coordination Sequence:
#
# PCOD8194000 Si02
#       7
#     8   4   8   8   8   8   8
#     4  10  19  28  38  55  78 101 126 158 196 236
#     4   9  18  30  42  56  73  97 128 161 201 245
#     4   9  16  25  39  58  79 103 129 158 193 234
#     4  10  18  29  43  57  76  99 126 162 199 237
#     4   9  14  22  36  52  73 101 132 162 191 226
#     4   8  13  20  31  50  75 103 135 166 193 220
#     4   9  16  25  36  51  72  98 127 157 191 232
#
# _framework density 14.595694999999999
#
# number of rings (size 3 to 8) (size 9 to 14) (size 15 to 20)
#    0.000    2.846    1.538    1.846    0.000    4.000 
#    0.000    2.308    0.000    0.462    0.000    3.769 
#    0.000    1.846    0.000    0.692    0.000   11.615 
#
# Total GULP energy -644371.379124 kJ/mol
# GULP energy per Si atom -12391.757291 kJ/mol
# Density = 1.456247 g / cm^3
# Si number density = 14.595695 Si / 1000 Ang^3
#
#
#
# Elastic Constant Matrix: (Units=GPa)
#
#
# Indices 1 2 3 4 5 6 
#
# 1 105.9643 67.1884 21.8875 0.0000 0.0000 0.0000
# 2 67.1884 119.2477 27.2774 0.0000 0.0000 0.0000
# 3 21.8875 27.2774 27.5497 0.0000 0.0000 0.0000
# 4 0.0000 0.0000 0.0000 4.1442 0.0000 0.0000
# 5 0.0000 0.0000 0.0000 0.0000 4.4523 0.0000
# 6 0.0000 0.0000 0.0000 0.0000 0.0000 26.0063
#
#
#
# Elastic Compliance Matrix: (Units=1/GPa)
#
#
# Indices 1 2 3 4 5 6 
#
# 1 0.015125 -0.007464 -0.004627 0.000000 0.000000 0.000000
# 2 -0.007464 0.014524 -0.008451 0.000000 0.000000 0.000000
# 3 -0.004627 -0.008451 0.048341 0.000000 0.000000 0.000000
# 4 0.000000 0.000000 0.000000 0.241299 0.000000 0.000000
# 5 0.000000 0.000000 0.000000 0.000000 0.224604 0.000000
# 6 0.000000 0.000000 0.000000 0.000000 0.000000 0.038452
#
#
# Mechanical properties :
#
#
# Convention : Reuss Voigt Hill
#
# Bulk Modulus (GPa) = 27.09439 53.94095 40.51767
# Shear Modulus (GPa) = 7.86495 16.01445 11.93970
#
# Velocity S-wave (km/s) = 2.32384 3.31600 2.86322
# Velocity P-wave (km/s) = 5.07975 7.19014 6.22503
#
# Compressibility (1/GPa) = 0.03690800
#
# Stress axis : x y z
#
# Youngs Moduli (GPa) = 66.11402 68.84938 20.68626
#
# Poissons Ratio (x) = 0.51388 0.09571
# Poissons Ratio (y) = 0.49347 0.17482
# Poissons Ratio (z) = 0.30589 0.58185
#
# Static dielectric constant tensor:
#      x y z
#    x 2.985150 0.000000 0.000000 
#    y 0.000000 3.028140 0.000000 
#    z 0.000000 0.000000 2.460530 
# 
# 
# High freq. dielectric constant tensor:
#      x y z
#    x 1.559850 0.000000 0.000000 
#    y 0.000000 1.551700 0.000000 
#    z 0.000000 0.000000 1.490550 
# 
# From -- ./inp_files/17978.got.cif
#   From: 2010.03.12/outbox.cif.g09.slc.cpg/sg47_9_cif.got.tgz:17978.got - 2010.04.14 03:12:58.
