data_PCOD8194874
_publ_section_title
;
Structure prediction by ZEFSAII (Michael W. Deem and Ramdas Pophale) SiO2 
 PCOD8194874
Probable space group: P M M M
;
_chemical_formula_sum "Si O2"
_cell_formula_units_Z 44
_cell_length_a 13.898113
_cell_length_b 15.898863
_cell_length_c 12.650856
_cell_angle_alpha 90.000000
_cell_angle_beta 90.000000
_cell_angle_gamma 90.000000
_cell_volume 2795.386206
_symmetry_space_group_name_H-M "P M M M"
_symmetry_group_IT_number 47
_symmetry_cell_setting 'orthorhombic'
loop_
_space_group_symop_operation_xyz
x,y,z
-x,-y,z
x,-y,-z
-x,y,-z
-x,-y,-z
x,y,-z
-x,y,z
x,-y,z
loop_
_atom_site_type_symbol
_atom_site_label
_atom_site_fract_x
_atom_site_fract_y
_atom_site_fract_z
Si Si1 0.613621 0.595808 0.500000
Si Si2 0.292322 0.673643 0.703883
Si Si3 0.108883 0.403822 0.624459
Si Si4 0.613833 0.000000 0.121382
Si Si5 0.604669 0.597668 0.114154
Si Si6 0.605466 0.901648 0.500000
Si Si7 0.384143 0.848517 0.274191
O O1 0.655268 0.500000 0.500000
O O2 0.500000 0.592608 0.500000
O O3 0.647759 0.646902 0.398535
O O4 0.178683 0.663385 0.681415
O O5 0.314112 0.611939 0.799790
O O6 0.325094 0.763997 0.748284
O O7 0.123586 0.394193 0.500000
O O8 0.133041 0.500000 0.657521
O O9 0.000000 0.381187 0.657032
O O10 0.647652 0.917248 0.186426
O O11 0.500000 0.000000 0.116534
O O12 0.654793 0.000000 0.000000
O O13 0.500000 0.635402 0.149143
O O14 0.592539 0.500000 0.099884
O O15 0.633935 0.637103 0.000000
O O16 0.500000 0.860012 0.500000
O O17 0.655688 0.874154 0.609154
O O18 0.596309 0.000000 0.500000
O O19 0.500000 0.836783 0.272256
#
# Coordination Sequence:
#
# PCOD8194874 Si02
#       7
#     4   8   8   4   8   4   8
#     4  11  21  29  40  66 104 136 158 192 241 291
#     4  12  20  29  47  71  96 123 164 206 247 287
#     4   9  18  33  50  68  94 129 167 205 249 298
#     4   9  18  33  49  65  92 132 170 200 235 282
#     4   9  18  31  44  60  89 130 165 188 221 278
#     4   9  15  27  43  56  84 123 152 178 220 275
#     4  10  19  29  43  67  96 126 159 197 237 284
#
# _framework density 15.740221999999999
#
# number of rings (size 3 to 8) (size 9 to 14) (size 15 to 20)
#    0.000    2.091    1.818    4.909    0.000    2.909 
#    0.000    1.818    0.000    0.545    0.000    3.182 
#    0.000    2.909    0.000    0.000    0.000    0.000 
#
# Total GULP energy -545150.071378 kJ/mol
# GULP energy per Si atom -12389.774349 kJ/mol
# Density = 1.570440 g / cm^3
# Si number density = 15.740222 Si / 1000 Ang^3
#
#
#
# Elastic Constant Matrix: (Units=GPa)
#
#
# Indices 1 2 3 4 5 6 
#
# 1 80.1557 34.1873 35.1609 0.0000 0.0000 0.0000
# 2 34.1873 80.1536 33.1129 0.0000 0.0000 0.0000
# 3 35.1609 33.1129 106.6161 0.0000 0.0000 0.0000
# 4 0.0000 0.0000 0.0000 53.2347 0.0000 0.0000
# 5 0.0000 0.0000 0.0000 0.0000 21.7855 0.0000
# 6 0.0000 0.0000 0.0000 0.0000 0.0000 13.1896
#
#
#
# Elastic Compliance Matrix: (Units=1/GPa)
#
#
# Indices 1 2 3 4 5 6 
#
# 1 0.016444 -0.005476 -0.003722 0.000000 0.000000 0.000000
# 2 -0.005476 0.016136 -0.003206 0.000000 0.000000 0.000000
# 3 -0.003722 -0.003206 0.011603 0.000000 0.000000 0.000000
# 4 0.000000 0.000000 0.000000 0.018785 0.000000 0.000000
# 5 0.000000 0.000000 0.000000 0.000000 0.045902 0.000000
# 6 0.000000 0.000000 0.000000 0.000000 0.000000 0.075817
#
#
# Mechanical properties :
#
#
# Convention : Reuss Voigt Hill
#
# Bulk Modulus (GPa) = 51.61339 52.42751 52.02045
# Shear Modulus (GPa) = 23.15320 28.60625 25.87972
#
# Velocity S-wave (km/s) = 3.83947 4.26772 4.05925
# Velocity P-wave (km/s) = 7.24688 7.59374 7.42234
#
# Compressibility (1/GPa) = 0.01937482
#
# Stress axis : x y z
#
# Youngs Moduli (GPa) = 60.81193 61.97329 86.18729
#
# Poissons Ratio (x) = 0.33937 0.32082
# Poissons Ratio (y) = 0.33301 0.27628
# Poissons Ratio (z) = 0.22636 0.19866
#
# Static dielectric constant tensor:
#      x y z
#    x 2.744830 0.000000 0.000000 
#    y 0.000000 2.935040 0.000000 
#    z 0.000000 0.000000 2.344390 
# 
# 
# High freq. dielectric constant tensor:
#      x y z
#    x 1.554510 0.000000 0.000000 
#    y 0.000000 1.594870 0.000000 
#    z 0.000000 0.000000 1.610710 
# 
# From -- ./inp_files/17435.got.cif
#   From: 2010.03.12/outbox.cif.g09.slc.cpg/sg47_9_cif.got.tgz:17435.got - 2010.04.14 03:12:58.
