data_PCOD8194214
_publ_section_title
;
Structure prediction by ZEFSAII (Michael W. Deem and Ramdas Pophale) SiO2 
 PCOD8194214
Probable space group: P M M M
;
_chemical_formula_sum "Si O2"
_cell_formula_units_Z 52
_cell_length_a 9.755739
_cell_length_b 26.976198
_cell_length_c 11.968794
_cell_angle_alpha 90.000000
_cell_angle_beta 90.000000
_cell_angle_gamma 90.000000
_cell_volume 3149.860394
_symmetry_space_group_name_H-M "P M M M"
_symmetry_group_IT_number 47
_symmetry_cell_setting 'orthorhombic'
loop_
_space_group_symop_operation_xyz
x,y,z
-x,-y,z
x,-y,-z
-x,y,-z
-x,-y,-z
x,y,-z
-x,y,z
x,-y,z
loop_
_atom_site_type_symbol
_atom_site_label
_atom_site_fract_x
_atom_site_fract_y
_atom_site_fract_z
Si Si1 0.159716 0.198447 0.629285
Si Si2 0.756125 0.554550 0.500000
Si Si3 0.340425 0.632161 0.872497
Si Si4 0.151862 0.086579 0.367413
Si Si5 0.654996 0.000000 0.366577
Si Si6 0.660339 0.282935 0.289304
Si Si7 0.152270 0.443917 0.744378
Si Si8 0.347056 0.659027 0.500000
O O1 0.202399 0.206306 0.500000
O O2 0.191147 0.142325 0.668063
O O3 0.251574 0.232769 0.709324
O O4 0.000000 0.211028 0.645581
O O5 0.683150 0.500000 0.500000
O O6 0.848364 0.560498 0.610031
O O7 0.648291 0.599391 0.500000
O O8 0.500000 0.618854 0.860843
O O9 0.312740 0.687313 0.825254
O O10 0.261491 0.591291 0.801857
O O11 0.290538 0.631221 0.000000
O O12 0.146560 0.083532 0.500000
O O13 0.265198 0.048457 0.320537
O O14 0.000000 0.072759 0.321193
O O15 0.500000 0.000000 0.319258
O O16 0.652629 0.000000 0.500000
O O17 0.500000 0.269692 0.302157
O O18 0.719898 0.318264 0.388338
O O19 0.188219 0.500000 0.780458
O O20 0.000000 0.429468 0.785315
O O21 0.500000 0.678628 0.500000
#
# Coordination Sequence:
#
# PCOD8194214 Si02
#       8
#     8   4   8   8   4   8   8   4
#     4   9  17  28  42  64  90 117 152 189 227 276
#     4  10  19  33  52  75 102 126 149 180 226 284
#     4  10  22  39  55  70  91 122 159 194 229 275
#     4   8  14  24  36  50  76 114 152 187 222 262
#     4   9  15  21  31  51  77 109 154 197 226 257
#     4  10  19  32  48  67  92 117 145 188 237 278
#     4  10  21  36  54  76 100 123 148 183 228 277
#     4  10  18  30  47  72  96 117 151 189 232 283
#
# _framework density 16.508668
#
# number of rings (size 3 to 8) (size 9 to 14) (size 15 to 20)
#    0.000    2.538    2.308    1.385    0.000    4.154 
#    0.000    4.615    0.000    0.000    0.000    0.000 
#    0.000    0.000    0.000    0.692    0.000   14.077 
#
# Total GULP energy -644486.566828 kJ/mol
# GULP energy per Si atom -12393.972439 kJ/mol
# Density = 1.647109 g / cm^3
# Si number density = 16.508668 Si / 1000 Ang^3
#
#
#
# Elastic Constant Matrix: (Units=GPa)
#
#
# Indices 1 2 3 4 5 6 
#
# 1 88.4201 70.2492 31.3700 0.0000 0.0000 0.0000
# 2 70.2492 126.7644 35.0289 0.0000 0.0000 0.0000
# 3 31.3700 35.0289 63.5425 0.0000 0.0000 0.0000
# 4 0.0000 0.0000 0.0000 7.3773 0.0000 0.0000
# 5 0.0000 0.0000 0.0000 0.0000 10.1272 0.0000
# 6 0.0000 0.0000 0.0000 0.0000 0.0000 31.7798
#
#
#
# Elastic Compliance Matrix: (Units=1/GPa)
#
#
# Indices 1 2 3 4 5 6 
#
# 1 0.021351 -0.010523 -0.004740 0.000000 0.000000 0.000000
# 2 -0.010523 0.014492 -0.002794 0.000000 0.000000 0.000000
# 3 -0.004740 -0.002794 0.019618 0.000000 0.000000 0.000000
# 4 0.000000 0.000000 0.000000 0.135550 0.000000 0.000000
# 5 0.000000 0.000000 0.000000 0.000000 0.098744 0.000000
# 6 0.000000 0.000000 0.000000 0.000000 0.000000 0.031466
#
#
# Mechanical properties :
#
#
# Convention : Reuss Voigt Hill
#
# Bulk Modulus (GPa) = 51.68560 61.33590 56.51075
# Shear Modulus (GPa) = 13.74436 19.32879 16.53658
#
# Velocity S-wave (km/s) = 2.88853 3.42545 3.16838
# Velocity P-wave (km/s) = 6.51928 7.27182 6.90580
#
# Compressibility (1/GPa) = 0.01934775
#
# Stress axis : x y z
#
# Youngs Moduli (GPa) = 46.83524 69.00336 50.97365
#
# Poissons Ratio (x) = 0.72609 0.24162
# Poissons Ratio (y) = 0.49282 0.14243
# Poissons Ratio (z) = 0.22201 0.19281
#
# Static dielectric constant tensor:
#      x y z
#    x 3.065180 0.000000 0.000000 
#    y 0.000000 3.191190 0.000000 
#    z 0.000000 0.000000 2.804630 
# 
# 
# High freq. dielectric constant tensor:
#      x y z
#    x 1.631240 0.000000 0.000000 
#    y 0.000000 1.639680 0.000000 
#    z 0.000000 0.000000 1.583760 
# 
# From -- ./inp_files/15530.got.cif
#   From: 2010.03.12/outbox.cif.g09.slc.cpg/sg47_8_cif.got.tgz:15530.got - 2010.04.14 03:12:58.
