data_PCOD8194268
_publ_section_title
;
Structure prediction by ZEFSAII (Michael W. Deem and Ramdas Pophale) SiO2 
 PCOD8194268
Probable space group: P M M M
;
_chemical_formula_sum "Si O2"
_cell_formula_units_Z 52
_cell_length_a 15.773707
_cell_length_b 17.710293
_cell_length_c 11.009548
_cell_angle_alpha 90.000000
_cell_angle_beta 90.000000
_cell_angle_gamma 90.000000
_cell_volume 3075.594000
_symmetry_space_group_name_H-M "P M M M"
_symmetry_group_IT_number 47
_symmetry_cell_setting 'orthorhombic'
loop_
_space_group_symop_operation_xyz
x,y,z
-x,-y,z
x,-y,-z
-x,y,-z
-x,-y,-z
x,y,-z
-x,y,z
x,-y,z
loop_
_atom_site_type_symbol
_atom_site_label
_atom_site_fract_x
_atom_site_fract_y
_atom_site_fract_z
Si Si1 0.404222 0.677362 0.859663
Si Si2 0.093956 0.000000 0.144248
Si Si3 0.906224 0.691647 0.143141
Si Si4 0.821819 0.846049 0.142526
Si Si5 0.641713 0.171235 0.745253
Si Si6 0.241287 0.415955 0.143403
Si Si7 0.399418 0.087753 0.500000
Si Si8 0.500000 0.920315 0.861540
O O1 0.500000 0.644744 0.847075
O O2 0.392803 0.743887 0.761331
O O3 0.335248 0.614130 0.824557
O O4 0.389125 0.705068 0.000000
O O5 0.141149 0.074867 0.190157
O O6 0.000000 0.000000 0.200138
O O7 0.088947 0.000000 0.000000
O O8 0.887082 0.779027 0.173152
O O9 0.833302 0.637153 0.199366
O O10 0.000000 0.672008 0.196170
O O11 0.907243 0.679828 0.000000
O O12 0.738197 0.829971 0.216748
O O13 0.800903 0.848574 0.000000
O O14 0.634158 0.136504 0.612184
O O15 0.586002 0.122200 0.835241
O O16 0.232030 0.500000 0.198796
O O17 0.230231 0.418651 0.000000
O O18 0.500000 0.088097 0.500000
O O19 0.366601 0.000000 0.500000
O O20 0.500000 0.000000 0.787651
O O21 0.500000 0.939568 0.000000
#
# Coordination Sequence:
#
# PCOD8194268 Si02
#       8
#     8   4   8   8   8   8   4   4
#     4  10  18  30  49  72  99 131 166 208 255 303
#     4   9  18  30  44  68 101 130 156 196 255 315
#     4   9  16  27  44  67 100 140 172 199 243 304
#     4  10  19  30  48  73 101 128 163 210 256 301
#     4  12  21  34  51  69  95 131 171 207 249 293
#     4   9  17  28  42  67 105 141 170 201 242 301
#     4  11  24  40  52  66  95 137 174 215 252 296
#     4  11  22  31  47  73 100 127 159 200 251 296
#
# _framework density 16.907302999999999
#
# number of rings (size 3 to 8) (size 9 to 14) (size 15 to 20)
#    0.000    1.923    3.077    2.308    2.154    2.462 
#    0.000    3.077    0.000    0.000    0.000    3.231 
#    0.000    1.846    0.000    1.385    0.000    0.615 
#
# Total GULP energy -644450.728221 kJ/mol
# GULP energy per Si atom -12393.283235 kJ/mol
# Density = 1.686882 g / cm^3
# Si number density = 16.907303 Si / 1000 Ang^3
#
#
#
# Elastic Constant Matrix: (Units=GPa)
#
#
# Indices 1 2 3 4 5 6 
#
# 1 142.3898 54.3541 16.1552 0.0000 0.0000 0.0000
# 2 54.3541 128.8720 18.0045 0.0000 0.0000 0.0000
# 3 16.1552 18.0045 40.9134 0.0000 0.0000 0.0000
# 4 0.0000 0.0000 0.0000 7.7574 0.0000 0.0000
# 5 0.0000 0.0000 0.0000 0.0000 -5.6843 0.0000
# 6 0.0000 0.0000 0.0000 0.0000 0.0000 24.5087
#
#
#
# Elastic Compliance Matrix: (Units=1/GPa)
#
#
# Indices 1 2 3 4 5 6 
#
# 1 0.008507 -0.003323 -0.001897 0.000000 0.000000 0.000000
# 2 -0.003323 0.009566 -0.002898 0.000000 0.000000 0.000000
# 3 -0.001897 -0.002898 0.026466 0.000000 0.000000 0.000000
# 4 0.000000 0.000000 0.000000 0.128909 0.000000 0.000000
# 5 0.000000 0.000000 0.000000 0.000000 -0.175922 0.000000
# 6 0.000000 0.000000 0.000000 0.000000 0.000000 0.040802
#
#
# Mechanical properties :
#
#
# Convention : Reuss Voigt Hill
#
# Bulk Modulus (GPa) = 35.33034 54.35586 44.84310
# Shear Modulus (GPa) = 78.12934 20.22711 49.17823
#
# Velocity S-wave (km/s) = 6.80520 3.46259 5.39908
# Velocity P-wave (km/s) = 9.09338 6.94299 8.08995
#
# Compressibility (1/GPa) = 0.02830429
#
# Stress axis : x y z
#
# Youngs Moduli (GPa) = 117.55607 104.53783 37.78447
#
# Poissons Ratio (x) = 0.34736 0.07166
# Poissons Ratio (y) = 0.39062 0.10948
# Poissons Ratio (z) = 0.22296 0.30290
#
# Static dielectric constant tensor:
#      x y z
#    x 3.376250 0.000000 0.000000 
#    y 0.000000 3.433000 0.000000 
#    z 0.000000 0.000000 2.632140 
# 
# 
# High freq. dielectric constant tensor:
#      x y z
#    x 1.668280 0.000000 0.000000 
#    y 0.000000 1.659610 0.000000 
#    z 0.000000 0.000000 1.576950 
# 
# From -- ./inp_files/17834.got.cif
#   From: 2010.03.12/outbox.cif.g09.slc.cpg/sg47_9_cif.got.tgz:17834.got - 2010.04.14 03:12:58.
