data_PCOD8194373
_publ_section_title
;
Structure prediction by ZEFSAII (Michael W. Deem and Ramdas Pophale) SiO2 
 PCOD8194373
Probable space group: P M M M
;
_chemical_formula_sum "Si O2"
_cell_formula_units_Z 52
_cell_length_a 20.509250
_cell_length_b 14.064625
_cell_length_c 10.228437
_cell_angle_alpha 90.000000
_cell_angle_beta 90.000000
_cell_angle_gamma 90.000000
_cell_volume 2950.442877
_symmetry_space_group_name_H-M "P M M M"
_symmetry_group_IT_number 47
_symmetry_cell_setting 'orthorhombic'
loop_
_space_group_symop_operation_xyz
x,y,z
-x,-y,z
x,-y,-z
-x,y,-z
-x,-y,-z
x,y,-z
-x,y,z
x,-y,z
loop_
_atom_site_type_symbol
_atom_site_label
_atom_site_fract_x
_atom_site_fract_y
_atom_site_fract_z
Si Si1 0.307791 0.104834 0.353722
Si Si2 0.772788 0.609167 0.852280
Si Si3 0.808748 0.234054 0.343282
Si Si4 0.577143 0.894744 0.000000
Si Si5 0.072172 0.105606 0.654769
Si Si6 0.425386 0.792067 0.740563
Si Si7 0.619375 0.606599 0.850518
O O1 0.284122 0.087117 0.500000
O O2 0.251935 0.170660 0.290230
O O3 0.377037 0.160431 0.363284
O O4 0.313814 0.000000 0.285521
O O5 0.793115 0.500000 0.831270
O O6 0.808764 0.668788 0.739432
O O7 0.695837 0.621443 0.834665
O O8 0.792427 0.641378 0.000000
O O9 0.805566 0.254965 0.500000
O O10 0.874408 0.180896 0.298434
O O11 0.601155 0.837942 0.125483
O O12 0.500000 0.900465 0.000000
O O13 0.607828 0.000000 0.000000
O O14 0.073108 0.100975 0.500000
O O15 0.000000 0.137034 0.703627
O O16 0.088803 0.000000 0.709353
O O17 0.500000 0.818110 0.705345
O O18 0.418221 0.678360 0.753397
O O19 0.599422 0.500000 0.808642
O O20 0.597401 0.624999 0.000000
#
# Coordination Sequence:
#
# PCOD8194373 Si02
#       7
#     8   8   8   4   8   8   8
#     4  10  21  35  49  67  92 124 162 200 237 282
#     4   9  18  33  52  73 100 133 165 201 249 301
#     4  10  18  30  53  80 102 127 164 208 245 281
#     4   9  18  30  43  63  89 117 149 189 239 288
#     4   8  14  26  47  77 110 139 165 196 240 293
#     4  11  20  31  47  66  91 122 155 195 243 292
#     4   9  17  31  50  70  92 119 155 199 248 301
#
# _framework density 17.624472999999998
#
# number of rings (size 3 to 8) (size 9 to 14) (size 15 to 20)
#    0.000    2.538    2.308    2.308    0.000    3.692 
#    0.000    1.538    0.000    2.769    0.000    5.385 
#    0.000    0.000    0.000    0.000    0.000    0.000 
#
# Total GULP energy -644414.363283 kJ/mol
# GULP energy per Si atom -12392.583909 kJ/mol
# Density = 1.758436 g / cm^3
# Si number density = 17.624473 Si / 1000 Ang^3
#
#
#
# Elastic Constant Matrix: (Units=GPa)
#
#
# Indices 1 2 3 4 5 6 
#
# 1 95.9256 46.3636 20.1625 0.0000 0.0000 0.0000
# 2 46.3636 119.2635 33.6509 0.0000 0.0000 0.0000
# 3 20.1625 33.6509 44.3476 0.0000 0.0000 0.0000
# 4 0.0000 0.0000 0.0000 25.1910 0.0000 0.0000
# 5 0.0000 0.0000 0.0000 0.0000 13.4765 0.0000
# 6 0.0000 0.0000 0.0000 0.0000 0.0000 28.7792
#
#
#
# Elastic Compliance Matrix: (Units=1/GPa)
#
#
# Indices 1 2 3 4 5 6 
#
# 1 0.013078 -0.004334 -0.002657 0.000000 0.000000 0.000000
# 2 -0.004334 0.012106 -0.007215 0.000000 0.000000 0.000000
# 3 -0.002657 -0.007215 0.029232 0.000000 0.000000 0.000000
# 4 0.000000 0.000000 0.000000 0.039697 0.000000 0.000000
# 5 0.000000 0.000000 0.000000 0.000000 0.074203 0.000000
# 6 0.000000 0.000000 0.000000 0.000000 0.000000 0.034747
#
#
# Mechanical properties :
#
#
# Convention : Reuss Voigt Hill
#
# Bulk Modulus (GPa) = 38.45753 51.09897 44.77825
# Shear Modulus (GPa) = 20.82091 24.11333 22.46712
#
# Velocity S-wave (km/s) = 3.44083 3.70290 3.57426
# Velocity P-wave (km/s) = 6.13625 6.88026 6.51888
#
# Compressibility (1/GPa) = 0.02600271
#
# Stress axis : x y z
#
# Youngs Moduli (GPa) = 76.46321 82.60653 34.20919
#
# Poissons Ratio (x) = 0.35805 0.09089
# Poissons Ratio (y) = 0.33143 0.24682
# Poissons Ratio (z) = 0.20316 0.59601
#
# Static dielectric constant tensor:
#      x y z
#    x 3.191430 0.000000 0.000000 
#    y 0.000000 3.482330 0.000000 
#    z 0.000000 0.000000 2.979790 
# 
# 
# High freq. dielectric constant tensor:
#      x y z
#    x 1.662470 0.000000 0.000000 
#    y 0.000000 1.690290 0.000000 
#    z 0.000000 0.000000 1.641740 
# 
# From -- ./inp_files/19154.got.cif
#   From: 2010.03.12/outbox.cif.g09.slc.cpg/sg47_10_cif.got.tgz:19154.got - 2010.04.14 03:12:58.
