data_PCOD8194428
_publ_section_title
;
Structure prediction by ZEFSAII (Michael W. Deem and Ramdas Pophale) SiO2 
 PCOD8194428
Probable space group: P M M M
;
_chemical_formula_sum "Si O2"
_cell_formula_units_Z 64
_cell_length_a 20.785105
_cell_length_b 8.981796
_cell_length_c 19.919354
_cell_angle_alpha 90.000000
_cell_angle_beta 90.000000
_cell_angle_gamma 90.000000
_cell_volume 3718.695853
_symmetry_space_group_name_H-M "P M M M"
_symmetry_group_IT_number 47
_symmetry_cell_setting 'orthorhombic'
loop_
_space_group_symop_operation_xyz
x,y,z
-x,-y,z
x,-y,-z
-x,y,-z
-x,-y,-z
x,y,-z
-x,y,z
x,-y,z
loop_
_atom_site_type_symbol
_atom_site_label
_atom_site_fract_x
_atom_site_fract_y
_atom_site_fract_z
Si Si1 0.191532 0.822775 0.285262
Si Si2 0.120731 0.326753 0.075589
Si Si3 0.625062 0.176566 0.572724
Si Si4 0.265402 0.676240 0.072666
Si Si5 0.427013 0.174290 0.711545
Si Si6 0.769966 0.823632 0.427392
Si Si7 0.312866 0.676728 0.213342
Si Si8 0.928996 0.174011 0.798847
O O1 0.187308 0.772491 0.363744
O O2 0.253737 0.748883 0.252521
O O3 0.126319 0.762530 0.250542
O O4 0.199098 0.000000 0.278873
O O5 0.118142 0.500000 0.092917
O O6 0.193123 0.263713 0.084253
O O7 0.074954 0.243219 0.127326
O O8 0.095977 0.296761 0.000000
O O9 0.598787 0.234544 0.500000
O O10 0.581795 0.232313 0.634812
O O11 0.697514 0.236213 0.583544
O O12 0.624814 0.000000 0.571688
O O13 0.261194 0.500000 0.069143
O O14 0.309730 0.726277 0.134850
O O15 0.291753 0.735641 0.000000
O O16 0.500000 0.205856 0.733706
O O17 0.380879 0.265123 0.760509
O O18 0.409884 0.000000 0.716749
O O19 0.796709 0.764436 0.500000
O O20 0.768024 0.000000 0.429923
O O21 0.308718 0.500000 0.221599
O O22 0.000000 0.210757 0.769231
O O23 0.918952 0.000000 0.806693
#
# Coordination Sequence:
#
# PCOD8194428 Si02
#       8
#     8   8   8   8   8   8   8   8
#     4  10  18  31  51  70  94 127 162 199 236 285
#     4   9  17  31  50  70  94 126 164 200 233 277
#     4   8  13  23  42  69  96 121 158 201 231 265
#     4   8  15  29  49  72  95 118 150 196 242 279
#     4  10  20  33  49  70  99 133 164 194 233 282
#     4   8  13  23  44  71  92 115 154 202 241 272
#     4  11  20  31  52  76  97 122 156 200 243 284
#     4  10  21  33  45  67 100 134 162 195 243 291
#
# _framework density 17.210336000000002
#
# number of rings (size 3 to 8) (size 9 to 14) (size 15 to 20)
#    0.000    2.750    2.500    1.875    0.000    1.250 
#    0.000    2.500    0.000    3.750    0.000    6.125 
#    0.000    0.000    0.000    2.250    0.000    2.500 
#
# Total GULP energy -792974.544586 kJ/mol
# GULP energy per Si atom -12390.227259 kJ/mol
# Density = 1.717116 g / cm^3
# Si number density = 17.210336 Si / 1000 Ang^3
#
#
#
# Elastic Constant Matrix: (Units=GPa)
#
#
# Indices 1 2 3 4 5 6 
#
# 1 94.9247 24.5288 64.6229 0.0000 0.0000 0.0000
# 2 24.5288 21.4116 26.1193 0.0000 0.0000 0.0000
# 3 64.6229 26.1193 142.3987 0.0000 0.0000 0.0000
# 4 0.0000 0.0000 0.0000 14.4311 0.0000 0.0000
# 5 0.0000 0.0000 0.0000 0.0000 24.6643 0.0000
# 6 0.0000 0.0000 0.0000 0.0000 0.0000 16.0859
#
#
#
# Elastic Compliance Matrix: (Units=1/GPa)
#
#
# Indices 1 2 3 4 5 6 
#
# 1 0.017879 -0.013635 -0.005613 0.000000 0.000000 0.000000
# 2 -0.013635 0.070564 -0.006755 0.000000 0.000000 0.000000
# 3 -0.005613 -0.006755 0.010809 0.000000 0.000000 0.000000
# 4 0.000000 0.000000 0.000000 0.069295 0.000000 0.000000
# 5 0.000000 0.000000 0.000000 0.000000 0.040544 0.000000
# 6 0.000000 0.000000 0.000000 0.000000 0.000000 0.062166
#
#
# Mechanical properties :
#
#
# Convention : Reuss Voigt Hill
#
# Bulk Modulus (GPa) = 21.16591 54.36410 37.76500
# Shear Modulus (GPa) = 14.74868 20.60052 17.67460
#
# Velocity S-wave (km/s) = 2.93058 3.46350 3.20812
# Velocity P-wave (km/s) = 4.87607 6.90298 5.97608
#
# Compressibility (1/GPa) = 0.04724579
#
# Stress axis : x y z
#
# Youngs Moduli (GPa) = 55.93114 14.17144 92.51701
#
# Poissons Ratio (x) = 0.19323 0.51928
# Poissons Ratio (y) = 0.76263 0.62498
# Poissons Ratio (z) = 0.31393 0.09573
#
# Static dielectric constant tensor:
#      x y z
#    x 3.112870 0.000000 0.000000 
#    y 0.000000 2.827650 0.000000 
#    z 0.000000 0.000000 3.873360 
# 
# 
# High freq. dielectric constant tensor:
#      x y z
#    x 1.638810 0.000000 0.000000 
#    y 0.000000 1.623310 0.000000 
#    z 0.000000 0.000000 1.677860 
# 
# From -- ./inp_files/30150.got.cif
#   From: 2010.03.12/outbox.cif.g09.slc.cpg/sg47_16_cif.got.tgz:30150.got - 2010.04.14 03:12:58.
