data_PCOD8194455
_publ_section_title
;
Structure prediction by ZEFSAII (Michael W. Deem and Ramdas Pophale) SiO2 
 PCOD8194455
Probable space group: P M M M
;
_chemical_formula_sum "Si O2"
_cell_formula_units_Z 64
_cell_length_a 19.621699
_cell_length_b 9.377123
_cell_length_c 20.809572
_cell_angle_alpha 90.000000
_cell_angle_beta 90.000000
_cell_angle_gamma 90.000000
_cell_volume 3828.858969
_symmetry_space_group_name_H-M "P M M M"
_symmetry_group_IT_number 47
_symmetry_cell_setting 'orthorhombic'
loop_
_space_group_symop_operation_xyz
x,y,z
-x,-y,z
x,-y,-z
-x,y,-z
-x,-y,-z
x,y,-z
-x,y,z
x,-y,z
loop_
_atom_site_type_symbol
_atom_site_label
_atom_site_fract_x
_atom_site_fract_y
_atom_site_fract_z
Si Si1 0.078015 0.665134 0.129565
Si Si2 0.193757 0.165828 0.071812
Si Si3 0.786050 0.834906 0.317594
Si Si4 0.924058 0.837725 0.742658
Si Si5 0.574862 0.832770 0.234511
Si Si6 0.424509 0.663175 0.636783
Si Si7 0.287151 0.333849 0.572309
Si Si8 0.715413 0.831842 0.812684
O O1 0.098505 0.500000 0.132684
O O2 0.123955 0.745968 0.077525
O O3 0.091395 0.732430 0.199099
O O4 0.000000 0.685116 0.108175
O O5 0.248185 0.228572 0.123363
O O6 0.177899 0.000000 0.084763
O O7 0.223254 0.187973 0.000000
O O8 0.867738 0.811501 0.312371
O O9 0.761101 0.750170 0.379351
O O10 0.750747 0.774405 0.252550
O O11 0.767246 0.000000 0.327499
O O12 0.000000 0.810472 0.714240
O O13 0.917345 0.000000 0.768610
O O14 0.500000 0.789348 0.206864
O O15 0.589381 0.759895 0.301977
O O16 0.635310 0.786870 0.185780
O O17 0.578331 0.000000 0.247803
O O18 0.500000 0.693525 0.607684
O O19 0.418832 0.500000 0.659661
O O20 0.367168 0.699105 0.584262
O O21 0.270247 0.284472 0.500000
O O22 0.271905 0.500000 0.581668
O O23 0.723426 0.000000 0.813737
#
# Coordination Sequence:
#
# PCOD8194455 Si02
#       8
#     8   8   8   8   8   8   8   8
#     4  10  20  32  47  70 101 132 159 192 236 285
#     4  10  20  34  51  69  93 129 168 203 240 283
#     4  10  18  31  52  74  96 123 157 200 243 281
#     4   9  17  31  52  75  98 124 158 199 239 282
#     4   9  16  27  46  69  94 124 154 189 237 286
#     4   9  17  29  45  66  93 124 159 195 230 273
#     4  10  21  34  47  68  99 131 162 196 236 285
#     4   9  16  29  48  72  96 119 156 202 240 276
#
# _framework density 16.715161999999999
#
# number of rings (size 3 to 8) (size 9 to 14) (size 15 to 20)
#    0.000    2.500    2.500    0.375    0.000    2.250 
#    0.000    3.125    0.000    0.750    0.000    7.875 
#    0.000    0.000    0.000    4.250    0.000    4.500 
#
# Total GULP energy -793289.580266 kJ/mol
# GULP energy per Si atom -12395.149692 kJ/mol
# Density = 1.667712 g / cm^3
# Si number density = 16.715162 Si / 1000 Ang^3
#
#
#
# Elastic Constant Matrix: (Units=GPa)
#
#
# Indices 1 2 3 4 5 6 
#
# 1 121.7714 38.8717 71.0112 0.0000 0.0000 0.0000
# 2 38.8717 49.5863 39.5517 0.0000 0.0000 0.0000
# 3 71.0112 39.5517 113.3386 0.0000 0.0000 0.0000
# 4 0.0000 0.0000 0.0000 12.9605 0.0000 0.0000
# 5 0.0000 0.0000 0.0000 0.0000 23.1468 0.0000
# 6 0.0000 0.0000 0.0000 0.0000 0.0000 20.8505
#
#
#
# Elastic Compliance Matrix: (Units=1/GPa)
#
#
# Indices 1 2 3 4 5 6 
#
# 1 0.013941 -0.005490 -0.006819 0.000000 0.000000 0.000000
# 2 -0.005490 0.030107 -0.007067 0.000000 0.000000 0.000000
# 3 -0.006819 -0.007067 0.015562 0.000000 0.000000 0.000000
# 4 0.000000 0.000000 0.000000 0.077158 0.000000 0.000000
# 5 0.000000 0.000000 0.000000 0.000000 0.043203 0.000000
# 6 0.000000 0.000000 0.000000 0.000000 0.000000 0.047960
#
#
# Mechanical properties :
#
#
# Convention : Reuss Voigt Hill
#
# Bulk Modulus (GPa) = 47.94160 64.84060 56.39110
# Shear Modulus (GPa) = 18.27258 20.40901 19.34079
#
# Velocity S-wave (km/s) = 3.30990 3.49805 3.40528
# Velocity P-wave (km/s) = 6.58415 7.42906 7.01933
#
# Compressibility (1/GPa) = 0.02085871
#
# Stress axis : x y z
#
# Youngs Moduli (GPa) = 71.73131 33.21471 64.26096
#
# Poissons Ratio (x) = 0.18234 0.43818
# Poissons Ratio (y) = 0.39378 0.45413
# Poissons Ratio (z) = 0.48912 0.23473
#
# Static dielectric constant tensor:
#      x y z
#    x 3.497780 0.000000 0.000000 
#    y 0.000000 3.057600 0.000000 
#    z 0.000000 0.000000 2.948330 
# 
# 
# High freq. dielectric constant tensor:
#      x y z
#    x 1.654580 0.000000 0.000000 
#    y 0.000000 1.631320 0.000000 
#    z 0.000000 0.000000 1.611220 
# 
# From -- ./inp_files/9926.got.cif
#   From: 2010.03.12/outbox.cif.g09.slc.cpg/sg47_5_cif.got.tgz:9926.got - 2010.04.14 03:12:58.
