data_PCOD8194491
_publ_section_title
;
Structure prediction by ZEFSAII (Michael W. Deem and Ramdas Pophale) SiO2 
 PCOD8194491
Probable space group: P M M M
;
_chemical_formula_sum "Si O2"
_cell_formula_units_Z 48
_cell_length_a 14.000036
_cell_length_b 20.747060
_cell_length_c 9.028864
_cell_angle_alpha 90.000000
_cell_angle_beta 90.000000
_cell_angle_gamma 90.000000
_cell_volume 2622.520108
_symmetry_space_group_name_H-M "P M M M"
_symmetry_group_IT_number 47
_symmetry_cell_setting 'orthorhombic'
loop_
_space_group_symop_operation_xyz
x,y,z
-x,-y,z
x,-y,-z
-x,y,-z
-x,-y,-z
x,y,-z
-x,y,z
x,-y,z
loop_
_atom_site_type_symbol
_atom_site_label
_atom_site_fract_x
_atom_site_fract_y
_atom_site_fract_z
Si Si1 0.107702 0.251288 0.175823
Si Si2 0.106719 0.000000 0.176237
Si Si3 0.783334 0.125579 0.175797
Si Si4 0.112911 0.500000 0.330430
Si Si5 0.608366 0.574948 0.671219
Si Si6 0.391687 0.073462 0.672838
Si Si7 0.211177 0.618952 0.175404
O O1 0.163358 0.188867 0.237253
O O2 0.164690 0.314237 0.228402
O O3 0.000000 0.252530 0.240699
O O4 0.102892 0.248327 0.000000
O O5 0.159499 0.936480 0.235471
O O6 0.000000 0.000000 0.240889
O O7 0.104553 0.000000 0.000000
O O8 0.676316 0.122418 0.239218
O O9 0.777555 0.126825 0.000000
O O10 0.148822 0.500000 0.500000
O O11 0.151107 0.562904 0.250184
O O12 0.000000 0.500000 0.319888
O O13 0.622359 0.593104 0.500000
O O14 0.500000 0.589727 0.721055
O O15 0.632631 0.500000 0.696707
O O16 0.679014 0.617538 0.770915
O O17 0.369945 0.079039 0.500000
O O18 0.500000 0.094263 0.707606
O O19 0.374631 0.000000 0.726598
O O20 0.207310 0.610474 0.000000
#
# Coordination Sequence:
#
# PCOD8194491 Si02
#       7
#     8   4   8   4   8   8   8
#     4   9  19  35  53  75 109 147 176 209 261 320
#     4   9  16  26  46  77 104 126 165 217 260 301
#     4  10  18  31  53  80 104 133 175 220 261 303
#     4  11  23  37  54  77 106 139 177 224 270 313
#     4   9  18  34  56  80 108 141 173 211 264 320
#     4   9  18  33  52  74 104 141 174 210 265 323
#     4  11  21  34  55  82 108 139 178 220 265 315
#
# _framework density 18.303004999999999
#
# number of rings (size 3 to 8) (size 9 to 14) (size 15 to 20)
#    0.000    2.333    1.667    2.750    0.000    4.000 
#    0.000    4.167    0.000    9.500    0.000    0.000 
#    0.000    0.000    0.000    0.000    0.000    0.000 
#
# Total GULP energy -595238.079412 kJ/mol
# GULP energy per Si atom -12400.793321 kJ/mol
# Density = 1.826135 g / cm^3
# Si number density = 18.303005 Si / 1000 Ang^3
#
#
#
# Elastic Constant Matrix: (Units=GPa)
#
#
# Indices 1 2 3 4 5 6 
#
# 1 152.4108 81.1917 44.7961 0.0000 0.0000 0.0000
# 2 81.1917 147.3925 40.8461 0.0000 0.0000 0.0000
# 3 44.7961 40.8461 49.5335 0.0000 0.0000 0.0000
# 4 0.0000 0.0000 0.0000 10.0224 0.0000 0.0000
# 5 0.0000 0.0000 0.0000 0.0000 27.1940 0.0000
# 6 0.0000 0.0000 0.0000 0.0000 0.0000 31.8919
#
#
#
# Elastic Compliance Matrix: (Units=1/GPa)
#
#
# Indices 1 2 3 4 5 6 
#
# 1 0.010562 -0.004110 -0.006162 0.000000 0.000000 0.000000
# 2 -0.004110 0.010394 -0.004854 0.000000 0.000000 0.000000
# 3 -0.006162 -0.004854 0.029764 0.000000 0.000000 0.000000
# 4 0.000000 0.000000 0.000000 0.099777 0.000000 0.000000
# 5 0.000000 0.000000 0.000000 0.000000 0.036773 0.000000
# 6 0.000000 0.000000 0.000000 0.000000 0.000000 0.031356
#
#
# Mechanical properties :
#
#
# Convention : Reuss Voigt Hill
#
# Bulk Modulus (GPa) = 48.85964 75.88939 62.37451
# Shear Modulus (GPa) = 19.55409 25.98853 22.77131
#
# Velocity S-wave (km/s) = 3.27211 3.77225 3.53105
# Velocity P-wave (km/s) = 6.40535 7.77984 7.12581
#
# Compressibility (1/GPa) = 0.02046679
#
# Stress axis : x y z
#
# Youngs Moduli (GPa) = 94.67763 96.21008 33.59780
#
# Poissons Ratio (x) = 0.39546 0.20705
# Poissons Ratio (y) = 0.38917 0.16307
# Poissons Ratio (z) = 0.58345 0.46697
#
# Static dielectric constant tensor:
#      x y z
#    x 3.579330 0.000000 0.000000 
#    y 0.000000 3.385890 0.000000 
#    z 0.000000 0.000000 3.057400 
# 
# 
# High freq. dielectric constant tensor:
#      x y z
#    x 1.728210 0.000000 0.000000 
#    y 0.000000 1.697000 0.000000 
#    z 0.000000 0.000000 1.681410 
# 
# From -- ./inp_files/6416.got.cif
#   From: 2010.03.12/outbox.cif.g09.slc.cpg/sg47_4_cif.got.tgz:6416.got - 2010.04.14 03:12:58.
