data_PCOD8194059
_publ_section_title
;
Structure prediction by ZEFSAII (Michael W. Deem and Ramdas Pophale) SiO2 
 PCOD8194059
Probable space group: P M M M
;
_chemical_formula_sum "Si O2"
_cell_formula_units_Z 64
_cell_length_a 8.801566
_cell_length_b 14.660142
_cell_length_c 27.742843
_cell_angle_alpha 90.000000
_cell_angle_beta 90.000000
_cell_angle_gamma 90.000000
_cell_volume 3579.720271
_symmetry_space_group_name_H-M "P M M M"
_symmetry_group_IT_number 47
_symmetry_cell_setting 'orthorhombic'
loop_
_space_group_symop_operation_xyz
x,y,z
-x,-y,z
x,-y,-z
-x,y,-z
-x,-y,-z
x,y,-z
-x,y,z
x,-y,z
loop_
_atom_site_type_symbol
_atom_site_label
_atom_site_fract_x
_atom_site_fract_y
_atom_site_fract_z
Si Si1 0.179370 0.898637 0.553827
Si Si2 0.822868 0.344913 0.227768
Si Si3 0.678944 0.281624 0.135867
Si Si4 0.674679 0.401285 0.680787
Si Si5 0.823924 0.099681 0.173709
Si Si6 0.323889 0.163500 0.261128
Si Si7 0.674179 0.215418 0.635546
Si Si8 0.175538 0.396236 0.055988
O O1 0.236192 0.873246 0.500000
O O2 0.234947 0.822625 0.590625
O O3 0.000000 0.899463 0.555122
O O4 0.240381 0.000000 0.567594
O O5 0.740604 0.353119 0.175987
O O6 0.759839 0.413601 0.268125
O O7 0.786791 0.245668 0.247828
O O8 0.000000 0.362400 0.220125
O O9 0.500000 0.272140 0.140156
O O10 0.748994 0.179955 0.142055
O O11 0.723409 0.323113 0.084444
O O12 0.500000 0.377980 0.692533
O O13 0.691396 0.500000 0.654140
O O14 0.737176 0.317501 0.648268
O O15 0.738967 0.085463 0.225805
O O16 0.000000 0.124525 0.181734
O O17 0.807972 0.000000 0.148127
O O18 0.500000 0.185424 0.249380
O O19 0.305521 0.146878 0.318530
O O20 0.500000 0.221282 0.619798
O O21 0.224622 0.500000 0.068334
O O22 0.000000 0.381706 0.069621
O O23 0.202987 0.376489 0.000000
#
# Coordination Sequence:
#
# PCOD8194059 Si02
#       8
#     8   8   8   8   8   8   8   8
#     4   9  19  35  52  70  93 122 156 195 243 296
#     4  10  18  29  46  68  96 128 166 207 240 277
#     4  11  21  33  52  76 104 137 170 206 250 299
#     4   9  18  33  50  69  99 135 166 198 239 288
#     4  10  20  33  50  73 102 137 176 213 247 288
#     4   9  17  30  46  66  96 130 163 199 240 287
#     4   9  18  31  49  74  98 124 160 199 241 288
#     4   9  19  37  59  80 102 129 162 203 252 303
#
# _framework density 17.878491
#
# number of rings (size 3 to 8) (size 9 to 14) (size 15 to 20)
#    0.000    2.500    0.000    6.000    0.000    5.750 
#    0.000    3.750    0.000    0.750    0.000    5.250 
#    0.000    0.000    0.000    0.000    0.000    0.000 
#
# Total GULP energy -792911.550124 kJ/mol
# GULP energy per Si atom -12389.242971 kJ/mol
# Density = 1.783780 g / cm^3
# Si number density = 17.878491 Si / 1000 Ang^3
#
#
#
# Elastic Constant Matrix: (Units=GPa)
#
#
# Indices 1 2 3 4 5 6 
#
# 1 89.9106 41.6092 42.0704 0.0000 0.0000 0.0000
# 2 41.6092 105.4927 56.4571 0.0000 0.0000 0.0000
# 3 42.0704 56.4571 97.3129 0.0000 0.0000 0.0000
# 4 0.0000 0.0000 0.0000 25.2389 0.0000 0.0000
# 5 0.0000 0.0000 0.0000 0.0000 27.2591 0.0000
# 6 0.0000 0.0000 0.0000 0.0000 0.0000 19.6149
#
#
#
# Elastic Compliance Matrix: (Units=1/GPa)
#
#
# Indices 1 2 3 4 5 6 
#
# 1 0.014781 -0.003495 -0.004362 0.000000 0.000000 0.000000
# 2 -0.003495 0.014575 -0.006944 0.000000 0.000000 0.000000
# 3 -0.004362 -0.006944 0.016191 0.000000 0.000000 0.000000
# 4 0.000000 0.000000 0.000000 0.039621 0.000000 0.000000
# 5 0.000000 0.000000 0.000000 0.000000 0.036685 0.000000
# 6 0.000000 0.000000 0.000000 0.000000 0.000000 0.050982
#
#
# Mechanical properties :
#
#
# Convention : Reuss Voigt Hill
#
# Bulk Modulus (GPa) = 62.72652 63.66551 63.19601
# Shear Modulus (GPa) = 24.06710 24.59454 24.33082
#
# Velocity S-wave (km/s) = 3.67297 3.71300 3.69304
# Velocity P-wave (km/s) = 7.29031 7.35318 7.32181
#
# Compressibility (1/GPa) = 0.01594222
#
# Stress axis : x y z
#
# Youngs Moduli (GPa) = 67.65473 68.61295 61.76325
#
# Poissons Ratio (x) = 0.23983 0.26942
# Poissons Ratio (y) = 0.23649 0.42891
# Poissons Ratio (z) = 0.29512 0.47648
#
# Static dielectric constant tensor:
#      x y z
#    x 3.294030 0.000000 0.000000 
#    y 0.000000 3.377110 0.000000 
#    z 0.000000 0.000000 3.294600 
# 
# 
# High freq. dielectric constant tensor:
#      x y z
#    x 1.693700 0.000000 0.000000 
#    y 0.000000 1.685240 0.000000 
#    z 0.000000 0.000000 1.668650 
# 
# From -- ./inp_files/34417.got.cif
#   From: 2010.03.12/outbox.cif.g09.slc.cpg/sg47_18_cif.got.tgz:34417.got - 2010.04.14 03:12:58.
