data_PCOD8194504
_publ_section_title
;
Structure prediction by ZEFSAII (Michael W. Deem and Ramdas Pophale) SiO2 
 PCOD8194504
Probable space group: P M M M
;
_chemical_formula_sum "Si O2"
_cell_formula_units_Z 52
_cell_length_a 8.735995
_cell_length_b 11.774267
_cell_length_c 28.578433
_cell_angle_alpha 90.000000
_cell_angle_beta 90.000000
_cell_angle_gamma 90.000000
_cell_volume 2939.575836
_symmetry_space_group_name_H-M "P M M M"
_symmetry_group_IT_number 47
_symmetry_cell_setting 'orthorhombic'
loop_
_space_group_symop_operation_xyz
x,y,z
-x,-y,z
x,-y,-z
-x,y,-z
-x,-y,-z
x,y,-z
-x,y,z
x,-y,z
loop_
_atom_site_type_symbol
_atom_site_label
_atom_site_fract_x
_atom_site_fract_y
_atom_site_fract_z
Si Si1 0.169409 0.000000 0.846334
Si Si2 0.174741 0.772191 0.903374
Si Si3 0.172125 0.635137 0.450454
Si Si4 0.818403 0.236562 0.738285
Si Si5 0.817338 0.129818 0.000000
Si Si6 0.320289 0.631108 0.174514
Si Si7 0.677257 0.000000 0.752586
Si Si8 0.183161 0.627297 0.350611
O O1 0.188846 0.109079 0.877608
O O2 0.302644 0.000000 0.808321
O O3 0.000000 0.000000 0.822344
O O4 0.273228 0.676725 0.876766
O O5 0.000000 0.729254 0.905018
O O6 0.239441 0.797105 0.955328
O O7 0.255139 0.672275 0.500000
O O8 0.168498 0.500000 0.447394
O O9 0.246624 0.676824 0.400992
O O10 0.000000 0.682289 0.453045
O O11 0.761133 0.294972 0.785683
O O12 0.753700 0.300989 0.692758
O O13 0.000000 0.237052 0.740305
O O14 0.757846 0.110117 0.731553
O O15 0.000000 0.120656 0.000000
O O16 0.751552 0.000000 0.000000
O O17 0.500000 0.644972 0.180955
O O18 0.269437 0.500000 0.178985
O O19 0.500000 0.000000 0.739527
O O20 0.243673 0.500000 0.342619
O O21 0.000000 0.629052 0.352247
#
# Coordination Sequence:
#
# PCOD8194504 Si02
#       8
#     4   8   8   8   4   8   4   8
#     4  10  18  31  54  82 104 128 160 200 247 295
#     4  10  19  33  57  83 107 131 163 204 249 300
#     4   7   9  15  30  55  90 128 159 189 234 292
#     4  11  21  34  53  75 100 130 168 210 250 296
#     4   9  16  30  54  85 110 128 155 202 257 298
#     4  11  24  39  53  72 102 138 173 207 247 297
#     4  12  24  36  51  73 102 132 163 205 253 300
#     4   8  14  24  40  66  98 130 163 199 241 291
#
# _framework density 17.689627000000002
#
# number of rings (size 3 to 8) (size 9 to 14) (size 15 to 20)
#    0.000    2.385    2.308    3.462    0.000    1.846 
#    0.000    0.769    0.000    2.769    0.000    0.538 
#    0.000    6.769    0.000   17.385    0.000   14.154 
#
# Total GULP energy -644247.264728 kJ/mol
# GULP energy per Si atom -12389.370476 kJ/mol
# Density = 1.764936 g / cm^3
# Si number density = 17.689627 Si / 1000 Ang^3
#
#
#
# Elastic Constant Matrix: (Units=GPa)
#
#
# Indices 1 2 3 4 5 6 
#
# 1 43.7423 27.5849 23.0667 0.0000 0.0000 0.0000
# 2 27.5849 100.4090 57.0036 0.0000 0.0000 0.0000
# 3 23.0667 57.0036 162.4990 0.0000 0.0000 0.0000
# 4 0.0000 0.0000 0.0000 -1.6088 0.0000 0.0000
# 5 0.0000 0.0000 0.0000 0.0000 -0.0756 0.0000
# 6 0.0000 0.0000 0.0000 0.0000 0.0000 22.4779
#
#
#
# Elastic Compliance Matrix: (Units=1/GPa)
#
#
# Indices 1 2 3 4 5 6 
#
# 1 0.027978 -0.006782 -0.001592 0.000000 0.000000 0.000000
# 2 -0.006782 0.014080 -0.003976 0.000000 0.000000 0.000000
# 3 -0.001592 -0.003976 0.007775 0.000000 0.000000 0.000000
# 4 0.000000 0.000000 0.000000 -0.621573 0.000000 0.000000
# 5 0.000000 0.000000 0.000000 0.000000-13.229437 0.000000
# 6 0.000000 0.000000 0.000000 0.000000 0.000000 0.044488
#
#
# Mechanical properties :
#
#
# Convention : Reuss Voigt Hill
#
# Bulk Modulus (GPa) = 39.79193 57.99563 48.89378
# Shear Modulus (GPa) = -0.36434 17.42504 8.53035
#
# Velocity S-wave (km/s) = -0.45432 3.14194 2.19834
# Velocity P-wave (km/s) = 4.71891 6.78371 5.84324
#
# Compressibility (1/GPa) = 0.02513072
#
# Stress axis : x y z
#
# Youngs Moduli (GPa) = 35.74257 71.02274 128.62045
#
# Poissons Ratio (x) = 0.48169 0.20480
# Poissons Ratio (y) = 0.24242 0.51145
# Poissons Ratio (z) = 0.05691 0.28242
#
# Static dielectric constant tensor:
#      x y z
#    x 2.943490 0.000000 0.000000 
#    y 0.000000 3.180820 0.000000 
#    z 0.000000 0.000000 3.849750 
# 
# 
# High freq. dielectric constant tensor:
#      x y z
#    x 1.643980 0.000000 0.000000 
#    y 0.000000 1.658240 0.000000 
#    z 0.000000 0.000000 1.701550 
# 
# From -- ./inp_files/34346.got.cif
#   From: 2010.03.12/outbox.cif.g09.slc.cpg/sg47_18_cif.got.tgz:34346.got - 2010.04.14 03:12:58.
