data_PCOD8194053
_publ_section_title
;
Structure prediction by ZEFSAII (Michael W. Deem and Ramdas Pophale) SiO2 
 PCOD8194053
Probable space group: P M M M
;
_chemical_formula_sum "Si O2"
_cell_formula_units_Z 44
_cell_length_a 12.579688
_cell_length_b 9.514926
_cell_length_c 24.607592
_cell_angle_alpha 90.000000
_cell_angle_beta 90.000000
_cell_angle_gamma 90.000000
_cell_volume 2945.400813
_symmetry_space_group_name_H-M "P M M M"
_symmetry_group_IT_number 47
_symmetry_cell_setting 'orthorhombic'
loop_
_space_group_symop_operation_xyz
x,y,z
-x,-y,z
x,-y,-z
-x,y,-z
-x,-y,-z
x,y,-z
-x,y,z
x,-y,z
loop_
_atom_site_type_symbol
_atom_site_label
_atom_site_fract_x
_atom_site_fract_y
_atom_site_fract_z
Si Si1 0.293025 0.664167 0.376816
Si Si2 0.123223 0.837750 0.438115
Si Si3 0.377092 0.339198 0.259988
Si Si4 0.500000 0.667191 0.438557
Si Si5 0.626685 0.158392 0.158565
Si Si6 0.373578 0.342331 0.939704
O O1 0.278484 0.500000 0.389047
O O2 0.188685 0.743810 0.396380
O O3 0.307360 0.692600 0.312966
O O4 0.395186 0.724982 0.408737
O O5 0.151349 0.795457 0.500000
O O6 0.000000 0.809111 0.426501
O O7 0.151138 0.000000 0.428166
O O8 0.500000 0.308565 0.274118
O O9 0.363849 0.500000 0.240863
O O10 0.334002 0.239734 0.212139
O O11 0.500000 0.500000 0.435512
O O12 0.500000 0.723284 0.500000
O O13 0.500000 0.159467 0.156729
O O14 0.673388 0.235746 0.105117
O O15 0.671239 0.000000 0.159856
O O16 0.500000 0.341799 0.936883
O O17 0.332203 0.500000 0.927494
O O18 0.336321 0.294376 0.000000
#
# Coordination Sequence:
#
# PCOD8194053 Si02
#       6
#     8   8   8   4   8   8
#     4  10  18  29  46  67  85 106 137 171 206 245
#     4   9  19  35  50  63  83 110 136 165 206 253
#     4   9  16  27  40  54  77 106 134 162 198 245
#     4   9  16  26  41  63  89 109 126 159 208 251
#     4   9  16  23  32  48  69  95 129 166 202 236
#     4   8  13  21  32  45  62  88 124 164 205 244
#
# _framework density 14.938542999999999
#
# number of rings (size 3 to 8) (size 9 to 14) (size 15 to 20)
#    0.000    3.000    0.909    2.182    0.000    4.727 
#    0.000    3.182    0.000    1.636    0.000    0.000 
#    0.000    0.000    0.000    0.000    0.000    0.909 
#
# Total GULP energy -545481.208604 kJ/mol
# GULP energy per Si atom -12397.300196 kJ/mol
# Density = 1.490454 g / cm^3
# Si number density = 14.938543 Si / 1000 Ang^3
#
#
#
# Elastic Constant Matrix: (Units=GPa)
#
#
# Indices 1 2 3 4 5 6 
#
# 1 41.0026 31.6467 36.0594 0.0000 0.0000 0.0000
# 2 31.6467 91.3419 74.0578 0.0000 0.0000 0.0000
# 3 36.0594 74.0578 123.9929 0.0000 0.0000 0.0000
# 4 0.0000 0.0000 0.0000 23.7735 0.0000 0.0000
# 5 0.0000 0.0000 0.0000 0.0000 9.1109 0.0000
# 6 0.0000 0.0000 0.0000 0.0000 0.0000 16.3360
#
#
#
# Elastic Compliance Matrix: (Units=1/GPa)
#
#
# Indices 1 2 3 4 5 6 
#
# 1 0.035278 -0.007570 -0.005738 0.000000 0.000000 0.000000
# 2 -0.007570 0.022852 -0.011447 0.000000 0.000000 0.000000
# 3 -0.005738 -0.011447 0.016571 0.000000 0.000000 0.000000
# 4 0.000000 0.000000 0.000000 0.042064 0.000000 0.000000
# 5 0.000000 0.000000 0.000000 0.000000 0.109759 0.000000
# 6 0.000000 0.000000 0.000000 0.000000 0.000000 0.061214
#
#
# Mechanical properties :
#
#
# Convention : Reuss Voigt Hill
#
# Bulk Modulus (GPa) = 39.69906 59.98504 49.84205
# Shear Modulus (GPa) = 14.46571 17.48231 15.97401
#
# Velocity S-wave (km/s) = 3.11521 3.42465 3.27359
# Velocity P-wave (km/s) = 6.29062 7.47525 6.90838
#
# Compressibility (1/GPa) = 0.02518951
#
# Stress axis : x y z
#
# Youngs Moduli (GPa) = 28.34650 43.76000 60.34717
#
# Poissons Ratio (x) = 0.33128 0.34626
# Poissons Ratio (y) = 0.21460 0.69081
# Poissons Ratio (z) = 0.16265 0.50093
#
# Static dielectric constant tensor:
#      x y z
#    x 2.378540 0.000000 0.000000 
#    y 0.000000 2.891680 0.000000 
#    z 0.000000 0.000000 3.037680 
# 
# 
# High freq. dielectric constant tensor:
#      x y z
#    x 1.505860 0.000000 0.000000 
#    y 0.000000 1.568330 0.000000 
#    z 0.000000 0.000000 1.582140 
# 
# From -- ./inp_files/4332.got.cif
#   From: 2010.03.12/outbox.cif.g09.slc.cpg/sg47_3_cif.got.tgz:4332.got - 2010.04.14 03:12:58.
