data_PCOD8194136
_publ_section_title
;
Structure prediction by ZEFSAII (Michael W. Deem and Ramdas Pophale) SiO2 
 PCOD8194136
Probable space group: P M M M
;
_chemical_formula_sum "Si O2"
_cell_formula_units_Z 56
_cell_length_a 9.142636
_cell_length_b 18.548620
_cell_length_c 18.927388
_cell_angle_alpha 90.000000
_cell_angle_beta 90.000000
_cell_angle_gamma 90.000000
_cell_volume 3209.768557
_symmetry_space_group_name_H-M "P M M M"
_symmetry_group_IT_number 47
_symmetry_cell_setting 'orthorhombic'
loop_
_space_group_symop_operation_xyz
x,y,z
-x,-y,z
x,-y,-z
-x,y,-z
-x,-y,-z
x,y,-z
-x,y,z
x,-y,z
loop_
_atom_site_type_symbol
_atom_site_label
_atom_site_fract_x
_atom_site_fract_y
_atom_site_fract_z
Si Si1 0.329947 0.918998 0.153842
Si Si2 0.669893 0.829074 0.711374
Si Si3 0.831869 0.189362 0.578812
Si Si4 0.829860 0.206115 0.079329
Si Si5 0.827196 0.703221 0.788777
Si Si6 0.331219 0.583383 0.711451
Si Si7 0.168164 0.641660 0.420610
O O1 0.500000 0.915934 0.135737
O O2 0.300750 0.893671 0.234029
O O3 0.250877 0.867868 0.097952
O O4 0.268780 0.000000 0.145938
O O5 0.500000 0.808184 0.708453
O O6 0.728152 0.852863 0.634246
O O7 0.763484 0.759460 0.732747
O O8 0.794911 0.161459 0.500000
O O9 0.798496 0.273929 0.583663
O O10 0.000000 0.173100 0.597098
O O11 0.784886 0.271028 0.131980
O O12 0.000000 0.189309 0.086968
O O13 0.787852 0.230008 0.000000
O O14 0.754926 0.626238 0.772876
O O15 0.000000 0.697778 0.777820
O O16 0.500000 0.606438 0.713044
O O17 0.310437 0.500000 0.729519
O O18 0.269802 0.599044 0.633546
O O19 0.201291 0.613802 0.500000
O O20 0.000000 0.626438 0.400662
#
# Coordination Sequence:
#
# PCOD8194136 Si02
#       7
#     8   8   8   8   8   8   8
#     4   9  19  34  50  73 107 141 168 195 232 284
#     4  10  18  29  49  73  96 126 166 208 246 284
#     4   9  17  29  46  69  96 125 160 206 255 297
#     4   9  19  35  55  80 106 130 159 199 243 284
#     4  10  19  33  53  73  96 127 163 200 241 293
#     4  11  23  35  48  70 100 131 164 206 251 291
#     4   9  18  32  49  69  95 129 166 203 247 298
#
# _framework density 17.446740999999999
#
# number of rings (size 3 to 8) (size 9 to 14) (size 15 to 20)
#    0.000    2.429    1.429    2.143    0.000    4.000 
#    0.000    4.286    0.000    0.857    0.000    6.000 
#    0.000    0.000    0.000    0.000    0.000    0.000 
#
# Total GULP energy -694361.822646 kJ/mol
# GULP energy per Si atom -12399.318262 kJ/mol
# Density = 1.740703 g / cm^3
# Si number density = 17.446741 Si / 1000 Ang^3
#
#
#
# Elastic Constant Matrix: (Units=GPa)
#
#
# Indices 1 2 3 4 5 6 
#
# 1 77.8257 37.4221 52.0240 0.0000 0.0000 0.0000
# 2 37.4221 68.8506 45.1372 0.0000 0.0000 0.0000
# 3 52.0240 45.1372 130.3220 0.0000 0.0000 0.0000
# 4 0.0000 0.0000 0.0000 18.5623 0.0000 0.0000
# 5 0.0000 0.0000 0.0000 0.0000 24.8203 0.0000
# 6 0.0000 0.0000 0.0000 0.0000 0.0000 19.4336
#
#
#
# Elastic Compliance Matrix: (Units=1/GPa)
#
#
# Indices 1 2 3 4 5 6 
#
# 1 0.020007 -0.007295 -0.005460 0.000000 0.000000 0.000000
# 2 -0.007295 0.021451 -0.004517 0.000000 0.000000 0.000000
# 3 -0.005460 -0.004517 0.011418 0.000000 0.000000 0.000000
# 4 0.000000 0.000000 0.000000 0.053873 0.000000 0.000000
# 5 0.000000 0.000000 0.000000 0.000000 0.040290 0.000000
# 6 0.000000 0.000000 0.000000 0.000000 0.000000 0.051457
#
#
# Mechanical properties :
#
#
# Convention : Reuss Voigt Hill
#
# Bulk Modulus (GPa) = 54.55384 60.68499 57.61941
# Shear Modulus (GPa) = 20.90747 22.05756 21.48251
#
# Velocity S-wave (km/s) = 3.46549 3.55953 3.51282
# Velocity P-wave (km/s) = 6.88110 7.19390 7.03923
#
# Compressibility (1/GPa) = 0.01833052
#
# Stress axis : x y z
#
# Youngs Moduli (GPa) = 49.98326 46.61874 87.58432
#
# Poissons Ratio (x) = 0.34007 0.47822
# Poissons Ratio (y) = 0.36461 0.39566
# Poissons Ratio (z) = 0.27291 0.21060
#
# Static dielectric constant tensor:
#      x y z
#    x 3.257530 0.000000 0.000000 
#    y 0.000000 3.045560 0.000000 
#    z 0.000000 0.000000 3.465820 
# 
# 
# High freq. dielectric constant tensor:
#      x y z
#    x 1.678270 0.000000 0.000000 
#    y 0.000000 1.643110 0.000000 
#    z 0.000000 0.000000 1.676680 
# 
# From -- ./inp_files/26936.got.cif
#   From: 2010.03.12/outbox.cif.g09.slc.cpg/sg47_14_cif.got.tgz:26936.got - 2010.04.14 03:12:58.
