data_PCOD8194007
_publ_section_title
;
Structure prediction by ZEFSAII (Michael W. Deem and Ramdas Pophale) SiO2 
 PCOD8194007
Probable space group: P M M M
;
_chemical_formula_sum "Si O2"
_cell_formula_units_Z 60
_cell_length_a 12.920768
_cell_length_b 22.352204
_cell_length_c 13.344597
_cell_angle_alpha 90.000000
_cell_angle_beta 90.000000
_cell_angle_gamma 90.000000
_cell_volume 3854.021595
_symmetry_space_group_name_H-M "P M M M"
_symmetry_group_IT_number 47
_symmetry_cell_setting 'orthorhombic'
loop_
_space_group_symop_operation_xyz
x,y,z
-x,-y,z
x,-y,-z
-x,y,-z
-x,-y,-z
x,y,-z
-x,y,z
x,-y,z
loop_
_atom_site_type_symbol
_atom_site_label
_atom_site_fract_x
_atom_site_fract_y
_atom_site_fract_z
Si Si1 0.699811 0.240726 0.228171
Si Si2 0.379105 0.565699 0.275443
Si Si3 0.881430 0.816647 0.884661
Si Si4 0.759242 0.066737 0.887249
Si Si5 0.619736 0.886495 0.715621
Si Si6 0.618340 0.677953 0.386679
Si Si7 0.377387 0.931421 0.500000
Si Si8 0.378473 0.346489 0.891532
O O1 0.814660 0.224361 0.190502
O O2 0.634270 0.182430 0.255551
O O3 0.701381 0.282427 0.326691
O O4 0.644382 0.278613 0.141461
O O5 0.500000 0.555914 0.258856
O O6 0.326077 0.500000 0.286222
O O7 0.358647 0.606974 0.373254
O O8 0.331318 0.603059 0.182195
O O9 0.851207 0.886035 0.869493
O O10 0.000000 0.808420 0.853339
O O11 0.862948 0.797149 0.000000
O O12 0.672871 0.073688 0.801544
O O13 0.806009 0.000000 0.878650
O O14 0.712049 0.076502 0.000000
O O15 0.500000 0.903794 0.717681
O O16 0.664313 0.899932 0.602895
O O17 0.630782 0.696833 0.500000
O O18 0.500000 0.690638 0.348452
O O19 0.500000 0.926804 0.500000
O O20 0.339509 0.000000 0.500000
O O21 0.500000 0.354761 0.896287
O O22 0.327868 0.357214 0.000000
#
# Coordination Sequence:
#
# PCOD8194007 Si02
#       8
#     8   8   8   8   8   8   4   8
#     4  10  18  29  43  62  86 111 144 180 221 262
#     4   8  14  24  36  54  83 119 158 189 208 235
#     4   9  18  32  49  67  85 107 138 178 223 271
#     4   9  18  31  46  66  89 112 140 175 218 268
#     4  10  19  29  43  63  88 119 150 181 216 259
#     4   9  17  27  41  62  89 120 151 183 217 255
#     4   9  18  30  42  58  81 111 148 184 213 246
#     4   9  16  25  38  58  87 121 149 176 213 257
#
# _framework density 15.568152
#
# number of rings (size 3 to 8) (size 9 to 14) (size 15 to 20)
#    0.000    2.867    0.000    2.800    0.933    2.400 
#    0.000    4.667    0.000    0.400    0.000    0.000 
#    0.000   13.600    0.000   34.133    0.000    1.067 
#
# Total GULP energy -743363.154843 kJ/mol
# GULP energy per Si atom -12389.385914 kJ/mol
# Density = 1.553272 g / cm^3
# Si number density = 15.568152 Si / 1000 Ang^3
#
#
#
# Elastic Constant Matrix: (Units=GPa)
#
#
# Indices 1 2 3 4 5 6 
#
# 1 49.2082 27.8646 38.3879 0.0000 0.0000 0.0000
# 2 27.8646 102.2009 34.3497 0.0000 0.0000 0.0000
# 3 38.3879 34.3497 97.7734 0.0000 0.0000 0.0000
# 4 0.0000 0.0000 0.0000 15.1772 0.0000 0.0000
# 5 0.0000 0.0000 0.0000 0.0000 15.1352 0.0000
# 6 0.0000 0.0000 0.0000 0.0000 0.0000 10.4196
#
#
#
# Elastic Compliance Matrix: (Units=1/GPa)
#
#
# Indices 1 2 3 4 5 6 
#
# 1 0.031404 -0.005010 -0.010570 0.000000 0.000000 0.000000
# 2 -0.005010 0.011894 -0.002212 0.000000 0.000000 0.000000
# 3 -0.010570 -0.002212 0.015155 0.000000 0.000000 0.000000
# 4 0.000000 0.000000 0.000000 0.065888 0.000000 0.000000
# 5 0.000000 0.000000 0.000000 0.000000 0.066071 0.000000
# 6 0.000000 0.000000 0.000000 0.000000 0.000000 0.095973
#
#
# Mechanical properties :
#
#
# Convention : Reuss Voigt Hill
#
# Bulk Modulus (GPa) = 43.72483 50.04299 46.88391
# Shear Modulus (GPa) = 15.17029 18.05175 16.61102
#
# Velocity S-wave (km/s) = 3.12499 3.40888 3.27002
# Velocity P-wave (km/s) = 6.41622 6.90711 6.66619
#
# Compressibility (1/GPa) = 0.02287030
#
# Stress axis : x y z
#
# Youngs Moduli (GPa) = 31.84263 84.07703 65.98594
#
# Poissons Ratio (x) = 0.42120 0.69747
# Poissons Ratio (y) = 0.15952 0.14594
# Poissons Ratio (z) = 0.33658 0.18595
#
# Static dielectric constant tensor:
#      x y z
#    x 2.483290 0.000000 0.000000 
#    y 0.000000 3.167060 0.000000 
#    z 0.000000 0.000000 3.258730 
# 
# 
# High freq. dielectric constant tensor:
#      x y z
#    x 1.529110 0.000000 0.000000 
#    y 0.000000 1.606960 0.000000 
#    z 0.000000 0.000000 1.608870 
# 
# From -- ./inp_files/23078.got.cif
#   From: 2010.03.12/outbox.cif.g09.slc.cpg/sg47_12_cif.got.tgz:23078.got - 2010.04.14 03:12:58.
