data_PCOD8194688
_publ_section_title
;
Structure prediction by ZEFSAII (Michael W. Deem and Ramdas Pophale) SiO2 
 PCOD8194688
Probable space group: P M M M
;
_chemical_formula_sum "Si O2"
_cell_formula_units_Z 56
_cell_length_a 29.291193
_cell_length_b 8.988364
_cell_length_c 13.678023
_cell_angle_alpha 90.000000
_cell_angle_beta 90.000000
_cell_angle_gamma 90.000000
_cell_volume 3601.148592
_symmetry_space_group_name_H-M "P M M M"
_symmetry_group_IT_number 47
_symmetry_cell_setting 'orthorhombic'
loop_
_space_group_symop_operation_xyz
x,y,z
-x,-y,z
x,-y,-z
-x,y,-z
-x,-y,-z
x,y,-z
-x,y,z
x,-y,z
loop_
_atom_site_type_symbol
_atom_site_label
_atom_site_fract_x
_atom_site_fract_y
_atom_site_fract_z
Si Si1 0.139461 0.172476 0.385411
Si Si2 0.949925 0.333056 0.615986
Si Si3 0.449488 0.323362 0.890618
Si Si4 0.637272 0.323887 0.223804
Si Si5 0.689151 0.828551 0.387717
Si Si6 0.274411 0.675163 0.107093
Si Si7 0.225619 0.323464 0.701975
O O1 0.145507 0.207421 0.500000
O O2 0.089448 0.221839 0.347101
O O3 0.175888 0.265709 0.324740
O O4 0.146154 0.000000 0.362839
O O5 0.950858 0.332383 0.500000
O O6 0.939400 0.500000 0.653611
O O7 0.000000 0.281061 0.654845
O O8 0.500000 0.273521 0.854614
O O9 0.446224 0.500000 0.894453
O O10 0.411237 0.263203 0.815995
O O11 0.440524 0.261151 0.000000
O O12 0.637135 0.500000 0.242483
O O13 0.648092 0.243293 0.325703
O O14 0.675514 0.278375 0.144608
O O15 0.675192 0.810511 0.500000
O O16 0.737011 0.745844 0.370230
O O17 0.695524 0.000000 0.358338
O O18 0.272350 0.500000 0.096208
O O19 0.236667 0.726561 0.186339
O O20 0.265333 0.748275 0.000000
O O21 0.227756 0.500000 0.690055
#
# Coordination Sequence:
#
# PCOD8194688 Si02
#       7
#     8   8   8   8   8   8   8
#     4  10  19  28  39  57  84 117 146 173 207 245
#     4   8  14  25  40  57  78 106 141 179 214 246
#     4   8  13  22  40  68  96 115 133 164 207 251
#     4   9  16  26  44  67  86 108 138 169 201 241
#     4  10  20  32  44  58  80 110 141 174 211 247
#     4   8  14  25  41  61  83 105 131 164 201 242
#     4  10  19  29  44  64  83 107 139 173 207 244
#
# _framework density 15.550595
#
# number of rings (size 3 to 8) (size 9 to 14) (size 15 to 20)
#    0.000    3.000    0.000    3.857    0.000    5.714 
#    0.000    1.429    0.000   15.429    0.000    4.000 
#    0.000    0.571    0.000    6.571    0.000    2.143 
#
# Total GULP energy -694065.249771 kJ/mol
# GULP energy per Si atom -12394.022317 kJ/mol
# Density = 1.551520 g / cm^3
# Si number density = 15.550595 Si / 1000 Ang^3
#
#
#
# Elastic Constant Matrix: (Units=GPa)
#
#
# Indices 1 2 3 4 5 6 
#
# 1 129.7147 41.4792 53.4319 0.0000 0.0000 0.0000
# 2 41.4792 58.6921 35.1919 0.0000 0.0000 0.0000
# 3 53.4319 35.1919 84.0477 0.0000 0.0000 0.0000
# 4 0.0000 0.0000 0.0000 7.5660 0.0000 0.0000
# 5 0.0000 0.0000 0.0000 0.0000 20.4177 0.0000
# 6 0.0000 0.0000 0.0000 0.0000 0.0000 11.0189
#
#
#
# Elastic Compliance Matrix: (Units=1/GPa)
#
#
# Indices 1 2 3 4 5 6 
#
# 1 0.011436 -0.004971 -0.005189 0.000000 0.000000 0.000000
# 2 -0.004971 0.024910 -0.007270 0.000000 0.000000 0.000000
# 3 -0.005189 -0.007270 0.018241 0.000000 0.000000 0.000000
# 4 0.000000 0.000000 0.000000 0.132170 0.000000 0.000000
# 5 0.000000 0.000000 0.000000 0.000000 0.048977 0.000000
# 6 0.000000 0.000000 0.000000 0.000000 0.000000 0.090753
#
#
# Mechanical properties :
#
#
# Convention : Reuss Voigt Hill
#
# Bulk Modulus (GPa) = 50.69089 59.18450 54.93770
# Shear Modulus (GPa) = 13.58978 17.29064 15.44021
#
# Velocity S-wave (km/s) = 2.95940 3.33813 3.15445
# Velocity P-wave (km/s) = 6.65925 7.28007 6.97657
#
# Compressibility (1/GPa) = 0.01972741
#
# Stress axis : x y z
#
# Youngs Moduli (GPa) = 87.44132 40.14399 54.82194
#
# Poissons Ratio (x) = 0.19955 0.28447
# Poissons Ratio (y) = 0.43467 0.39856
# Poissons Ratio (z) = 0.45373 0.29185
#
# Static dielectric constant tensor:
#      x y z
#    x 3.184200 0.000000 0.000000 
#    y 0.000000 2.812650 0.000000 
#    z 0.000000 0.000000 2.923650 
# 
# 
# High freq. dielectric constant tensor:
#      x y z
#    x 1.596210 0.000000 0.000000 
#    y 0.000000 1.579040 0.000000 
#    z 0.000000 0.000000 1.566790 
# 
# From -- ./inp_files/25800.got.cif
#   From: 2010.03.12/outbox.cif.g09.slc.cpg/sg47_13_cif.got.tgz:25800.got - 2010.04.14 03:12:58.
