data_PCOD8194603
_publ_section_title
;
Structure prediction by ZEFSAII (Michael W. Deem and Ramdas Pophale) SiO2 
 PCOD8194603
Probable space group: P M M M
;
_chemical_formula_sum "Si O2"
_cell_formula_units_Z 56
_cell_length_a 22.247243
_cell_length_b 9.178626
_cell_length_c 15.198189
_cell_angle_alpha 90.000000
_cell_angle_beta 90.000000
_cell_angle_gamma 90.000000
_cell_volume 3103.456865
_symmetry_space_group_name_H-M "P M M M"
_symmetry_group_IT_number 47
_symmetry_cell_setting 'orthorhombic'
loop_
_space_group_symop_operation_xyz
x,y,z
-x,-y,z
x,-y,-z
-x,y,-z
-x,-y,-z
x,y,-z
-x,y,z
x,-y,z
loop_
_atom_site_type_symbol
_atom_site_label
_atom_site_fract_x
_atom_site_fract_y
_atom_site_fract_z
Si Si1 0.838754 0.827472 0.279220
Si Si2 0.625890 0.672825 0.327700
Si Si3 0.343775 0.172313 0.149238
Si Si4 0.566998 0.827372 0.000000
Si Si5 0.210915 0.827504 0.096528
Si Si6 0.070107 0.331274 0.599083
Si Si7 0.500000 0.672918 0.401707
Si Si8 0.269546 0.834540 0.597756
O O1 0.830513 0.771184 0.177915
O O2 0.896329 0.756243 0.324461
O O3 0.779727 0.779131 0.332874
O O4 0.847345 0.000000 0.282989
O O5 0.629041 0.500000 0.323664
O O6 0.646795 0.741592 0.237593
O O7 0.558981 0.728170 0.350688
O O8 0.672143 0.731408 0.400614
O O9 0.396971 0.224988 0.085424
O O10 0.279951 0.219959 0.109121
O O11 0.345554 0.000000 0.166772
O O12 0.500000 0.758678 0.000000
O O13 0.563298 0.000000 0.000000
O O14 0.207650 0.000000 0.096755
O O15 0.188967 0.768646 0.000000
O O16 0.087747 0.278676 0.500000
O O17 0.086624 0.500000 0.609004
O O18 0.000000 0.304649 0.614569
O O19 0.500000 0.500000 0.407229
O O20 0.500000 0.738628 0.500000
O O21 0.241618 0.825206 0.500000
O O22 0.288634 0.000000 0.620771
#
# Coordination Sequence:
#
# PCOD8194603 Si02
#       8
#     8   8   8   4   8   8   4   8
#     4  10  19  32  53  82 111 137 174 219 262 309
#     4  11  22  35  52  72  97 131 172 213 261 318
#     4  10  18  33  54  74 100 131 166 212 265 315
#     4   9  18  30  51  81 101 125 170 219 266 322
#     4   9  16  30  53  77 102 137 175 211 259 316
#     4   9  19  36  56  79 111 150 186 217 253 303
#     4   9  20  38  53  64  87 128 174 213 251 307
#     4  10  20  34  52  76 106 135 167 214 267 313
#
# _framework density 18.044395000000002
#
# number of rings (size 3 to 8) (size 9 to 14) (size 15 to 20)
#    0.000    2.286    2.143    1.714    1.000    2.571 
#    0.000    2.143    0.000    4.714    0.000    3.000 
#    0.000    0.000    0.000    0.000    0.000    0.000 
#
# Total GULP energy -694175.498898 kJ/mol
# GULP energy per Si atom -12395.991052 kJ/mol
# Density = 1.800332 g / cm^3
# Si number density = 18.044395 Si / 1000 Ang^3
#
#
#
# Elastic Constant Matrix: (Units=GPa)
#
#
# Indices 1 2 3 4 5 6 
#
# 1 89.5657 29.4347 56.2566 0.0000 0.0000 0.0000
# 2 29.4347 36.4885 28.1422 0.0000 0.0000 0.0000
# 3 56.2566 28.1422 148.0106 0.0000 0.0000 0.0000
# 4 0.0000 0.0000 0.0000 9.4894 0.0000 0.0000
# 5 0.0000 0.0000 0.0000 0.0000 33.9513 0.0000
# 6 0.0000 0.0000 0.0000 0.0000 0.0000 25.5485
#
#
#
# Elastic Compliance Matrix: (Units=1/GPa)
#
#
# Indices 1 2 3 4 5 6 
#
# 1 0.017573 -0.010575 -0.004668 0.000000 0.000000 0.000000
# 2 -0.010575 0.038479 -0.003297 0.000000 0.000000 0.000000
# 3 -0.004668 -0.003297 0.009158 0.000000 0.000000 0.000000
# 4 0.000000 0.000000 0.000000 0.105381 0.000000 0.000000
# 5 0.000000 0.000000 0.000000 0.000000 0.029454 0.000000
# 6 0.000000 0.000000 0.000000 0.000000 0.000000 0.039141
#
#
# Mechanical properties :
#
#
# Convention : Reuss Voigt Hill
#
# Bulk Modulus (GPa) = 35.55069 55.74800 45.64935
# Shear Modulus (GPa) = 17.50444 24.47994 20.99219
#
# Velocity S-wave (km/s) = 3.11798 3.68727 3.41451
# Velocity P-wave (km/s) = 5.71900 7.00642 6.39519
#
# Compressibility (1/GPa) = 0.02812885
#
# Stress axis : x y z
#
# Youngs Moduli (GPa) = 56.90697 25.98800 109.19978
#
# Poissons Ratio (x) = 0.27482 0.50979
# Poissons Ratio (y) = 0.60179 0.36003
# Poissons Ratio (z) = 0.26566 0.08568
#
# Static dielectric constant tensor:
#      x y z
#    x 3.362410 0.000000 0.000000 
#    y 0.000000 3.007510 0.000000 
#    z 0.000000 0.000000 3.595200 
# 
# 
# High freq. dielectric constant tensor:
#      x y z
#    x 1.687700 0.000000 0.000000 
#    y 0.000000 1.662650 0.000000 
#    z 0.000000 0.000000 1.713190 
# 
# From -- ./inp_files/25222.got.cif
#   From: 2010.03.12/outbox.cif.g09.slc.cpg/sg47_13_cif.got.tgz:25222.got - 2010.04.14 03:12:58.
