data_PCOD8194501
_publ_section_title
;
Structure prediction by ZEFSAII (Michael W. Deem and Ramdas Pophale) SiO2 
 PCOD8194501
Probable space group: P M M M
;
_chemical_formula_sum "Si O2"
_cell_formula_units_Z 52
_cell_length_a 20.702496
_cell_length_b 14.682530
_cell_length_c 8.670351
_cell_angle_alpha 90.000000
_cell_angle_beta 90.000000
_cell_angle_gamma 90.000000
_cell_volume 2635.483403
_symmetry_space_group_name_H-M "P M M M"
_symmetry_group_IT_number 47
_symmetry_cell_setting 'orthorhombic'
loop_
_space_group_symop_operation_xyz
x,y,z
-x,-y,z
x,-y,-z
-x,y,-z
-x,-y,-z
x,y,-z
-x,y,z
x,-y,z
loop_
_atom_site_type_symbol
_atom_site_label
_atom_site_fract_x
_atom_site_fract_y
_atom_site_fract_z
Si Si1 0.612815 0.228093 0.822907
Si Si2 0.071571 0.000000 0.314486
Si Si3 0.925751 0.500000 0.316786
Si Si4 0.500000 0.106277 0.317943
Si Si5 0.177080 0.353401 0.684261
Si Si6 0.678631 0.396609 0.319660
Si Si7 0.843176 0.155684 0.674551
Si Si8 0.701886 0.100695 0.327606
O O1 0.561002 0.165849 0.734773
O O2 0.625724 0.329909 0.759139
O O3 0.679000 0.172668 0.799649
O O4 0.592458 0.235955 0.000000
O O5 0.103435 0.091785 0.245473
O O6 0.078419 0.000000 0.500000
O O7 0.000000 0.000000 0.253022
O O8 0.930515 0.500000 0.500000
O O9 0.883309 0.414183 0.258117
O O10 0.000000 0.500000 0.250049
O O11 0.500000 0.100843 0.500000
O O12 0.500000 0.000000 0.254429
O O13 0.180473 0.355561 0.500000
O O14 0.247873 0.385182 0.744583
O O15 0.163983 0.253560 0.755845
O O16 0.677602 0.374216 0.500000
O O17 0.656234 0.500000 0.285863
O O18 0.864248 0.176554 0.500000
O O19 0.778415 0.097080 0.680382
O O20 0.679845 0.131507 0.500000
O O21 0.674257 0.000000 0.292376
#
# Coordination Sequence:
#
# PCOD8194501 Si02
#       8
#     8   4   4   4   8   8   8   8
#     4  12  25  39  59  90 127 157 186 235 296 345
#     4   9  16  24  34  58 101 146 183 228 295 359
#     4   9  16  24  36  64 107 146 181 232 303 367
#     4  11  25  47  72  95 122 161 203 234 270 335
#     4   9  15  25  44  69  99 139 186 236 290 346
#     4  10  19  35  61  87 112 152 203 248 290 344
#     4   9  15  24  41  65  95 135 183 233 283 339
#     4  10  18  31  54  80 107 146 195 240 282 337
#
# _framework density 19.730726000000001
#
# number of rings (size 3 to 8) (size 9 to 14) (size 15 to 20)
#    0.000    2.077    3.077    2.077    0.000    3.692 
#    0.000    3.462    0.000    2.308    0.000    0.000 
#    0.000    3.692    0.000    0.000    0.000    0.000 
#
# Total GULP energy -644247.567548 kJ/mol
# GULP energy per Si atom -12389.376299 kJ/mol
# Density = 1.968582 g / cm^3
# Si number density = 19.730726 Si / 1000 Ang^3
#
#
#
# Elastic Constant Matrix: (Units=GPa)
#
#
# Indices 1 2 3 4 5 6 
#
# 1 94.8337 61.0761 22.5192 0.0000 0.0000 0.0000
# 2 61.0761 165.9500 30.1567 0.0000 0.0000 0.0000
# 3 22.5192 30.1567 42.8866 0.0000 0.0000 0.0000
# 4 0.0000 0.0000 0.0000 11.6137 0.0000 0.0000
# 5 0.0000 0.0000 0.0000 0.0000 0.1918 0.0000
# 6 0.0000 0.0000 0.0000 0.0000 0.0000 34.7844
#
#
#
# Elastic Compliance Matrix: (Units=1/GPa)
#
#
# Indices 1 2 3 4 5 6 
#
# 1 0.014520 -0.004538 -0.004433 0.000000 0.000000 0.000000
# 2 -0.004538 0.008327 -0.003472 0.000000 0.000000 0.000000
# 3 -0.004433 -0.003472 0.028087 0.000000 0.000000 0.000000
# 4 0.000000 0.000000 0.000000 0.086105 0.000000 0.000000
# 5 0.000000 0.000000 0.000000 0.000000 5.212719 0.000000
# 6 0.000000 0.000000 0.000000 0.000000 0.000000 0.028749
#
#
# Mechanical properties :
#
#
# Convention : Reuss Voigt Hill
#
# Bulk Modulus (GPa) = 38.39303 59.01936 48.70620
# Shear Modulus (GPa) = 0.92386 21.97922 11.45154
#
# Velocity S-wave (km/s) = 0.68502 3.34122 2.41174
# Velocity P-wave (km/s) = 4.48625 6.69794 5.70039
#
# Compressibility (1/GPa) = 0.02604640
#
# Stress axis : x y z
#
# Youngs Moduli (GPa) = 68.86863 120.08751 35.60395
#
# Poissons Ratio (x) = 0.54501 0.15784
# Poissons Ratio (y) = 0.31256 0.12363
# Poissons Ratio (z) = 0.30530 0.41699
#
# Static dielectric constant tensor:
#      x y z
#    x 3.656040 0.000000 0.000000 
#    y 0.000000 3.974290 0.000000 
#    z 0.000000 0.000000 2.989720 
# 
# 
# High freq. dielectric constant tensor:
#      x y z
#    x 1.763250 0.000000 0.000000 
#    y 0.000000 1.789650 0.000000 
#    z 0.000000 0.000000 1.698480 
# 
# From -- ./inp_files/11109.got.cif
#   From: 2010.03.12/outbox.cif.g09.slc.cpg/sg47_6_cif.got.tgz:11109.got - 2010.04.14 03:12:58.
