data_PCOD8194654
_publ_section_title
;
Structure prediction by ZEFSAII (Michael W. Deem and Ramdas Pophale) SiO2 
 PCOD8194654
Probable space group: P M M M
;
_chemical_formula_sum "Si O2"
_cell_formula_units_Z 52
_cell_length_a 9.015464
_cell_length_b 26.290208
_cell_length_c 13.564922
_cell_angle_alpha 90.000000
_cell_angle_beta 90.000000
_cell_angle_gamma 90.000000
_cell_volume 3215.136431
_symmetry_space_group_name_H-M "P M M M"
_symmetry_group_IT_number 47
_symmetry_cell_setting 'orthorhombic'
loop_
_space_group_symop_operation_xyz
x,y,z
-x,-y,z
x,-y,-z
-x,y,-z
-x,-y,-z
x,y,-z
-x,y,z
x,-y,z
loop_
_atom_site_type_symbol
_atom_site_label
_atom_site_fract_x
_atom_site_fract_y
_atom_site_fract_z
Si Si1 0.168944 0.751824 0.702359
Si Si2 0.826959 0.355134 0.387413
Si Si3 0.167572 0.944521 0.382928
Si Si4 0.825078 0.500000 0.115536
Si Si5 0.325794 0.845395 0.388009
Si Si6 0.830726 0.690412 0.889131
Si Si7 0.675704 0.598175 0.207221
O O1 0.212811 0.703436 0.635491
O O2 0.273477 0.798621 0.677721
O O3 0.194743 0.738163 0.817111
O O4 0.000000 0.767966 0.681448
O O5 0.786054 0.367338 0.500000
O O6 0.730950 0.392303 0.318879
O O7 0.000000 0.364600 0.365226
O O8 0.175834 0.944600 0.500000
O O9 0.266117 0.898264 0.341548
O O10 0.000000 0.935729 0.346823
O O11 0.224418 0.000000 0.344520
O O12 0.753026 0.548582 0.165586
O O13 0.000000 0.500000 0.134864
O O14 0.788119 0.500000 0.000000
O O15 0.267800 0.837883 0.500000
O O16 0.500000 0.847940 0.384725
O O17 0.720220 0.644995 0.862534
O O18 0.000000 0.670366 0.876877
O O19 0.798952 0.708942 0.000000
O O20 0.500000 0.591143 0.206680
#
# Coordination Sequence:
#
# PCOD8194654 Si02
#       7
#     8   8   8   4   8   8   8
#     4   9  17  29  46  67  89 116 152 190 224 261
#     4   9  18  34  54  72  93 126 164 194 222 263
#     4   8  14  25  40  56  76 108 150 190 225 262
#     4  11  23  39  58  75  94 123 157 192 228 269
#     4  10  19  27  37  58  89 122 152 184 223 264
#     4   9  18  34  53  70  91 121 155 188 225 272
#     4  11  22  34  51  77 104 124 147 185 231 277
#
# _framework density 16.173497999999999
#
# number of rings (size 3 to 8) (size 9 to 14) (size 15 to 20)
#    0.000    2.538    0.000    4.385    0.000    7.385 
#    0.000    1.923    0.000    2.308    0.000    0.000 
#    0.000    0.615    0.000    7.077    0.000    2.308 
#
# Total GULP energy -644704.933882 kJ/mol
# GULP energy per Si atom -12398.171805 kJ/mol
# Density = 1.613669 g / cm^3
# Si number density = 16.173498 Si / 1000 Ang^3
#
#
#
# Elastic Constant Matrix: (Units=GPa)
#
#
# Indices 1 2 3 4 5 6 
#
# 1 82.8085 60.4683 42.5510 0.0000 0.0000 0.0000
# 2 60.4683 120.6715 51.2350 0.0000 0.0000 0.0000
# 3 42.5510 51.2350 101.7069 0.0000 0.0000 0.0000
# 4 0.0000 0.0000 0.0000 13.7668 0.0000 0.0000
# 5 0.0000 0.0000 0.0000 0.0000 14.6984 0.0000
# 6 0.0000 0.0000 0.0000 0.0000 0.0000 -214.4817
#
#
#
# Elastic Compliance Matrix: (Units=1/GPa)
#
#
# Indices 1 2 3 4 5 6 
#
# 1 0.020431 -0.008407 -0.004313 0.000000 0.000000 0.000000
# 2 -0.008407 0.014001 -0.003536 0.000000 0.000000 0.000000
# 3 -0.004313 -0.003536 0.013418 0.000000 0.000000 0.000000
# 4 0.000000 0.000000 0.000000 0.072639 0.000000 0.000000
# 5 0.000000 0.000000 0.000000 0.000000 0.068035 0.000000
# 6 0.000000 0.000000 0.000000 0.000000 0.000000 -0.004662
#
#
# Mechanical properties :
#
#
# Convention : Reuss Voigt Hill
#
# Bulk Modulus (GPa) = 65.19428 68.18839 66.69133
# Shear Modulus (GPa) = 22.57501 -27.14114 -2.28307
#
# Velocity S-wave (km/s) = 3.74010 -4.10094 -1.18940
# Velocity P-wave (km/s) = 7.68427 4.45292 6.27999
#
# Compressibility (1/GPa) = 0.01533877
#
# Stress axis : x y z
#
# Youngs Moduli (GPa) = 48.94533 71.42428 74.52870
#
# Poissons Ratio (x) = 0.60045 0.32142
# Poissons Ratio (y) = 0.41147 0.26352
# Poissons Ratio (z) = 0.21109 0.25254
#
# Static dielectric constant tensor:
#      x y z
#    x 3.038660 0.000000 0.000000 
#    y 0.000000 3.203500 0.000000 
#    z 0.000000 0.000000 3.021840 
# 
# 
# High freq. dielectric constant tensor:
#      x y z
#    x 1.622380 0.000000 0.000000 
#    y 0.000000 1.616380 0.000000 
#    z 0.000000 0.000000 1.597010 
# 
# From -- ./inp_files/21791.got.cif
#   From: 2010.03.12/outbox.cif.g09.slc.cpg/sg47_11_cif.got.tgz:21791.got - 2010.04.14 03:12:58.
