data_PCOD8194010
_publ_section_title
;
Structure prediction by ZEFSAII (Michael W. Deem and Ramdas Pophale) SiO2 
 PCOD8194010
Probable space group: P M M M
;
_chemical_formula_sum "Si O2"
_cell_formula_units_Z 60
_cell_length_a 14.431917
_cell_length_b 25.743587
_cell_length_c 10.460088
_cell_angle_alpha 90.000000
_cell_angle_beta 90.000000
_cell_angle_gamma 90.000000
_cell_volume 3886.229286
_symmetry_space_group_name_H-M "P M M M"
_symmetry_group_IT_number 47
_symmetry_cell_setting 'orthorhombic'
loop_
_space_group_symop_operation_xyz
x,y,z
-x,-y,z
x,-y,-z
-x,y,-z
-x,-y,-z
x,y,-z
-x,y,z
x,-y,z
loop_
_atom_site_type_symbol
_atom_site_label
_atom_site_fract_x
_atom_site_fract_y
_atom_site_fract_z
Si Si1 0.890381 0.360267 0.352204
Si Si2 0.605272 0.103812 0.736636
Si Si3 0.218293 0.943126 0.644535
Si Si4 0.890060 0.441786 0.142612
Si Si5 0.205192 0.255994 0.349751
Si Si6 0.398505 0.782034 0.351797
Si Si7 0.894608 0.846731 0.652727
Si Si8 0.390640 0.057586 0.000000
O O1 0.862809 0.373055 0.500000
O O2 0.853194 0.405287 0.257367
O O3 0.842213 0.308183 0.298093
O O4 0.000000 0.352496 0.341642
O O5 0.500000 0.084933 0.709653
O O6 0.674114 0.074472 0.640837
O O7 0.612498 0.165546 0.727566
O O8 0.642225 0.089155 0.876866
O O9 0.184789 0.949030 0.500000
O O10 0.155282 0.898284 0.710124
O O11 0.206529 0.000000 0.711757
O O12 0.852261 0.500000 0.167783
O O13 0.000000 0.442244 0.146942
O O14 0.857927 0.423059 0.000000
O O15 0.189782 0.255275 0.500000
O O16 0.314997 0.256717 0.313807
O O17 0.156454 0.204582 0.291959
O O18 0.389949 0.797727 0.500000
O O19 0.500000 0.756462 0.324205
O O20 0.887886 0.846890 0.500000
O O21 0.000000 0.846156 0.700611
O O22 0.500000 0.052957 0.000000
O O23 0.346172 0.000000 0.000000
#
# Coordination Sequence:
#
# PCOD8194010 Si02
#       8
#     8   8   8   8   8   8   8   4
#     4   9  16  24  38  62  87 113 147 182 210 238
#     4  10  18  29  44  59  77  99 124 157 197 244
#     4  10  19  28  39  58  80  99 123 158 201 246
#     4   8  14  25  40  58  85 122 154 176 206 248
#     4   9  15  25  40  58  82 108 135 166 200 242
#     4   9  16  26  43  64  83 104 128 157 200 251
#     4   9  16  26  39  54  76 106 133 159 195 240
#     4   9  18  30  42  56  73  97 127 155 189 240
#
# _framework density 15.43913
#
# number of rings (size 3 to 8) (size 9 to 14) (size 15 to 20)
#    0.000    2.867    1.333    1.600    0.000    3.733 
#    0.000    3.333    1.467    0.000    0.000    0.467 
#    0.000    2.133    0.000    6.667    0.000    1.333 
#
# Total GULP energy -743432.744223 kJ/mol
# GULP energy per Si atom -12390.545737 kJ/mol
# Density = 1.540399 g / cm^3
# Si number density = 15.439130 Si / 1000 Ang^3
#
#
#
# Elastic Constant Matrix: (Units=GPa)
#
#
# Indices 1 2 3 4 5 6 
#
# 1 81.4960 45.6603 17.6147 0.0000 0.0000 0.0000
# 2 45.6603 110.9334 37.3955 0.0000 0.0000 0.0000
# 3 17.6147 37.3955 46.5369 0.0000 0.0000 0.0000
# 4 0.0000 0.0000 0.0000 14.9068 0.0000 0.0000
# 5 0.0000 0.0000 0.0000 0.0000 4.8278 0.0000
# 6 0.0000 0.0000 0.0000 0.0000 0.0000 15.5966
#
#
#
# Elastic Compliance Matrix: (Units=1/GPa)
#
#
# Indices 1 2 3 4 5 6 
#
# 1 0.015986 -0.006227 -0.001047 0.000000 0.000000 0.000000
# 2 -0.006227 0.014789 -0.009527 0.000000 0.000000 0.000000
# 3 -0.001047 -0.009527 0.029540 0.000000 0.000000 0.000000
# 4 0.000000 0.000000 0.000000 0.067084 0.000000 0.000000
# 5 0.000000 0.000000 0.000000 0.000000 0.207133 0.000000
# 6 0.000000 0.000000 0.000000 0.000000 0.000000 0.064117
#
#
# Mechanical properties :
#
#
# Convention : Reuss Voigt Hill
#
# Bulk Modulus (GPa) = 37.43487 48.92302 43.17894
# Shear Modulus (GPa) = 11.33391 16.28595 13.80993
#
# Velocity S-wave (km/s) = 2.71237 3.25137 2.99402
# Velocity P-wave (km/s) = 5.84026 6.77139 6.32299
#
# Compressibility (1/GPa) = 0.02671306
#
# Stress axis : x y z
#
# Youngs Moduli (GPa) = 62.55659 67.61857 33.85211
#
# Poissons Ratio (x) = 0.42104 0.03545
# Poissons Ratio (y) = 0.38952 0.32251
# Poissons Ratio (z) = 0.06551 0.64420
#
# Static dielectric constant tensor:
#      x y z
#    x 2.924670 0.000000 0.000000 
#    y 0.000000 3.092320 0.000000 
#    z 0.000000 0.000000 2.810500 
# 
# 
# High freq. dielectric constant tensor:
#      x y z
#    x 1.572780 0.000000 0.000000 
#    y 0.000000 1.580960 0.000000 
#    z 0.000000 0.000000 1.552680 
# 
# From -- ./inp_files/18014.got.cif
#   From: 2010.03.12/outbox.cif.g09.slc.cpg/sg47_10_cif.got.tgz:18014.got - 2010.04.14 03:12:58.
