data_PCOD8194800
_publ_section_title
;
Structure prediction by ZEFSAII (Michael W. Deem and Ramdas Pophale) SiO2 
 PCOD8194800
Probable space group: P M M M
;
_chemical_formula_sum "Si O2"
_cell_formula_units_Z 52
_cell_length_a 26.346389
_cell_length_b 9.078224
_cell_length_c 13.896961
_cell_angle_alpha 90.000000
_cell_angle_beta 90.000000
_cell_angle_gamma 90.000000
_cell_volume 3323.853188
_symmetry_space_group_name_H-M "P M M M"
_symmetry_group_IT_number 47
_symmetry_cell_setting 'orthorhombic'
loop_
_space_group_symop_operation_xyz
x,y,z
-x,-y,z
x,-y,-z
-x,y,-z
-x,-y,-z
x,y,-z
-x,y,z
x,-y,z
loop_
_atom_site_type_symbol
_atom_site_label
_atom_site_fract_x
_atom_site_fract_y
_atom_site_fract_z
Si Si1 0.398852 0.173521 0.111379
Si Si2 0.694230 0.326189 0.791461
Si Si3 0.500000 0.334212 0.114067
Si Si4 0.942301 0.172246 0.390964
Si Si5 0.852730 0.674576 0.289708
Si Si6 0.752614 0.325439 0.606287
Si Si7 0.203746 0.674519 0.105588
O O1 0.354298 0.234173 0.177816
O O2 0.450306 0.248184 0.150008
O O3 0.404075 0.000000 0.124888
O O4 0.388359 0.214865 0.000000
O O5 0.682870 0.500000 0.800007
O O6 0.708855 0.280195 0.681956
O O7 0.740381 0.277594 0.860257
O O8 0.500000 0.500000 0.156276
O O9 0.500000 0.337846 0.000000
O O10 0.931465 0.224605 0.500000
O O11 0.906099 0.256227 0.317742
O O12 0.000000 0.210570 0.362525
O O13 0.932232 0.000000 0.381766
O O14 0.857661 0.500000 0.295278
O O15 0.807891 0.732048 0.359918
O O16 0.838882 0.727616 0.181315
O O17 0.740221 0.261084 0.500000
O O18 0.755508 0.500000 0.603686
O O19 0.202592 0.500000 0.101389
O O20 0.192692 0.742799 0.000000
#
# Coordination Sequence:
#
# PCOD8194800 Si02
#       7
#     8   8   4   8   8   8   8
#     4  10  19  29  41  60  89 118 140 171 215 250
#     4   9  16  26  43  64  83 111 148 174 197 241
#     4   9  17  29  45  63  82 109 146 179 205 246
#     4   9  18  31  44  59  82 110 135 163 208 261
#     4   9  16  26  44  67  85 106 139 175 208 243
#     4   8  14  25  41  63  90 113 134 168 212 249
#     4   8  14  25  41  62  88 114 139 170 207 244
#
# _framework density 15.644493000000001
#
# number of rings (size 3 to 8) (size 9 to 14) (size 15 to 20)
#    0.000    3.154    0.000    3.923    0.000    3.692 
#    0.000    3.846    0.000    3.231    0.000    3.769 
#    0.000    4.308    0.000    0.000    0.000    0.000 
#
# Total GULP energy -644511.308426 kJ/mol
# GULP energy per Si atom -12394.448239 kJ/mol
# Density = 1.560889 g / cm^3
# Si number density = 15.644493 Si / 1000 Ang^3
#
#
#
# Elastic Constant Matrix: (Units=GPa)
#
#
# Indices 1 2 3 4 5 6 
#
# 1 124.8095 43.7195 68.3485 0.0000 0.0000 0.0000
# 2 43.7195 45.6860 30.5387 0.0000 0.0000 0.0000
# 3 68.3485 30.5387 125.0620 0.0000 0.0000 0.0000
# 4 0.0000 0.0000 0.0000 14.9595 0.0000 0.0000
# 5 0.0000 0.0000 0.0000 0.0000 24.5926 0.0000
# 6 0.0000 0.0000 0.0000 0.0000 0.0000 -4.2814
#
#
#
# Elastic Compliance Matrix: (Units=1/GPa)
#
#
# Indices 1 2 3 4 5 6 
#
# 1 0.014632 -0.010345 -0.005470 0.000000 0.000000 0.000000
# 2 -0.010345 0.033473 -0.002520 0.000000 0.000000 0.000000
# 3 -0.005470 -0.002520 0.011601 0.000000 0.000000 0.000000
# 4 0.000000 0.000000 0.000000 0.066847 0.000000 0.000000
# 5 0.000000 0.000000 0.000000 0.000000 0.040663 0.000000
# 6 0.000000 0.000000 0.000000 0.000000 0.000000 -0.233568
#
#
# Mechanical properties :
#
#
# Convention : Reuss Voigt Hill
#
# Bulk Modulus (GPa) = 43.41258 64.53007 53.97132
# Shear Modulus (GPa) = -227.23704 17.25084 -104.99310
#
# Velocity S-wave (km/s) = -12.06507 3.32426 -8.20107
# Velocity P-wave (km/s) = 12.89489 7.48810 7.42316
#
# Compressibility (1/GPa) = 0.02303480
#
# Stress axis : x y z
#
# Youngs Moduli (GPa) = 68.34468 29.87488 86.19990
#
# Poissons Ratio (x) = 0.30907 0.47154
# Poissons Ratio (y) = 0.70705 0.21721
# Poissons Ratio (z) = 0.37386 0.07528
#
# Static dielectric constant tensor:
#      x y z
#    x 2.941260 0.000000 0.000000 
#    y 0.000000 2.693960 0.000000 
#    z 0.000000 0.000000 3.319440 
# 
# 
# High freq. dielectric constant tensor:
#      x y z
#    x 1.594620 0.000000 0.000000 
#    y 0.000000 1.574950 0.000000 
#    z 0.000000 0.000000 1.586580 
# 
# From -- ./inp_files/13401.got.cif
#   From: 2010.03.12/outbox.cif.g09.slc.cpg/sg47_7_cif.got.tgz:13401.got - 2010.04.14 03:12:58.
