data_PCOD8194388
_publ_section_title
;
Structure prediction by ZEFSAII (Michael W. Deem and Ramdas Pophale) SiO2 
 PCOD8194388
Probable space group: P M M M
;
_chemical_formula_sum "Si O2"
_cell_formula_units_Z 44
_cell_length_a 15.949101
_cell_length_b 11.752527
_cell_length_c 13.655727
_cell_angle_alpha 90.000000
_cell_angle_beta 90.000000
_cell_angle_gamma 90.000000
_cell_volume 2559.660059
_symmetry_space_group_name_H-M "P M M M"
_symmetry_group_IT_number 47
_symmetry_cell_setting 'orthorhombic'
loop_
_space_group_symop_operation_xyz
x,y,z
-x,-y,z
x,-y,-z
-x,y,-z
-x,-y,-z
x,y,-z
-x,y,z
x,-y,z
loop_
_atom_site_type_symbol
_atom_site_label
_atom_site_fract_x
_atom_site_fract_y
_atom_site_fract_z
Si Si1 0.811834 0.629462 0.391058
Si Si2 0.659618 0.752251 0.694252
Si Si3 0.905787 0.632198 0.800863
Si Si4 0.752991 0.243688 0.889051
Si Si5 0.400823 0.000000 0.713979
Si Si6 0.500000 0.634481 0.611454
Si Si7 0.294925 0.000000 0.892968
O O1 0.848570 0.648209 0.500000
O O2 0.778582 0.500000 0.378271
O O3 0.735264 0.715800 0.375920
O O4 0.885060 0.654615 0.313302
O O5 0.683910 0.721510 0.807397
O O6 0.640521 0.885103 0.670341
O O7 0.579691 0.677533 0.670391
O O8 0.897213 0.500000 0.826901
O O9 0.842612 0.699141 0.870942
O O10 0.000000 0.675557 0.820649
O O11 0.765114 0.108223 0.876182
O O12 0.722693 0.274593 0.000000
O O13 0.500000 0.000000 0.696073
O O14 0.379058 0.000000 0.828512
O O15 0.500000 0.500000 0.611013
O O16 0.500000 0.681466 0.500000
O O17 0.334689 0.000000 0.000000
#
# Coordination Sequence:
#
# PCOD8194388 Si02
#       7
#     8   8   8   8   4   4   4
#     4   9  17  31  51  71  93 125 164 203 242 284
#     4  10  19  33  50  71  98 125 160 199 238 287
#     4   9  18  31  48  73 101 127 158 197 241 289
#     4   9  18  33  52  72  97 129 160 194 236 283
#     4  10  18  31  48  69  98 127 153 196 248 286
#     4  11  22  35  52  70  91 123 163 205 241 275
#     4   8  16  31  51  72  91 120 164 203 235 277
#
# _framework density 17.189784
#
# number of rings (size 3 to 8) (size 9 to 14) (size 15 to 20)
#    0.000    2.636    0.909    1.091    0.000    3.455 
#    0.000    5.909    0.000    2.182    0.000    0.000 
#    0.000    7.273    0.000    0.000    0.000    0.000 
#
# Total GULP energy -545314.534935 kJ/mol
# GULP energy per Si atom -12393.512158 kJ/mol
# Density = 1.715066 g / cm^3
# Si number density = 17.189784 Si / 1000 Ang^3
#
#
#
# Elastic Constant Matrix: (Units=GPa)
#
#
# Indices 1 2 3 4 5 6 
#
# 1 94.2809 37.3827 31.9261 0.0000 0.0000 0.0000
# 2 37.3827 69.2729 30.3954 0.0000 0.0000 0.0000
# 3 31.9261 30.3954 99.4755 0.0000 0.0000 0.0000
# 4 0.0000 0.0000 0.0000 23.9726 0.0000 0.0000
# 5 0.0000 0.0000 0.0000 0.0000 11.7867 0.0000
# 6 0.0000 0.0000 0.0000 0.0000 0.0000 -6.7287
#
#
#
# Elastic Compliance Matrix: (Units=1/GPa)
#
#
# Indices 1 2 3 4 5 6 
#
# 1 0.014023 -0.006459 -0.002527 0.000000 0.000000 0.000000
# 2 -0.006459 0.019645 -0.003930 0.000000 0.000000 0.000000
# 3 -0.002527 -0.003930 0.012065 0.000000 0.000000 0.000000
# 4 0.000000 0.000000 0.000000 0.041714 0.000000 0.000000
# 5 0.000000 0.000000 0.000000 0.000000 0.084841 0.000000
# 6 0.000000 0.000000 0.000000 0.000000 0.000000 -0.148617
#
#
# Mechanical properties :
#
#
# Convention : Reuss Voigt Hill
#
# Bulk Modulus (GPa) = 50.24692 51.38198 50.81445
# Shear Modulus (GPa) = 89.06680 16.69447 52.88063
#
# Velocity S-wave (km/s) = 7.20599 3.11977 5.55244
# Velocity P-wave (km/s) = 9.92619 6.55234 8.41018
#
# Compressibility (1/GPa) = 0.01990172
#
# Stress axis : x y z
#
# Youngs Moduli (GPa) = 71.31001 50.90244 82.88705
#
# Poissons Ratio (x) = 0.32876 0.20947
# Poissons Ratio (y) = 0.46057 0.32574
# Poissons Ratio (z) = 0.18021 0.20004
#
# Static dielectric constant tensor:
#      x y z
#    x 3.227730 0.000000 0.000000 
#    y 0.000000 3.336520 0.000000 
#    z 0.000000 0.000000 3.363090 
# 
# 
# High freq. dielectric constant tensor:
#      x y z
#    x 1.645830 0.000000 0.000000 
#    y 0.000000 1.662600 0.000000 
#    z 0.000000 0.000000 1.668940 
# 
# From -- ./inp_files/17468.got.cif
#   From: 2010.03.12/outbox.cif.g09.slc.cpg/sg47_9_cif.got.tgz:17468.got - 2010.04.14 03:12:58.
