data_PCOD8194976
_publ_section_title
;
Structure prediction by ZEFSAII (Michael W. Deem and Ramdas Pophale) SiO2 
 PCOD8194976
Probable space group: P M M M
;
_chemical_formula_sum "Si O2"
_cell_formula_units_Z 44
_cell_length_a 12.549701
_cell_length_b 25.150701
_cell_length_c 8.937196
_cell_angle_alpha 90.000000
_cell_angle_beta 90.000000
_cell_angle_gamma 90.000000
_cell_volume 2820.880934
_symmetry_space_group_name_H-M "P M M M"
_symmetry_group_IT_number 47
_symmetry_cell_setting 'orthorhombic'
loop_
_space_group_symop_operation_xyz
x,y,z
-x,-y,z
x,-y,-z
-x,y,-z
-x,-y,-z
x,y,-z
-x,y,z
x,-y,z
loop_
_atom_site_type_symbol
_atom_site_label
_atom_site_fract_x
_atom_site_fract_y
_atom_site_fract_z
Si Si1 0.125440 0.775055 0.827460
Si Si2 0.127192 0.330191 0.331815
Si Si3 0.119434 0.443704 0.677872
Si Si4 0.000000 0.937143 0.171611
Si Si5 0.805779 0.120962 0.323944
Si Si6 0.377038 0.061266 0.828379
O O1 0.166063 0.717055 0.775627
O O2 0.187500 0.818633 0.731626
O O3 0.000000 0.782014 0.797926
O O4 0.154444 0.782371 0.000000
O O5 0.168275 0.318494 0.500000
O O6 0.172970 0.387536 0.269994
O O7 0.000000 0.333990 0.332000
O O8 0.115115 0.440794 0.500000
O O9 0.177108 0.500000 0.727146
O O10 0.000000 0.446197 0.742294
O O11 0.895076 0.915156 0.248667
O O12 0.000000 0.000000 0.185707
O O13 0.000000 0.918078 0.000000
O O14 0.822067 0.119394 0.500000
O O15 0.690642 0.098230 0.281067
O O16 0.500000 0.075912 0.803820
O O17 0.356109 0.000000 0.787091
O O18 0.343461 0.071656 0.000000
#
# Coordination Sequence:
#
# PCOD8194976 Si02
#       6
#     8   8   8   4   8   8
#     4  10  19  30  43  57  80 114 149 181 217 265
#     4   8  13  21  34  51  72  98 133 177 217 253
#     4   7   9  14  26  45  67  92 125 167 213 255
#     4  11  23  37  51  67  91 121 148 175 214 267
#     4  12  23  33  49  71  94 117 145 184 224 261
#     4   9  19  37  58  75  92 117 146 174 210 262
#
# _framework density 15.597963
#
# number of rings (size 3 to 8) (size 9 to 14) (size 15 to 20)
#    0.000    2.636    0.909    5.182    0.000    4.364 
#    0.000    0.909    0.000    0.545    0.000    3.818 
#    0.000    0.000    0.000    0.000    0.000    0.909 
#
# Total GULP energy -545180.186246 kJ/mol
# GULP energy per Si atom -12390.458778 kJ/mol
# Density = 1.556246 g / cm^3
# Si number density = 15.597963 Si / 1000 Ang^3
#
#
#
# Elastic Constant Matrix: (Units=GPa)
#
#
# Indices 1 2 3 4 5 6 
#
# 1 40.6975 35.7528 27.0522 0.0000 0.0000 0.0000
# 2 35.7528 137.2205 59.4945 0.0000 0.0000 0.0000
# 3 27.0522 59.4945 90.9299 0.0000 0.0000 0.0000
# 4 0.0000 0.0000 0.0000 11.2924 0.0000 0.0000
# 5 0.0000 0.0000 0.0000 0.0000 12.8191 0.0000
# 6 0.0000 0.0000 0.0000 0.0000 0.0000 7.4666
#
#
#
# Elastic Compliance Matrix: (Units=1/GPa)
#
#
# Indices 1 2 3 4 5 6 
#
# 1 0.034090 -0.006261 -0.006046 0.000000 0.000000 0.000000
# 2 -0.006261 0.011323 -0.005546 0.000000 0.000000 0.000000
# 3 -0.006046 -0.005546 0.016425 0.000000 0.000000 0.000000
# 4 0.000000 0.000000 0.000000 0.088555 0.000000 0.000000
# 5 0.000000 0.000000 0.000000 0.000000 0.078008 0.000000
# 6 0.000000 0.000000 0.000000 0.000000 0.000000 0.133930
#
#
# Mechanical properties :
#
#
# Convention : Reuss Voigt Hill
#
# Bulk Modulus (GPa) = 38.26543 57.04967 47.65755
# Shear Modulus (GPa) = 12.29258 16.08552 14.18905
#
# Velocity S-wave (km/s) = 2.81034 3.21480 3.01935
# Velocity P-wave (km/s) = 5.92590 7.10172 6.54029
#
# Compressibility (1/GPa) = 0.02613325
#
# Stress axis : x y z
#
# Youngs Moduli (GPa) = 29.33369 88.31193 60.88337
#
# Poissons Ratio (x) = 0.55293 0.36807
# Poissons Ratio (y) = 0.18366 0.33767
# Poissons Ratio (z) = 0.17734 0.48979
#
# Static dielectric constant tensor:
#      x y z
#    x 2.488480 0.000000 0.000000 
#    y 0.000000 3.495100 0.000000 
#    z 0.000000 0.000000 2.883080 
# 
# 
# High freq. dielectric constant tensor:
#      x y z
#    x 1.527000 0.000000 0.000000 
#    y 0.000000 1.621550 0.000000 
#    z 0.000000 0.000000 1.588560 
# 
# From -- ./inp_files/4341.got.cif
#   From: 2010.03.12/outbox.cif.g09.slc.cpg/sg47_3_cif.got.tgz:4341.got - 2010.04.14 03:12:58.
