data_PCOD8194955
_publ_section_title
;
Structure prediction by ZEFSAII (Michael W. Deem and Ramdas Pophale) SiO2 
 PCOD8194955
Probable space group: P M M M
;
_chemical_formula_sum "Si O2"
_cell_formula_units_Z 60
_cell_length_a 9.220632
_cell_length_b 18.414618
_cell_length_c 20.371007
_cell_angle_alpha 90.000000
_cell_angle_beta 90.000000
_cell_angle_gamma 90.000000
_cell_volume 3458.883237
_symmetry_space_group_name_H-M "P M M M"
_symmetry_group_IT_number 47
_symmetry_cell_setting 'orthorhombic'
loop_
_space_group_symop_operation_xyz
x,y,z
-x,-y,z
x,-y,-z
-x,y,-z
-x,-y,-z
x,y,-z
-x,y,z
x,-y,z
loop_
_atom_site_type_symbol
_atom_site_label
_atom_site_fract_x
_atom_site_fract_y
_atom_site_fract_z
Si Si1 0.669317 0.348955 0.365870
Si Si2 0.833871 0.915052 0.425409
Si Si3 0.671848 0.418371 0.500000
Si Si4 0.331241 0.814371 0.673811
Si Si5 0.666876 0.419946 0.120545
Si Si6 0.161732 0.386843 0.245274
Si Si7 0.160255 0.221143 0.204314
Si Si8 0.831314 0.715512 0.072694
O O1 0.500000 0.365092 0.355448
O O2 0.725557 0.373518 0.436999
O O3 0.702930 0.263936 0.357040
O O4 0.758367 0.397609 0.314521
O O5 0.788848 0.895232 0.500000
O O6 0.732678 0.873709 0.374768
O O7 0.000000 0.892342 0.413034
O O8 0.812846 0.000000 0.413194
O O9 0.736814 0.500000 0.500000
O O10 0.500000 0.422721 0.500000
O O11 0.500000 0.828908 0.681328
O O12 0.264558 0.823743 0.747212
O O13 0.500000 0.396657 0.130547
O O14 0.676985 0.500000 0.087197
O O15 0.743754 0.426899 0.190799
O O16 0.743833 0.359912 0.075568
O O17 0.152933 0.302551 0.229457
O O18 0.000000 0.420431 0.248502
O O19 0.219096 0.226158 0.128503
O O20 0.000000 0.185277 0.206162
O O21 0.000000 0.696727 0.085683
O O22 0.807897 0.749265 0.000000
#
# Coordination Sequence:
#
# PCOD8194955 Si02
#       8
#     8   8   4   8   8   8   8   8
#     4   9  18  31  47  67  90 116 152 197 243 293
#     4   9  19  35  52  72 102 138 171 201 236 283
#     4   9  18  32  47  61  82 115 152 192 241 297
#     4  10  19  29  48  74 100 128 160 203 243 279
#     4  10  20  31  43  61  85 114 150 189 232 291
#     4   9  17  30  47  64  82 106 141 188 239 284
#     4   8  15  29  47  66  91 120 153 190 230 279
#     4   9  18  32  49  68  91 120 153 194 244 291
#
# _framework density 17.346639
#
# number of rings (size 3 to 8) (size 9 to 14) (size 15 to 20)
#    0.000    2.867    0.000    2.400    0.933    6.400 
#    0.000    3.667    0.000    0.400    0.000    0.000 
#    0.000    0.533    0.000    6.133    0.000    1.733 
#
# Total GULP energy -743683.394434 kJ/mol
# GULP energy per Si atom -12394.723241 kJ/mol
# Density = 1.730716 g / cm^3
# Si number density = 17.346639 Si / 1000 Ang^3
#
#
#
# Elastic Constant Matrix: (Units=GPa)
#
#
# Indices 1 2 3 4 5 6 
#
# 1 84.4968 29.1815 52.0937 0.0000 0.0000 0.0000
# 2 29.1815 39.1924 35.8556 0.0000 0.0000 0.0000
# 3 52.0937 35.8556 151.7598 0.0000 0.0000 0.0000
# 4 0.0000 0.0000 0.0000 10.6124 0.0000 0.0000
# 5 0.0000 0.0000 0.0000 0.0000 23.7182 0.0000
# 6 0.0000 0.0000 0.0000 0.0000 0.0000 18.5763
#
#
#
# Elastic Compliance Matrix: (Units=1/GPa)
#
#
# Indices 1 2 3 4 5 6 
#
# 1 0.017438 -0.009578 -0.003723 0.000000 0.000000 0.000000
# 2 -0.009578 0.037812 -0.005646 0.000000 0.000000 0.000000
# 3 -0.003723 -0.005646 0.009201 0.000000 0.000000 0.000000
# 4 0.000000 0.000000 0.000000 0.094229 0.000000 0.000000
# 5 0.000000 0.000000 0.000000 0.000000 0.042162 0.000000
# 6 0.000000 0.000000 0.000000 0.000000 0.000000 0.053832
#
#
# Mechanical properties :
#
#
# Convention : Reuss Voigt Hill
#
# Bulk Modulus (GPa) = 37.65397 56.63449 47.14423
# Shear Modulus (GPa) = 16.58820 21.13594 18.86207
#
# Velocity S-wave (km/s) = 3.09573 3.49441 3.30109
# Velocity P-wave (km/s) = 5.87639 7.00006 6.46269
#
# Compressibility (1/GPa) = 0.02655763
#
# Stress axis : x y z
#
# Youngs Moduli (GPa) = 57.34705 26.44691 108.68139
#
# Poissons Ratio (x) = 0.25330 0.40460
# Poissons Ratio (y) = 0.54925 0.61360
# Poissons Ratio (z) = 0.21349 0.14932
#
# Static dielectric constant tensor:
#      x y z
#    x 3.291650 0.000000 0.000000 
#    y 0.000000 2.827060 0.000000 
#    z 0.000000 0.000000 3.505790 
# 
# 
# High freq. dielectric constant tensor:
#      x y z
#    x 1.669050 0.000000 0.000000 
#    y 0.000000 1.621740 0.000000 
#    z 0.000000 0.000000 1.676920 
# 
# From -- ./inp_files/29972.got.cif
#   From: 2010.03.12/outbox.cif.g09.slc.cpg/sg47_15_cif.got.tgz:29972.got - 2010.04.14 03:12:58.
