data_PCOD8194071
_publ_section_title
;
Structure prediction by ZEFSAII (Michael W. Deem and Ramdas Pophale) SiO2 
 PCOD8194071
Probable space group: P M M M
;
_chemical_formula_sum "Si O2"
_cell_formula_units_Z 52
_cell_length_a 9.683116
_cell_length_b 13.549863
_cell_length_c 23.929488
_cell_angle_alpha 90.000000
_cell_angle_beta 90.000000
_cell_angle_gamma 90.000000
_cell_volume 3139.665966
_symmetry_space_group_name_H-M "P M M M"
_symmetry_group_IT_number 47
_symmetry_cell_setting 'orthorhombic'
loop_
_space_group_symop_operation_xyz
x,y,z
-x,-y,z
x,-y,-z
-x,y,-z
-x,-y,-z
x,y,-z
-x,y,z
x,-y,z
loop_
_atom_site_type_symbol
_atom_site_label
_atom_site_fract_x
_atom_site_fract_y
_atom_site_fract_z
Si Si1 0.655684 0.887157 0.767619
Si Si2 0.159847 0.181700 0.136826
Si Si3 0.658611 0.789627 0.654235
Si Si4 0.164217 0.000000 0.062517
Si Si5 0.841476 0.608816 0.836785
Si Si6 0.159331 0.887436 0.564295
Si Si7 0.341782 0.390096 0.271846
O O1 0.500000 0.851931 0.781551
O O2 0.762195 0.826483 0.804603
O O3 0.686008 0.870419 0.702402
O O4 0.676920 0.000000 0.782607
O O5 0.217780 0.101242 0.092342
O O6 0.181054 0.298390 0.119789
O O7 0.000000 0.157534 0.147062
O O8 0.500000 0.790657 0.634644
O O9 0.751393 0.813008 0.601033
O O10 0.702522 0.683166 0.678639
O O11 0.000000 0.000000 0.060153
O O12 0.225974 0.000000 0.000000
O O13 0.807454 0.500000 0.863800
O O14 0.748857 0.626774 0.782793
O O15 0.000000 0.610343 0.816804
O O16 0.183081 0.858864 0.500000
O O17 0.000000 0.874938 0.580761
O O18 0.206684 0.000000 0.574881
O O19 0.500000 0.368664 0.254332
O O20 0.322721 0.500000 0.295590
#
# Coordination Sequence:
#
# PCOD8194071 Si02
#       7
#     8   8   8   4   8   8   8
#     4  10  19  29  42  66 100 127 145 182 237 282
#     4  10  18  29  47  68  91 122 159 194 228 277
#     4  10  19  30  46  69  95 122 153 187 230 282
#     4   9  18  32  49  69  93 125 166 205 236 271
#     4   9  17  28  43  66  95 123 152 191 237 280
#     4   9  19  35  51  67  89 119 156 196 234 273
#     4   9  17  29  45  66  94 125 154 184 223 276
#
# _framework density 16.562272
#
# number of rings (size 3 to 8) (size 9 to 14) (size 15 to 20)
#    0.000    2.538    2.308    0.923    0.000    2.462 
#    0.000    0.769    0.000    1.846    0.000    6.462 
#    0.000    0.000    0.000    5.231    0.000    5.538 
#
# Total GULP energy -644337.729162 kJ/mol
# GULP energy per Si atom -12391.110176 kJ/mol
# Density = 1.652458 g / cm^3
# Si number density = 16.562272 Si / 1000 Ang^3
#
#
#
# Elastic Constant Matrix: (Units=GPa)
#
#
# Indices 1 2 3 4 5 6 
#
# 1 41.7387 36.4183 25.1154 0.0000 0.0000 0.0000
# 2 36.4183 141.1288 55.7783 0.0000 0.0000 0.0000
# 3 25.1154 55.7783 56.3521 0.0000 0.0000 0.0000
# 4 0.0000 0.0000 0.0000 18.1668 0.0000 0.0000
# 5 0.0000 0.0000 0.0000 0.0000 1.9234 0.0000
# 6 0.0000 0.0000 0.0000 0.0000 0.0000 19.4502
#
#
#
# Elastic Compliance Matrix: (Units=1/GPa)
#
#
# Indices 1 2 3 4 5 6 
#
# 1 0.034495 -0.004641 -0.010780 0.000000 0.000000 0.000000
# 2 -0.004641 0.012263 -0.010070 0.000000 0.000000 0.000000
# 3 -0.010780 -0.010070 0.032518 0.000000 0.000000 0.000000
# 4 0.000000 0.000000 0.000000 0.055045 0.000000 0.000000
# 5 0.000000 0.000000 0.000000 0.000000 0.519923 0.000000
# 6 0.000000 0.000000 0.000000 0.000000 0.000000 0.051413
#
#
# Mechanical properties :
#
#
# Convention : Reuss Voigt Hill
#
# Bulk Modulus (GPa) = 35.34398 52.64927 43.99663
# Shear Modulus (GPa) = 6.52681 16.03525 11.28103
#
# Velocity S-wave (km/s) = 1.98729 3.11493 2.61267
# Velocity P-wave (km/s) = 5.16257 6.69289 5.97691
#
# Compressibility (1/GPa) = 0.02829336
#
# Stress axis : x y z
#
# Youngs Moduli (GPa) = 28.99010 81.54458 30.75234
#
# Poissons Ratio (x) = 0.37841 0.33152
# Poissons Ratio (y) = 0.13453 0.30968
# Poissons Ratio (z) = 0.31253 0.82116
#
# Static dielectric constant tensor:
#      x y z
#    x 3.054690 0.000000 0.000000 
#    y 0.000000 3.567680 0.000000 
#    z 0.000000 0.000000 2.807340 
# 
# 
# High freq. dielectric constant tensor:
#      x y z
#    x 1.631490 0.000000 0.000000 
#    y 0.000000 1.656820 0.000000 
#    z 0.000000 0.000000 1.594810 
# 
# From -- ./inp_files/11023.got.cif
#   From: 2010.03.12/outbox.cif.g09.slc.cpg/sg47_6_cif.got.tgz:11023.got - 2010.04.14 03:12:58.
