data_PCOD8194790
_publ_section_title
;
Structure prediction by ZEFSAII (Michael W. Deem and Ramdas Pophale) SiO2 
 PCOD8194790
Probable space group: P M M M
;
_chemical_formula_sum "Si O2"
_cell_formula_units_Z 40
_cell_length_a 15.473971
_cell_length_b 8.891834
_cell_length_c 19.499370
_cell_angle_alpha 90.000000
_cell_angle_beta 90.000000
_cell_angle_gamma 90.000000
_cell_volume 2682.956955
_symmetry_space_group_name_H-M "P M M M"
_symmetry_group_IT_number 47
_symmetry_cell_setting 'orthorhombic'
loop_
_space_group_symop_operation_xyz
x,y,z
-x,-y,z
x,-y,-z
-x,y,-z
-x,-y,-z
x,y,-z
-x,y,z
x,-y,z
loop_
_atom_site_type_symbol
_atom_site_label
_atom_site_fract_x
_atom_site_fract_y
_atom_site_fract_z
Si Si1 0.825011 0.177221 0.420596
Si Si2 0.667163 0.321614 0.342460
Si Si3 0.602516 0.330969 0.075090
Si Si4 0.000000 0.669077 0.418688
Si Si5 0.399067 0.174838 0.789462
Si Si6 0.500000 0.678734 0.576736
O O1 0.809165 0.220567 0.500000
O O2 0.751246 0.249214 0.374841
O O3 0.915343 0.243247 0.393005
O O4 0.826398 0.000000 0.410178
O O5 0.675323 0.500000 0.345669
O O6 0.656861 0.269335 0.264354
O O7 0.584676 0.261198 0.384748
O O8 0.500000 0.329039 0.073333
O O9 0.635248 0.500000 0.090584
O O10 0.635213 0.219998 0.134858
O O11 0.637237 0.277867 0.000000
O O12 0.000000 0.500000 0.388662
O O13 0.000000 0.665699 0.500000
O O14 0.500000 0.216266 0.780906
O O15 0.382210 0.000000 0.777711
O O16 0.500000 0.500000 0.575619
O O17 0.500000 0.744913 0.500000
#
# Coordination Sequence:
#
# PCOD8194790 Si02
#       6
#     8   8   8   4   8   4
#     4  10  20  33  48  67  90 113 139 178 228 274
#     4  11  20  31  46  62  84 115 151 188 221 260
#     4   8  14  25  41  59  78 103 139 179 215 254
#     4   9  17  31  51  71  87 107 138 175 216 267
#     4  10  19  29  41  58  84 114 145 181 221 264
#     4   9  18  30  43  59  78 105 146 191 225 252
#
# _framework density 14.908924000000001
#
# number of rings (size 3 to 8) (size 9 to 14) (size 15 to 20)
#    0.000    2.400    1.000    3.300    0.000    4.400 
#    0.000    2.000    0.000    2.400    0.000    0.000 
#    0.000    0.000    0.000    0.900    0.000   16.600 
#
# Total GULP energy -495940.514895 kJ/mol
# GULP energy per Si atom -12398.512872 kJ/mol
# Density = 1.487499 g / cm^3
# Si number density = 14.908924 Si / 1000 Ang^3
#
#
#
# Elastic Constant Matrix: (Units=GPa)
#
#
# Indices 1 2 3 4 5 6 
#
# 1 92.4106 37.0908 43.7010 0.0000 0.0000 0.0000
# 2 37.0908 68.2712 35.4232 0.0000 0.0000 0.0000
# 3 43.7010 35.4232 97.2820 0.0000 0.0000 0.0000
# 4 0.0000 0.0000 0.0000 24.0838 0.0000 0.0000
# 5 0.0000 0.0000 0.0000 0.0000 5.1551 0.0000
# 6 0.0000 0.0000 0.0000 0.0000 0.0000 21.7754
#
#
#
# Elastic Compliance Matrix: (Units=1/GPa)
#
#
# Indices 1 2 3 4 5 6 
#
# 1 0.015461 -0.005913 -0.004792 0.000000 0.000000 0.000000
# 2 -0.005913 0.020321 -0.004743 0.000000 0.000000 0.000000
# 3 -0.004792 -0.004743 0.014159 0.000000 0.000000 0.000000
# 4 0.000000 0.000000 0.000000 0.041522 0.000000 0.000000
# 5 0.000000 0.000000 0.000000 0.000000 0.193981 0.000000
# 6 0.000000 0.000000 0.000000 0.000000 0.000000 0.045923
#
#
# Mechanical properties :
#
#
# Convention : Reuss Voigt Hill
#
# Bulk Modulus (GPa) = 52.50963 54.48820 53.49891
# Shear Modulus (GPa) = 13.56439 19.65280 16.60859
#
# Velocity S-wave (km/s) = 3.01959 3.63463 3.34129
# Velocity P-wave (km/s) = 6.88868 7.36483 7.13073
#
# Compressibility (1/GPa) = 0.01904413
#
# Stress axis : x y z
#
# Youngs Moduli (GPa) = 64.67950 49.20999 70.62528
#
# Poissons Ratio (x) = 0.29099 0.33845
# Poissons Ratio (y) = 0.38246 0.33499
# Poissons Ratio (z) = 0.30995 0.23341
#
# Static dielectric constant tensor:
#      x y z
#    x 2.672660 0.000000 0.000000 
#    y 0.000000 2.905750 0.000000 
#    z 0.000000 0.000000 3.023460 
# 
# 
# High freq. dielectric constant tensor:
#      x y z
#    x 1.530180 0.000000 0.000000 
#    y 0.000000 1.577970 0.000000 
#    z 0.000000 0.000000 1.562120 
# 
# From -- ./inp_files/9333.got.cif
#   From: 2010.03.12/outbox.cif.g09.slc.cpg/sg47_5_cif.got.tgz:9333.got - 2010.04.14 03:12:58.
