data_PCOD8194968
_publ_section_title
;
Structure prediction by ZEFSAII (Michael W. Deem and Ramdas Pophale) SiO2 
 PCOD8194968
Probable space group: P M M M
;
_chemical_formula_sum "Si O2"
_cell_formula_units_Z 48
_cell_length_a 18.050667
_cell_length_b 22.072034
_cell_length_c 8.934843
_cell_angle_alpha 90.000000
_cell_angle_beta 90.000000
_cell_angle_gamma 90.000000
_cell_volume 3559.774900
_symmetry_space_group_name_H-M "P M M M"
_symmetry_group_IT_number 47
_symmetry_cell_setting 'orthorhombic'
loop_
_space_group_symop_operation_xyz
x,y,z
-x,-y,z
x,-y,-z
-x,y,-z
-x,-y,-z
x,y,-z
-x,y,z
x,-y,z
loop_
_atom_site_type_symbol
_atom_site_label
_atom_site_fract_x
_atom_site_fract_y
_atom_site_fract_z
Si Si1 0.581253 0.928163 0.332249
Si Si2 0.088022 0.619449 0.331618
Si Si3 0.914419 0.258018 0.176540
Si Si4 0.000000 0.932434 0.322184
Si Si5 0.726993 0.928803 0.827087
Si Si6 0.088437 0.500000 0.169017
Si Si7 0.141695 0.140990 0.322580
O O1 0.598746 0.904554 0.500000
O O2 0.500000 0.903965 0.280214
O O3 0.644869 0.905996 0.218796
O O4 0.579397 0.000000 0.333241
O O5 0.119410 0.622983 0.500000
O O6 0.114366 0.678065 0.239817
O O7 0.119870 0.559387 0.252309
O O8 0.000000 0.616221 0.333257
O O9 0.862919 0.206840 0.248572
O O10 0.000000 0.246723 0.222366
O O11 0.904224 0.258208 0.000000
O O12 0.072574 0.898306 0.262860
O O13 0.000000 0.934896 0.500000
O O14 0.000000 0.000000 0.254409
O O15 0.784016 0.892243 0.726075
O O16 0.737057 0.000000 0.794154
O O17 0.740138 0.913603 0.000000
O O18 0.000000 0.500000 0.170449
O O19 0.118490 0.500000 0.000000
O O20 0.140218 0.148232 0.500000
#
# Coordination Sequence:
#
# PCOD8194968 Si02
#       7
#     8   8   8   4   8   4   8
#     4   8  14  26  44  63  80  98 120 145 177 222
#     4   9  16  25  38  54  72  93 120 150 183 224
#     4  10  19  30  42  55  73  95 122 157 198 237
#     4   9  18  30  43  57  69  86 119 162 203 239
#     4  10  20  31  42  59  81 101 122 152 194 238
#     4   9  15  23  35  53  75  95 115 143 186 227
#     4  11  20  31  45  57  73  96 128 164 198 236
#
# _framework density 13.483999000000001
#
# number of rings (size 3 to 8) (size 9 to 14) (size 15 to 20)
#    0.000    2.500    0.833    3.250    0.000    5.667 
#    0.000    1.667    0.000    2.000    0.000    0.000 
#    0.000    0.000    0.000    0.000    0.000    0.000 
#
# Total GULP energy -595125.700300 kJ/mol
# GULP energy per Si atom -12398.452090 kJ/mol
# Density = 1.345331 g / cm^3
# Si number density = 13.483999 Si / 1000 Ang^3
#
#
#
# Elastic Constant Matrix: (Units=GPa)
#
#
# Indices 1 2 3 4 5 6 
#
# 1 59.6919 28.2373 23.9834 0.0000 0.0000 0.0000
# 2 28.2373 89.0688 39.7319 0.0000 0.0000 0.0000
# 3 23.9834 39.7319 78.0864 0.0000 0.0000 0.0000
# 4 0.0000 0.0000 0.0000 23.8231 0.0000 0.0000
# 5 0.0000 0.0000 0.0000 0.0000 16.3582 0.0000
# 6 0.0000 0.0000 0.0000 0.0000 0.0000 2.4981
#
#
#
# Elastic Compliance Matrix: (Units=1/GPa)
#
#
# Indices 1 2 3 4 5 6 
#
# 1 0.020580 -0.004792 -0.003882 0.000000 0.000000 0.000000
# 2 -0.004792 0.015640 -0.006486 0.000000 0.000000 0.000000
# 3 -0.003882 -0.006486 0.017299 0.000000 0.000000 0.000000
# 4 0.000000 0.000000 0.000000 0.041976 0.000000 0.000000
# 5 0.000000 0.000000 0.000000 0.000000 0.061131 0.000000
# 6 0.000000 0.000000 0.000000 0.000000 0.000000 0.400309
#
#
# Mechanical properties :
#
#
# Convention : Reuss Voigt Hill
#
# Bulk Modulus (GPa) = 43.10903 45.63912 44.37408
# Shear Modulus (GPa) = 8.40353 17.52885 12.96619
#
# Velocity S-wave (km/s) = 2.49915 3.60943 3.10433
# Velocity P-wave (km/s) = 6.35355 7.16177 6.76973
#
# Compressibility (1/GPa) = 0.02319700
#
# Stress axis : x y z
#
# Youngs Moduli (GPa) = 48.59177 63.93915 57.80715
#
# Poissons Ratio (x) = 0.30643 0.22442
# Poissons Ratio (y) = 0.23288 0.37493
# Poissons Ratio (z) = 0.18865 0.41470
#
# Static dielectric constant tensor:
#      x y z
#    x 2.538570 0.000000 0.000000 
#    y 0.000000 2.627870 0.000000 
#    z 0.000000 0.000000 2.753880 
# 
# 
# High freq. dielectric constant tensor:
#      x y z
#    x 1.468410 0.000000 0.000000 
#    y 0.000000 1.495040 0.000000 
#    z 0.000000 0.000000 1.525770 
# 
# From -- ./inp_files/9721.got.cif
#   From: 2010.03.12/outbox.cif.g09.slc.cpg/sg47_5_cif.got.tgz:9721.got - 2010.04.14 03:12:58.
