data_PCOD8194566
_publ_section_title
;
Structure prediction by ZEFSAII (Michael W. Deem and Ramdas Pophale) SiO2 
 PCOD8194566
Probable space group: P M M M
;
_chemical_formula_sum "Si O2"
_cell_formula_units_Z 52
_cell_length_a 20.865199
_cell_length_b 14.590647
_cell_length_c 8.863564
_cell_angle_alpha 90.000000
_cell_angle_beta 90.000000
_cell_angle_gamma 90.000000
_cell_volume 2698.394646
_symmetry_space_group_name_H-M "P M M M"
_symmetry_group_IT_number 47
_symmetry_cell_setting 'orthorhombic'
loop_
_space_group_symop_operation_xyz
x,y,z
-x,-y,z
x,-y,-z
-x,y,-z
-x,-y,-z
x,y,-z
-x,y,z
x,-y,z
loop_
_atom_site_type_symbol
_atom_site_label
_atom_site_fract_x
_atom_site_fract_y
_atom_site_fract_z
Si Si1 0.613003 0.221483 0.825792
Si Si2 0.070775 0.000000 0.320003
Si Si3 0.926557 0.500000 0.179472
Si Si4 0.500000 0.106909 0.321764
Si Si5 0.173324 0.350560 0.822443
Si Si6 0.685268 0.397683 0.821026
Si Si7 0.845544 0.162433 0.670518
Si Si8 0.704929 0.102702 0.333091
O O1 0.560369 0.166835 0.730852
O O2 0.630069 0.325113 0.767883
O O3 0.678676 0.166431 0.800399
O O4 0.592190 0.221755 0.000000
O O5 0.102467 0.906714 0.260394
O O6 0.075524 0.000000 0.500000
O O7 0.000000 0.000000 0.255485
O O8 0.885118 0.413229 0.238667
O O9 0.000000 0.500000 0.245184
O O10 0.931254 0.500000 0.000000
O O11 0.500000 0.102578 0.500000
O O12 0.500000 0.000000 0.260476
O O13 0.243524 0.377046 0.753506
O O14 0.156286 0.248047 0.780074
O O15 0.177602 0.362764 0.000000
O O16 0.664114 0.500000 0.770208
O O17 0.689812 0.389936 0.000000
O O18 0.861703 0.194891 0.500000
O O19 0.780749 0.104775 0.672918
O O20 0.681188 0.135245 0.500000
O O21 0.680296 0.000000 0.304557
#
# Coordination Sequence:
#
# PCOD8194566 Si02
#       8
#     8   4   4   4   8   8   8   8
#     4  11  22  36  59  89 115 142 184 233 275 315
#     4   9  18  34  53  71  99 146 195 230 271 337
#     4   9  18  32  53  79 107 146 191 230 276 340
#     4  11  25  45  64  83 116 160 191 213 262 333
#     4  10  18  32  54  78 107 142 183 230 278 330
#     4   9  17  32  55  83 111 144 183 225 274 326
#     4  10  19  32  51  76 104 137 182 232 278 329
#     4  10  19  32  51  76 108 144 180 221 275 334
#
# _framework density 19.270717000000001
#
# number of rings (size 3 to 8) (size 9 to 14) (size 15 to 20)
#    0.000    2.077    3.077    1.154    0.000    3.385 
#    0.000    1.154    0.000    6.923    0.000    0.000 
#    0.000    0.000    0.000    0.000    0.000    0.000 
#
# Total GULP energy -644357.993128 kJ/mol
# GULP energy per Si atom -12391.499868 kJ/mol
# Density = 1.922686 g / cm^3
# Si number density = 19.270717 Si / 1000 Ang^3
#
#
#
# Elastic Constant Matrix: (Units=GPa)
#
#
# Indices 1 2 3 4 5 6 
#
# 1 107.7969 67.9020 18.6467 0.0000 0.0000 0.0000
# 2 67.9020 162.5644 20.8835 0.0000 0.0000 0.0000
# 3 18.6467 20.8835 22.1929 0.0000 0.0000 0.0000
# 4 0.0000 0.0000 0.0000 11.6327 0.0000 0.0000
# 5 0.0000 0.0000 0.0000 0.0000 17.1464 0.0000
# 6 0.0000 0.0000 0.0000 0.0000 0.0000 34.1154
#
#
#
# Elastic Compliance Matrix: (Units=1/GPa)
#
#
# Indices 1 2 3 4 5 6 
#
# 1 0.013443 -0.004737 -0.006838 0.000000 0.000000 0.000000
# 2 -0.004737 0.008666 -0.004175 0.000000 0.000000 0.000000
# 3 -0.006838 -0.004175 0.054734 0.000000 0.000000 0.000000
# 4 0.000000 0.000000 0.000000 0.085965 0.000000 0.000000
# 5 0.000000 0.000000 0.000000 0.000000 0.058321 0.000000
# 6 0.000000 0.000000 0.000000 0.000000 0.000000 0.029312
#
#
# Mechanical properties :
#
#
# Convention : Reuss Voigt Hill
#
# Bulk Modulus (GPa) = 22.05384 56.37985 39.21684
# Shear Modulus (GPa) = 16.83189 24.92036 20.87612
#
# Velocity S-wave (km/s) = 2.95861 3.59997 3.29494
# Velocity P-wave (km/s) = 4.81043 6.82642 5.90509
#
# Compressibility (1/GPa) = 0.04534358
#
# Stress axis : x y z
#
# Youngs Moduli (GPa) = 74.38695 115.39023 18.27032
#
# Poissons Ratio (x) = 0.54657 0.12493
# Poissons Ratio (y) = 0.35235 0.07628
# Poissons Ratio (z) = 0.50865 0.48176
#
# Static dielectric constant tensor:
#      x y z
#    x 3.681270 0.000000 0.000000 
#    y 0.000000 3.726580 0.000000 
#    z 0.000000 0.000000 3.126780 
# 
# 
# High freq. dielectric constant tensor:
#      x y z
#    x 1.747030 0.000000 0.000000 
#    y 0.000000 1.762160 0.000000 
#    z 0.000000 0.000000 1.706570 
# 
# From -- ./inp_files/11108.got.cif
#   From: 2010.03.12/outbox.cif.g09.slc.cpg/sg47_6_cif.got.tgz:11108.got - 2010.04.14 03:12:58.
