data_PCOD8194421
_publ_section_title
;
Structure prediction by ZEFSAII (Michael W. Deem and Ramdas Pophale) SiO2 
 PCOD8194421
Probable space group: P M M M
;
_chemical_formula_sum "Si O2"
_cell_formula_units_Z 52
_cell_length_a 27.858525
_cell_length_b 9.087435
_cell_length_c 11.725022
_cell_angle_alpha 90.000000
_cell_angle_beta 90.000000
_cell_angle_gamma 90.000000
_cell_volume 2968.336294
_symmetry_space_group_name_H-M "P M M M"
_symmetry_group_IT_number 47
_symmetry_cell_setting 'orthorhombic'
loop_
_space_group_symop_operation_xyz
x,y,z
-x,-y,z
x,-y,-z
-x,y,-z
-x,-y,-z
x,y,-z
-x,y,z
x,-y,z
loop_
_atom_site_type_symbol
_atom_site_label
_atom_site_fract_x
_atom_site_fract_y
_atom_site_fract_z
Si Si1 0.859825 0.671986 0.277163
Si Si2 0.592995 0.170524 0.130650
Si Si3 0.500000 0.333278 0.135776
Si Si4 0.687111 0.174040 0.269099
Si Si5 0.945658 0.827006 0.370525
Si Si6 0.192855 0.674129 0.500000
Si Si7 0.698557 0.675642 0.500000
Si Si8 0.771095 0.672287 0.868318
O O1 0.870127 0.500000 0.286303
O O2 0.911242 0.752574 0.275760
O O3 0.832639 0.735412 0.387831
O O4 0.826128 0.707939 0.168398
O O5 0.547926 0.256948 0.185002
O O6 0.641884 0.214760 0.191817
O O7 0.581060 0.000000 0.144293
O O8 0.600449 0.215995 0.000000
O O9 0.500000 0.500000 0.177700
O O10 0.500000 0.317432 0.000000
O O11 0.675214 0.254124 0.387783
O O12 0.734760 0.235884 0.209014
O O13 0.693199 0.000000 0.286673
O O14 0.934048 0.772764 0.500000
O O15 0.000000 0.782684 0.338990
O O16 0.938751 0.000000 0.363225
O O17 0.192633 0.500000 0.500000
O O18 0.246847 0.730483 0.500000
O O19 0.692169 0.500000 0.500000
O O20 0.760488 0.500000 0.847556
O O21 0.765031 0.717005 0.000000
#
# Coordination Sequence:
#
# PCOD8194421 Si02
#       8
#     8   8   4   8   8   4   4   8
#     4  10  18  31  50  72  98 129 166 208 250 301
#     4   9  18  33  52  74 105 142 173 208 259 310
#     4   9  17  29  49  78 105 130 171 221 259 301
#     4  11  22  35  53  79 108 138 176 217 256 305
#     4   9  18  31  46  69 100 128 157 200 255 309
#     4   9  16  29  48  70  96 127 166 207 248 296
#     4  11  21  37  55  73 105 143 176 211 258 309
#     4  10  21  36  53  74 103 140 176 211 257 308
#
# _framework density 17.518231
#
# number of rings (size 3 to 8) (size 9 to 14) (size 15 to 20)
#    0.000    2.231    2.308    1.846    0.000    4.000 
#    0.000    2.308    0.000    0.923    0.000    6.462 
#    0.000    0.000    0.000    0.000    0.000    0.000 
#
# Total GULP energy -644710.504900 kJ/mol
# GULP energy per Si atom -12398.278940 kJ/mol
# Density = 1.747836 g / cm^3
# Si number density = 17.518231 Si / 1000 Ang^3
#
#
#
# Elastic Constant Matrix: (Units=GPa)
#
#
# Indices 1 2 3 4 5 6 
#
# 1 123.6302 56.2108 39.0167 0.0000 0.0000 0.0000
# 2 56.2108 70.0764 39.1270 0.0000 0.0000 0.0000
# 3 39.0167 39.1270 84.4009 0.0000 0.0000 0.0000
# 4 0.0000 0.0000 0.0000 22.6622 0.0000 0.0000
# 5 0.0000 0.0000 0.0000 0.0000 21.0544 0.0000
# 6 0.0000 0.0000 0.0000 0.0000 0.0000 30.6944
#
#
#
# Elastic Compliance Matrix: (Units=1/GPa)
#
#
# Indices 1 2 3 4 5 6 
#
# 1 0.012885 -0.009458 -0.001572 0.000000 0.000000 0.000000
# 2 -0.009458 0.026196 -0.007772 0.000000 0.000000 0.000000
# 3 -0.001572 -0.007772 0.016178 0.000000 0.000000 0.000000
# 4 0.000000 0.000000 0.000000 0.044126 0.000000 0.000000
# 5 0.000000 0.000000 0.000000 0.000000 0.047496 0.000000
# 6 0.000000 0.000000 0.000000 0.000000 0.000000 0.032579
#
#
# Mechanical properties :
#
#
# Convention : Reuss Voigt Hill
#
# Bulk Modulus (GPa) = 56.63972 60.75737 58.69854
# Shear Modulus (GPa) = 22.42670 24.46576 23.44623
#
# Velocity S-wave (km/s) = 3.58186 3.74115 3.66237
# Velocity P-wave (km/s) = 7.03622 7.30885 7.17383
#
# Compressibility (1/GPa) = 0.01765546
#
# Stress axis : x y z
#
# Youngs Moduli (GPa) = 77.61048 38.17378 61.81290
#
# Poissons Ratio (x) = 0.36104 0.09717
# Poissons Ratio (y) = 0.73402 0.48041
# Poissons Ratio (z) = 0.12200 0.29669
#
# Static dielectric constant tensor:
#      x y z
#    x 3.357790 0.000000 0.000000 
#    y 0.000000 3.128600 0.000000 
#    z 0.000000 0.000000 3.179410 
# 
# 
# High freq. dielectric constant tensor:
#      x y z
#    x 1.681810 0.000000 0.000000 
#    y 0.000000 1.671180 0.000000 
#    z 0.000000 0.000000 1.650840 
# 
# From -- ./inp_files/19913.got.cif
#   From: 2010.03.12/outbox.cif.g09.slc.cpg/sg47_10_cif.got.tgz:19913.got - 2010.04.14 03:12:58.
