data_PCOD8194661
_publ_section_title
;
Structure prediction by ZEFSAII (Michael W. Deem and Ramdas Pophale) SiO2 
 PCOD8194661
Probable space group: P M M M
;
_chemical_formula_sum "Si O2"
_cell_formula_units_Z 56
_cell_length_a 31.784973
_cell_length_b 8.186111
_cell_length_c 12.990907
_cell_angle_alpha 90.000000
_cell_angle_beta 90.000000
_cell_angle_gamma 90.000000
_cell_volume 3380.173166
_symmetry_space_group_name_H-M "P M M M"
_symmetry_group_IT_number 47
_symmetry_cell_setting 'orthorhombic'
loop_
_space_group_symop_operation_xyz
x,y,z
-x,-y,z
x,-y,-z
-x,y,-z
-x,-y,-z
x,y,-z
-x,y,z
x,-y,z
loop_
_atom_site_type_symbol
_atom_site_label
_atom_site_fract_x
_atom_site_fract_y
_atom_site_fract_z
Si Si1 0.902296 0.318332 0.622516
Si Si2 0.047790 0.000000 0.622538
Si Si3 0.361795 0.308868 0.387394
Si Si4 0.815638 0.817607 0.620930
Si Si5 0.726089 0.186604 0.316557
Si Si6 0.300980 0.312318 0.113688
Si Si7 0.606213 0.310068 0.173952
Si Si8 0.453734 0.189484 0.000000
O O1 0.904359 0.316331 0.500000
O O2 0.917057 0.500000 0.661476
O O3 0.854418 0.290877 0.662279
O O4 0.930616 0.167453 0.665034
O O5 0.050564 0.000000 0.500000
O O6 0.000000 0.000000 0.661833
O O7 0.374519 0.234028 0.500000
O O8 0.369691 0.500000 0.389938
O O9 0.312227 0.282434 0.368639
O O10 0.389418 0.236468 0.291587
O O11 0.819697 0.830578 0.500000
O O12 0.770788 0.736414 0.649781
O O13 0.818630 0.000000 0.669070
O O14 0.723591 0.197841 0.192909
O O15 0.723456 0.000000 0.353347
O O16 0.293480 0.500000 0.145284
O O17 0.350528 0.274225 0.115118
O O18 0.283637 0.274683 0.000000
O O19 0.596481 0.500000 0.181133
O O20 0.569425 0.232964 0.106528
O O21 0.500000 0.273624 0.000000
O O22 0.459841 0.000000 0.000000
#
# Coordination Sequence:
#
# PCOD8194661 Si02
#       8
#     8   4   8   8   8   8   8   4
#     4   9  16  25  38  54  71 100 140 177 223 276
#     4   9  16  26  38  52  74 100 131 181 233 273
#     4   9  18  32  48  67  94 123 151 185 222 263
#     4   9  16  27  39  51  78 114 144 181 221 256
#     4  10  19  27  40  65  90 116 151 187 221 259
#     4   9  17  31  47  62  86 117 148 183 221 260
#     4   9  17  32  52  71  90 118 151 181 221 266
#     4  11  23  35  49  73  99 117 141 183 231 277
#
# _framework density 16.5672
#
# number of rings (size 3 to 8) (size 9 to 14) (size 15 to 20)
#    0.000    2.714    1.429    1.929    0.000    5.429 
#    0.000    2.857    0.000    0.429    0.000    3.000 
#    0.000    0.000    0.000    0.000    0.000    1.429 
#
# Total GULP energy -693763.607668 kJ/mol
# GULP energy per Si atom -12388.635851 kJ/mol
# Density = 1.652949 g / cm^3
# Si number density = 16.567200 Si / 1000 Ang^3
#
#
#
# Elastic Constant Matrix: (Units=GPa)
#
#
# Indices 1 2 3 4 5 6 
#
# 1 98.3607 33.6367 31.8530 0.0000 0.0000 0.0000
# 2 33.6367 59.5410 16.1598 0.0000 0.0000 0.0000
# 3 31.8530 16.1598 83.2562 0.0000 0.0000 0.0000
# 4 0.0000 0.0000 0.0000 13.6390 0.0000 0.0000
# 5 0.0000 0.0000 0.0000 0.0000 13.0692 0.0000
# 6 0.0000 0.0000 0.0000 0.0000 0.0000 12.1678
#
#
#
# Elastic Compliance Matrix: (Units=1/GPa)
#
#
# Indices 1 2 3 4 5 6 
#
# 1 0.013734 -0.006685 -0.003957 0.000000 0.000000 0.000000
# 2 -0.006685 0.020983 -0.001515 0.000000 0.000000 0.000000
# 3 -0.003957 -0.001515 0.013819 0.000000 0.000000 0.000000
# 4 0.000000 0.000000 0.000000 0.073319 0.000000 0.000000
# 5 0.000000 0.000000 0.000000 0.000000 0.076516 0.000000
# 6 0.000000 0.000000 0.000000 0.000000 0.000000 0.082184
#
#
# Mechanical properties :
#
#
# Convention : Reuss Voigt Hill
#
# Bulk Modulus (GPa) = 41.28478 44.93965 43.11221
# Shear Modulus (GPa) = 15.97731 18.40908 17.19319
#
# Velocity S-wave (km/s) = 3.10884 3.33705 3.22496
# Velocity P-wave (km/s) = 6.15306 6.48324 6.32031
#
# Compressibility (1/GPa) = 0.02422200
#
# Stress axis : x y z
#
# Youngs Moduli (GPa) = 72.81117 47.65783 72.36356
#
# Poissons Ratio (x) = 0.31859 0.28634
# Poissons Ratio (y) = 0.48674 0.10964
# Poissons Ratio (z) = 0.28812 0.07221
#
# Static dielectric constant tensor:
#      x y z
#    x 3.139910 0.000000 0.000000 
#    y 0.000000 3.162190 0.000000 
#    z 0.000000 0.000000 4.845400 
# 
# 
# High freq. dielectric constant tensor:
#      x y z
#    x 1.613430 0.000000 0.000000 
#    y 0.000000 1.636450 0.000000 
#    z 0.000000 0.000000 1.601710 
# 
# From -- ./inp_files/25829.got.cif
#   From: 2010.03.12/outbox.cif.g09.slc.cpg/sg47_13_cif.got.tgz:25829.got - 2010.04.14 03:12:58.
