data_PCOD8194039
_publ_section_title
;
Structure prediction by ZEFSAII (Michael W. Deem and Ramdas Pophale) SiO2 
 PCOD8194039
Probable space group: P M M M
;
_chemical_formula_sum "Si O2"
_cell_formula_units_Z 36
_cell_length_a 12.414532
_cell_length_b 9.800848
_cell_length_c 19.413512
_cell_angle_alpha 90.000000
_cell_angle_beta 90.000000
_cell_angle_gamma 90.000000
_cell_volume 2362.099103
_symmetry_space_group_name_H-M "P M M M"
_symmetry_group_IT_number 47
_symmetry_cell_setting 'orthorhombic'
loop_
_space_group_symop_operation_xyz
x,y,z
-x,-y,z
x,-y,-z
-x,y,-z
-x,-y,-z
x,y,-z
-x,y,z
x,-y,z
loop_
_atom_site_type_symbol
_atom_site_label
_atom_site_fract_x
_atom_site_fract_y
_atom_site_fract_z
Si Si1 0.500000 0.162147 0.922485
Si Si2 0.375605 0.156186 0.696431
Si Si3 0.874159 0.343898 0.921286
Si Si4 0.289168 0.840517 0.844630
Si Si5 0.372041 0.653274 0.576105
O O1 0.606180 0.216442 0.884411
O O2 0.500000 0.000000 0.919877
O O3 0.500000 0.218752 0.000000
O O4 0.500000 0.192656 0.712745
O O5 0.304906 0.185572 0.763719
O O6 0.326338 0.245858 0.634351
O O7 0.365878 0.000000 0.673351
O O8 0.841587 0.500000 0.905699
O O9 0.813458 0.243535 0.869560
O O10 0.000000 0.322367 0.908538
O O11 0.844453 0.306751 0.000000
O O12 0.270387 0.000000 0.860355
O O13 0.329448 0.696036 0.500000
O O14 0.500000 0.661378 0.575979
O O15 0.333754 0.500000 0.593414
#
# Coordination Sequence:
#
# PCOD8194039 Si02
#       5
#     4   8   8   8   8
#     4   9  16  26  41  61  86 115 142 172 213 255
#     4   9  16  26  39  58  87 117 143 173 211 254
#     4   9  19  35  50  63  83 111 143 184 231 268
#     4  10  18  29  45  66  89 114 146 180 214 259
#     4   8  14  24  37  54  78 110 148 183 209 240
#
# _framework density 15.240682
#
# number of rings (size 3 to 8) (size 9 to 14) (size 15 to 20)
#    0.000    3.000    1.111    2.000    0.000    3.111 
#    0.000    3.889    0.000    2.000    0.000    0.000 
#    0.000    0.889    0.000    9.778    0.000    7.556 
#
# Total GULP energy -446294.324855 kJ/mol
# GULP energy per Si atom -12397.064579 kJ/mol
# Density = 1.520599 g / cm^3
# Si number density = 15.240682 Si / 1000 Ang^3
#
#
#
# Elastic Constant Matrix: (Units=GPa)
#
#
# Indices 1 2 3 4 5 6 
#
# 1 46.6617 37.5633 37.9108 0.0000 0.0000 0.0000
# 2 37.5633 80.0651 71.0822 0.0000 0.0000 0.0000
# 3 37.9108 71.0822 119.8314 0.0000 0.0000 0.0000
# 4 0.0000 0.0000 0.0000 31.2083 0.0000 0.0000
# 5 0.0000 0.0000 0.0000 0.0000 13.4568 0.0000
# 6 0.0000 0.0000 0.0000 0.0000 0.0000 21.0031
#
#
#
# Elastic Compliance Matrix: (Units=1/GPa)
#
#
# Indices 1 2 3 4 5 6 
#
# 1 0.034878 -0.013873 -0.002805 0.000000 0.000000 0.000000
# 2 -0.013873 0.031903 -0.014536 0.000000 0.000000 0.000000
# 3 -0.002805 -0.014536 0.017855 0.000000 0.000000 0.000000
# 4 0.000000 0.000000 0.000000 0.032043 0.000000 0.000000
# 5 0.000000 0.000000 0.000000 0.000000 0.074312 0.000000
# 6 0.000000 0.000000 0.000000 0.000000 0.000000 0.047612
#
#
# Mechanical properties :
#
#
# Convention : Reuss Voigt Hill
#
# Bulk Modulus (GPa) = 45.02737 59.96342 52.49539
# Shear Modulus (GPa) = 16.21104 19.80045 18.00574
#
# Velocity S-wave (km/s) = 3.26493 3.60833 3.44092
# Velocity P-wave (km/s) = 6.61977 7.53590 7.09264
#
# Compressibility (1/GPa) = 0.02220871
#
# Stress axis : x y z
#
# Youngs Moduli (GPa) = 28.67168 31.34485 56.00755
#
# Poissons Ratio (x) = 0.43484 0.15710
# Poissons Ratio (y) = 0.39776 0.81410
# Poissons Ratio (z) = 0.08042 0.45561
#
# Static dielectric constant tensor:
#      x y z
#    x 2.535730 0.000000 0.000000 
#    y 0.000000 2.882200 0.000000 
#    z 0.000000 0.000000 3.116250 
# 
# 
# High freq. dielectric constant tensor:
#      x y z
#    x 1.537370 0.000000 0.000000 
#    y 0.000000 1.577430 0.000000 
#    z 0.000000 0.000000 1.589920 
# 
# From -- ./inp_files/3887.got.cif
#   From: 2010.03.12/outbox.cif.g09.slc.cpg/sg47_2_cif.got.tgz:3887.got - 2010.04.14 03:12:58.
