data_PCOD8194812
_publ_section_title
;
Structure prediction by ZEFSAII (Michael W. Deem and Ramdas Pophale) SiO2 
 PCOD8194812
Probable space group: P M M M
;
_chemical_formula_sum "Si O2"
_cell_formula_units_Z 52
_cell_length_a 12.885245
_cell_length_b 9.462808
_cell_length_c 27.929054
_cell_angle_alpha 90.000000
_cell_angle_beta 90.000000
_cell_angle_gamma 90.000000
_cell_volume 3405.406297
_symmetry_space_group_name_H-M "P M M M"
_symmetry_group_IT_number 47
_symmetry_cell_setting 'orthorhombic'
loop_
_space_group_symop_operation_xyz
x,y,z
-x,-y,z
x,-y,-z
-x,y,-z
-x,-y,-z
x,y,-z
-x,y,z
x,-y,z
loop_
_atom_site_type_symbol
_atom_site_label
_atom_site_fract_x
_atom_site_fract_y
_atom_site_fract_z
Si Si1 0.387005 0.834174 0.161296
Si Si2 0.883453 0.339314 0.780158
Si Si3 0.000000 0.166539 0.947109
Si Si4 0.622703 0.842570 0.361528
Si Si5 0.289150 0.833005 0.261160
Si Si6 0.376593 0.341635 0.552572
Si Si7 0.830576 0.167545 0.127708
O O1 0.500000 0.766236 0.147239
O O2 0.358752 0.788389 0.215463
O O3 0.292807 0.791228 0.124990
O O4 0.400160 0.000000 0.159611
O O5 0.842638 0.500000 0.787608
O O6 0.816636 0.255931 0.740785
O O7 0.881597 0.254671 0.829769
O O8 0.000000 0.341746 0.760492
O O9 0.893858 0.212167 0.919887
O O10 0.000000 0.000000 0.952226
O O11 0.000000 0.236793 0.000000
O O12 0.500000 0.840379 0.364654
O O13 0.654106 0.784206 0.309522
O O14 0.671994 0.751368 0.404683
O O15 0.666358 0.000000 0.368146
O O16 0.265559 0.000000 0.260113
O O17 0.343172 0.283039 0.500000
O O18 0.500000 0.341003 0.556137
O O19 0.334247 0.500000 0.558976
O O20 0.842859 0.000000 0.138267
#
# Coordination Sequence:
#
# PCOD8194812 Si02
#       7
#     8   8   4   8   8   8   8
#     4   8  13  22  38  59  80 105 138 169 196 234
#     4  10  19  29  42  60  83 107 131 166 206 241
#     4   9  16  26  43  67  89 107 137 179 214 247
#     4   9  16  25  38  57  81 107 136 172 208 240
#     4   9  17  27  40  58  80 109 139 165 197 243
#     4   8  14  24  36  50  71 103 141 175 208 247
#     4   9  16  27  45  63  81 109 140 169 203 246
#
# _framework density 15.269837000000001
#
# number of rings (size 3 to 8) (size 9 to 14) (size 15 to 20)
#    0.000    3.154    0.769    2.308    0.000    3.692 
#    0.000    1.538    0.000   12.462    0.000    3.231 
#    0.000    0.615    0.000   12.308    0.000   11.385 
#
# Total GULP energy -644185.998306 kJ/mol
# GULP energy per Si atom -12388.192275 kJ/mol
# Density = 1.523508 g / cm^3
# Si number density = 15.269837 Si / 1000 Ang^3
#
#
#
# Elastic Constant Matrix: (Units=GPa)
#
#
# Indices 1 2 3 4 5 6 
#
# 1 87.7478 18.1160 37.7322 0.0000 0.0000 0.0000
# 2 18.1160 42.9529 25.7622 0.0000 0.0000 0.0000
# 3 37.7322 25.7622 104.0069 0.0000 0.0000 0.0000
# 4 0.0000 0.0000 0.0000 10.0803 0.0000 0.0000
# 5 0.0000 0.0000 0.0000 0.0000 16.3201 0.0000
# 6 0.0000 0.0000 0.0000 0.0000 0.0000 13.6005
#
#
#
# Elastic Compliance Matrix: (Units=1/GPa)
#
#
# Indices 1 2 3 4 5 6 
#
# 1 0.013897 -0.003333 -0.004216 0.000000 0.000000 0.000000
# 2 -0.003333 0.028143 -0.005762 0.000000 0.000000 0.000000
# 3 -0.004216 -0.005762 0.012572 0.000000 0.000000 0.000000
# 4 0.000000 0.000000 0.000000 0.099203 0.000000 0.000000
# 5 0.000000 0.000000 0.000000 0.000000 0.061274 0.000000
# 6 0.000000 0.000000 0.000000 0.000000 0.000000 0.073527
#
#
# Mechanical properties :
#
#
# Convention : Reuss Voigt Hill
#
# Bulk Modulus (GPa) = 35.72682 44.21426 39.97054
# Shear Modulus (GPa) = 15.40511 18.20665 16.80588
#
# Velocity S-wave (km/s) = 3.17970 3.45676 3.32112
# Velocity P-wave (km/s) = 6.07688 6.70450 6.39839
#
# Compressibility (1/GPa) = 0.02799018
#
# Stress axis : x y z
#
# Youngs Moduli (GPa) = 71.95609 35.53315 79.54464
#
# Poissons Ratio (x) = 0.11842 0.33538
# Poissons Ratio (y) = 0.23980 0.45833
# Poissons Ratio (z) = 0.30339 0.20474
#
# Static dielectric constant tensor:
#      x y z
#    x 3.022350 0.000000 0.000000 
#    y 0.000000 2.880100 0.000000 
#    z 0.000000 0.000000 3.039580 
# 
# 
# High freq. dielectric constant tensor:
#      x y z
#    x 1.562650 0.000000 0.000000 
#    y 0.000000 1.565750 0.000000 
#    z 0.000000 0.000000 1.568400 
# 
# From -- ./inp_files/33774.got.cif
#   From: 2010.03.12/outbox.cif.g09.slc.cpg/sg47_17_cif.got.tgz:33774.got - 2010.04.14 03:12:58.
