data_PCOD8194387
_publ_section_title
;
Structure prediction by ZEFSAII (Michael W. Deem and Ramdas Pophale) SiO2 
 PCOD8194387
Probable space group: P M M M
;
_chemical_formula_sum "Si O2"
_cell_formula_units_Z 48
_cell_length_a 16.357639
_cell_length_b 18.360743
_cell_length_c 9.379636
_cell_angle_alpha 90.000000
_cell_angle_beta 90.000000
_cell_angle_gamma 90.000000
_cell_volume 2817.064923
_symmetry_space_group_name_H-M "P M M M"
_symmetry_group_IT_number 47
_symmetry_cell_setting 'orthorhombic'
loop_
_space_group_symop_operation_xyz
x,y,z
-x,-y,z
x,-y,-z
-x,y,-z
-x,-y,-z
x,y,-z
-x,y,z
x,-y,z
loop_
_atom_site_type_symbol
_atom_site_label
_atom_site_fract_x
_atom_site_fract_y
_atom_site_fract_z
Si Si1 0.672304 0.084703 0.664413
Si Si2 0.094373 0.279163 0.333163
Si Si3 0.675141 0.655859 0.162952
Si Si4 0.500000 0.149352 0.333833
Si Si5 0.193104 0.418976 0.334679
Si Si6 0.227978 0.800875 0.833181
Si Si7 0.500000 0.297911 0.165201
O O1 0.687405 0.106564 0.500000
O O2 0.579601 0.103152 0.709889
O O3 0.736755 0.126315 0.763318
O O4 0.687566 0.000000 0.689678
O O5 0.109361 0.264299 0.500000
O O6 0.124336 0.360435 0.290201
O O7 0.142315 0.219065 0.241779
O O8 0.000000 0.273216 0.292023
O O9 0.721547 0.596276 0.256260
O O10 0.707289 0.736897 0.195980
O O11 0.579297 0.653579 0.201578
O O12 0.691340 0.635056 0.000000
O O13 0.500000 0.166967 0.500000
O O14 0.500000 0.225135 0.254357
O O15 0.212994 0.412854 0.500000
O O16 0.161532 0.500000 0.294683
O O17 0.212440 0.814029 0.000000
O O18 0.500000 0.274519 0.000000
#
# Coordination Sequence:
#
# PCOD8194387 Si02
#       7
#     8   8   8   4   8   8   4
#     4  10  20  33  49  72 104 138 170 204 245 294
#     4   9  18  33  54  78 102 128 159 197 244 300
#     4   9  18  31  48  68  93 129 169 207 245 288
#     4  10  19  30  48  73 101 133 168 208 249 288
#     4   9  18  32  50  73 101 129 159 199 245 293
#     4  10  19  32  51  73  99 131 167 207 246 290
#     4  10  18  31  48  68  96 128 170 215 248 284
#
# _framework density 17.039009
#
# number of rings (size 3 to 8) (size 9 to 14) (size 15 to 20)
#    0.000    2.500    1.667    0.750    0.000    3.667 
#    0.000    2.083    0.000    4.500    0.000    8.167 
#    0.000    0.000    0.000    0.000    0.000    0.000 
#
# Total GULP energy -595248.465334 kJ/mol
# GULP energy per Si atom -12401.009694 kJ/mol
# Density = 1.700023 g / cm^3
# Si number density = 17.039009 Si / 1000 Ang^3
#
#
#
# Elastic Constant Matrix: (Units=GPa)
#
#
# Indices 1 2 3 4 5 6 
#
# 1 136.5514 52.3955 55.3074 0.0000 0.0000 0.0000
# 2 52.3955 83.9517 46.4773 0.0000 0.0000 0.0000
# 3 55.3074 46.4773 63.8170 0.0000 0.0000 0.0000
# 4 0.0000 0.0000 0.0000 22.0888 0.0000 0.0000
# 5 0.0000 0.0000 0.0000 0.0000 24.8298 0.0000
# 6 0.0000 0.0000 0.0000 0.0000 0.0000 12.3471
#
#
#
# Elastic Compliance Matrix: (Units=1/GPa)
#
#
# Indices 1 2 3 4 5 6 
#
# 1 0.011670 -0.002822 -0.008059 0.000000 0.000000 0.000000
# 2 -0.002822 0.020641 -0.012587 0.000000 0.000000 0.000000
# 3 -0.008059 -0.012587 0.031821 0.000000 0.000000 0.000000
# 4 0.000000 0.000000 0.000000 0.045272 0.000000 0.000000
# 5 0.000000 0.000000 0.000000 0.000000 0.040274 0.000000
# 6 0.000000 0.000000 0.000000 0.000000 0.000000 0.080991
#
#
# Mechanical properties :
#
#
# Convention : Reuss Voigt Hill
#
# Bulk Modulus (GPa) = 58.15073 65.85339 62.00206
# Shear Modulus (GPa) = 17.64681 20.52913 19.08797
#
# Velocity S-wave (km/s) = 3.22168 3.47483 3.35065
# Velocity P-wave (km/s) = 6.93116 7.40485 7.17192
#
# Compressibility (1/GPa) = 0.01719669
#
# Stress axis : x y z
#
# Youngs Moduli (GPa) = 85.68915 48.44631 31.42574
#
# Poissons Ratio (x) = 0.13672 0.25325
# Poissons Ratio (y) = 0.24182 0.39556
# Poissons Ratio (z) = 0.69054 0.60980
#
# Static dielectric constant tensor:
#      x y z
#    x 3.224610 0.000000 0.000000 
#    y 0.000000 3.076470 0.000000 
#    z 0.000000 0.000000 3.180960 
# 
# 
# High freq. dielectric constant tensor:
#      x y z
#    x 1.652430 0.000000 0.000000 
#    y 0.000000 1.641580 0.000000 
#    z 0.000000 0.000000 1.657240 
# 
# From -- ./inp_files/6486.got.cif
#   From: 2010.03.12/outbox.cif.g09.slc.cpg/sg47_4_cif.got.tgz:6486.got - 2010.04.14 03:12:58.
