data_PCOD8194229
_publ_section_title
;
Structure prediction by ZEFSAII (Michael W. Deem and Ramdas Pophale) SiO2 
 PCOD8194229
Probable space group: P M M M
;
_chemical_formula_sum "Si O2"
_cell_formula_units_Z 52
_cell_length_a 18.318541
_cell_length_b 8.988558
_cell_length_c 17.269661
_cell_angle_alpha 90.000000
_cell_angle_beta 90.000000
_cell_angle_gamma 90.000000
_cell_volume 2843.575204
_symmetry_space_group_name_H-M "P M M M"
_symmetry_group_IT_number 47
_symmetry_cell_setting 'orthorhombic'
loop_
_space_group_symop_operation_xyz
x,y,z
-x,-y,z
x,-y,-z
-x,y,-z
-x,-y,-z
x,y,-z
-x,y,z
x,-y,z
loop_
_atom_site_type_symbol
_atom_site_label
_atom_site_fract_x
_atom_site_fract_y
_atom_site_fract_z
Si Si1 0.195428 0.176725 0.334306
Si Si2 0.418299 0.826997 0.806176
Si Si3 0.187588 0.172251 0.500000
Si Si4 0.288183 0.822691 0.087057
Si Si5 0.334442 0.667581 0.500000
Si Si6 0.351093 0.329137 0.668378
Si Si7 0.856388 0.824144 0.171195
Si Si8 0.000000 0.177661 0.911884
O O1 0.158025 0.233094 0.416304
O O2 0.272724 0.253463 0.320751
O O3 0.143267 0.219033 0.262374
O O4 0.209362 0.000000 0.337024
O O5 0.500000 0.797363 0.837837
O O6 0.360062 0.764247 0.868183
O O7 0.409861 0.746486 0.723905
O O8 0.404185 0.000000 0.791788
O O9 0.273230 0.205973 0.500000
O O10 0.171659 0.000000 0.500000
O O11 0.215932 0.760008 0.129554
O O12 0.287375 0.000000 0.085804
O O13 0.290175 0.759080 0.000000
O O14 0.299490 0.500000 0.500000
O O15 0.380340 0.687713 0.420629
O O16 0.343038 0.500000 0.692069
O O17 0.928620 0.757071 0.131264
O O18 0.856696 0.000000 0.160718
O O19 0.000000 0.000000 0.909141
O O20 0.000000 0.234800 0.000000
#
# Coordination Sequence:
#
# PCOD8194229 Si02
#       8
#     8   8   4   8   4   8   8   4
#     4   9  15  26  44  66  93 122 154 190 230 274
#     4  10  20  33  48  67  93 122 153 192 235 278
#     4   8  14  22  38  64  89 118 153 187 224 271
#     4   9  16  27  45  67  89 115 150 191 232 271
#     4   8  16  28  43  65  91 118 150 190 232 272
#     4  10  18  30  48  69  93 121 155 193 233 276
#     4   9  15  24  41  64  94 125 151 185 227 271
#     4   9  16  24  36  63 100 128 151 185 233 279
#
# _framework density 18.286839000000001
#
# number of rings (size 3 to 8) (size 9 to 14) (size 15 to 20)
#    0.000    2.846    1.538    0.923    0.000    3.077 
#    0.000    1.923    0.000    3.231    0.000    4.846 
#    0.000    0.615    0.000   11.308    0.000    7.846 
#
# Total GULP energy -644197.734607 kJ/mol
# GULP energy per Si atom -12388.417973 kJ/mol
# Density = 1.824522 g / cm^3
# Si number density = 18.286839 Si / 1000 Ang^3
#
#
#
# Elastic Constant Matrix: (Units=GPa)
#
#
# Indices 1 2 3 4 5 6 
#
# 1 117.2441 15.3054 81.0235 0.0000 0.0000 0.0000
# 2 15.3054 19.4321 18.3791 0.0000 0.0000 0.0000
# 3 81.0235 18.3791 187.3308 0.0000 0.0000 0.0000
# 4 0.0000 0.0000 0.0000 12.3310 0.0000 0.0000
# 5 0.0000 0.0000 0.0000 0.0000 23.1302 0.0000
# 6 0.0000 0.0000 0.0000 0.0000 0.0000 3.4666
#
#
#
# Elastic Compliance Matrix: (Units=1/GPa)
#
#
# Indices 1 2 3 4 5 6 
#
# 1 0.012637 -0.005273 -0.004948 0.000000 0.000000 0.000000
# 2 -0.005273 0.058926 -0.003500 0.000000 0.000000 0.000000
# 3 -0.004948 -0.003500 0.007822 0.000000 0.000000 0.000000
# 4 0.000000 0.000000 0.000000 0.081096 0.000000 0.000000
# 5 0.000000 0.000000 0.000000 0.000000 0.043233 0.000000
# 6 0.000000 0.000000 0.000000 0.000000 0.000000 0.288464
#
#
# Mechanical properties :
#
#
# Convention : Reuss Voigt Hill
#
# Bulk Modulus (GPa) = 19.25287 61.49145 40.37216
# Shear Modulus (GPa) = 9.31209 21.73884 15.52547
#
# Velocity S-wave (km/s) = 2.25905 3.45159 2.91692
# Velocity P-wave (km/s) = 4.16599 7.04157 5.78529
#
# Compressibility (1/GPa) = 0.05194031
#
# Stress axis : x y z
#
# Youngs Moduli (GPa) = 79.13061 16.97057 127.84671
#
# Poissons Ratio (x) = 0.08949 0.63265
# Poissons Ratio (y) = 0.41728 0.44752
# Poissons Ratio (z) = 0.39158 0.05940
#
# Static dielectric constant tensor:
#      x y z
#    x 3.185520 0.000000 0.000000 
#    y 0.000000 2.946780 0.000000 
#    z 0.000000 0.000000 3.965970 
# 
# 
# High freq. dielectric constant tensor:
#      x y z
#    x 1.671510 0.000000 0.000000 
#    y 0.000000 1.658820 0.000000 
#    z 0.000000 0.000000 1.735320 
# 
# From -- ./inp_files/28565.got.cif
#   From: 2010.03.12/outbox.cif.g09.slc.cpg/sg47_15_cif.got.tgz:28565.got - 2010.04.14 03:12:58.
