data_PCOD8194659
_publ_section_title
;
Structure prediction by ZEFSAII (Michael W. Deem and Ramdas Pophale) SiO2 
 PCOD8194659
Probable space group: P M M M
;
_chemical_formula_sum "Si O2"
_cell_formula_units_Z 64
_cell_length_a 9.061379
_cell_length_b 24.039443
_cell_length_c 18.837610
_cell_angle_alpha 90.000000
_cell_angle_beta 90.000000
_cell_angle_gamma 90.000000
_cell_volume 4103.406080
_symmetry_space_group_name_H-M "P M M M"
_symmetry_group_IT_number 47
_symmetry_cell_setting 'orthorhombic'
loop_
_space_group_symop_operation_xyz
x,y,z
-x,-y,z
x,-y,-z
-x,y,-z
-x,-y,-z
x,y,-z
-x,y,z
x,-y,z
loop_
_atom_site_type_symbol
_atom_site_label
_atom_site_fract_x
_atom_site_fract_y
_atom_site_fract_z
Si Si1 0.673196 0.564358 0.286126
Si Si2 0.327975 0.667105 0.080187
Si Si3 0.828987 0.389338 0.419423
Si Si4 0.161362 0.559650 0.917609
Si Si5 0.169557 0.727287 0.358021
Si Si6 0.326748 0.168524 0.581035
Si Si7 0.833148 0.060744 0.415687
Si Si8 0.826720 0.666731 0.216042
O O1 0.500000 0.578023 0.282740
O O2 0.704795 0.500000 0.266458
O O3 0.728845 0.574952 0.366505
O O4 0.758290 0.605109 0.231126
O O5 0.500000 0.678754 0.088377
O O6 0.293050 0.602511 0.096188
O O7 0.238043 0.696427 0.144153
O O8 0.275525 0.684301 0.000000
O O9 0.792071 0.407007 0.500000
O O10 0.797305 0.323475 0.411428
O O11 0.000000 0.400893 0.400493
O O12 0.202600 0.500000 0.882528
O O13 0.000000 0.580764 0.888471
O O14 0.143397 0.550640 0.000000
O O15 0.270466 0.779459 0.374793
O O16 0.213759 0.708125 0.279232
O O17 0.000000 0.745991 0.363255
O O18 0.272586 0.175314 0.500000
O O19 0.500000 0.166091 0.586580
O O20 0.265636 0.110970 0.614678
O O21 0.824057 0.060573 0.500000
O O22 0.000000 0.070761 0.390109
O O23 0.777699 0.000000 0.387836
O O24 0.000000 0.659459 0.209095
#
# Coordination Sequence:
#
# PCOD8194659 Si02
#       8
#     8   8   8   8   8   8   8   8
#     4  10  21  35  49  65  85 108 133 164 208 261
#     4  10  20  32  47  67  87 105 126 155 195 244
#     4   9  18  32  49  67  85 107 137 174 214 254
#     4   8  14  25  40  57  77 100 124 149 178 216
#     4   9  18  32  47  62  81 107 141 177 212 251
#     4  10  19  27  39  63  90 116 147 182 220 257
#     4   8  14  25  40  57  80 114 153 188 220 250
#     4  10  21  36  52  66  81 106 138 171 208 250
#
# _framework density 15.596799000000001
#
# number of rings (size 3 to 8) (size 9 to 14) (size 15 to 20)
#    0.000    2.750    0.000    3.375    0.000    7.000 
#    0.000    3.750    0.000    0.000    0.000    0.000 
#    0.000    0.000    0.000    0.000    0.000    0.625 
#
# Total GULP energy -792979.762516 kJ/mol
# GULP energy per Si atom -12390.308789 kJ/mol
# Density = 1.556130 g / cm^3
# Si number density = 15.596799 Si / 1000 Ang^3
#
#
#
# Elastic Constant Matrix: (Units=GPa)
#
#
# Indices 1 2 3 4 5 6 
#
# 1 68.1277 33.6477 34.4899 0.0000 0.0000 0.0000
# 2 33.6477 75.8291 21.1053 0.0000 0.0000 0.0000
# 3 34.4899 21.1053 83.5193 0.0000 0.0000 0.0000
# 4 0.0000 0.0000 0.0000 9.3663 0.0000 0.0000
# 5 0.0000 0.0000 0.0000 0.0000 21.9655 0.0000
# 6 0.0000 0.0000 0.0000 0.0000 0.0000 27.5906
#
#
#
# Elastic Compliance Matrix: (Units=1/GPa)
#
#
# Indices 1 2 3 4 5 6 
#
# 1 0.022189 -0.007848 -0.007180 0.000000 0.000000 0.000000
# 2 -0.007848 0.016961 -0.001045 0.000000 0.000000 0.000000
# 3 -0.007180 -0.001045 0.015202 0.000000 0.000000 0.000000
# 4 0.000000 0.000000 0.000000 0.106765 0.000000 0.000000
# 5 0.000000 0.000000 0.000000 0.000000 0.045526 0.000000
# 6 0.000000 0.000000 0.000000 0.000000 0.000000 0.036244
#
#
# Mechanical properties :
#
#
# Convention : Reuss Voigt Hill
#
# Bulk Modulus (GPa) = 45.03193 45.10689 45.06941
# Shear Modulus (GPa) = 17.70316 21.00005 19.35161
#
# Velocity S-wave (km/s) = 3.37271 3.67336 3.52624
# Velocity P-wave (km/s) = 6.64094 6.85382 6.74822
#
# Compressibility (1/GPa) = 0.02220647
#
# Stress axis : x y z
#
# Youngs Moduli (GPa) = 45.06717 58.95995 65.77873
#
# Poissons Ratio (x) = 0.46269 0.47230
# Poissons Ratio (y) = 0.35367 0.06876
# Poissons Ratio (z) = 0.32359 0.06163
#
# Static dielectric constant tensor:
#      x y z
#    x 2.975890 0.000000 0.000000 
#    y 0.000000 2.912950 0.000000 
#    z 0.000000 0.000000 3.084000 
# 
# 
# High freq. dielectric constant tensor:
#      x y z
#    x 1.603940 0.000000 0.000000 
#    y 0.000000 1.560330 0.000000 
#    z 0.000000 0.000000 1.584460 
# 
# From -- ./inp_files/30221.got.cif
#   From: 2010.03.12/outbox.cif.g09.slc.cpg/sg47_16_cif.got.tgz:30221.got - 2010.04.14 03:12:58.
