data_PCOD8194480
_publ_section_title
;
Structure prediction by ZEFSAII (Michael W. Deem and Ramdas Pophale) SiO2 
 PCOD8194480
Probable space group: P M M M
;
_chemical_formula_sum "Si O2"
_cell_formula_units_Z 52
_cell_length_a 27.528173
_cell_length_b 9.054026
_cell_length_c 12.098602
_cell_angle_alpha 90.000000
_cell_angle_beta 90.000000
_cell_angle_gamma 90.000000
_cell_volume 3015.465170
_symmetry_space_group_name_H-M "P M M M"
_symmetry_group_IT_number 47
_symmetry_cell_setting 'orthorhombic'
loop_
_space_group_symop_operation_xyz
x,y,z
-x,-y,z
x,-y,-z
-x,y,-z
-x,-y,-z
x,y,-z
-x,y,z
x,-y,z
loop_
_atom_site_type_symbol
_atom_site_label
_atom_site_fract_x
_atom_site_fract_y
_atom_site_fract_z
Si Si1 0.179185 0.169247 0.127252
Si Si2 0.629886 0.168466 0.131062
Si Si3 0.557727 0.166600 0.500000
Si Si4 0.945589 0.842010 0.000000
Si Si5 0.275464 0.334748 0.131042
Si Si6 0.443280 0.672444 0.280660
Si Si7 0.000000 0.327578 0.629334
Si Si8 0.080258 0.826728 0.769930
O O1 0.224418 0.265561 0.167909
O O2 0.138459 0.196172 0.223351
O O3 0.196008 0.000000 0.127581
O O4 0.162097 0.211260 0.000000
O O5 0.679795 0.238890 0.177507
O O6 0.584212 0.258479 0.176768
O O7 0.627352 0.000000 0.171678
O O8 0.627358 0.179568 0.000000
O O9 0.500000 0.167381 0.500000
O O10 0.576770 0.251474 0.391970
O O11 0.578212 0.000000 0.500000
O O12 0.935454 0.754667 0.887408
O O13 0.000000 0.890994 0.000000
O O14 0.914933 0.000000 0.000000
O O15 0.279155 0.500000 0.179442
O O16 0.278075 0.336403 0.000000
O O17 0.500000 0.704171 0.263044
O O18 0.432211 0.500000 0.288830
O O19 0.050317 0.258284 0.675762
O O20 0.000000 0.500000 0.656655
O O21 0.000000 0.295284 0.500000
O O22 0.066576 0.000000 0.760427
#
# Coordination Sequence:
#
# PCOD8194480 Si02
#       8
#     8   8   4   4   8   8   4   8
#     4   9  16  27  47  75 103 127 153 190 241 297
#     4  10  20  33  49  70  99 136 176 213 249 294
#     4   9  17  31  51  73  97 125 161 205 249 292
#     4   9  14  24  46  74 102 124 146 184 235 282
#     4   9  17  29  45  67  99 135 167 199 238 291
#     4  10  20  33  50  73 101 132 167 209 258 310
#     4  11  25  40  49  64  96 135 172 209 246 283
#     4  10  18  31  53  76  98 126 160 196 236 288
#
# _framework density 17.244437999999999
#
# number of rings (size 3 to 8) (size 9 to 14) (size 15 to 20)
#    0.000    2.385    1.538    1.846    0.000    6.154 
#    0.000    2.308    0.000    0.000    2.000    0.000 
#    0.000    0.000    0.000    0.000    0.000    0.000 
#
# Total GULP energy -644364.059704 kJ/mol
# GULP energy per Si atom -12391.616533 kJ/mol
# Density = 1.720519 g / cm^3
# Si number density = 17.244438 Si / 1000 Ang^3
#
#
#
# Elastic Constant Matrix: (Units=GPa)
#
#
# Indices 1 2 3 4 5 6 
#
# 1 97.8077 63.9324 38.2761 0.0000 0.0000 0.0000
# 2 63.9324 117.3482 40.9237 0.0000 0.0000 0.0000
# 3 38.2761 40.9237 59.3799 0.0000 0.0000 0.0000
# 4 0.0000 0.0000 0.0000 25.2600 0.0000 0.0000
# 5 0.0000 0.0000 0.0000 0.0000 9.7416 0.0000
# 6 0.0000 0.0000 0.0000 0.0000 0.0000 28.2795
#
#
#
# Elastic Compliance Matrix: (Units=1/GPa)
#
#
# Indices 1 2 3 4 5 6 
#
# 1 0.017447 -0.007350 -0.006181 0.000000 0.000000 0.000000
# 2 -0.007350 0.014314 -0.005127 0.000000 0.000000 0.000000
# 3 -0.006181 -0.005127 0.024359 0.000000 0.000000 0.000000
# 4 0.000000 0.000000 0.000000 0.039588 0.000000 0.000000
# 5 0.000000 0.000000 0.000000 0.000000 0.102653 0.000000
# 6 0.000000 0.000000 0.000000 0.000000 0.000000 0.035361
#
#
# Mechanical properties :
#
#
# Convention : Reuss Voigt Hill
#
# Bulk Modulus (GPa) = 53.18150 62.31113 57.74631
# Shear Modulus (GPa) = 18.03057 21.41644 19.72350
#
# Velocity S-wave (km/s) = 3.23706 3.52793 3.38562
# Velocity P-wave (km/s) = 6.69912 7.26688 6.98877
#
# Compressibility (1/GPa) = 0.01880353
#
# Stress axis : x y z
#
# Youngs Moduli (GPa) = 57.31535 69.86156 41.05318
#
# Poissons Ratio (x) = 0.51348 0.25375
# Poissons Ratio (y) = 0.42126 0.21049
# Poissons Ratio (z) = 0.35427 0.35820
#
# Static dielectric constant tensor:
#      x y z
#    x 3.230140 0.000000 0.000000 
#    y 0.000000 3.268080 0.000000 
#    z 0.000000 0.000000 2.844670 
# 
# 
# High freq. dielectric constant tensor:
#      x y z
#    x 1.666190 0.000000 0.000000 
#    y 0.000000 1.666260 0.000000 
#    z 0.000000 0.000000 1.624930 
# 
# From -- ./inp_files/20070.got.cif
#   From: 2010.03.12/outbox.cif.g09.slc.cpg/sg47_11_cif.got.tgz:20070.got - 2010.04.14 03:12:58.
