data_PCOD8194465
_publ_section_title
;
Structure prediction by ZEFSAII (Michael W. Deem and Ramdas Pophale) SiO2 
 PCOD8194465
Probable space group: P M M M
;
_chemical_formula_sum "Si O2"
_cell_formula_units_Z 48
_cell_length_a 10.122245
_cell_length_b 8.911819
_cell_length_c 29.422600
_cell_angle_alpha 90.000000
_cell_angle_beta 90.000000
_cell_angle_gamma 90.000000
_cell_volume 2654.142582
_symmetry_space_group_name_H-M "P M M M"
_symmetry_group_IT_number 47
_symmetry_cell_setting 'orthorhombic'
loop_
_space_group_symop_operation_xyz
x,y,z
-x,-y,z
x,-y,-z
-x,y,-z
-x,-y,-z
x,y,-z
-x,y,z
x,-y,z
loop_
_atom_site_type_symbol
_atom_site_label
_atom_site_fract_x
_atom_site_fract_y
_atom_site_fract_z
Si Si1 0.651863 0.324126 0.305570
Si Si2 0.348843 0.823230 0.210788
Si Si3 0.748730 0.178076 0.393104
Si Si4 0.500000 0.821723 0.550583
Si Si5 0.154319 0.674856 0.139844
Si Si6 0.000000 0.178220 0.551157
Si Si7 0.156344 0.832325 0.950236
O O1 0.500000 0.284886 0.317220
O O2 0.676413 0.500000 0.302342
O O3 0.692931 0.251910 0.257994
O O4 0.746134 0.254653 0.343909
O O5 0.500000 0.778802 0.197757
O O6 0.246259 0.767049 0.173538
O O7 0.334889 0.000000 0.216107
O O8 0.626553 0.236724 0.422596
O O9 0.874693 0.235422 0.420814
O O10 0.747625 0.000000 0.386250
O O11 0.500000 0.752777 0.500000
O O12 0.500000 0.000000 0.547573
O O13 0.178653 0.500000 0.147416
O O14 0.201445 0.717689 0.088896
O O15 0.000000 0.716873 0.147757
O O16 0.000000 0.245584 0.500000
O O17 0.000000 0.000000 0.547656
O O18 0.000000 0.836091 0.952297
O O19 0.209273 0.000000 0.939070
O O20 0.210411 0.780392 0.000000
#
# Coordination Sequence:
#
# PCOD8194465 Si02
#       7
#     8   8   8   4   8   4   8
#     4  10  20  35  55  77 102 131 167 212 261 309
#     4  10  21  37  58  80 102 134 178 222 266 317
#     4  10  18  31  52  76 102 131 167 207 248 298
#     4   9  16  26  47  77 101 125 163 209 248 287
#     4  10  20  33  51  79 113 144 176 216 265 319
#     4   9  18  32  51  77 107 135 165 205 250 295
#     4   8  14  26  46  72 103 141 183 224 265 308
#
# _framework density 18.084937
#
# number of rings (size 3 to 8) (size 9 to 14) (size 15 to 20)
#    0.000    2.500    0.833    2.500    0.000    5.000 
#    1.500    2.083    0.000    3.500    0.000    3.500 
#    0.000    0.000    0.000    0.000    0.000    0.000 
#
# Total GULP energy -595100.137962 kJ/mol
# GULP energy per Si atom -12397.919541 kJ/mol
# Density = 1.804377 g / cm^3
# Si number density = 18.084937 Si / 1000 Ang^3
#
#
#
# Elastic Constant Matrix: (Units=GPa)
#
#
# Indices 1 2 3 4 5 6 
#
# 1 93.3984 27.5099 63.0994 0.0000 0.0000 0.0000
# 2 27.5099 57.5339 44.4498 0.0000 0.0000 0.0000
# 3 63.0994 44.4498 152.2575 0.0000 0.0000 0.0000
# 4 0.0000 0.0000 0.0000 0.2104 0.0000 0.0000
# 5 0.0000 0.0000 0.0000 0.0000 25.4212 0.0000
# 6 0.0000 0.0000 0.0000 0.0000 0.0000 17.3301
#
#
#
# Elastic Compliance Matrix: (Units=1/GPa)
#
#
# Indices 1 2 3 4 5 6 
#
# 1 0.015292 -0.003119 -0.005427 0.000000 0.000000 0.000000
# 2 -0.003119 0.023079 -0.005445 0.000000 0.000000 0.000000
# 3 -0.005427 -0.005445 0.010406 0.000000 0.000000 0.000000
# 4 0.000000 0.000000 0.000000 4.752842 0.000000 0.000000
# 5 0.000000 0.000000 0.000000 0.000000 0.039337 0.000000
# 6 0.000000 0.000000 0.000000 0.000000 0.000000 0.057703
#
#
# Mechanical properties :
#
#
# Convention : Reuss Voigt Hill
#
# Bulk Modulus (GPa) = 48.08720 63.70089 55.89404
# Shear Modulus (GPa) = 1.01346 19.80106 10.40726
#
# Velocity S-wave (km/s) = 0.74941 3.31251 2.40149
# Velocity P-wave (km/s) = 5.23414 7.06611 6.21796
#
# Compressibility (1/GPa) = 0.02079556
#
# Stress axis : x y z
#
# Youngs Moduli (GPa) = 65.39448 43.32896 96.09478
#
# Poissons Ratio (x) = 0.13515 0.52148
# Poissons Ratio (y) = 0.20398 0.52324
# Poissons Ratio (z) = 0.35488 0.23593
#
# Static dielectric constant tensor:
#      x y z
#    x 3.203300 0.000000 0.000000 
#    y 0.000000 3.167980 0.000000 
#    z 0.000000 0.000000 3.643570 
# 
# 
# High freq. dielectric constant tensor:
#      x y z
#    x 1.674910 0.000000 0.000000 
#    y 0.000000 1.684940 0.000000 
#    z 0.000000 0.000000 1.715930 
# 
# From -- ./inp_files/34059.got.cif
#   From: 2010.03.12/outbox.cif.g09.slc.cpg/sg47_18_cif.got.tgz:34059.got - 2010.04.14 03:12:58.
