data_PCOD8194751
_publ_section_title
;
Structure prediction by ZEFSAII (Michael W. Deem and Ramdas Pophale) SiO2 
 PCOD8194751
Probable space group: P M M M
;
_chemical_formula_sum "Si O2"
_cell_formula_units_Z 40
_cell_length_a 7.590552
_cell_length_b 15.246526
_cell_length_c 21.766806
_cell_angle_alpha 90.000000
_cell_angle_beta 90.000000
_cell_angle_gamma 90.000000
_cell_volume 2519.062629
_symmetry_space_group_name_H-M "P M M M"
_symmetry_group_IT_number 47
_symmetry_cell_setting 'orthorhombic'
loop_
_space_group_symop_operation_xyz
x,y,z
-x,-y,z
x,-y,-z
-x,y,-z
-x,-y,-z
x,y,-z
-x,y,z
x,-y,z
loop_
_atom_site_type_symbol
_atom_site_label
_atom_site_fract_x
_atom_site_fract_y
_atom_site_fract_z
Si Si1 0.000000 0.894556 0.659039
Si Si2 0.695260 0.103686 0.432216
Si Si3 0.299723 0.826997 0.131998
Si Si4 0.299671 0.351512 0.929871
Si Si5 0.290651 0.000000 0.932584
Si Si6 0.000000 0.596477 0.161713
Si Si7 0.000000 0.776952 0.778919
O O1 0.830566 0.866750 0.619663
O O2 0.000000 0.824725 0.713835
O O3 0.000000 0.000000 0.677012
O O4 0.748313 0.140252 0.500000
O O5 0.500000 0.137778 0.414297
O O6 0.696122 0.000000 0.436076
O O7 0.500000 0.837819 0.155754
O O8 0.286758 0.752918 0.079805
O O9 0.179625 0.806984 0.189852
O O10 0.223032 0.915190 0.102999
O O11 0.500000 0.383831 0.917816
O O12 0.171379 0.398177 0.881873
O O13 0.243786 0.372618 0.000000
O O14 0.500000 0.000000 0.937262
O O15 0.206049 0.000000 0.000000
O O16 0.000000 0.500000 0.192825
O O17 0.000000 0.669657 0.216268
#
# Coordination Sequence:
#
# PCOD8194751 Si02
#       7
#     4   8   8   8   4   4   4
#     4  10  19  28  43  66  94 125 153 181 209 244
#     4   8  14  26  44  67  95 125 154 180 208 242
#     4   9  18  31  44  59  84 115 144 181 222 261
#     4   9  17  30  48  68  87 104 129 175 235 291
#     4   9  16  27  45  63  78 107 149 184 218 262
#     4  10  21  36  49  62  83 112 145 183 227 274
#     4  10  22  34  45  62  87 118 153 183 216 260
#
# _framework density 15.878923
#
# number of rings (size 3 to 8) (size 9 to 14) (size 15 to 20)
#    0.000    2.900    0.000    1.800    1.400    5.600 
#    0.000    3.000    0.000    0.000    0.000    0.000 
#    0.000    1.600    0.000    2.200    0.000    0.200 
#
# Total GULP energy -495629.129537 kJ/mol
# GULP energy per Si atom -12390.728238 kJ/mol
# Density = 1.584278 g / cm^3
# Si number density = 15.878923 Si / 1000 Ang^3
#
#
#
# Elastic Constant Matrix: (Units=GPa)
#
#
# Indices 1 2 3 4 5 6 
#
# 1 88.3434 29.2552 49.3490 0.0000 0.0000 0.0000
# 2 29.2552 96.2501 42.9700 0.0000 0.0000 0.0000
# 3 49.3490 42.9700 100.8390 0.0000 0.0000 0.0000
# 4 0.0000 0.0000 0.0000 12.9891 0.0000 0.0000
# 5 0.0000 0.0000 0.0000 0.0000 15.0801 0.0000
# 6 0.0000 0.0000 0.0000 0.0000 0.0000 19.6719
#
#
#
# Elastic Compliance Matrix: (Units=1/GPa)
#
#
# Indices 1 2 3 4 5 6 
#
# 1 0.015792 -0.001667 -0.007018 0.000000 0.000000 0.000000
# 2 -0.001667 0.013006 -0.004727 0.000000 0.000000 0.000000
# 3 -0.007018 -0.004727 0.015365 0.000000 0.000000 0.000000
# 4 0.000000 0.000000 0.000000 0.076987 0.000000 0.000000
# 5 0.000000 0.000000 0.000000 0.000000 0.066313 0.000000
# 6 0.000000 0.000000 0.000000 0.000000 0.000000 0.050834
#
#
# Mechanical properties :
#
#
# Convention : Reuss Voigt Hill
#
# Bulk Modulus (GPa) = 57.66770 58.73123 58.19946
# Shear Modulus (GPa) = 18.45696 20.47210 19.46453
#
# Velocity S-wave (km/s) = 3.41303 3.59453 3.50495
# Velocity P-wave (km/s) = 7.20609 7.36849 7.28774
#
# Compressibility (1/GPa) = 0.01734073
#
# Stress axis : x y z
#
# Youngs Moduli (GPa) = 63.32446 76.88534 65.08121
#
# Poissons Ratio (x) = 0.12815 0.45674
# Poissons Ratio (y) = 0.10555 0.30762
# Poissons Ratio (z) = 0.44441 0.36341
#
# Static dielectric constant tensor:
#      x y z
#    x 3.388840 0.000000 0.000000 
#    y 0.000000 2.885430 0.000000 
#    z 0.000000 0.000000 2.848850 
# 
# 
# High freq. dielectric constant tensor:
#      x y z
#    x 1.628100 0.000000 0.000000 
#    y 0.000000 1.579820 0.000000 
#    z 0.000000 0.000000 1.576410 
# 
# From -- ./inp_files/29438.got.cif
#   From: 2010.03.12/outbox.cif.g09.slc.cpg/sg47_15_cif.got.tgz:29438.got - 2010.04.14 03:12:58.
