data_PCOD8194144
_publ_section_title
;
Structure prediction by ZEFSAII (Michael W. Deem and Ramdas Pophale) SiO2 
 PCOD8194144
Probable space group: P M M M
;
_chemical_formula_sum "Si O2"
_cell_formula_units_Z 56
_cell_length_a 8.930358
_cell_length_b 14.409676
_cell_length_c 22.829686
_cell_angle_alpha 90.000000
_cell_angle_beta 90.000000
_cell_angle_gamma 90.000000
_cell_volume 2937.805390
_symmetry_space_group_name_H-M "P M M M"
_symmetry_group_IT_number 47
_symmetry_cell_setting 'orthorhombic'
loop_
_space_group_symop_operation_xyz
x,y,z
-x,-y,z
x,-y,-z
-x,y,-z
-x,-y,-z
x,y,-z
-x,y,z
x,-y,z
loop_
_atom_site_type_symbol
_atom_site_label
_atom_site_fract_x
_atom_site_fract_y
_atom_site_fract_z
Si Si1 0.823996 0.604327 0.346085
Si Si2 0.676894 0.896319 0.718155
Si Si3 0.822952 0.394489 0.000000
Si Si4 0.322006 0.221027 0.611327
Si Si5 0.675651 0.293914 0.108063
Si Si6 0.322549 0.898386 0.847934
Si Si7 0.829289 0.607868 0.212090
Si Si8 0.321774 0.894451 0.500000
O O1 0.773992 0.500000 0.362729
O O2 0.740803 0.674342 0.390140
O O3 0.778883 0.625275 0.278819
O O4 0.000000 0.615347 0.353945
O O5 0.500000 0.884603 0.719013
O O6 0.743888 0.826060 0.670363
O O7 0.743028 0.876473 0.783021
O O8 0.720433 0.000000 0.698463
O O9 0.766093 0.343536 0.057448
O O10 0.763475 0.500000 0.000000
O O11 0.000000 0.392028 0.000000
O O12 0.500000 0.224804 0.610337
O O13 0.262368 0.161335 0.556565
O O14 0.500000 0.306594 0.096581
O O15 0.722465 0.184549 0.108087
O O16 0.716285 0.336312 0.170874
O O17 0.500000 0.902608 0.842139
O O18 0.264101 0.000000 0.870040
O O19 0.816626 0.500000 0.196074
O O20 0.000000 0.641202 0.201745
O O21 0.500000 0.898283 0.500000
O O22 0.258522 0.000000 0.500000
#
# Coordination Sequence:
#
# PCOD8194144 Si02
#       8
#     8   8   4   8   8   8   8   4
#     4   9  19  35  52  71  99 135 171 206 250 307
#     4   8  13  23  43  72 103 132 161 195 240 297
#     4  11  25  43  58  71  96 138 177 205 246 307
#     4  10  18  29  49  75 100 130 171 216 257 295
#     4  11  21  33  54  82 106 130 167 215 255 286
#     4   8  15  28  46  72 105 133 157 193 245 300
#     4   9  18  33  52  74 103 138 168 197 248 316
#     4   9  18  32  50  75 106 136 167 207 258 315
#
# _framework density 19.061847
#
# number of rings (size 3 to 8) (size 9 to 14) (size 15 to 20)
#    0.000    2.714    0.000    4.071    0.000    6.286 
#    0.000    2.500    0.000    8.143    0.000    8.000 
#    0.000    0.000    0.000    0.000    0.000    0.000 
#
# Total GULP energy -694135.485021 kJ/mol
# GULP energy per Si atom -12395.276518 kJ/mol
# Density = 1.901846 g / cm^3
# Si number density = 19.061847 Si / 1000 Ang^3
#
#
#
# Elastic Constant Matrix: (Units=GPa)
#
#
# Indices 1 2 3 4 5 6 
#
# 1 28.5517 32.0424 23.5754 0.0000 0.0000 0.0000
# 2 32.0424 159.8467 79.9608 0.0000 0.0000 0.0000
# 3 23.5754 79.9608 84.0699 0.0000 0.0000 0.0000
# 4 0.0000 0.0000 0.0000 33.9107 0.0000 0.0000
# 5 0.0000 0.0000 0.0000 0.0000 17.9942 0.0000
# 6 0.0000 0.0000 0.0000 0.0000 0.0000 0.8371
#
#
#
# Elastic Compliance Matrix: (Units=1/GPa)
#
#
# Indices 1 2 3 4 5 6 
#
# 1 0.047993 -0.005509 -0.008218 0.000000 0.000000 0.000000
# 2 -0.005509 0.012566 -0.010407 0.000000 0.000000 0.000000
# 3 -0.008218 -0.010407 0.024098 0.000000 0.000000 0.000000
# 4 0.000000 0.000000 0.000000 0.029489 0.000000 0.000000
# 5 0.000000 0.000000 0.000000 0.000000 0.055574 0.000000
# 6 0.000000 0.000000 0.000000 0.000000 0.000000 1.194597
#
#
# Mechanical properties :
#
#
# Convention : Reuss Voigt Hill
#
# Bulk Modulus (GPa) = 27.48191 60.40283 43.94237
# Shear Modulus (GPa) = 3.50947 19.67437 11.59192
#
# Velocity S-wave (km/s) = 1.35834 3.21617 2.46869
# Velocity P-wave (km/s) = 4.11201 6.74895 5.58824
#
# Compressibility (1/GPa) = 0.03638757
#
# Stress axis : x y z
#
# Youngs Moduli (GPa) = 20.83626 79.57687 41.49707
#
# Poissons Ratio (x) = 0.43842 0.34104
# Poissons Ratio (y) = 0.11480 0.43187
# Poissons Ratio (z) = 0.17124 0.82818
#
# Static dielectric constant tensor:
#      x y z
#    x 3.012590 0.000000 0.000000 
#    y 0.000000 3.854150 0.000000 
#    z 0.000000 0.000000 3.532190 
# 
# 
# High freq. dielectric constant tensor:
#      x y z
#    x 1.697090 0.000000 0.000000 
#    y 0.000000 1.758560 0.000000 
#    z 0.000000 0.000000 1.725980 
# 
# From -- ./inp_files/29738.got.cif
#   From: 2010.03.12/outbox.cif.g09.slc.cpg/sg47_15_cif.got.tgz:29738.got - 2010.04.14 03:12:58.
