data_PCOD8194489
_publ_section_title
;
Structure prediction by ZEFSAII (Michael W. Deem and Ramdas Pophale) SiO2 
 PCOD8194489
Probable space group: P M M M
;
_chemical_formula_sum "Si O2"
_cell_formula_units_Z 52
_cell_length_a 8.672576
_cell_length_b 17.098854
_cell_length_c 17.913490
_cell_angle_alpha 90.000000
_cell_angle_beta 90.000000
_cell_angle_gamma 90.000000
_cell_volume 2656.411331
_symmetry_space_group_name_H-M "P M M M"
_symmetry_group_IT_number 47
_symmetry_cell_setting 'orthorhombic'
loop_
_space_group_symop_operation_xyz
x,y,z
-x,-y,z
x,-y,-z
-x,y,-z
-x,-y,-z
x,y,-z
-x,y,z
x,-y,z
loop_
_atom_site_type_symbol
_atom_site_label
_atom_site_fract_x
_atom_site_fract_y
_atom_site_fract_z
Si Si1 0.819521 0.586829 0.500000
Si Si2 0.318127 0.833640 0.697756
Si Si3 0.820879 0.590481 0.782965
Si Si4 0.677928 0.668731 0.359646
Si Si5 0.323194 0.318607 0.915294
Si Si6 0.176979 0.170276 0.859117
Si Si7 0.675601 0.000000 0.314159
Si Si8 0.175952 0.000000 0.840067
O O1 0.744188 0.500000 0.500000
O O2 0.773999 0.632848 0.426315
O O3 0.000000 0.577934 0.500000
O O4 0.500000 0.839838 0.717772
O O5 0.287502 0.761669 0.642269
O O6 0.223085 0.819411 0.772887
O O7 0.258090 0.915420 0.658135
O O8 0.775534 0.500000 0.787089
O O9 0.721535 0.630559 0.718775
O O10 0.783325 0.629336 0.862224
O O11 0.000000 0.602098 0.764587
O O12 0.500000 0.652087 0.375492
O O13 0.500000 0.329362 0.891088
O O14 0.279519 0.227087 0.909669
O O15 0.297006 0.346697 0.000000
O O16 0.000000 0.195761 0.867699
O O17 0.201015 0.080118 0.886927
O O18 0.500000 0.000000 0.337576
O O19 0.698307 0.000000 0.225149
O O20 0.000000 0.000000 0.807506
#
# Coordination Sequence:
#
# PCOD8194489 Si02
#       8
#     4   8   8   8   8   8   4   4
#     4  11  25  43  61  84 117 154 194 239 287 341
#     4   9  17  30  52  82 115 149 187 229 274 330
#     4  11  24  41  62  87 113 144 185 232 285 347
#     4  11  22  37  61  91 121 152 189 231 280 339
#     4  11  24  40  57  79 110 148 191 239 290 342
#     4  10  18  31  53  79 110 147 188 234 284 336
#     4   8  14  26  46  76 112 148 184 225 271 319
#     4   8  16  28  45  75 109 142 183 230 280 334
#
# _framework density 19.575282000000001
#
# number of rings (size 3 to 8) (size 9 to 14) (size 15 to 20)
#    0.000    1.923    1.538    2.538    0.000    6.462 
#    0.000    1.923    0.000    2.769    0.000    3.231 
#    0.000    0.000    0.000    0.000    0.000    0.000 
#
# Total GULP energy -644495.391755 kJ/mol
# GULP energy per Si atom -12394.142149 kJ/mol
# Density = 1.953073 g / cm^3
# Si number density = 19.575282 Si / 1000 Ang^3
#
#
#
# Elastic Constant Matrix: (Units=GPa)
#
#
# Indices 1 2 3 4 5 6 
#
# 1 42.8581 25.6296 15.1553 0.0000 0.0000 0.0000
# 2 25.6296 149.3734 42.0780 0.0000 0.0000 0.0000
# 3 15.1553 42.0780 73.2319 0.0000 0.0000 0.0000
# 4 0.0000 0.0000 0.0000 -98.9639 0.0000 0.0000
# 5 0.0000 0.0000 0.0000 0.0000 43.0677 0.0000
# 6 0.0000 0.0000 0.0000 0.0000 0.0000 27.3544
#
#
#
# Elastic Compliance Matrix: (Units=1/GPa)
#
#
# Indices 1 2 3 4 5 6 
#
# 1 0.026713 -0.003611 -0.003454 0.000000 0.000000 0.000000
# 2 -0.003611 0.008475 -0.004123 0.000000 0.000000 0.000000
# 3 -0.003454 -0.004123 0.016739 0.000000 0.000000 0.000000
# 4 0.000000 0.000000 0.000000 -0.010105 0.000000 0.000000
# 5 0.000000 0.000000 0.000000 0.000000 0.023219 0.000000
# 6 0.000000 0.000000 0.000000 0.000000 0.000000 0.036557
#
#
# Mechanical properties :
#
#
# Convention : Reuss Voigt Hill
#
# Bulk Modulus (GPa) = 33.83680 47.90992 40.87336
# Shear Modulus (GPa) = 37.36240 6.46503 21.91371
#
# Velocity S-wave (km/s) = 4.37355 1.81929 3.34946
# Velocity P-wave (km/s) = 6.54423 5.37968 5.99032
#
# Compressibility (1/GPa) = 0.02955363
#
# Stress axis : x y z
#
# Youngs Moduli (GPa) = 37.43460 117.98739 59.74139
#
# Poissons Ratio (x) = 0.42600 0.20633
# Poissons Ratio (y) = 0.13516 0.24629
# Poissons Ratio (z) = 0.12929 0.48642
#
# Static dielectric constant tensor:
#      x y z
#    x 3.589140 0.000000 0.000000 
#    y 0.000000 4.176320 0.000000 
#    z 0.000000 0.000000 3.208840 
# 
# 
# High freq. dielectric constant tensor:
#      x y z
#    x 1.765110 0.000000 0.000000 
#    y 0.000000 1.790750 0.000000 
#    z 0.000000 0.000000 1.717630 
# 
# From -- ./inp_files/26832.got.cif
#   From: 2010.03.12/outbox.cif.g09.slc.cpg/sg47_14_cif.got.tgz:26832.got - 2010.04.14 03:12:58.
