data_PCOD8194934
_publ_section_title
;
Structure prediction by ZEFSAII (Michael W. Deem and Ramdas Pophale) SiO2 
 PCOD8194934
Probable space group: P M M M
;
_chemical_formula_sum "Si O2"
_cell_formula_units_Z 56
_cell_length_a 13.742151
_cell_length_b 8.972724
_cell_length_c 29.588716
_cell_angle_alpha 90.000000
_cell_angle_beta 90.000000
_cell_angle_gamma 90.000000
_cell_volume 3648.422663
_symmetry_space_group_name_H-M "P M M M"
_symmetry_group_IT_number 47
_symmetry_cell_setting 'orthorhombic'
loop_
_space_group_symop_operation_xyz
x,y,z
-x,-y,z
x,-y,-z
-x,y,-z
-x,-y,-z
x,y,-z
-x,y,z
x,-y,z
loop_
_atom_site_type_symbol
_atom_site_label
_atom_site_fract_x
_atom_site_fract_y
_atom_site_fract_z
Si Si1 0.204444 0.323904 0.133364
Si Si2 0.111895 0.827724 0.948460
Si Si3 0.888019 0.827361 0.217366
Si Si4 0.615579 0.333030 0.452170
Si Si5 0.609684 0.678435 0.355339
Si Si6 0.276672 0.676480 0.731412
Si Si7 0.393584 0.324384 0.818339
O O1 0.192358 0.500000 0.137898
O O2 0.179672 0.272627 0.082972
O O3 0.132012 0.249850 0.169293
O O4 0.315653 0.273621 0.143817
O O5 0.000000 0.782217 0.941062
O O6 0.126920 0.000000 0.936018
O O7 0.142916 0.797021 0.000000
O O8 0.825604 0.755005 0.257828
O O9 0.000000 0.803650 0.230258
O O10 0.861042 0.000000 0.212667
O O11 0.647792 0.252278 0.500000
O O12 0.500000 0.339406 0.450035
O O13 0.657601 0.500000 0.454062
O O14 0.648692 0.258705 0.404359
O O15 0.500000 0.735977 0.345201
O O16 0.608217 0.500000 0.356718
O O17 0.682749 0.735037 0.316553
O O18 0.259649 0.500000 0.731599
O O19 0.355041 0.724320 0.769192
O O20 0.500000 0.250940 0.827262
O O21 0.404745 0.500000 0.819540
#
# Coordination Sequence:
#
# PCOD8194934 Si02
#       7
#     8   8   8   8   8   8   8
#     4  10  19  29  46  70  88 105 133 168 200 228
#     4   9  18  32  48  65  87 115 140 161 195 244
#     4  10  20  32  44  57  78 109 136 158 194 245
#     4   7   9  13  22  40  70 106 137 161 188 228
#     4   8  12  18  31  52  78 108 138 165 196 236
#     4   9  16  25  40  61  80 101 133 171 203 229
#     4   8  14  25  40  58  81 107 133 161 193 229
#
# _framework density 15.349098
#
# number of rings (size 3 to 8) (size 9 to 14) (size 15 to 20)
#    0.000    3.286    0.000    4.286    0.000    5.143 
#    0.000    0.714    0.000   15.000    0.000    3.000 
#    0.000    1.143    0.000   10.714    0.000    4.286 
#
# Total GULP energy -693742.145412 kJ/mol
# GULP energy per Si atom -12388.252597 kJ/mol
# Density = 1.531416 g / cm^3
# Si number density = 15.349098 Si / 1000 Ang^3
#
#
#
# Elastic Constant Matrix: (Units=GPa)
#
#
# Indices 1 2 3 4 5 6 
#
# 1 89.3515 30.4339 59.3203 0.0000 0.0000 0.0000
# 2 30.4339 39.6790 32.4216 0.0000 0.0000 0.0000
# 3 59.3203 32.4216 135.3330 0.0000 0.0000 0.0000
# 4 0.0000 0.0000 0.0000 7.0323 0.0000 0.0000
# 5 0.0000 0.0000 0.0000 0.0000 24.5114 0.0000
# 6 0.0000 0.0000 0.0000 0.0000 0.0000 3.3521
#
#
#
# Elastic Compliance Matrix: (Units=1/GPa)
#
#
# Indices 1 2 3 4 5 6 
#
# 1 0.018148 -0.009226 -0.005745 0.000000 0.000000 0.000000
# 2 -0.009226 0.036026 -0.004587 0.000000 0.000000 0.000000
# 3 -0.005745 -0.004587 0.011006 0.000000 0.000000 0.000000
# 4 0.000000 0.000000 0.000000 0.142202 0.000000 0.000000
# 5 0.000000 0.000000 0.000000 0.000000 0.040797 0.000000
# 6 0.000000 0.000000 0.000000 0.000000 0.000000 0.298317
#
#
# Mechanical properties :
#
#
# Convention : Reuss Voigt Hill
#
# Bulk Modulus (GPa) = 38.36409 56.52390 47.44400
# Shear Modulus (GPa) = 8.41328 16.45834 12.43581
#
# Velocity S-wave (km/s) = 2.34375 3.27810 2.84949
# Velocity P-wave (km/s) = 5.68972 7.15775 6.46554
#
# Compressibility (1/GPa) = 0.02606604
#
# Stress axis : x y z
#
# Youngs Moduli (GPa) = 55.10286 27.75752 90.85889
#
# Poissons Ratio (x) = 0.25608 0.52195
# Poissons Ratio (y) = 0.50836 0.41676
# Poissons Ratio (z) = 0.31654 0.12732
#
# Static dielectric constant tensor:
#      x y z
#    x 2.893690 0.000000 0.000000 
#    y 0.000000 2.610120 0.000000 
#    z 0.000000 0.000000 3.263510 
# 
# 
# High freq. dielectric constant tensor:
#      x y z
#    x 1.559870 0.000000 0.000000 
#    y 0.000000 1.552760 0.000000 
#    z 0.000000 0.000000 1.593790 
# 
# From -- ./inp_files/34615.got.cif
#   From: 2010.03.12/outbox.cif.g09.slc.cpg/sg47_18_cif.got.tgz:34615.got - 2010.04.14 03:12:58.
