data_PCOD8194853
_publ_section_title
;
Structure prediction by ZEFSAII (Michael W. Deem and Ramdas Pophale) SiO2 
 PCOD8194853
Probable space group: P M M M
;
_chemical_formula_sum "Si O2"
_cell_formula_units_Z 56
_cell_length_a 13.734817
_cell_length_b 14.236472
_cell_length_c 17.724555
_cell_angle_alpha 90.000000
_cell_angle_beta 90.000000
_cell_angle_gamma 90.000000
_cell_volume 3465.776847
_symmetry_space_group_name_H-M "P M M M"
_symmetry_group_IT_number 47
_symmetry_cell_setting 'orthorhombic'
loop_
_space_group_symop_operation_xyz
x,y,z
-x,-y,z
x,-y,-z
-x,y,-z
-x,-y,-z
x,y,-z
-x,y,z
x,-y,z
loop_
_atom_site_type_symbol
_atom_site_label
_atom_site_fract_x
_atom_site_fract_y
_atom_site_fract_z
Si Si1 0.885870 0.248250 0.413234
Si Si2 0.608429 0.389524 0.216634
Si Si3 0.111577 0.272052 0.183796
Si Si4 0.288470 0.286007 0.911718
Si Si5 0.114500 0.895578 0.288878
Si Si6 0.392071 0.101920 0.910659
Si Si7 0.205185 0.611111 0.307994
O O1 0.862059 0.228561 0.500000
O O2 0.853923 0.155548 0.366672
O O3 0.821675 0.337481 0.386226
O O4 0.000000 0.270833 0.400188
O O5 0.500000 0.348922 0.234367
O O6 0.603668 0.500000 0.213153
O O7 0.644479 0.357866 0.134124
O O8 0.685551 0.358912 0.281311
O O9 0.175013 0.294932 0.109737
O O10 0.143869 0.171323 0.218863
O O11 0.128274 0.353759 0.245334
O O12 0.000000 0.271946 0.158246
O O13 0.318919 0.182106 0.884351
O O14 0.303458 0.305529 0.000000
O O15 0.000000 0.907983 0.288925
O O16 0.162881 0.000000 0.282882
O O17 0.500000 0.122180 0.878054
O O18 0.354917 0.000000 0.881528
O O19 0.397834 0.101240 0.000000
O O20 0.195300 0.500000 0.319168
#
# Coordination Sequence:
#
# PCOD8194853 Si02
#       7
#     8   8   8   8   8   8   8
#     4   9  17  27  41  67  98 121 145 177 210 248
#     4   9  18  32  49  67  85 108 141 180 221 268
#     4   9  18  30  42  59  83 114 154 189 212 249
#     4  10  19  29  43  63  86 112 141 179 230 276
#     4   8  14  26  43  60  82 116 152 182 212 245
#     4   8  14  25  40  57  77 100 126 160 207 262
#     4   9  17  30  47  64  85 115 146 177 215 256
#
# _framework density 16.157993000000001
#
# number of rings (size 3 to 8) (size 9 to 14) (size 15 to 20)
#    0.000    3.143    0.000    2.143    0.000    3.714 
#    0.000    2.857    0.000    0.429    0.000   10.000 
#    0.000    0.000    0.000   11.571    0.000    1.286 
#
# Total GULP energy -693929.815910 kJ/mol
# GULP energy per Si atom -12391.603856 kJ/mol
# Density = 1.612122 g / cm^3
# Si number density = 16.157993 Si / 1000 Ang^3
#
#
#
# Elastic Constant Matrix: (Units=GPa)
#
#
# Indices 1 2 3 4 5 6 
#
# 1 78.4632 17.5562 23.0819 0.0000 0.0000 0.0000
# 2 17.5562 49.1687 9.3018 0.0000 0.0000 0.0000
# 3 23.0819 9.3018 43.5411 0.0000 0.0000 0.0000
# 4 0.0000 0.0000 0.0000 16.3344 0.0000 0.0000
# 5 0.0000 0.0000 0.0000 0.0000 13.6694 0.0000
# 6 0.0000 0.0000 0.0000 0.0000 0.0000 18.3985
#
#
#
# Elastic Compliance Matrix: (Units=1/GPa)
#
#
# Indices 1 2 3 4 5 6 
#
# 1 0.015911 -0.004258 -0.007525 0.000000 0.000000 0.000000
# 2 -0.004258 0.022334 -0.002514 0.000000 0.000000 0.000000
# 3 -0.007525 -0.002514 0.027493 0.000000 0.000000 0.000000
# 4 0.000000 0.000000 0.000000 0.061221 0.000000 0.000000
# 5 0.000000 0.000000 0.000000 0.000000 0.073156 0.000000
# 6 0.000000 0.000000 0.000000 0.000000 0.000000 0.054352
#
#
# Mechanical properties :
#
#
# Convention : Reuss Voigt Hill
#
# Bulk Modulus (GPa) = 26.92210 30.11698 28.51954
# Shear Modulus (GPa) = 16.92373 17.76265 17.34319
#
# Velocity S-wave (km/s) = 3.23985 3.31918 3.27976
# Velocity P-wave (km/s) = 5.54017 5.77657 5.65961
#
# Compressibility (1/GPa) = 0.03714421
#
# Stress axis : x y z
#
# Youngs Moduli (GPa) = 62.84870 44.77478 36.37261
#
# Poissons Ratio (x) = 0.19063 0.27371
# Poissons Ratio (y) = 0.26759 0.09145
# Poissons Ratio (z) = 0.47295 0.11257
#
# Static dielectric constant tensor:
#      x y z
#    x 3.174640 0.000000 0.000000 
#    y 0.000000 3.383020 0.000000 
#    z 0.000000 0.000000 2.802440 
# 
# 
# High freq. dielectric constant tensor:
#      x y z
#    x 1.606710 0.000000 0.000000 
#    y 0.000000 1.626590 0.000000 
#    z 0.000000 0.000000 1.592130 
# 
# From -- ./inp_files/28257.got.cif
#   From: 2010.03.12/outbox.cif.g09.slc.cpg/sg47_15_cif.got.tgz:28257.got - 2010.04.14 03:12:58.
