data_PCOD8194925
_publ_section_title
;
Structure prediction by ZEFSAII (Michael W. Deem and Ramdas Pophale) SiO2 
 PCOD8194925
Probable space group: P M M M
;
_chemical_formula_sum "Si O2"
_cell_formula_units_Z 60
_cell_length_a 8.922849
_cell_length_b 18.228797
_cell_length_c 21.758848
_cell_angle_alpha 90.000000
_cell_angle_beta 90.000000
_cell_angle_gamma 90.000000
_cell_volume 3539.137619
_symmetry_space_group_name_H-M "P M M M"
_symmetry_group_IT_number 47
_symmetry_cell_setting 'orthorhombic'
loop_
_space_group_symop_operation_xyz
x,y,z
-x,-y,z
x,-y,-z
-x,y,-z
-x,-y,-z
x,y,-z
-x,y,z
x,-y,z
loop_
_atom_site_type_symbol
_atom_site_label
_atom_site_fract_x
_atom_site_fract_y
_atom_site_fract_z
Si Si1 0.832390 0.418411 0.228498
Si Si2 0.672785 0.294648 0.828773
Si Si3 0.824749 0.082594 0.728810
Si Si4 0.323272 0.377785 0.350062
Si Si5 0.332278 0.916567 0.859038
Si Si6 0.171708 0.500000 0.427520
Si Si7 0.173422 0.200559 0.071279
Si Si8 0.326665 0.223056 0.698075
O O1 0.833642 0.500000 0.201903
O O2 0.770197 0.368242 0.174093
O O3 0.722939 0.414976 0.286546
O O4 0.000000 0.393711 0.247958
O O5 0.500000 0.316121 0.832847
O O6 0.723522 0.254895 0.890148
O O7 0.705733 0.245805 0.768483
O O8 0.739603 0.092915 0.792517
O O9 0.765280 0.147708 0.683640
O O10 0.000000 0.093519 0.739995
O O11 0.792886 0.000000 0.702294
O O12 0.500000 0.385114 0.358321
O O13 0.245756 0.424018 0.404226
O O14 0.277706 0.290722 0.347116
O O15 0.500000 0.881285 0.856904
O O16 0.228370 0.880555 0.910957
O O17 0.343707 0.000000 0.878849
O O18 0.187663 0.500000 0.500000
O O19 0.000000 0.500000 0.405451
O O20 0.000000 0.210191 0.088671
O O21 0.201902 0.215450 0.000000
O O22 0.500000 0.205269 0.687427
#
# Coordination Sequence:
#
# PCOD8194925 Si02
#       8
#     8   8   8   8   8   4   8   8
#     4  10  19  31  51  77 104 129 157 197 244 292
#     4  10  20  33  50  71  94 122 157 196 245 300
#     4  10  19  29  45  70  98 129 163 201 250 306
#     4  10  20  33  51  75 105 139 179 218 249 288
#     4  10  20  33  48  65  88 119 155 196 242 296
#     4  11  23  37  53  77 113 153 188 217 250 293
#     4  11  23  36  50  67  88 116 153 199 249 302
#     4   9  18  31  48  72  98 128 165 207 253 298
#
# _framework density 16.953282000000002
#
# number of rings (size 3 to 8) (size 9 to 14) (size 15 to 20)
#    0.000    1.933    2.000    3.400    0.000    6.933 
#    0.000    1.333    0.000    0.400    0.000    2.800 
#    0.000    0.533    0.000    5.867    0.000    4.267 
#
# Total GULP energy -743741.457329 kJ/mol
# GULP energy per Si atom -12395.690955 kJ/mol
# Density = 1.691470 g / cm^3
# Si number density = 16.953282 Si / 1000 Ang^3
#
#
#
# Elastic Constant Matrix: (Units=GPa)
#
#
# Indices 1 2 3 4 5 6 
#
# 1 89.7546 57.7605 26.6310 0.0000 0.0000 0.0000
# 2 57.7605 119.5008 34.8928 0.0000 0.0000 0.0000
# 3 26.6310 34.8928 46.8264 0.0000 0.0000 0.0000
# 4 0.0000 0.0000 0.0000 21.3009 0.0000 0.0000
# 5 0.0000 0.0000 0.0000 0.0000 18.5275 0.0000
# 6 0.0000 0.0000 0.0000 0.0000 0.0000 32.5094
#
#
#
# Elastic Compliance Matrix: (Units=1/GPa)
#
#
# Indices 1 2 3 4 5 6 
#
# 1 0.016882 -0.006846 -0.004500 0.000000 0.000000 0.000000
# 2 -0.006846 0.013471 -0.006145 0.000000 0.000000 0.000000
# 3 -0.004500 -0.006145 0.028493 0.000000 0.000000 0.000000
# 4 0.000000 0.000000 0.000000 0.046946 0.000000 0.000000
# 5 0.000000 0.000000 0.000000 0.000000 0.053974 0.000000
# 6 0.000000 0.000000 0.000000 0.000000 0.000000 0.030760
#
#
# Mechanical properties :
#
#
# Convention : Reuss Voigt Hill
#
# Bulk Modulus (GPa) = 41.90122 54.96117 48.43119
# Shear Modulus (GPa) = 21.41653 23.58739 22.50196
#
# Velocity S-wave (km/s) = 3.55810 3.73408 3.64715
# Velocity P-wave (km/s) = 6.45364 7.14708 6.80919
#
# Compressibility (1/GPa) = 0.02386566
#
# Stress axis : x y z
#
# Youngs Moduli (GPa) = 59.23319 74.23127 35.09589
#
# Poissons Ratio (x) = 0.50820 0.15793
# Poissons Ratio (y) = 0.40552 0.21565
# Poissons Ratio (z) = 0.26654 0.45613
#
# Static dielectric constant tensor:
#      x y z
#    x 3.429580 0.000000 0.000000 
#    y 0.000000 3.645410 0.000000 
#    z 0.000000 0.000000 2.724890 
# 
# 
# High freq. dielectric constant tensor:
#      x y z
#    x 1.673910 0.000000 0.000000 
#    y 0.000000 1.666170 0.000000 
#    z 0.000000 0.000000 1.592610 
# 
# From -- ./inp_files/30024.got.cif
#   From: 2010.03.12/outbox.cif.g09.slc.cpg/sg47_16_cif.got.tgz:30024.got - 2010.04.14 03:12:58.
