data_PCOD8194686
_publ_section_title
;
Structure prediction by ZEFSAII (Michael W. Deem and Ramdas Pophale) SiO2 
 PCOD8194686
Probable space group: P M M M
;
_chemical_formula_sum "Si O2"
_cell_formula_units_Z 56
_cell_length_a 9.204294
_cell_length_b 13.615039
_cell_length_c 29.253436
_cell_angle_alpha 90.000000
_cell_angle_beta 90.000000
_cell_angle_gamma 90.000000
_cell_volume 3665.947626
_symmetry_space_group_name_H-M "P M M M"
_symmetry_group_IT_number 47
_symmetry_cell_setting 'orthorhombic'
loop_
_space_group_symop_operation_xyz
x,y,z
-x,-y,z
x,-y,-z
-x,y,-z
-x,-y,-z
x,y,-z
-x,y,z
x,-y,z
loop_
_atom_site_type_symbol
_atom_site_label
_atom_site_fract_x
_atom_site_fract_y
_atom_site_fract_z
Si Si1 0.333135 0.609876 0.804874
Si Si2 0.672583 0.110936 0.049933
Si Si3 0.669735 0.385053 0.638212
Si Si4 0.329768 0.202728 0.858565
Si Si5 0.832956 0.110035 0.222821
Si Si6 0.162660 0.616466 0.449731
Si Si7 0.170523 0.700499 0.276955
O O1 0.500000 0.625290 0.789236
O O2 0.307391 0.500000 0.823481
O O3 0.292585 0.684573 0.845748
O O4 0.231593 0.626974 0.761317
O O5 0.500000 0.113319 0.049428
O O6 0.732147 0.180808 0.090562
O O7 0.726654 0.000000 0.059082
O O8 0.730183 0.147015 0.000000
O O9 0.500000 0.364014 0.641512
O O10 0.704980 0.500000 0.645812
O O11 0.725561 0.347198 0.588880
O O12 0.751750 0.320506 0.675528
O O13 0.500000 0.181845 0.856866
O O14 0.259169 0.128819 0.822534
O O15 0.792950 0.187228 0.262736
O O16 0.000000 0.123433 0.208825
O O17 0.800822 0.000000 0.240944
O O18 0.210833 0.655968 0.500000
O O19 0.162587 0.500000 0.450905
O O20 0.000000 0.654285 0.438210
O O21 0.000000 0.681526 0.282384
#
# Coordination Sequence:
#
# PCOD8194686 Si02
#       7
#     8   8   8   8   8   8   8
#     4   9  17  28  40  55  78 105 131 163 201 234
#     4   8  13  21  35  57  81 100 122 158 200 237
#     4  10  19  28  39  57  83 113 140 168 202 235
#     4   9  16  26  42  61  78 101 134 164 190 230
#     4   9  18  31  44  59  81 105 127 158 202 244
#     4   8  14  25  40  57  78 106 140 174 204 235
#     4  10  19  29  42  59  78 103 135 166 196 235
#
# _framework density 15.275722999999999
#
# number of rings (size 3 to 8) (size 9 to 14) (size 15 to 20)
#    0.000    3.000    0.000    2.571    0.000    4.571 
#    0.000    1.429    0.000    0.857    0.000    5.000 
#    0.000    0.571    0.000   13.714    0.000    9.857 
#
# Total GULP energy -694094.636775 kJ/mol
# GULP energy per Si atom -12394.547085 kJ/mol
# Density = 1.524096 g / cm^3
# Si number density = 15.275723 Si / 1000 Ang^3
#
#
#
# Elastic Constant Matrix: (Units=GPa)
#
#
# Indices 1 2 3 4 5 6 
#
# 1 55.3625 29.8518 50.8813 0.0000 0.0000 0.0000
# 2 29.8518 80.3249 53.7196 0.0000 0.0000 0.0000
# 3 50.8813 53.7196 141.1308 0.0000 0.0000 0.0000
# 4 0.0000 0.0000 0.0000 18.8105 0.0000 0.0000
# 5 0.0000 0.0000 0.0000 0.0000 13.1116 0.0000
# 6 0.0000 0.0000 0.0000 0.0000 0.0000 15.2951
#
#
#
# Elastic Compliance Matrix: (Units=1/GPa)
#
#
# Indices 1 2 3 4 5 6 
#
# 1 0.028423 -0.004977 -0.008353 0.000000 0.000000 0.000000
# 2 -0.004977 0.017572 -0.004894 0.000000 0.000000 0.000000
# 3 -0.008353 -0.004894 0.011960 0.000000 0.000000 0.000000
# 4 0.000000 0.000000 0.000000 0.053162 0.000000 0.000000
# 5 0.000000 0.000000 0.000000 0.000000 0.076268 0.000000
# 6 0.000000 0.000000 0.000000 0.000000 0.000000 0.065380
#
#
# Mechanical properties :
#
#
# Convention : Reuss Voigt Hill
#
# Bulk Modulus (GPa) = 46.49614 60.63594 53.56604
# Shear Modulus (GPa) = 16.87007 18.93450 17.90228
#
# Velocity S-wave (km/s) = 3.32681 3.52449 3.42708
# Velocity P-wave (km/s) = 6.72762 7.50621 7.12756
#
# Compressibility (1/GPa) = 0.02150716
#
# Stress axis : x y z
#
# Youngs Moduli (GPa) = 35.18271 56.90786 83.61191
#
# Poissons Ratio (x) = 0.28322 0.69840
# Poissons Ratio (y) = 0.17510 0.40923
# Poissons Ratio (z) = 0.29388 0.27853
#
# Static dielectric constant tensor:
#      x y z
#    x 2.886930 0.000000 0.000000 
#    y 0.000000 2.832170 0.000000 
#    z 0.000000 0.000000 3.202110 
# 
# 
# High freq. dielectric constant tensor:
#      x y z
#    x 1.577990 0.000000 0.000000 
#    y 0.000000 1.555020 0.000000 
#    z 0.000000 0.000000 1.583100 
# 
# From -- ./inp_files/25789.got.cif
#   From: 2010.03.12/outbox.cif.g09.slc.cpg/sg47_13_cif.got.tgz:25789.got - 2010.04.14 03:12:58.
