data_PCOD8194385
_publ_section_title
;
Structure prediction by ZEFSAII (Michael W. Deem and Ramdas Pophale) SiO2 
 PCOD8194385
Probable space group: P M M M
;
_chemical_formula_sum "Si O2"
_cell_formula_units_Z 52
_cell_length_a 16.353538
_cell_length_b 20.810004
_cell_length_c 9.041306
_cell_angle_alpha 90.000000
_cell_angle_beta 90.000000
_cell_angle_gamma 90.000000
_cell_volume 3076.911863
_symmetry_space_group_name_H-M "P M M M"
_symmetry_group_IT_number 47
_symmetry_cell_setting 'orthorhombic'
loop_
_space_group_symop_operation_xyz
x,y,z
-x,-y,z
x,-y,-z
-x,y,-z
-x,-y,-z
x,y,-z
-x,y,z
x,-y,z
loop_
_atom_site_type_symbol
_atom_site_label
_atom_site_fract_x
_atom_site_fract_y
_atom_site_fract_z
Si Si1 0.909325 0.813989 0.327066
Si Si2 0.662045 0.144419 0.826745
Si Si3 0.500000 0.147553 0.323938
Si Si4 0.825734 0.927653 0.172629
Si Si5 0.249640 0.257418 0.672287
Si Si6 0.651073 0.624589 0.327899
Si Si7 0.500000 0.708064 0.674150
Si Si8 0.594832 0.500000 0.824989
O O1 0.904683 0.826399 0.500000
O O2 0.890572 0.881840 0.251672
O O3 0.843579 0.759253 0.280364
O O4 0.000000 0.790625 0.279321
O O5 0.581881 0.116256 0.744402
O O6 0.733547 0.093932 0.791844
O O7 0.686915 0.214110 0.763384
O O8 0.644722 0.151117 0.000000
O O9 0.500000 0.139833 0.500000
O O10 0.500000 0.220469 0.261982
O O11 0.837731 0.000000 0.231485
O O12 0.843691 0.923167 0.000000
O O13 0.265883 0.242015 0.500000
O O14 0.266420 0.333453 0.701609
O O15 0.642180 0.605841 0.500000
O O16 0.578558 0.669805 0.270709
O O17 0.646992 0.560338 0.232430
O O18 0.500000 0.714261 0.500000
O O19 0.500000 0.500000 0.766634
O O20 0.595191 0.500000 0.000000
#
# Coordination Sequence:
#
# PCOD8194385 Si02
#       8
#     8   8   4   8   8   8   4   4
#     4   9  18  32  51  77 104 124 147 189 243 292
#     4  10  19  30  46  69  92 118 158 204 245 279
#     4  11  19  31  47  67  93 123 159 199 242 287
#     4   9  19  35  51  67  93 129 163 194 232 284
#     4   9  17  31  50  70  94 125 158 192 236 289
#     4  10  18  31  48  65  88 126 166 192 223 276
#     4   9  16  26  44  66  87 116 155 192 227 270
#     4  11  23  33  41  63  98 131 160 196 237 269
#
# _framework density 16.900061999999998
#
# number of rings (size 3 to 8) (size 9 to 14) (size 15 to 20)
#    0.000    2.385    2.308    0.923    0.000    2.462 
#    0.000    1.923    0.000    2.308    0.000    0.538 
#    0.000    4.308    0.000    0.000    0.000    0.000 
#
# Total GULP energy -644626.164978 kJ/mol
# GULP energy per Si atom -12396.657019 kJ/mol
# Density = 1.686160 g / cm^3
# Si number density = 16.900062 Si / 1000 Ang^3
#
#
#
# Elastic Constant Matrix: (Units=GPa)
#
#
# Indices 1 2 3 4 5 6 
#
# 1 114.1011 40.0375 34.9915 0.0000 0.0000 0.0000
# 2 40.0375 91.2586 23.9088 0.0000 0.0000 0.0000
# 3 34.9915 23.9088 51.3861 0.0000 0.0000 0.0000
# 4 0.0000 0.0000 0.0000 22.5432 0.0000 0.0000
# 5 0.0000 0.0000 0.0000 0.0000 21.5085 0.0000
# 6 0.0000 0.0000 0.0000 0.0000 0.0000 19.9485
#
#
#
# Elastic Compliance Matrix: (Units=1/GPa)
#
#
# Indices 1 2 3 4 5 6 
#
# 1 0.012015 -0.003562 -0.006524 0.000000 0.000000 0.000000
# 2 -0.003562 0.013535 -0.003872 0.000000 0.000000 0.000000
# 3 -0.006524 -0.003872 0.025705 0.000000 0.000000 0.000000
# 4 0.000000 0.000000 0.000000 0.044359 0.000000 0.000000
# 5 0.000000 0.000000 0.000000 0.000000 0.046493 0.000000
# 6 0.000000 0.000000 0.000000 0.000000 0.000000 0.050129
#
#
# Mechanical properties :
#
#
# Convention : Reuss Voigt Hill
#
# Bulk Modulus (GPa) = 42.84817 50.51350 46.68083
# Shear Modulus (GPa) = 21.93637 23.32058 22.62847
#
# Velocity S-wave (km/s) = 3.60669 3.71874 3.66315
# Velocity P-wave (km/s) = 6.53859 6.95652 6.75079
#
# Compressibility (1/GPa) = 0.02333822
#
# Stress axis : x y z
#
# Youngs Moduli (GPa) = 83.23057 73.88240 38.90324
#
# Poissons Ratio (x) = 0.26316 0.25381
# Poissons Ratio (y) = 0.29646 0.15063
# Poissons Ratio (z) = 0.54302 0.28608
#
# Static dielectric constant tensor:
#      x y z
#    x 3.340100 0.000000 0.000000 
#    y 0.000000 3.144200 0.000000 
#    z 0.000000 0.000000 3.075560 
# 
# 
# High freq. dielectric constant tensor:
#      x y z
#    x 1.643020 0.000000 0.000000 
#    y 0.000000 1.631240 0.000000 
#    z 0.000000 0.000000 1.645240 
# 
# From -- ./inp_files/7108.got.cif
#   From: 2010.03.12/outbox.cif.g09.slc.cpg/sg47_4_cif.got.tgz:7108.got - 2010.04.14 03:12:58.
