data_PCOD8194034
_publ_section_title
;
Structure prediction by ZEFSAII (Michael W. Deem and Ramdas Pophale) SiO2 
 PCOD8194034
Probable space group: P M M M
;
_chemical_formula_sum "Si O2"
_cell_formula_units_Z 64
_cell_length_a 20.085800
_cell_length_b 20.158126
_cell_length_c 9.067851
_cell_angle_alpha 90.000000
_cell_angle_beta 90.000000
_cell_angle_gamma 90.000000
_cell_volume 3671.501118
_symmetry_space_group_name_H-M "P M M M"
_symmetry_group_IT_number 47
_symmetry_cell_setting 'orthorhombic'
loop_
_space_group_symop_operation_xyz
x,y,z
-x,-y,z
x,-y,-z
-x,y,-z
-x,-y,-z
x,y,-z
-x,y,z
x,-y,z
loop_
_atom_site_type_symbol
_atom_site_label
_atom_site_fract_x
_atom_site_fract_y
_atom_site_fract_z
Si Si1 0.381238 0.755670 0.833065
Si Si2 0.750347 0.797402 0.673752
Si Si3 0.284042 0.073436 0.826542
Si Si4 0.571348 0.898969 0.833289
Si Si5 0.077209 0.425502 0.827713
Si Si6 0.179237 0.667005 0.673641
Si Si7 0.572703 0.633286 0.330486
Si Si8 0.706915 0.428251 0.325366
O O1 0.316558 0.763955 0.731692
O O2 0.427222 0.819959 0.827895
O O3 0.426896 0.698165 0.769532
O O4 0.358177 0.740291 0.000000
O O5 0.744656 0.808273 0.500000
O O6 0.761034 0.869982 0.748691
O O7 0.810740 0.745621 0.710649
O O8 0.360077 0.073358 0.760883
O O9 0.253309 0.000000 0.798595
O O10 0.286230 0.090974 0.000000
O O11 0.500000 0.921449 0.758839
O O12 0.570223 0.925284 0.000000
O O13 0.099285 0.500000 0.775067
O O14 0.114635 0.365310 0.747080
O O15 0.000000 0.415716 0.791216
O O16 0.091020 0.418734 0.000000
O O17 0.172058 0.657109 0.500000
O O18 0.243612 0.627658 0.736639
O O19 0.585034 0.653955 0.500000
O O20 0.500000 0.599066 0.312250
O O21 0.631007 0.584773 0.275092
O O22 0.711025 0.429148 0.500000
O O23 0.728009 0.500000 0.261228
#
# Coordination Sequence:
#
# PCOD8194034 Si02
#       8
#     8   8   8   8   8   8   8   8
#     4  10  18  29  45  64  87 115 151 197 250 306
#     4  10  19  32  50  71  96 123 160 206 251 294
#     4   9  18  31  46  67  95 126 161 200 246 303
#     4   8  14  24  39  60  83 108 143 187 235 289
#     4   9  19  35  53  77 112 147 173 200 239 290
#     4  10  19  32  52  75 100 131 170 213 247 284
#     4  10  19  30  44  62  86 116 153 203 261 310
#     4   9  17  30  46  65  91 121 157 203 251 296
#
# _framework density 17.431562
#
# number of rings (size 3 to 8) (size 9 to 14) (size 15 to 20)
#    0.000    2.625    1.250    2.625    0.000    3.500 
#    0.000    3.125    0.000    3.750    0.000    4.375 
#    0.000    0.500    0.000    5.500    0.000    4.000 
#
# Total GULP energy -792856.268381 kJ/mol
# GULP energy per Si atom -12388.379193 kJ/mol
# Density = 1.739189 g / cm^3
# Si number density = 17.431562 Si / 1000 Ang^3
#
#
#
# Elastic Constant Matrix: (Units=GPa)
#
#
# Indices 1 2 3 4 5 6 
#
# 1 69.5572 46.7385 26.8167 0.0000 0.0000 0.0000
# 2 46.7385 120.6994 41.3875 0.0000 0.0000 0.0000
# 3 26.8167 41.3875 49.3355 0.0000 0.0000 0.0000
# 4 0.0000 0.0000 0.0000 21.0216 0.0000 0.0000
# 5 0.0000 0.0000 0.0000 0.0000 19.7807 0.0000
# 6 0.0000 0.0000 0.0000 0.0000 0.0000 14.7004
#
#
#
# Elastic Compliance Matrix: (Units=1/GPa)
#
#
# Indices 1 2 3 4 5 6 
#
# 1 0.020770 -0.005856 -0.006377 0.000000 0.000000 0.000000
# 2 -0.005856 0.013282 -0.007959 0.000000 0.000000 0.000000
# 3 -0.006377 -0.007959 0.030412 0.000000 0.000000 0.000000
# 4 0.000000 0.000000 0.000000 0.047570 0.000000 0.000000
# 5 0.000000 0.000000 0.000000 0.000000 0.050554 0.000000
# 6 0.000000 0.000000 0.000000 0.000000 0.000000 0.068025
#
#
# Mechanical properties :
#
#
# Convention : Reuss Voigt Hill
#
# Bulk Modulus (GPa) = 41.52802 52.16416 46.84609
# Shear Modulus (GPa) = 17.91950 19.41049 18.66499
#
# Velocity S-wave (km/s) = 3.20971 3.34057 3.27579
# Velocity P-wave (km/s) = 6.13282 6.69846 6.42187
#
# Compressibility (1/GPa) = 0.02408012
#
# Stress axis : x y z
#
# Youngs Moduli (GPa) = 48.14572 75.29073 32.88128
#
# Poissons Ratio (x) = 0.44092 0.20969
# Poissons Ratio (y) = 0.28195 0.26170
# Poissons Ratio (z) = 0.30703 0.59923
#
# Static dielectric constant tensor:
#      x y z
#    x 3.009240 0.000000 0.000000 
#    y 0.000000 3.384580 0.000000 
#    z 0.000000 0.000000 3.005580 
# 
# 
# High freq. dielectric constant tensor:
#      x y z
#    x 1.638080 0.000000 0.000000 
#    y 0.000000 1.674670 0.000000 
#    z 0.000000 0.000000 1.646070 
# 
# From -- ./inp_files/11843.got.cif
#   From: 2010.03.12/outbox.cif.g09.slc.cpg/sg47_6_cif.got.tgz:11843.got - 2010.04.14 03:12:58.
