data_PCOD8194967
_publ_section_title
;
Structure prediction by ZEFSAII (Michael W. Deem and Ramdas Pophale) SiO2 
 PCOD8194967
Probable space group: P M M M
;
_chemical_formula_sum "Si O2"
_cell_formula_units_Z 48
_cell_length_a 18.274394
_cell_length_b 21.944134
_cell_length_c 9.008135
_cell_angle_alpha 90.000000
_cell_angle_beta 90.000000
_cell_angle_gamma 90.000000
_cell_volume 3612.404019
_symmetry_space_group_name_H-M "P M M M"
_symmetry_group_IT_number 47
_symmetry_cell_setting 'orthorhombic'
loop_
_space_group_symop_operation_xyz
x,y,z
-x,-y,z
x,-y,-z
-x,y,-z
-x,-y,-z
x,y,-z
-x,y,z
x,-y,z
loop_
_atom_site_type_symbol
_atom_site_label
_atom_site_fract_x
_atom_site_fract_y
_atom_site_fract_z
Si Si1 0.500000 0.427870 0.169804
Si Si2 0.586078 0.242187 0.827220
Si Si3 0.920345 0.572382 0.832042
Si Si4 0.222153 0.431136 0.325582
Si Si5 0.587331 0.000000 0.167993
Si Si6 0.632718 0.362052 0.676387
Si Si7 0.586946 0.880315 0.332668
O O1 0.500000 0.500000 0.175847
O O2 0.428833 0.404142 0.252633
O O3 0.500000 0.403757 0.000000
O O4 0.500000 0.252607 0.801575
O O5 0.629511 0.294196 0.740299
O O6 0.612854 0.178223 0.760007
O O7 0.606167 0.243562 0.000000
O O8 0.919522 0.500000 0.822521
O O9 0.852817 0.598464 0.736969
O O10 0.000000 0.595692 0.772859
O O11 0.909541 0.594586 0.000000
O O12 0.214858 0.432117 0.500000
O O13 0.234476 0.500000 0.265153
O O14 0.289693 0.389762 0.274735
O O15 0.617928 0.940507 0.252256
O O16 0.500000 0.000000 0.167804
O O17 0.617189 0.000000 0.000000
O O18 0.622046 0.360926 0.500000
O O19 0.618155 0.876986 0.500000
O O20 0.500000 0.883092 0.336209
#
# Coordination Sequence:
#
# PCOD8194967 Si02
#       7
#     4   8   8   8   4   8   8
#     4  11  23  35  45  57  71  90 121 160 201 241
#     4  10  19  30  42  55  72  93 123 159 194 231
#     4   8  14  25  41  60  79  97 116 139 173 220
#     4   9  18  30  42  58  77  96 120 151 189 231
#     4   9  15  23  35  53  75  95 115 143 184 223
#     4  11  21  32  45  57  73  96 125 159 196 235
#     4   9  16  25  38  54  72  93 119 148 184 226
#
# _framework density 13.287551000000001
#
# number of rings (size 3 to 8) (size 9 to 14) (size 15 to 20)
#    0.000    2.500    0.833    3.000    0.000    6.667 
#    0.000    3.333    0.000    0.000    0.000    0.000 
#    0.000    0.000    0.000    0.000    0.000    0.000 
#
# Total GULP energy -595081.074781 kJ/mol
# GULP energy per Si atom -12397.522391 kJ/mol
# Density = 1.325731 g / cm^3
# Si number density = 13.287551 Si / 1000 Ang^3
#
#
#
# Elastic Constant Matrix: (Units=GPa)
#
#
# Indices 1 2 3 4 5 6 
#
# 1 85.4857 37.8534 39.0768 0.0000 0.0000 0.0000
# 2 37.8534 86.7359 42.7392 0.0000 0.0000 0.0000
# 3 39.0768 42.7392 81.0210 0.0000 0.0000 0.0000
# 4 0.0000 0.0000 0.0000 23.7001 0.0000 0.0000
# 5 0.0000 0.0000 0.0000 0.0000 14.3523 0.0000
# 6 0.0000 0.0000 0.0000 0.0000 0.0000 0.5725
#
#
#
# Elastic Compliance Matrix: (Units=1/GPa)
#
#
# Indices 1 2 3 4 5 6 
#
# 1 0.016127 -0.004331 -0.005493 0.000000 0.000000 0.000000
# 2 -0.004331 0.016742 -0.006742 0.000000 0.000000 0.000000
# 3 -0.005493 -0.006742 0.018549 0.000000 0.000000 0.000000
# 4 0.000000 0.000000 0.000000 0.042194 0.000000 0.000000
# 5 0.000000 0.000000 0.000000 0.000000 0.069675 0.000000
# 6 0.000000 0.000000 0.000000 0.000000 0.000000 1.746790
#
#
# Mechanical properties :
#
#
# Convention : Reuss Voigt Hill
#
# Bulk Modulus (GPa) = 54.69475 54.73126 54.71300
# Shear Modulus (GPa) = 2.56502 16.62985 9.59743
#
# Velocity S-wave (km/s) = 1.39089 3.54154 2.69046
# Velocity P-wave (km/s) = 6.62051 7.61595 7.13561
#
# Compressibility (1/GPa) = 0.01828329
#
# Stress axis : x y z
#
# Youngs Moduli (GPa) = 62.00850 59.73055 53.91249
#
# Poissons Ratio (x) = 0.25871 0.29615
# Poissons Ratio (y) = 0.26858 0.36350
# Poissons Ratio (z) = 0.34063 0.40273
#
# Static dielectric constant tensor:
#      x y z
#    x 2.594280 0.000000 0.000000 
#    y 0.000000 2.620970 0.000000 
#    z 0.000000 0.000000 2.822680 
# 
# 
# High freq. dielectric constant tensor:
#      x y z
#    x 1.462290 0.000000 0.000000 
#    y 0.000000 1.487640 0.000000 
#    z 0.000000 0.000000 1.522160 
# 
# From -- ./inp_files/9709.got.cif
#   From: 2010.03.12/outbox.cif.g09.slc.cpg/sg47_5_cif.got.tgz:9709.got - 2010.04.14 03:12:58.
