data_PCOD8194803
_publ_section_title
;
Structure prediction by ZEFSAII (Michael W. Deem and Ramdas Pophale) SiO2 
 PCOD8194803
Probable space group: P M M M
;
_chemical_formula_sum "Si O2"
_cell_formula_units_Z 52
_cell_length_a 8.336104
_cell_length_b 28.844447
_cell_length_c 15.464242
_cell_angle_alpha 90.000000
_cell_angle_beta 90.000000
_cell_angle_gamma 90.000000
_cell_volume 3718.381783
_symmetry_space_group_name_H-M "P M M M"
_symmetry_group_IT_number 47
_symmetry_cell_setting 'orthorhombic'
loop_
_space_group_symop_operation_xyz
x,y,z
-x,-y,z
x,-y,-z
-x,y,-z
-x,-y,-z
x,y,-z
-x,y,z
x,-y,z
loop_
_atom_site_type_symbol
_atom_site_label
_atom_site_fract_x
_atom_site_fract_y
_atom_site_fract_z
Si Si1 0.317348 0.105267 0.658218
Si Si2 0.186872 0.946604 0.818928
Si Si3 0.679801 0.945053 0.000000
Si Si4 0.684872 0.708365 0.597353
Si Si5 0.000000 0.447360 0.397224
Si Si6 0.815607 0.949645 0.500000
Si Si7 0.318426 0.606062 0.603355
Si Si8 0.814876 0.197574 0.400085
O O1 0.500000 0.096887 0.635245
O O2 0.281392 0.085317 0.752413
O O3 0.218160 0.079079 0.585605
O O4 0.279256 0.159917 0.656534
O O5 0.000000 0.941435 0.801221
O O6 0.242028 0.000000 0.807589
O O7 0.227206 0.927872 0.914759
O O8 0.500000 0.924700 0.000000
O O9 0.676658 0.000000 0.000000
O O10 0.748939 0.703576 0.500000
O O11 0.500000 0.722169 0.600134
O O12 0.712323 0.658004 0.641310
O O13 0.781351 0.751163 0.640431
O O14 0.167642 0.424623 0.362395
O O15 0.000000 0.500000 0.364165
O O16 0.000000 0.444387 0.500000
O O17 0.000000 0.960325 0.500000
O O18 0.726095 0.000000 0.500000
O O19 0.319281 0.606979 0.500000
O O20 0.500000 0.589064 0.632711
O O21 0.755781 0.195590 0.500000
O O22 0.000000 0.185566 0.393132
#
# Coordination Sequence:
#
# PCOD8194803 Si02
#       8
#     8   8   4   8   4   4   8   8
#     4  12  23  33  46  62  83 106 131 162 193 232
#     4  10  20  34  51  68  86 107 129 155 190 231
#     4   9  17  31  51  73  91 103 123 155 187 225
#     4   8  14  24  37  51  66  85 114 150 187 223
#     4   9  16  22  30  44  62  84 110 140 178 229
#     4  11  23  37  49  59  77 105 135 163 189 228
#     4   8  14  23  33  45  62  82 108 144 180 223
#     4  10  19  29  42  57  75  99 126 157 193 232
#
# _framework density 13.984577
#
# number of rings (size 3 to 8) (size 9 to 14) (size 15 to 20)
#    0.000    2.385    0.769    4.154    1.077    5.231 
#    0.000    1.538    0.000    0.000    0.000    0.000 
#    0.000    0.000    0.000    0.000    0.000    0.000 
#
# Total GULP energy -644393.560043 kJ/mol
# GULP energy per Si atom -12392.183847 kJ/mol
# Density = 1.395275 g / cm^3
# Si number density = 13.984577 Si / 1000 Ang^3
#
#
#
# Elastic Constant Matrix: (Units=GPa)
#
#
# Indices 1 2 3 4 5 6 
#
# 1 77.5244 41.2544 13.7986 0.0000 0.0000 0.0000
# 2 41.2544 90.4006 21.2703 0.0000 0.0000 0.0000
# 3 13.7986 21.2703 42.8989 0.0000 0.0000 0.0000
# 4 0.0000 0.0000 0.0000 -1.5257 0.0000 0.0000
# 5 0.0000 0.0000 0.0000 0.0000 13.9227 0.0000
# 6 0.0000 0.0000 0.0000 0.0000 0.0000 23.1256
#
#
#
# Elastic Compliance Matrix: (Units=1/GPa)
#
#
# Indices 1 2 3 4 5 6 
#
# 1 0.017166 -0.007397 -0.001854 0.000000 0.000000 0.000000
# 2 -0.007397 0.015711 -0.005410 0.000000 0.000000 0.000000
# 3 -0.001854 -0.005410 0.026589 0.000000 0.000000 0.000000
# 4 0.000000 0.000000 0.000000 -0.655453 0.000000 0.000000
# 5 0.000000 0.000000 0.000000 0.000000 0.071825 0.000000
# 6 0.000000 0.000000 0.000000 0.000000 0.000000 0.043242
#
#
# Mechanical properties :
#
#
# Convention : Reuss Voigt Hill
#
# Bulk Modulus (GPa) = 33.17511 40.38560 36.78036
# Shear Modulus (GPa) = -11.32375 16.07123 2.37374
#
# Velocity S-wave (km/s) = -2.84866 3.39368 1.30426
# Velocity P-wave (km/s) = 3.59921 6.65563 5.35031
#
# Compressibility (1/GPa) = 0.03014308
#
# Stress axis : x y z
#
# Youngs Moduli (GPa) = 58.25607 63.65094 37.60897
#
# Poissons Ratio (x) = 0.47085 0.06971
# Poissons Ratio (y) = 0.43094 0.20348
# Poissons Ratio (z) = 0.10798 0.34437
#
# Static dielectric constant tensor:
#      x y z
#    x 2.926190 0.000000 0.000000 
#    y 0.000000 2.867440 0.000000 
#    z 0.000000 0.000000 2.364400 
# 
# 
# High freq. dielectric constant tensor:
#      x y z
#    x 1.552670 0.000000 0.000000 
#    y 0.000000 1.526070 0.000000 
#    z 0.000000 0.000000 1.461270 
# 
# From -- ./inp_files/22043.got.cif
#   From: 2010.03.12/outbox.cif.g09.slc.cpg/sg47_12_cif.got.tgz:22043.got - 2010.04.14 03:12:58.
