data_PCOD8194707
_publ_section_title
;
Structure prediction by ZEFSAII (Michael W. Deem and Ramdas Pophale) SiO2 
 PCOD8194707
Probable space group: P M M M
;
_chemical_formula_sum "Si O2"
_cell_formula_units_Z 56
_cell_length_a 19.227115
_cell_length_b 19.113475
_cell_length_c 9.304657
_cell_angle_alpha 90.000000
_cell_angle_beta 90.000000
_cell_angle_gamma 90.000000
_cell_volume 3419.433365
_symmetry_space_group_name_H-M "P M M M"
_symmetry_group_IT_number 47
_symmetry_cell_setting 'orthorhombic'
loop_
_space_group_symop_operation_xyz
x,y,z
-x,-y,z
x,-y,-z
-x,y,-z
-x,-y,-z
x,y,-z
-x,y,z
x,-y,z
loop_
_atom_site_type_symbol
_atom_site_label
_atom_site_fract_x
_atom_site_fract_y
_atom_site_fract_z
Si Si1 0.792762 0.794484 0.331214
Si Si2 0.576883 0.163387 0.329282
Si Si3 0.923412 0.286088 0.329612
Si Si4 0.155353 0.577942 0.664687
Si Si5 0.706809 0.922027 0.671894
Si Si6 0.339977 0.703688 0.667092
Si Si7 0.296961 0.421304 0.833566
O O1 0.800694 0.802906 0.500000
O O2 0.866866 0.769271 0.265602
O O3 0.767367 0.869867 0.269363
O O4 0.735772 0.735484 0.297528
O O5 0.575165 0.159657 0.500000
O O6 0.500000 0.148599 0.265056
O O7 0.631639 0.105479 0.272411
O O8 0.601576 0.240895 0.283360
O O9 0.925843 0.278372 0.500000
O O10 0.902273 0.365450 0.288715
O O11 0.000000 0.270471 0.264258
O O12 0.179195 0.591313 0.500000
O O13 0.123268 0.500000 0.681919
O O14 0.221564 0.586915 0.764604
O O15 0.706840 0.921603 0.500000
O O16 0.719979 0.000000 0.732424
O O17 0.347586 0.685624 0.500000
O O18 0.349960 0.632619 0.757610
O O19 0.325574 0.500000 0.810911
O O20 0.290866 0.402268 0.000000
#
# Coordination Sequence:
#
# PCOD8194707 Si02
#       7
#     8   8   8   8   8   8   8
#     4   8  13  22  35  53  76 101 136 173 201 235
#     4   8  14  23  37  60  85 106 132 167 202 238
#     4   9  15  22  35  55  77 102 135 176 212 237
#     4   9  16  26  40  57  78 104 135 170 210 255
#     4   8  13  20  32  52  81 116 141 159 194 242
#     4   9  15  26  44  60  78 107 139 169 204 243
#     4  10  19  28  40  60  83 105 134 174 213 244
#
# _framework density 16.376982999999999
#
# number of rings (size 3 to 8) (size 9 to 14) (size 15 to 20)
#    0.000    3.286    1.429    2.143    0.000    1.429 
#    0.000    2.857    0.000    1.714    0.000    8.000 
#    0.000    9.143    0.000    5.143    0.000   11.429 
#
# Total GULP energy -693832.219475 kJ/mol
# GULP energy per Si atom -12389.861062 kJ/mol
# Density = 1.633971 g / cm^3
# Si number density = 16.376983 Si / 1000 Ang^3
#
#
#
# Elastic Constant Matrix: (Units=GPa)
#
#
# Indices 1 2 3 4 5 6 
#
# 1 91.4088 63.7551 5.0284 0.0000 0.0000 0.0000
# 2 63.7551 141.0066 27.0111 0.0000 0.0000 0.0000
# 3 5.0284 27.0111 28.2648 0.0000 0.0000 0.0000
# 4 0.0000 0.0000 0.0000 6.4585 0.0000 0.0000
# 5 0.0000 0.0000 0.0000 0.0000 2.9338 0.0000
# 6 0.0000 0.0000 0.0000 0.0000 0.0000 18.6117
#
#
#
# Elastic Compliance Matrix: (Units=1/GPa)
#
#
# Indices 1 2 3 4 5 6 
#
# 1 0.016571 -0.008480 0.005156 0.000000 0.000000 0.000000
# 2 -0.008480 0.013021 -0.010934 0.000000 0.000000 0.000000
# 3 0.005156 -0.010934 0.044912 0.000000 0.000000 0.000000
# 4 0.000000 0.000000 0.000000 0.154835 0.000000 0.000000
# 5 0.000000 0.000000 0.000000 0.000000 0.340854 0.000000
# 6 0.000000 0.000000 0.000000 0.000000 0.000000 0.053730
#
#
# Mechanical properties :
#
#
# Convention : Reuss Voigt Hill
#
# Bulk Modulus (GPa) = 21.74569 50.25217 35.99893
# Shear Modulus (GPa) = 7.48763 16.59317 12.04040
#
# Velocity S-wave (km/s) = 2.14055 3.18653 2.71440
# Velocity P-wave (km/s) = 4.40640 6.65507 5.64386
#
# Compressibility (1/GPa) = 0.04598611
#
# Stress axis : x y z
#
# Youngs Moduli (GPa) = 60.34700 76.80104 22.26582
#
# Poissons Ratio (x) = 0.65128 -0.11480
# Poissons Ratio (y) = 0.51174 0.24347
# Poissons Ratio (z) = -0.31114 0.83978
#
# Static dielectric constant tensor:
#      x y z
#    x 3.259710 0.000000 0.000000 
#    y 0.000000 3.424080 0.000000 
#    z 0.000000 0.000000 2.553630 
# 
# 
# High freq. dielectric constant tensor:
#      x y z
#    x 1.609640 0.000000 0.000000 
#    y 0.000000 1.635770 0.000000 
#    z 0.000000 0.000000 1.566330 
# 
# From -- ./inp_files/9840.got.cif
#   From: 2010.03.12/outbox.cif.g09.slc.cpg/sg47_5_cif.got.tgz:9840.got - 2010.04.14 03:12:58.
