data_PCOD8194273
_publ_section_title
;
Structure prediction by ZEFSAII (Michael W. Deem and Ramdas Pophale) SiO2 
 PCOD8194273
Probable space group: P M M M
;
_chemical_formula_sum "Si O2"
_cell_formula_units_Z 40
_cell_length_a 7.990343
_cell_length_b 21.731735
_cell_length_c 12.377993
_cell_angle_alpha 90.000000
_cell_angle_beta 90.000000
_cell_angle_gamma 90.000000
_cell_volume 2149.364422
_symmetry_space_group_name_H-M "P M M M"
_symmetry_group_IT_number 47
_symmetry_cell_setting 'orthorhombic'
loop_
_space_group_symop_operation_xyz
x,y,z
-x,-y,z
x,-y,-z
-x,y,-z
-x,-y,-z
x,y,-z
-x,y,z
x,-y,z
loop_
_atom_site_type_symbol
_atom_site_label
_atom_site_fract_x
_atom_site_fract_y
_atom_site_fract_z
Si Si1 0.694184 0.106976 0.728079
Si Si2 0.299635 0.000000 0.122115
Si Si3 0.500000 0.431224 0.128230
Si Si4 0.813462 0.101939 0.500000
Si Si5 0.811914 0.350510 0.125389
Si Si6 0.694161 0.754968 0.729666
Si Si7 0.811805 0.752255 0.500000
O O1 0.500000 0.113286 0.748530
O O2 0.723555 0.078478 0.608718
O O3 0.770351 0.175732 0.739733
O O4 0.771173 0.060706 0.817144
O O5 0.500000 0.000000 0.125713
O O6 0.231649 0.000000 0.000000
O O7 0.500000 0.500000 0.177187
O O8 0.669476 0.397395 0.168920
O O9 0.500000 0.434421 0.000000
O O10 0.809169 0.174831 0.500000
O O11 0.000000 0.075505 0.500000
O O12 0.798356 0.286388 0.188075
O O13 0.000000 0.377686 0.143223
O O14 0.780393 0.336386 0.000000
O O15 0.500000 0.752297 0.761068
O O16 0.717407 0.729252 0.607658
O O17 0.000000 0.726091 0.500000
#
# Coordination Sequence:
#
# PCOD8194273 Si02
#       7
#     8   4   4   4   8   8   4
#     4   9  18  31  50  71  94 126 164 211 259 306
#     4   9  18  33  49  68  92 123 170 215 254 309
#     4   9  18  34  54  77 109 144 178 218 258 301
#     4   9  17  30  48  69  94 120 155 203 256 313
#     4  10  20  33  51  78 110 142 177 216 260 312
#     4  10  18  30  49  74 103 134 171 215 264 313
#     4   9  17  29  46  70  99 131 167 209 259 314
#
# _framework density 18.610151999999999
#
# number of rings (size 3 to 8) (size 9 to 14) (size 15 to 20)
#    0.000    2.600    1.000    1.200    0.000    4.800 
#    0.000    6.500    0.000    1.200    0.000    1.400 
#    0.000    2.400    0.000    0.000    0.000    0.000 
#
# Total GULP energy -495801.760845 kJ/mol
# GULP energy per Si atom -12395.044021 kJ/mol
# Density = 1.856779 g / cm^3
# Si number density = 18.610152 Si / 1000 Ang^3
#
#
#
# Elastic Constant Matrix: (Units=GPa)
#
#
# Indices 1 2 3 4 5 6 
#
# 1 81.7108 36.2990 24.4868 0.0000 0.0000 0.0000
# 2 36.2990 102.2608 57.2472 0.0000 0.0000 0.0000
# 3 24.4868 57.2472 107.2650 0.0000 0.0000 0.0000
# 4 0.0000 0.0000 0.0000 5.7130 0.0000 0.0000
# 5 0.0000 0.0000 0.0000 0.0000 20.6954 0.0000
# 6 0.0000 0.0000 0.0000 0.0000 0.0000 11.0060
#
#
#
# Elastic Compliance Matrix: (Units=1/GPa)
#
#
# Indices 1 2 3 4 5 6 
#
# 1 0.014578 -0.004723 -0.000807 0.000000 0.000000 0.000000
# 2 -0.004723 0.015475 -0.007181 0.000000 0.000000 0.000000
# 3 -0.000807 -0.007181 0.013340 0.000000 0.000000 0.000000
# 4 0.000000 0.000000 0.000000 0.175039 0.000000 0.000000
# 5 0.000000 0.000000 0.000000 0.000000 0.048320 0.000000
# 6 0.000000 0.000000 0.000000 0.000000 0.000000 0.090860
#
#
# Mechanical properties :
#
#
# Convention : Reuss Voigt Hill
#
# Bulk Modulus (GPa) = 55.64617 58.58918 57.11768
# Shear Modulus (GPa) = 12.85267 19.02979 15.94123
#
# Velocity S-wave (km/s) = 2.63083 3.20120 2.92993
# Velocity P-wave (km/s) = 6.26053 6.72416 6.49648
#
# Compressibility (1/GPa) = 0.01797069
#
# Stress axis : x y z
#
# Youngs Moduli (GPa) = 68.59515 64.61859 74.96500
#
# Poissons Ratio (x) = 0.30518 0.06053
# Poissons Ratio (y) = 0.32396 0.53833
# Poissons Ratio (z) = 0.05539 0.46403
#
# Static dielectric constant tensor:
#      x y z
#    x 3.400850 0.000000 0.000000 
#    y 0.000000 3.379400 0.000000 
#    z 0.000000 0.000000 3.498050 
# 
# 
# High freq. dielectric constant tensor:
#      x y z
#    x 1.719480 0.000000 0.000000 
#    y 0.000000 1.690610 0.000000 
#    z 0.000000 0.000000 1.710700 
# 
# From -- ./inp_files/15158.got.cif
#   From: 2010.03.12/outbox.cif.g09.slc.cpg/sg47_8_cif.got.tgz:15158.got - 2010.04.14 03:12:58.
