data_PCOD8194579
_publ_section_title
;
Structure prediction by ZEFSAII (Michael W. Deem and Ramdas Pophale) SiO2 
 PCOD8194579
Probable space group: P M M M
;
_chemical_formula_sum "Si O2"
_cell_formula_units_Z 48
_cell_length_a 8.916522
_cell_length_b 15.591847
_cell_length_c 17.815476
_cell_angle_alpha 90.000000
_cell_angle_beta 90.000000
_cell_angle_gamma 90.000000
_cell_volume 2476.797385
_symmetry_space_group_name_H-M "P M M M"
_symmetry_group_IT_number 47
_symmetry_cell_setting 'orthorhombic'
loop_
_space_group_symop_operation_xyz
x,y,z
-x,-y,z
x,-y,-z
-x,y,-z
-x,-y,-z
x,y,-z
-x,y,z
x,-y,z
loop_
_atom_site_type_symbol
_atom_site_label
_atom_site_fract_x
_atom_site_fract_y
_atom_site_fract_z
Si Si1 0.822329 0.268542 0.915797
Si Si2 0.177393 0.402255 0.500000
Si Si3 0.325161 0.329358 0.647995
Si Si4 0.825219 0.093846 0.850482
Si Si5 0.825367 0.153868 0.316342
Si Si6 0.325802 0.596946 0.805530
Si Si7 0.821831 0.000000 0.417125
O O1 0.756201 0.173322 0.897812
O O2 0.764461 0.338642 0.857872
O O3 0.000000 0.266299 0.906701
O O4 0.773435 0.293969 0.000000
O O5 0.233950 0.500000 0.500000
O O6 0.235868 0.356398 0.574385
O O7 0.000000 0.395633 0.500000
O O8 0.500000 0.332078 0.628560
O O9 0.278350 0.235461 0.673694
O O10 0.285584 0.391382 0.717768
O O11 0.796355 0.111756 0.763668
O O12 0.000000 0.088450 0.868022
O O13 0.753975 0.000000 0.871265
O O14 0.766561 0.085702 0.376718
O O15 0.000000 0.178718 0.327020
O O16 0.500000 0.615724 0.818787
O O17 0.283074 0.500000 0.828242
O O18 0.752982 0.000000 0.500000
O O19 0.000000 0.000000 0.417140
#
# Coordination Sequence:
#
# PCOD8194579 Si02
#       7
#     8   4   8   8   8   8   4
#     4  10  21  36  56  86 120 150 187 242 299 344
#     4  11  25  43  63  88 115 146 187 233 282 339
#     4  11  23  39  60  86 118 152 188 234 290 343
#     4   9  16  30  54  82 113 150 191 234 284 342
#     4  10  18  32  55  81 110 149 195 236 280 339
#     4  10  22  40  61  83 110 152 199 236 281 347
#     4   9  18  30  49  81 114 146 188 239 288 333
#
# _framework density 19.379866
#
# number of rings (size 3 to 8) (size 9 to 14) (size 15 to 20)
#    0.000    2.000    2.500    1.250    1.167    3.333 
#    0.000    3.750    0.000    2.000    0.000    1.167 
#    0.000    0.000    0.000    0.000    0.000    0.000 
#
# Total GULP energy -595093.447732 kJ/mol
# GULP energy per Si atom -12397.780161 kJ/mol
# Density = 1.933576 g / cm^3
# Si number density = 19.379866 Si / 1000 Ang^3
#
#
#
# Elastic Constant Matrix: (Units=GPa)
#
#
# Indices 1 2 3 4 5 6 
#
# 1 34.4764 26.2569 30.7208 0.0000 0.0000 0.0000
# 2 26.2569 128.9208 40.2168 0.0000 0.0000 0.0000
# 3 30.7208 40.2168 99.1258 0.0000 0.0000 0.0000
# 4 0.0000 0.0000 0.0000 17.9447 0.0000 0.0000
# 5 0.0000 0.0000 0.0000 0.0000 21.9009 0.0000
# 6 0.0000 0.0000 0.0000 0.0000 0.0000 17.2693
#
#
#
# Elastic Compliance Matrix: (Units=1/GPa)
#
#
# Indices 1 2 3 4 5 6 
#
# 1 0.042981 -0.005265 -0.011185 0.000000 0.000000 0.000000
# 2 -0.005265 0.009526 -0.002233 0.000000 0.000000 0.000000
# 3 -0.011185 -0.002233 0.014460 0.000000 0.000000 0.000000
# 4 0.000000 0.000000 0.000000 0.055727 0.000000 0.000000
# 5 0.000000 0.000000 0.000000 0.000000 0.045660 0.000000
# 6 0.000000 0.000000 0.000000 0.000000 0.000000 0.057906
#
#
# Mechanical properties :
#
#
# Convention : Reuss Voigt Hill
#
# Bulk Modulus (GPa) = 33.78107 50.76800 42.27454
# Shear Modulus (GPa) = 18.28203 22.44488 20.36346
#
# Velocity S-wave (km/s) = 3.07474 3.40686 3.24505
# Velocity P-wave (km/s) = 5.48399 6.45978 5.99178
#
# Compressibility (1/GPa) = 0.02960238
#
# Stress axis : x y z
#
# Youngs Moduli (GPa) = 23.26600 104.98083 69.15412
#
# Poissons Ratio (x) = 0.55270 0.77346
# Poissons Ratio (y) = 0.12249 0.15442
# Poissons Ratio (z) = 0.26022 0.23442
#
# Static dielectric constant tensor:
#      x y z
#    x 3.202390 0.000000 0.000000 
#    y 0.000000 3.793930 0.000000 
#    z 0.000000 0.000000 3.689320 
# 
# 
# High freq. dielectric constant tensor:
#      x y z
#    x 1.717070 0.000000 0.000000 
#    y 0.000000 1.772530 0.000000 
#    z 0.000000 0.000000 1.762190 
# 
# From -- ./inp_files/21057.got.cif
#   From: 2010.03.12/outbox.cif.g09.slc.cpg/sg47_11_cif.got.tgz:21057.got - 2010.04.14 03:12:58.
