data_PCOD8194362
_publ_section_title
;
Structure prediction by ZEFSAII (Michael W. Deem and Ramdas Pophale) SiO2 
 PCOD8194362
Probable space group: P M M M
;
_chemical_formula_sum "Si O2"
_cell_formula_units_Z 56
_cell_length_a 22.916158
_cell_length_b 14.219038
_cell_length_c 8.746507
_cell_angle_alpha 90.000000
_cell_angle_beta 90.000000
_cell_angle_gamma 90.000000
_cell_volume 2850.011883
_symmetry_space_group_name_H-M "P M M M"
_symmetry_group_IT_number 47
_symmetry_cell_setting 'orthorhombic'
loop_
_space_group_symop_operation_xyz
x,y,z
-x,-y,z
x,-y,-z
-x,y,-z
-x,-y,-z
x,y,-z
-x,y,z
x,-y,z
loop_
_atom_site_type_symbol
_atom_site_label
_atom_site_fract_x
_atom_site_fract_y
_atom_site_fract_z
Si Si1 0.337153 0.893037 0.177450
Si Si2 0.000000 0.893520 0.680719
Si Si3 0.849958 0.607603 0.679394
Si Si4 0.281534 0.396707 0.680546
Si Si5 0.213591 0.890583 0.324566
Si Si6 0.388826 0.723732 0.681697
Si Si7 0.500000 0.606484 0.318325
Si Si8 0.892034 0.786736 0.178494
O O1 0.278887 0.868993 0.271200
O O2 0.389139 0.826565 0.240131
O O3 0.356983 0.000000 0.207245
O O4 0.324912 0.874986 0.000000
O O5 0.057280 0.841066 0.735912
O O6 0.000000 0.894196 0.500000
O O7 0.000000 0.000000 0.744779
O O8 0.860867 0.619924 0.500000
O O9 0.862641 0.500000 0.728501
O O10 0.783596 0.636644 0.722908
O O11 0.892589 0.677274 0.770778
O O12 0.288001 0.403965 0.500000
O O13 0.293039 0.500000 0.751210
O O14 0.329931 0.325780 0.744040
O O15 0.207461 0.857354 0.500000
O O16 0.169496 0.832824 0.220424
O O17 0.198548 0.000000 0.306526
O O18 0.390578 0.735139 0.500000
O O19 0.443371 0.662629 0.740495
O O20 0.500000 0.500000 0.251941
O O21 0.500000 0.601244 0.500000
O O22 0.903609 0.793566 0.000000
#
# Coordination Sequence:
#
# PCOD8194362 Si02
#       8
#     8   4   8   8   8   8   4   8
#     4  10  21  36  53  76 107 140 176 224 281 334
#     4  11  25  45  66  85 108 143 189 236 276 323
#     4   9  18  34  56  81 110 146 189 233 275 326
#     4   8  14  26  48  78 107 136 173 217 265 316
#     4  10  20  35  57  84 113 146 184 225 271 329
#     4  10  18  30  52  78 105 141 182 224 270 323
#     4   9  18  32  52  81 112 140 177 225 272 321
#     4  12  24  37  57  85 118 152 184 226 279 331
#
# _framework density 19.649041
#
# number of rings (size 3 to 8) (size 9 to 14) (size 15 to 20)
#    0.000    2.143    0.000    4.929    0.000    7.143 
#    0.000    1.071    0.000    7.286    0.000    0.000 
#    0.000    0.000    0.000    0.000    0.000    0.000 
#
# Total GULP energy -694427.385419 kJ/mol
# GULP energy per Si atom -12400.489025 kJ/mol
# Density = 1.960432 g / cm^3
# Si number density = 19.649041 Si / 1000 Ang^3
#
#
#
# Elastic Constant Matrix: (Units=GPa)
#
#
# Indices 1 2 3 4 5 6 
#
# 1 80.3164 75.3512 24.9655 0.0000 0.0000 0.0000
# 2 75.3512 134.8066 37.3728 0.0000 0.0000 0.0000
# 3 24.9655 37.3728 55.9158 0.0000 0.0000 0.0000
# 4 0.0000 0.0000 0.0000 19.2877 0.0000 0.0000
# 5 0.0000 0.0000 0.0000 0.0000 -7.5101 0.0000
# 6 0.0000 0.0000 0.0000 0.0000 0.0000 27.8540
#
#
#
# Elastic Compliance Matrix: (Units=1/GPa)
#
#
# Indices 1 2 3 4 5 6 
#
# 1 0.026431 -0.014119 -0.002365 0.000000 0.000000 0.000000
# 2 -0.014119 0.016647 -0.004823 0.000000 0.000000 0.000000
# 3 -0.002365 -0.004823 0.022163 0.000000 0.000000 0.000000
# 4 0.000000 0.000000 0.000000 0.051846 0.000000 0.000000
# 5 0.000000 0.000000 0.000000 0.000000 -0.133155 0.000000
# 6 0.000000 0.000000 0.000000 0.000000 0.000000 0.035902
#
#
# Mechanical properties :
#
#
# Convention : Reuss Voigt Hill
#
# Bulk Modulus (GPa) = 44.18979 60.71310 52.45145
# Shear Modulus (GPa) = 71.43960 16.81629 44.12794
#
# Velocity S-wave (km/s) = 6.03628 2.92864 4.74414
# Velocity P-wave (km/s) = 8.43331 6.51166 7.53400
#
# Compressibility (1/GPa) = 0.02262966
#
# Stress axis : x y z
#
# Youngs Moduli (GPa) = 37.83365 60.07213 45.12001
#
# Poissons Ratio (x) = 0.84813 0.10670
# Poissons Ratio (y) = 0.53415 0.21759
# Poissons Ratio (z) = 0.08947 0.28970
#
# Static dielectric constant tensor:
#      x y z
#    x 3.559360 0.000000 0.000000 
#    y 0.000000 3.944350 0.000000 
#    z 0.000000 0.000000 3.268850 
# 
# 
# High freq. dielectric constant tensor:
#      x y z
#    x 1.747390 0.000000 0.000000 
#    y 0.000000 1.786100 0.000000 
#    z 0.000000 0.000000 1.739000 
# 
# From -- ./inp_files/11344.got.cif
#   From: 2010.03.12/outbox.cif.g09.slc.cpg/sg47_6_cif.got.tgz:11344.got - 2010.04.14 03:12:58.
