data_PCOD8194074
_publ_section_title
;
Structure prediction by ZEFSAII (Michael W. Deem and Ramdas Pophale) SiO2 
 PCOD8194074
Probable space group: P M M M
;
_chemical_formula_sum "Si O2"
_cell_formula_units_Z 64
_cell_length_a 23.477405
_cell_length_b 19.059046
_cell_length_c 8.914118
_cell_angle_alpha 90.000000
_cell_angle_beta 90.000000
_cell_angle_gamma 90.000000
_cell_volume 3988.683980
_symmetry_space_group_name_H-M "P M M M"
_symmetry_group_IT_number 47
_symmetry_cell_setting 'orthorhombic'
loop_
_space_group_symop_operation_xyz
x,y,z
-x,-y,z
x,-y,-z
-x,y,-z
-x,-y,-z
x,y,-z
-x,y,z
x,-y,z
loop_
_atom_site_type_symbol
_atom_site_label
_atom_site_fract_x
_atom_site_fract_y
_atom_site_fract_z
Si Si1 0.387510 0.420692 0.825476
Si Si2 0.730645 0.577198 0.329120
Si Si3 0.227579 0.722080 0.326356
Si Si4 0.163204 0.161911 0.177126
Si Si5 0.434791 0.289006 0.672758
Si Si6 0.065582 0.079842 0.673978
Si Si7 0.664247 0.210898 0.822982
Si Si8 0.728116 0.922972 0.176413
O O1 0.407689 0.500000 0.789954
O O2 0.322040 0.410153 0.780887
O O3 0.427171 0.367681 0.734237
O O4 0.393460 0.403066 0.000000
O O5 0.707745 0.582322 0.500000
O O6 0.757858 0.500000 0.299323
O O7 0.778057 0.637709 0.302601
O O8 0.226338 0.743157 0.500000
O O9 0.175189 0.760797 0.244400
O O10 0.288251 0.742648 0.257221
O O11 0.102508 0.133505 0.229436
O O12 0.212856 0.110071 0.237269
O O13 0.163806 0.168622 0.000000
O O14 0.416131 0.287449 0.500000
O O15 0.500000 0.266298 0.693415
O O16 0.397535 0.232563 0.763783
O O17 0.080099 0.089799 0.500000
O O18 0.000000 0.097779 0.705861
O O19 0.078771 0.000000 0.723443
O O20 0.675616 0.128717 0.784283
O O21 0.668468 0.224302 0.000000
O O22 0.718181 0.000000 0.249689
O O23 0.734070 0.931196 0.000000
#
# Coordination Sequence:
#
# PCOD8194074 Si02
#       8
#     8   8   8   8   8   8   8   8
#     4  10  20  32  48  69  91 115 145 185 229 271
#     4   9  17  29  46  67  92 123 155 185 223 275
#     4  10  18  29  47  68  94 126 156 189 232 279
#     4  10  19  29  45  70  99 129 163 201 233 268
#     4  11  23  36  49  64  85 117 153 187 225 276
#     4   9  18  32  48  67  96 134 171 205 241 281
#     4  10  19  31  49  70  91 114 145 187 232 279
#     4   8  15  28  46  69  94 117 142 180 230 275
#
# _framework density 16.045394000000002
#
# number of rings (size 3 to 8) (size 9 to 14) (size 15 to 20)
#    0.000    2.375    1.250    3.375    0.000    3.500 
#    0.000    1.875    0.000    7.875    0.000    2.625 
#    0.000    0.500    0.000    5.750    0.000    1.625 
#
# Total GULP energy -793398.733863 kJ/mol
# GULP energy per Si atom -12396.855217 kJ/mol
# Density = 1.600887 g / cm^3
# Si number density = 16.045394 Si / 1000 Ang^3
#
#
#
# Elastic Constant Matrix: (Units=GPa)
#
#
# Indices 1 2 3 4 5 6 
#
# 1 72.1718 48.0368 37.1959 0.0000 0.0000 0.0000
# 2 48.0368 111.1696 38.2302 0.0000 0.0000 0.0000
# 3 37.1959 38.2302 72.8540 0.0000 0.0000 0.0000
# 4 0.0000 0.0000 0.0000 20.5656 0.0000 0.0000
# 5 0.0000 0.0000 0.0000 0.0000 22.7487 0.0000
# 6 0.0000 0.0000 0.0000 0.0000 0.0000 27.2192
#
#
#
# Elastic Compliance Matrix: (Units=1/GPa)
#
#
# Indices 1 2 3 4 5 6 
#
# 1 0.022597 -0.007073 -0.007825 0.000000 0.000000 0.000000
# 2 -0.007073 0.013190 -0.003310 0.000000 0.000000 0.000000
# 3 -0.007825 -0.003310 0.019458 0.000000 0.000000 0.000000
# 4 0.000000 0.000000 0.000000 0.048625 0.000000 0.000000
# 5 0.000000 0.000000 0.000000 0.000000 0.043959 0.000000
# 6 0.000000 0.000000 0.000000 0.000000 0.000000 0.036739
#
#
# Mechanical properties :
#
#
# Convention : Reuss Voigt Hill
#
# Bulk Modulus (GPa) = 53.11285 55.90236 54.50761
# Shear Modulus (GPa) = 22.00124 22.95553 22.47838
#
# Velocity S-wave (km/s) = 3.70697 3.78651 3.74695
# Velocity P-wave (km/s) = 7.17605 7.35069 7.26389
#
# Compressibility (1/GPa) = 0.01882783
#
# Stress axis : x y z
#
# Youngs Moduli (GPa) = 44.25460 75.81545 51.39191
#
# Poissons Ratio (x) = 0.53625 0.40215
# Poissons Ratio (y) = 0.31301 0.17012
# Poissons Ratio (z) = 0.34630 0.25097
#
# Static dielectric constant tensor:
#      x y z
#    x 2.761030 0.000000 0.000000 
#    y 0.000000 3.351430 0.000000 
#    z 0.000000 0.000000 3.053930 
# 
# 
# High freq. dielectric constant tensor:
#      x y z
#    x 1.577370 0.000000 0.000000 
#    y 0.000000 1.618950 0.000000 
#    z 0.000000 0.000000 1.622050 
# 
# From -- ./inp_files/11801.got.cif
#   From: 2010.03.12/outbox.cif.g09.slc.cpg/sg47_6_cif.got.tgz:11801.got - 2010.04.14 03:12:58.
