data_PCOD8194063
_publ_section_title
;
Structure prediction by ZEFSAII (Michael W. Deem and Ramdas Pophale) SiO2 
 PCOD8194063
Probable space group: P M M M
;
_chemical_formula_sum "Si O2"
_cell_formula_units_Z 52
_cell_length_a 32.749506
_cell_length_b 8.246313
_cell_length_c 11.928883
_cell_angle_alpha 90.000000
_cell_angle_beta 90.000000
_cell_angle_gamma 90.000000
_cell_volume 3221.546077
_symmetry_space_group_name_H-M "P M M M"
_symmetry_group_IT_number 47
_symmetry_cell_setting 'orthorhombic'
loop_
_space_group_symop_operation_xyz
x,y,z
-x,-y,z
x,-y,-z
-x,y,-z
-x,-y,-z
x,y,-z
-x,y,z
x,-y,z
loop_
_atom_site_type_symbol
_atom_site_label
_atom_site_fract_x
_atom_site_fract_y
_atom_site_fract_z
Si Si1 0.500000 0.306548 0.125623
Si Si2 0.093196 0.819949 0.866735
Si Si3 0.046632 0.500000 0.866686
Si Si4 0.423251 0.308098 0.263729
Si Si5 0.259332 0.178979 0.132962
Si Si6 0.546286 0.693052 0.500000
Si Si7 0.823464 0.678860 0.133027
Si Si8 0.651656 0.192405 0.125076
O O1 0.500000 0.500000 0.126760
O O2 0.459856 0.238625 0.187379
O O3 0.500000 0.237495 0.000000
O O4 0.066894 0.667372 0.819173
O O5 0.140338 0.798436 0.827746
O O6 0.078476 0.000000 0.824231
O O7 0.090102 0.815957 0.000000
O O8 0.000000 0.500000 0.826825
O O9 0.050828 0.500000 0.000000
O O10 0.424285 0.500000 0.261476
O O11 0.429721 0.243381 0.390296
O O12 0.380274 0.248633 0.217405
O O13 0.220851 0.275858 0.184428
O O14 0.303463 0.259624 0.161530
O O15 0.257074 0.000000 0.185415
O O16 0.255474 0.169067 0.000000
O O17 0.544388 0.500000 0.500000
O O18 0.500000 0.760978 0.500000
O O19 0.835150 0.500000 0.175200
O O20 0.820216 0.682875 0.000000
O O21 0.654025 0.000000 0.120867
O O22 0.639898 0.257379 0.000000
#
# Coordination Sequence:
#
# PCOD8194063 Si02
#       8
#     4   8   4   8   8   4   8   8
#     4   9  16  25  40  64  85 101 126 159 192 230
#     4   9  15  22  31  41  55  77 105 140 186 236
#     4   9  16  24  30  38  54  74 104 148 192 236
#     4  10  18  29  47  65  82 104 133 167 197 234
#     4   8  14  24  36  49  67  94 121 140 169 221
#     4   9  16  30  49  67  83 103 133 169 207 235
#     4   9  14  20  31  47  65  82 106 143 179 215
#     4   9  18  31  43  58  85 113 131 153 193 243
#
# _framework density 16.141317999999998
#
# number of rings (size 3 to 8) (size 9 to 14) (size 15 to 20)
#    0.000    3.000    1.538    1.846    0.000    3.692 
#    0.000    3.846    0.000    1.846    0.000    0.000 
#    0.000    0.000    0.000    0.000    0.000    0.000 
#
# Total GULP energy -644204.940536 kJ/mol
# GULP energy per Si atom -12388.556549 kJ/mol
# Density = 1.610458 g / cm^3
# Si number density = 16.141318 Si / 1000 Ang^3
#
#
#
# Elastic Constant Matrix: (Units=GPa)
#
#
# Indices 1 2 3 4 5 6 
#
# 1 130.8839 45.0107 34.6075 0.0000 0.0000 0.0000
# 2 45.0107 71.6036 14.9158 0.0000 0.0000 0.0000
# 3 34.6075 14.9158 56.9397 0.0000 0.0000 0.0000
# 4 0.0000 0.0000 0.0000 6.2844 0.0000 0.0000
# 5 0.0000 0.0000 0.0000 0.0000 2.9625 0.0000
# 6 0.0000 0.0000 0.0000 0.0000 0.0000 19.2965
#
#
#
# Elastic Compliance Matrix: (Units=1/GPa)
#
#
# Indices 1 2 3 4 5 6 
#
# 1 0.011018 -0.005850 -0.005164 0.000000 0.000000 0.000000
# 2 -0.005850 0.017878 -0.001128 0.000000 0.000000 0.000000
# 3 -0.005164 -0.001128 0.020996 0.000000 0.000000 0.000000
# 4 0.000000 0.000000 0.000000 0.159123 0.000000 0.000000
# 5 0.000000 0.000000 0.000000 0.000000 0.337554 0.000000
# 6 0.000000 0.000000 0.000000 0.000000 0.000000 0.051823
#
#
# Mechanical properties :
#
#
# Convention : Reuss Voigt Hill
#
# Bulk Modulus (GPa) = 39.04915 49.83282 44.44099
# Shear Modulus (GPa) = 7.92128 16.70158 12.31143
#
# Velocity S-wave (km/s) = 2.21768 3.22018 2.76475
# Velocity P-wave (km/s) = 5.54996 6.69073 6.14687
#
# Compressibility (1/GPa) = 0.02560875
#
# Stress axis : x y z
#
# Youngs Moduli (GPa) = 90.76387 55.93433 47.62713
#
# Poissons Ratio (x) = 0.32722 0.24594
# Poissons Ratio (y) = 0.53097 0.05371
# Poissons Ratio (z) = 0.46870 0.06308
#
# Static dielectric constant tensor:
#      x y z
#    x 3.427920 0.000000 0.000000 
#    y 0.000000 3.073020 0.000000 
#    z 0.000000 0.000000 2.853690 
# 
# 
# High freq. dielectric constant tensor:
#      x y z
#    x 1.631950 0.000000 0.000000 
#    y 0.000000 1.615170 0.000000 
#    z 0.000000 0.000000 1.532040 
# 
# From -- ./inp_files/20088.got.cif
#   From: 2010.03.12/outbox.cif.g09.slc.cpg/sg47_11_cif.got.tgz:20088.got - 2010.04.14 03:12:58.
