data_PCOD8194427
_publ_section_title
;
Structure prediction by ZEFSAII (Michael W. Deem and Ramdas Pophale) SiO2 
 PCOD8194427
Probable space group: P M M M
;
_chemical_formula_sum "Si O2"
_cell_formula_units_Z 52
_cell_length_a 22.961196
_cell_length_b 14.188110
_cell_length_c 9.224101
_cell_angle_alpha 90.000000
_cell_angle_beta 90.000000
_cell_angle_gamma 90.000000
_cell_volume 3004.990493
_symmetry_space_group_name_H-M "P M M M"
_symmetry_group_IT_number 47
_symmetry_cell_setting 'orthorhombic'
loop_
_space_group_symop_operation_xyz
x,y,z
-x,-y,z
x,-y,-z
-x,y,-z
-x,-y,-z
x,y,-z
-x,y,z
x,-y,z
loop_
_atom_site_type_symbol
_atom_site_label
_atom_site_fract_x
_atom_site_fract_y
_atom_site_fract_z
Si Si1 0.117875 0.298487 0.172517
Si Si2 0.337999 0.277549 0.329087
Si Si3 0.705809 0.892784 0.832852
Si Si4 0.000000 0.393447 0.827590
Si Si5 0.776146 0.390534 0.332907
Si Si6 0.432911 0.608659 0.834317
Si Si7 0.162363 0.897814 0.171956
O O1 0.169236 0.360702 0.237087
O O2 0.122592 0.189282 0.225444
O O3 0.056767 0.338873 0.230608
O O4 0.122290 0.305619 0.000000
O O5 0.342488 0.269576 0.500000
O O6 0.335755 0.173239 0.261825
O O7 0.280888 0.335149 0.279803
O O8 0.395384 0.328313 0.272628
O O9 0.771785 0.881422 0.774045
O O10 0.684552 0.000000 0.813156
O O11 0.701895 0.861783 0.000000
O O12 0.000000 0.500000 0.766476
O O13 0.000000 0.394890 0.000000
O O14 0.790318 0.368189 0.500000
O O15 0.763506 0.500000 0.307855
O O16 0.500000 0.636077 0.811208
O O17 0.422628 0.500000 0.794225
O O18 0.414298 0.627685 0.000000
O O19 0.139242 0.000000 0.230691
O O20 0.163154 0.902014 0.000000
#
# Coordination Sequence:
#
# PCOD8194427 Si02
#       7
#     8   8   8   4   8   8   8
#     4  10  18  31  51  70  92 126 166 205 248 301
#     4  11  21  32  50  77 108 136 165 206 258 308
#     4   9  17  31  51  74 101 132 167 209 254 302
#     4   9  18  30  44  68  98 125 161 211 258 297
#     4  10  21  34  46  67 101 132 160 201 249 293
#     4   9  19  36  56  77 103 138 179 216 247 291
#     4   8  14  26  46  71  96 121 155 202 250 295
#
# _framework density 17.304546999999999
#
# number of rings (size 3 to 8) (size 9 to 14) (size 15 to 20)
#    0.000    2.538    1.538    2.769    0.000    3.077 
#    0.000    1.538    0.000    4.615    0.000    3.231 
#    0.000    1.231    0.000    0.000    0.000    0.000 
#
# Total GULP energy -644726.122740 kJ/mol
# GULP energy per Si atom -12398.579283 kJ/mol
# Density = 1.726516 g / cm^3
# Si number density = 17.304547 Si / 1000 Ang^3
#
#
#
# Elastic Constant Matrix: (Units=GPa)
#
#
# Indices 1 2 3 4 5 6 
#
# 1 96.1371 58.8603 39.4735 0.0000 0.0000 0.0000
# 2 58.8603 125.0955 41.8722 0.0000 0.0000 0.0000
# 3 39.4735 41.8722 50.1221 0.0000 0.0000 0.0000
# 4 0.0000 0.0000 0.0000 19.3557 0.0000 0.0000
# 5 0.0000 0.0000 0.0000 0.0000 19.1080 0.0000
# 6 0.0000 0.0000 0.0000 0.0000 0.0000 28.9074
#
#
#
# Elastic Compliance Matrix: (Units=1/GPa)
#
#
# Indices 1 2 3 4 5 6 
#
# 1 0.017357 -0.004985 -0.009504 0.000000 0.000000 0.000000
# 2 -0.004985 0.012529 -0.006540 0.000000 0.000000 0.000000
# 3 -0.009504 -0.006540 0.032900 0.000000 0.000000 0.000000
# 4 0.000000 0.000000 0.000000 0.051664 0.000000 0.000000
# 5 0.000000 0.000000 0.000000 0.000000 0.052334 0.000000
# 6 0.000000 0.000000 0.000000 0.000000 0.000000 0.034593
#
#
# Mechanical properties :
#
#
# Convention : Reuss Voigt Hill
#
# Bulk Modulus (GPa) = 48.24985 61.30740 54.77863
# Shear Modulus (GPa) = 19.97237 22.21748 21.09493
#
# Velocity S-wave (km/s) = 3.40099 3.58706 3.49526
# Velocity P-wave (km/s) = 6.58526 7.25682 6.92918
#
# Compressibility (1/GPa) = 0.02072545
#
# Stress axis : x y z
#
# Youngs Moduli (GPa) = 57.61512 79.81586 30.39492
#
# Poissons Ratio (x) = 0.39791 0.28888
# Poissons Ratio (y) = 0.28723 0.19880
# Poissons Ratio (z) = 0.54759 0.52203
#
# Static dielectric constant tensor:
#      x y z
#    x 3.117010 0.000000 0.000000 
#    y 0.000000 3.528370 0.000000 
#    z 0.000000 0.000000 2.941700 
# 
# 
# High freq. dielectric constant tensor:
#      x y z
#    x 1.650510 0.000000 0.000000 
#    y 0.000000 1.680980 0.000000 
#    z 0.000000 0.000000 1.641980 
# 
# From -- ./inp_files/10959.got.cif
#   From: 2010.03.12/outbox.cif.g09.slc.cpg/sg47_6_cif.got.tgz:10959.got - 2010.04.14 03:12:58.
