data_PCOD8194556
_publ_section_title
;
Structure prediction by ZEFSAII (Michael W. Deem and Ramdas Pophale) SiO2 
 PCOD8194556
Probable space group: P M M M
;
_chemical_formula_sum "Si O2"
_cell_formula_units_Z 52
_cell_length_a 8.861261
_cell_length_b 22.139394
_cell_length_c 14.715383
_cell_angle_alpha 90.000000
_cell_angle_beta 90.000000
_cell_angle_gamma 90.000000
_cell_volume 2886.907227
_symmetry_space_group_name_H-M "P M M M"
_symmetry_group_IT_number 47
_symmetry_cell_setting 'orthorhombic'
loop_
_space_group_symop_operation_xyz
x,y,z
-x,-y,z
x,-y,-z
-x,y,-z
-x,-y,-z
x,y,-z
-x,y,z
x,-y,z
loop_
_atom_site_type_symbol
_atom_site_label
_atom_site_fract_x
_atom_site_fract_y
_atom_site_fract_z
Si Si1 0.320799 0.433247 0.000000
Si Si2 0.320762 0.645809 0.165662
Si Si3 0.178151 0.568579 0.682594
Si Si4 0.821257 0.000000 0.894164
Si Si5 0.321203 0.891174 0.215975
Si Si6 0.321224 0.775760 0.897621
Si Si7 0.823732 0.929599 0.397177
Si Si8 0.333562 0.570792 0.500000
O O1 0.262045 0.397905 0.086916
O O2 0.249486 0.500000 0.000000
O O3 0.500000 0.436247 0.000000
O O4 0.500000 0.644534 0.176357
O O5 0.244659 0.620136 0.254483
O O6 0.261278 0.713030 0.144235
O O7 0.234401 0.500000 0.706454
O O8 0.236787 0.590669 0.585830
O O9 0.000000 0.570312 0.684226
O O10 0.755483 0.942014 0.844589
O O11 0.000000 0.000000 0.883032
O O12 0.772867 0.000000 0.000000
O O13 0.500000 0.899933 0.213235
O O14 0.269200 0.828425 0.170483
O O15 0.267639 0.892319 0.321117
O O16 0.500000 0.773249 0.904593
O O17 0.255930 0.785654 0.000000
O O18 0.774953 0.910329 0.500000
O O19 0.000000 0.916946 0.383591
O O20 0.788024 0.000000 0.382708
O O21 0.355968 0.500000 0.500000
O O22 0.500000 0.601583 0.500000
#
# Coordination Sequence:
#
# PCOD8194556 Si02
#       8
#     4   8   8   4   8   8   8   4
#     4   9  16  26  47  79 105 128 171 228 268 297
#     4  10  18  32  54  76 102 138 183 224 259 308
#     4  10  20  33  50  76 110 141 167 208 270 326
#     4  11  23  37  52  75 110 147 183 222 264 311
#     4  11  21  33  55  84 111 139 176 223 273 318
#     4   9  18  34  54  77 106 142 179 220 268 316
#     4   9  18  34  56  80 109 144 177 213 263 322
#     4   9  17  31  53  79 103 131 173 218 259 314
#
# _framework density 18.012354999999999
#
# number of rings (size 3 to 8) (size 9 to 14) (size 15 to 20)
#    0.000    2.231    1.538    2.769    0.000    4.000 
#    0.000    2.692    1.692    3.231    0.000    0.000 
#    0.000    0.000    0.000    0.000    0.000    0.000 
#
# Total GULP energy -644634.784422 kJ/mol
# GULP energy per Si atom -12396.822777 kJ/mol
# Density = 1.797136 g / cm^3
# Si number density = 18.012355 Si / 1000 Ang^3
#
#
#
# Elastic Constant Matrix: (Units=GPa)
#
#
# Indices 1 2 3 4 5 6 
#
# 1 46.1153 35.2810 41.1859 0.0000 0.0000 0.0000
# 2 35.2810 137.3044 83.9021 0.0000 0.0000 0.0000
# 3 41.1859 83.9021 170.4738 0.0000 0.0000 0.0000
# 4 0.0000 0.0000 0.0000 61.7208 0.0000 0.0000
# 5 0.0000 0.0000 0.0000 0.0000 50.5928 0.0000
# 6 0.0000 0.0000 0.0000 0.0000 0.0000 12.5855
#
#
#
# Elastic Compliance Matrix: (Units=1/GPa)
#
#
# Indices 1 2 3 4 5 6 
#
# 1 0.029570 -0.004623 -0.004869 0.000000 0.000000 0.000000
# 2 -0.004623 0.011138 -0.004365 0.000000 0.000000 0.000000
# 3 -0.004869 -0.004365 0.009191 0.000000 0.000000 0.000000
# 4 0.000000 0.000000 0.000000 0.016202 0.000000 0.000000
# 5 0.000000 0.000000 0.000000 0.000000 0.019766 0.000000
# 6 0.000000 0.000000 0.000000 0.000000 0.000000 0.079456
#
#
# Mechanical properties :
#
#
# Convention : Reuss Voigt Hill
#
# Bulk Modulus (GPa) = 45.07476 74.95906 60.01691
# Shear Modulus (GPa) = 24.94617 37.88147 31.41382
#
# Velocity S-wave (km/s) = 3.72553 4.59091 4.18067
# Velocity P-wave (km/s) = 6.60187 8.35510 7.52969
#
# Compressibility (1/GPa) = 0.02218536
#
# Stress axis : x y z
#
# Youngs Moduli (GPa) = 33.81810 89.78009 108.80688
#
# Poissons Ratio (x) = 0.41506 0.52974
# Poissons Ratio (y) = 0.15634 0.47495
# Poissons Ratio (z) = 0.16465 0.39189
#
# Static dielectric constant tensor:
#      x y z
#    x 3.116770 0.000000 0.000000 
#    y 0.000000 3.425110 0.000000 
#    z 0.000000 0.000000 3.599450 
# 
# 
# High freq. dielectric constant tensor:
#      x y z
#    x 1.678620 0.000000 0.000000 
#    y 0.000000 1.681310 0.000000 
#    z 0.000000 0.000000 1.712560 
# 
# From -- ./inp_files/21524.got.cif
#   From: 2010.03.12/outbox.cif.g09.slc.cpg/sg47_11_cif.got.tgz:21524.got - 2010.04.14 03:12:58.
