data_PCOD8194317
_publ_section_title
;
Structure prediction by ZEFSAII (Michael W. Deem and Ramdas Pophale) SiO2 
 PCOD8194317
Probable space group: P M M M
;
_chemical_formula_sum "Si O2"
_cell_formula_units_Z 52
_cell_length_a 23.110336
_cell_length_b 14.146643
_cell_length_c 8.956378
_cell_angle_alpha 90.000000
_cell_angle_beta 90.000000
_cell_angle_gamma 90.000000
_cell_volume 2928.141556
_symmetry_space_group_name_H-M "P M M M"
_symmetry_group_IT_number 47
_symmetry_cell_setting 'orthorhombic'
loop_
_space_group_symop_operation_xyz
x,y,z
-x,-y,z
x,-y,-z
-x,y,-z
-x,-y,-z
x,y,-z
-x,y,z
x,-y,z
loop_
_atom_site_type_symbol
_atom_site_label
_atom_site_fract_x
_atom_site_fract_y
_atom_site_fract_z
Si Si1 0.220462 0.894475 0.822675
Si Si2 0.000000 0.110906 0.675380
Si Si3 0.565184 0.893933 0.323837
Si Si4 0.893284 0.784872 0.177164
Si Si5 0.149748 0.392325 0.674452
Si Si6 0.730398 0.605749 0.829504
Si Si7 0.666276 0.788743 0.173696
O O1 0.166313 0.832837 0.768385
O O2 0.279736 0.848829 0.762325
O O3 0.214831 0.000000 0.756839
O O4 0.221285 0.896405 0.000000
O O5 0.944165 0.156660 0.748989
O O6 0.000000 0.131486 0.500000
O O7 0.000000 0.000000 0.710917
O O8 0.569554 0.887439 0.500000
O O9 0.500000 0.870375 0.271178
O O10 0.607597 0.816991 0.254600
O O11 0.582014 0.000000 0.270751
O O12 0.893340 0.677018 0.236334
O O13 0.901163 0.785704 0.000000
O O14 0.144562 0.371071 0.500000
O O15 0.131542 0.500000 0.711964
O O16 0.215598 0.374061 0.723431
O O17 0.706022 0.500000 0.805842
O O18 0.678649 0.678210 0.793112
O O19 0.751953 0.621572 0.000000
O O20 0.657792 0.808978 0.000000
#
# Coordination Sequence:
#
# PCOD8194317 Si02
#       7
#     8   4   8   8   8   8   8
#     4   9  17  29  47  75 108 134 162 210 264 308
#     4  11  25  43  60  81 112 147 183 224 268 317
#     4   9  19  35  51  69  99 139 178 215 259 312
#     4  11  21  37  59  81 107 144 185 222 264 319
#     4  10  20  34  54  81 112 143 175 218 272 323
#     4   9  17  31  51  76 107 140 174 213 261 318
#     4  10  18  30  50  78 106 133 170 216 264 309
#
# _framework density 17.758703000000001
#
# number of rings (size 3 to 8) (size 9 to 14) (size 15 to 20)
#    0.000    2.231    1.538    2.538    0.000    4.000 
#    0.000    1.154    0.000    5.538    0.000    3.231 
#    0.000    0.000    0.000    0.000    0.000    0.000 
#
# Total GULP energy -644802.660714 kJ/mol
# GULP energy per Si atom -12400.051168 kJ/mol
# Density = 1.771828 g / cm^3
# Si number density = 17.758703 Si / 1000 Ang^3
#
#
#
# Elastic Constant Matrix: (Units=GPa)
#
#
# Indices 1 2 3 4 5 6 
#
# 1 112.8469 67.8471 46.0375 0.0000 0.0000 0.0000
# 2 67.8471 141.6565 52.2901 0.0000 0.0000 0.0000
# 3 46.0375 52.2901 64.5044 0.0000 0.0000 0.0000
# 4 0.0000 0.0000 0.0000 25.6328 0.0000 0.0000
# 5 0.0000 0.0000 0.0000 0.0000 28.2072 0.0000
# 6 0.0000 0.0000 0.0000 0.0000 0.0000 30.6289
#
#
#
# Elastic Compliance Matrix: (Units=1/GPa)
#
#
# Indices 1 2 3 4 5 6 
#
# 1 0.014164 -0.004356 -0.006578 0.000000 0.000000 0.000000
# 2 -0.004356 0.011413 -0.006143 0.000000 0.000000 0.000000
# 3 -0.006578 -0.006143 0.025178 0.000000 0.000000 0.000000
# 4 0.000000 0.000000 0.000000 0.039012 0.000000 0.000000
# 5 0.000000 0.000000 0.000000 0.000000 0.035452 0.000000
# 6 0.000000 0.000000 0.000000 0.000000 0.000000 0.032649
#
#
# Mechanical properties :
#
#
# Convention : Reuss Voigt Hill
#
# Bulk Modulus (GPa) = 60.23843 72.37301 66.30572
# Shear Modulus (GPa) = 25.30927 27.08265 26.19596
#
# Velocity S-wave (km/s) = 3.77925 3.90941 3.84488
# Velocity P-wave (km/s) = 7.28270 7.82432 7.55836
#
# Compressibility (1/GPa) = 0.01660070
#
# Stress axis : x y z
#
# Youngs Moduli (GPa) = 70.60161 87.61758 39.71764
#
# Poissons Ratio (x) = 0.38164 0.26126
# Poissons Ratio (y) = 0.30752 0.24400
# Poissons Ratio (z) = 0.46442 0.53826
#
# Static dielectric constant tensor:
#      x y z
#    x 3.217160 0.000000 0.000000 
#    y 0.000000 3.578730 0.000000 
#    z 0.000000 0.000000 3.148190 
# 
# 
# High freq. dielectric constant tensor:
#      x y z
#    x 1.668640 0.000000 0.000000 
#    y 0.000000 1.699190 0.000000 
#    z 0.000000 0.000000 1.674560 
# 
# From -- ./inp_files/10961.got.cif
#   From: 2010.03.12/outbox.cif.g09.slc.cpg/sg47_6_cif.got.tgz:10961.got - 2010.04.14 03:12:58.
