data_PCOD8194748
_publ_section_title
;
Structure prediction by ZEFSAII (Michael W. Deem and Ramdas Pophale) SiO2 
 PCOD8194748
Probable space group: P M M M
;
_chemical_formula_sum "Si O2"
_cell_formula_units_Z 64
_cell_length_a 23.464901
_cell_length_b 19.106678
_cell_length_c 9.071883
_cell_angle_alpha 90.000000
_cell_angle_beta 90.000000
_cell_angle_gamma 90.000000
_cell_volume 4067.254528
_symmetry_space_group_name_H-M "P M M M"
_symmetry_group_IT_number 47
_symmetry_cell_setting 'orthorhombic'
loop_
_space_group_symop_operation_xyz
x,y,z
-x,-y,z
x,-y,-z
-x,y,-z
-x,-y,-z
x,y,-z
-x,y,z
x,-y,z
loop_
_atom_site_type_symbol
_atom_site_label
_atom_site_fract_x
_atom_site_fract_y
_atom_site_fract_z
Si Si1 0.833681 0.647773 0.171797
Si Si2 0.730236 0.421099 0.330084
Si Si3 0.434579 0.208565 0.169823
Si Si4 0.267468 0.075962 0.831990
Si Si5 0.614961 0.078959 0.671844
Si Si6 0.935235 0.420405 0.327378
Si Si7 0.236899 0.777036 0.168765
Si Si8 0.659910 0.710036 0.672177
O O1 0.785465 0.596385 0.234050
O O2 0.894501 0.633269 0.243938
O O3 0.817359 0.728685 0.208149
O O4 0.838953 0.633350 0.000000
O O5 0.748315 0.411642 0.500000
O O6 0.710349 0.500000 0.295810
O O7 0.677209 0.370294 0.291948
O O8 0.500000 0.230422 0.188292
O O9 0.425396 0.133176 0.244479
O O10 0.397998 0.270223 0.244661
O O11 0.416666 0.202438 0.000000
O O12 0.320588 0.087389 0.725686
O O13 0.222812 0.140148 0.807804
O O14 0.238344 0.000000 0.799307
O O15 0.290083 0.077855 0.000000
O O16 0.613419 0.097051 0.500000
O O17 0.592846 0.000000 0.702122
O O18 0.925789 0.411196 0.500000
O O19 0.920911 0.500000 0.280641
O O20 0.000000 0.402122 0.283816
O O21 0.289630 0.760099 0.273821
O O22 0.255154 0.761668 0.000000
O O23 0.650421 0.722513 0.500000
#
# Coordination Sequence:
#
# PCOD8194748 Si02
#       8
#     8   8   8   8   8   8   8   8
#     4  10  19  28  42  68  98 124 152 187 224 261
#     4   9  18  32  49  69  93 119 146 179 221 270
#     4  11  23  36  49  64  85 115 148 181 219 269
#     4   9  16  27  45  65  87 120 154 178 210 262
#     4  10  20  32  47  68  91 113 142 183 223 258
#     4   9  18  32  47  62  86 124 164 196 226 262
#     4   9  17  29  44  64  93 122 146 179 222 266
#     4  10  19  31  49  69  87 111 144 181 223 267
#
# _framework density 15.735431
#
# number of rings (size 3 to 8) (size 9 to 14) (size 15 to 20)
#    0.000    2.375    1.250    2.250    0.000    5.250 
#    0.000    1.875    0.000    0.375    0.000    2.625 
#    0.000    0.500    0.000    6.250    0.000    1.000 
#
# Total GULP energy -793353.321569 kJ/mol
# GULP energy per Si atom -12396.145650 kJ/mol
# Density = 1.569962 g / cm^3
# Si number density = 15.735431 Si / 1000 Ang^3
#
#
#
# Elastic Constant Matrix: (Units=GPa)
#
#
# Indices 1 2 3 4 5 6 
#
# 1 87.2353 60.6323 48.2630 0.0000 0.0000 0.0000
# 2 60.6323 131.5442 46.5755 0.0000 0.0000 0.0000
# 3 48.2630 46.5755 81.0890 0.0000 0.0000 0.0000
# 4 0.0000 0.0000 0.0000 21.9845 0.0000 0.0000
# 5 0.0000 0.0000 0.0000 0.0000 24.5046 0.0000
# 6 0.0000 0.0000 0.0000 0.0000 0.0000 24.0684
#
#
#
# Elastic Compliance Matrix: (Units=1/GPa)
#
#
# Indices 1 2 3 4 5 6 
#
# 1 0.020758 -0.006519 -0.008610 0.000000 0.000000 0.000000
# 2 -0.006519 0.011590 -0.002777 0.000000 0.000000 0.000000
# 3 -0.008610 -0.002777 0.019052 0.000000 0.000000 0.000000
# 4 0.000000 0.000000 0.000000 0.045487 0.000000 0.000000
# 5 0.000000 0.000000 0.000000 0.000000 0.040809 0.000000
# 6 0.000000 0.000000 0.000000 0.000000 0.000000 0.041548
#
#
# Mechanical properties :
#
#
# Convention : Reuss Voigt Hill
#
# Bulk Modulus (GPa) = 64.15625 67.86780 66.01203
# Shear Modulus (GPa) = 22.70120 23.73802 23.21961
#
# Velocity S-wave (km/s) = 3.80238 3.88825 3.84555
# Velocity P-wave (km/s) = 7.75486 7.96129 7.85875
#
# Compressibility (1/GPa) = 0.01558694
#
# Stress axis : x y z
#
# Youngs Moduli (GPa) = 48.17375 86.28017 52.48820
#
# Poissons Ratio (x) = 0.56249 0.45195
# Poissons Ratio (y) = 0.31406 0.14575
# Poissons Ratio (z) = 0.41480 0.23959
#
# Static dielectric constant tensor:
#      x y z
#    x 2.719810 0.000000 0.000000 
#    y 0.000000 3.276890 0.000000 
#    z 0.000000 0.000000 3.102590 
# 
# 
# High freq. dielectric constant tensor:
#      x y z
#    x 1.563050 0.000000 0.000000 
#    y 0.000000 1.607850 0.000000 
#    z 0.000000 0.000000 1.616130 
# 
# From -- ./inp_files/11811.got.cif
#   From: 2010.03.12/outbox.cif.g09.slc.cpg/sg47_6_cif.got.tgz:11811.got - 2010.04.14 03:12:58.
