data_PCOD8194207
_publ_section_title
;
Structure prediction by ZEFSAII (Michael W. Deem and Ramdas Pophale) SiO2 
 PCOD8194207
Probable space group: P M M M
;
_chemical_formula_sum "Si O2"
_cell_formula_units_Z 64
_cell_length_a 20.150320
_cell_length_b 20.008298
_cell_length_c 8.829331
_cell_angle_alpha 90.000000
_cell_angle_beta 90.000000
_cell_angle_gamma 90.000000
_cell_volume 3559.753230
_symmetry_space_group_name_H-M "P M M M"
_symmetry_group_IT_number 47
_symmetry_cell_setting 'orthorhombic'
loop_
_space_group_symop_operation_xyz
x,y,z
-x,-y,z
x,-y,-z
-x,y,-z
-x,-y,-z
x,y,-z
-x,y,z
x,-y,z
loop_
_atom_site_type_symbol
_atom_site_label
_atom_site_fract_x
_atom_site_fract_y
_atom_site_fract_z
Si Si1 0.379143 0.752546 0.829047
Si Si2 0.753466 0.793641 0.677652
Si Si3 0.285815 0.073975 0.821776
Si Si4 0.570883 0.895177 0.827563
Si Si5 0.074155 0.425268 0.820008
Si Si6 0.188781 0.670743 0.821440
Si Si7 0.572396 0.626661 0.328167
Si Si8 0.711289 0.574239 0.325700
O O1 0.317110 0.761369 0.717107
O O2 0.427650 0.815325 0.817008
O O3 0.421824 0.689077 0.783365
O O4 0.351364 0.744821 0.000000
O O5 0.763865 0.797847 0.500000
O O6 0.759273 0.869156 0.743978
O O7 0.809753 0.744484 0.746629
O O8 0.361483 0.075255 0.754020
O O9 0.255821 0.000000 0.790617
O O10 0.288206 0.090574 0.000000
O O11 0.500000 0.918293 0.751698
O O12 0.569524 0.919776 0.000000
O O13 0.092347 0.500000 0.760717
O O14 0.125723 0.370559 0.755808
O O15 0.000000 0.405934 0.765347
O O16 0.077448 0.425592 0.000000
O O17 0.254694 0.628861 0.780987
O O18 0.184230 0.679872 0.000000
O O19 0.576980 0.653246 0.500000
O O20 0.500000 0.592711 0.299484
O O21 0.631925 0.574930 0.297253
O O22 0.728174 0.591284 0.500000
O O23 0.736453 0.500000 0.283413
#
# Coordination Sequence:
#
# PCOD8194207 Si02
#       8
#     8   8   8   8   8   8   8   8
#     4  10  18  30  47  67  89 117 156 205 257 305
#     4  11  21  33  50  71  98 130 166 208 253 302
#     4   9  18  32  49  70  97 127 161 205 255 307
#     4   8  14  24  40  64  90 114 144 185 239 302
#     4   8  15  29  50  79 114 146 173 203 244 294
#     4  11  20  32  54  80 103 132 171 213 249 288
#     4  10  20  32  46  64  88 121 160 204 259 318
#     4  10  21  35  49  67  95 130 165 205 255 309
#
# _framework density 17.978774000000001
#
# number of rings (size 3 to 8) (size 9 to 14) (size 15 to 20)
#    0.000    2.375    1.250    3.750    0.000    2.250 
#    0.000    2.500    0.000    4.875    0.000    9.625 
#    0.000    0.500    0.000    5.750    0.000    1.625 
#
# Total GULP energy -793076.995682 kJ/mol
# GULP energy per Si atom -12391.828058 kJ/mol
# Density = 1.793785 g / cm^3
# Si number density = 17.978774 Si / 1000 Ang^3
#
#
#
# Elastic Constant Matrix: (Units=GPa)
#
#
# Indices 1 2 3 4 5 6 
#
# 1 82.8473 45.7057 20.6633 0.0000 0.0000 0.0000
# 2 45.7057 120.3490 40.0462 0.0000 0.0000 0.0000
# 3 20.6633 40.0462 62.8283 0.0000 0.0000 0.0000
# 4 0.0000 0.0000 0.0000 20.7085 0.0000 0.0000
# 5 0.0000 0.0000 0.0000 0.0000 10.1494 0.0000
# 6 0.0000 0.0000 0.0000 0.0000 0.0000 17.1824
#
#
#
# Elastic Compliance Matrix: (Units=1/GPa)
#
#
# Indices 1 2 3 4 5 6 
#
# 1 0.015411 -0.005288 -0.001698 0.000000 0.000000 0.000000
# 2 -0.005288 0.012360 -0.006139 0.000000 0.000000 0.000000
# 3 -0.001698 -0.006139 0.020388 0.000000 0.000000 0.000000
# 4 0.000000 0.000000 0.000000 0.048289 0.000000 0.000000
# 5 0.000000 0.000000 0.000000 0.000000 0.098528 0.000000
# 6 0.000000 0.000000 0.000000 0.000000 0.000000 0.058199
#
#
# Mechanical properties :
#
#
# Convention : Reuss Voigt Hill
#
# Bulk Modulus (GPa) = 45.64315 53.20612 49.42463
# Shear Modulus (GPa) = 17.43809 20.24868 18.84339
#
# Velocity S-wave (km/s) = 3.11774 3.35961 3.24093
# Velocity P-wave (km/s) = 6.19700 6.68636 6.44632
#
# Compressibility (1/GPa) = 0.02190909
#
# Stress axis : x y z
#
# Youngs Moduli (GPa) = 64.88834 80.90521 49.04857
#
# Poissons Ratio (x) = 0.42780 0.08329
# Poissons Ratio (y) = 0.34311 0.30112
# Poissons Ratio (z) = 0.11019 0.49669
#
# Static dielectric constant tensor:
#      x y z
#    x 3.242890 0.000000 0.000000 
#    y 0.000000 3.416980 0.000000 
#    z 0.000000 0.000000 3.051580 
# 
# 
# High freq. dielectric constant tensor:
#      x y z
#    x 1.659340 0.000000 0.000000 
#    y 0.000000 1.694710 0.000000 
#    z 0.000000 0.000000 1.669140 
# 
# From -- ./inp_files/11842.got.cif
#   From: 2010.03.12/outbox.cif.g09.slc.cpg/sg47_6_cif.got.tgz:11842.got - 2010.04.14 03:12:58.
