data_PCOD8194879
_publ_section_title
;
Structure prediction by ZEFSAII (Michael W. Deem and Ramdas Pophale) SiO2 
 PCOD8194879
Probable space group: P M M M
;
_chemical_formula_sum "Si O2"
_cell_formula_units_Z 52
_cell_length_a 7.998006
_cell_length_b 28.318662
_cell_length_c 13.922314
_cell_angle_alpha 90.000000
_cell_angle_beta 90.000000
_cell_angle_gamma 90.000000
_cell_volume 3153.304278
_symmetry_space_group_name_H-M "P M M M"
_symmetry_group_IT_number 47
_symmetry_cell_setting 'orthorhombic'
loop_
_space_group_symop_operation_xyz
x,y,z
-x,-y,z
x,-y,-z
-x,y,-z
-x,-y,-z
x,y,-z
-x,y,z
x,-y,z
loop_
_atom_site_type_symbol
_atom_site_label
_atom_site_fract_x
_atom_site_fract_y
_atom_site_fract_z
Si Si1 0.314856 0.612082 0.885979
Si Si2 0.300680 0.051978 0.288829
Si Si3 0.000000 0.446471 0.114692
Si Si4 0.307242 0.897946 0.895422
Si Si5 0.806678 0.192265 0.207655
Si Si6 0.301657 0.144569 0.607522
Si Si7 0.196221 0.712832 0.890280
O O1 0.500000 0.595136 0.851444
O O2 0.167922 0.578667 0.844091
O O3 0.288536 0.666006 0.852381
O O4 0.303451 0.610360 0.000000
O O5 0.500000 0.051345 0.286260
O O6 0.229547 0.066131 0.183196
O O7 0.240037 0.091584 0.364464
O O8 0.231476 0.000000 0.317223
O O9 0.000000 0.500000 0.152344
O O10 0.000000 0.444511 0.000000
O O11 0.500000 0.910012 0.907749
O O12 0.293564 0.844761 0.856795
O O13 0.218681 0.903517 0.000000
O O14 0.775162 0.183436 0.320833
O O15 0.745701 0.244493 0.178642
O O16 0.000000 0.186253 0.182432
O O17 0.238360 0.155534 0.500000
O O18 0.500000 0.147363 0.614743
O O19 0.000000 0.703099 0.883079
O O20 0.246461 0.724949 0.000000
#
# Coordination Sequence:
#
# PCOD8194879 Si02
#       7
#     8   8   4   8   8   8   8
#     4   9  16  25  38  56  78 109 149 189 229 268
#     4   8  14  25  42  64  84 101 129 169 210 252
#     4   9  16  26  38  52  78 114 151 197 236 259
#     4   9  17  28  41  59  85 111 134 165 203 247
#     4  10  19  29  44  64  83 107 139 171 206 254
#     4   9  18  32  47  62  82 105 130 168 214 257
#     4   9  16  27  41  57  82 111 138 175 219 258
#
# _framework density 16.490638000000001
#
# number of rings (size 3 to 8) (size 9 to 14) (size 15 to 20)
#    0.000    3.000    0.769    1.846    0.000    3.385 
#    0.000    6.154    0.000    7.385    0.000    8.615 
#    0.000    0.000    0.000    0.000    0.000    1.538 
#
# Total GULP energy -644410.964210 kJ/mol
# GULP energy per Si atom -12392.518542 kJ/mol
# Density = 1.645310 g / cm^3
# Si number density = 16.490638 Si / 1000 Ang^3
#
#
#
# Elastic Constant Matrix: (Units=GPa)
#
#
# Indices 1 2 3 4 5 6 
#
# 1 51.2204 36.1662 10.3348 0.0000 0.0000 0.0000
# 2 36.1662 115.0005 31.5571 0.0000 0.0000 0.0000
# 3 10.3348 31.5571 75.2454 0.0000 0.0000 0.0000
# 4 0.0000 0.0000 0.0000 11.0204 0.0000 0.0000
# 5 0.0000 0.0000 0.0000 0.0000 11.7701 0.0000
# 6 0.0000 0.0000 0.0000 0.0000 0.0000 18.3841
#
#
#
# Elastic Compliance Matrix: (Units=1/GPa)
#
#
# Indices 1 2 3 4 5 6 
#
# 1 0.025098 -0.007850 -0.000155 0.000000 0.000000 0.000000
# 2 -0.007850 0.012282 -0.004073 0.000000 0.000000 0.000000
# 3 -0.000155 -0.004073 0.015019 0.000000 0.000000 0.000000
# 4 0.000000 0.000000 0.000000 0.090741 0.000000 0.000000
# 5 0.000000 0.000000 0.000000 0.000000 0.084961 0.000000
# 6 0.000000 0.000000 0.000000 0.000000 0.000000 0.054395
#
#
# Mechanical properties :
#
#
# Convention : Reuss Voigt Hill
#
# Bulk Modulus (GPa) = 35.40676 44.17584 39.79130
# Shear Modulus (GPa) = 15.81949 19.12880 17.47415
#
# Velocity S-wave (km/s) = 3.10062 3.40954 3.25874
# Velocity P-wave (km/s) = 5.85968 6.50742 6.19203
#
# Compressibility (1/GPa) = 0.02824319
#
# Stress axis : x y z
#
# Youngs Moduli (GPa) = 39.84407 81.41943 66.58159
#
# Poissons Ratio (x) = 0.63918 0.01030
# Poissons Ratio (y) = 0.31280 0.27117
# Poissons Ratio (z) = 0.00617 0.33160
#
# Static dielectric constant tensor:
#      x y z
#    x 3.039920 0.000000 0.000000 
#    y 0.000000 3.140940 0.000000 
#    z 0.000000 0.000000 2.992410 
# 
# 
# High freq. dielectric constant tensor:
#      x y z
#    x 1.627420 0.000000 0.000000 
#    y 0.000000 1.621540 0.000000 
#    z 0.000000 0.000000 1.588370 
# 
# From -- ./inp_files/13410.got.cif
#   From: 2010.03.12/outbox.cif.g09.slc.cpg/sg47_7_cif.got.tgz:13410.got - 2010.04.14 03:12:58.
