data_PCOD8194905
_publ_section_title
;
Structure prediction by ZEFSAII (Michael W. Deem and Ramdas Pophale) SiO2 
 PCOD8194905
Probable space group: P M M M
;
_chemical_formula_sum "Si O2"
_cell_formula_units_Z 64
_cell_length_a 18.831468
_cell_length_b 23.250095
_cell_length_c 9.378102
_cell_angle_alpha 90.000000
_cell_angle_beta 90.000000
_cell_angle_gamma 90.000000
_cell_volume 4106.046472
_symmetry_space_group_name_H-M "P M M M"
_symmetry_group_IT_number 47
_symmetry_cell_setting 'orthorhombic'
loop_
_space_group_symop_operation_xyz
x,y,z
-x,-y,z
x,-y,-z
-x,y,-z
-x,-y,-z
x,y,-z
-x,y,z
x,-y,z
loop_
_atom_site_type_symbol
_atom_site_label
_atom_site_fract_x
_atom_site_fract_y
_atom_site_fract_z
Si Si1 0.078895 0.766759 0.837065
Si Si2 0.580981 0.775630 0.666859
Si Si3 0.581543 0.433535 0.836947
Si Si4 0.222134 0.283168 0.838369
Si Si5 0.697083 0.833919 0.836483
Si Si6 0.337882 0.660236 0.667348
Si Si7 0.797767 0.064984 0.835698
Si Si8 0.080918 0.881832 0.334629
O O1 0.137475 0.717346 0.806402
O O2 0.092502 0.819364 0.732228
O O3 0.000000 0.740669 0.813059
O O4 0.087978 0.788892 0.000000
O O5 0.588173 0.786659 0.500000
O O6 0.500000 0.779402 0.718754
O O7 0.625687 0.824961 0.745585
O O8 0.609882 0.712562 0.707672
O O9 0.500000 0.422922 0.793886
O O10 0.601524 0.500000 0.817208
O O11 0.631501 0.397806 0.732936
O O12 0.594198 0.414388 0.000000
O O13 0.249088 0.218488 0.811510
O O14 0.260117 0.327686 0.732635
O O15 0.238256 0.302729 0.000000
O O16 0.735789 0.891976 0.783508
O O17 0.673687 0.839117 0.000000
O O18 0.329691 0.651770 0.500000
O O19 0.868576 0.072535 0.742604
O O20 0.770015 0.000000 0.815935
O O21 0.816834 0.078282 0.000000
O O22 0.101406 0.878148 0.500000
O O23 0.000000 0.902678 0.313510
#
# Coordination Sequence:
#
# PCOD8194905 Si02
#       8
#     8   8   8   8   8   8   8   8
#     4   9  16  28  47  67  89 119 153 186 222 267
#     4   9  18  31  46  66  91 117 143 176 220 266
#     4   9  18  32  48  66  92 128 165 196 226 261
#     4   9  16  28  45  65  90 118 149 186 226 267
#     4   9  17  30  46  66  86 107 140 179 223 270
#     4  10  19  29  44  68  96 124 154 189 225 262
#     4  10  20  34  50  65  83 110 146 186 224 268
#     4  10  20  31  44  64  90 117 145 180 220 264
#
# _framework density 15.586769
#
# number of rings (size 3 to 8) (size 9 to 14) (size 15 to 20)
#    0.000    2.625    1.250    1.500    0.000    4.000 
#    0.000    1.875    0.000    0.375    0.000    2.625 
#    0.000    0.500    0.000    5.750    0.000    1.625 
#
# Total GULP energy -793600.268985 kJ/mol
# GULP energy per Si atom -12400.004203 kJ/mol
# Density = 1.555129 g / cm^3
# Si number density = 15.586769 Si / 1000 Ang^3
#
#
#
# Elastic Constant Matrix: (Units=GPa)
#
#
# Indices 1 2 3 4 5 6 
#
# 1 106.0781 45.8726 48.8433 0.0000 0.0000 0.0000
# 2 45.8726 70.2702 41.5575 0.0000 0.0000 0.0000
# 3 48.8433 41.5575 72.5934 0.0000 0.0000 0.0000
# 4 0.0000 0.0000 0.0000 17.5593 0.0000 0.0000
# 5 0.0000 0.0000 0.0000 0.0000 24.5115 0.0000
# 6 0.0000 0.0000 0.0000 0.0000 0.0000 25.8490
#
#
#
# Elastic Compliance Matrix: (Units=1/GPa)
#
#
# Indices 1 2 3 4 5 6 
#
# 1 0.015080 -0.005811 -0.006820 0.000000 0.000000 0.000000
# 2 -0.005811 0.023754 -0.009688 0.000000 0.000000 0.000000
# 3 -0.006820 -0.009688 0.023910 0.000000 0.000000 0.000000
# 4 0.000000 0.000000 0.000000 0.056950 0.000000 0.000000
# 5 0.000000 0.000000 0.000000 0.000000 0.040797 0.000000
# 6 0.000000 0.000000 0.000000 0.000000 0.000000 0.038686
#
#
# Mechanical properties :
#
#
# Convention : Reuss Voigt Hill
#
# Bulk Modulus (GPa) = 55.23135 57.94317 56.58726
# Shear Modulus (GPa) = 20.01186 21.09518 20.55352
#
# Velocity S-wave (km/s) = 3.58704 3.68285 3.63526
# Velocity P-wave (km/s) = 7.25724 7.43908 7.34872
#
# Compressibility (1/GPa) = 0.01810566
#
# Stress axis : x y z
#
# Youngs Moduli (GPa) = 66.31241 42.09802 41.82313
#
# Poissons Ratio (x) = 0.24464 0.28522
# Poissons Ratio (y) = 0.38536 0.40520
# Poissons Ratio (z) = 0.45223 0.40787
#
# Static dielectric constant tensor:
#      x y z
#    x 3.084890 0.000000 0.000000 
#    y 0.000000 2.695180 0.000000 
#    z 0.000000 0.000000 3.007400 
# 
# 
# High freq. dielectric constant tensor:
#      x y z
#    x 1.594630 0.000000 0.000000 
#    y 0.000000 1.562240 0.000000 
#    z 0.000000 0.000000 1.602700 
# 
# From -- ./inp_files/11804.got.cif
#   From: 2010.03.12/outbox.cif.g09.slc.cpg/sg47_6_cif.got.tgz:11804.got - 2010.04.14 03:12:58.
