data_PCOD8194494
_publ_section_title
;
Structure prediction by ZEFSAII (Michael W. Deem and Ramdas Pophale) SiO2 
 PCOD8194494
Probable space group: P M M M
;
_chemical_formula_sum "Si O2"
_cell_formula_units_Z 48
_cell_length_a 17.283943
_cell_length_b 15.599354
_cell_length_c 8.733315
_cell_angle_alpha 90.000000
_cell_angle_beta 90.000000
_cell_angle_gamma 90.000000
_cell_volume 2354.661940
_symmetry_space_group_name_H-M "P M M M"
_symmetry_group_IT_number 47
_symmetry_cell_setting 'orthorhombic'
loop_
_space_group_symop_operation_xyz
x,y,z
-x,-y,z
x,-y,-z
-x,y,-z
-x,-y,-z
x,y,-z
-x,y,z
x,-y,z
loop_
_atom_site_type_symbol
_atom_site_label
_atom_site_fract_x
_atom_site_fract_y
_atom_site_fract_z
Si Si1 0.334622 0.157303 0.317882
Si Si2 0.814129 0.905196 0.822931
Si Si3 0.086442 0.746251 0.181104
Si Si4 0.500000 0.325018 0.174486
Si Si5 0.500000 0.851148 0.324639
Si Si6 0.183692 0.596343 0.324362
Si Si7 0.331281 0.343692 0.176503
O O1 0.336334 0.172575 0.500000
O O2 0.265655 0.094678 0.271671
O O3 0.417152 0.115266 0.259593
O O4 0.321304 0.246745 0.232778
O O5 0.871907 0.832640 0.757477
O O6 0.851369 0.000000 0.801750
O O7 0.795287 0.887059 0.000000
O O8 0.132043 0.661427 0.228223
O O9 0.000000 0.743442 0.251007
O O10 0.082254 0.749373 0.000000
O O11 0.500000 0.250821 0.300065
O O12 0.420067 0.378072 0.198718
O O13 0.500000 0.287334 0.000000
O O14 0.500000 0.875252 0.500000
O O15 0.179320 0.624515 0.500000
O O16 0.151667 0.500000 0.301087
O O17 0.272983 0.597000 0.271043
O O18 0.306539 0.347737 0.000000
#
# Coordination Sequence:
#
# PCOD8194494 Si02
#       7
#     8   8   8   4   4   8   8
#     4  10  18  31  53  80 113 153 195 238 285 335
#     4  10  21  37  58  86 119 153 190 233 283 341
#     4  10  22  41  65  90 115 147 187 233 287 347
#     4   8  16  28  47  78 111 146 190 238 285 333
#     4   8  16  28  45  74 109 148 194 238 279 329
#     4  11  24  40  59  86 119 155 193 234 284 340
#     4  10  18  32  55  82 114 152 194 239 287 337
#
# _framework density 20.385092
#
# number of rings (size 3 to 8) (size 9 to 14) (size 15 to 20)
#    0.000    2.167    1.667    1.500    0.000    4.000 
#    0.000    4.167    0.000    5.000    0.000    2.333 
#    0.000    0.000    0.000    0.000    0.000    0.000 
#
# Total GULP energy -594794.771543 kJ/mol
# GULP energy per Si atom -12391.557740 kJ/mol
# Density = 2.033869 g / cm^3
# Si number density = 20.385092 Si / 1000 Ang^3
#
#
#
# Elastic Constant Matrix: (Units=GPa)
#
#
# Indices 1 2 3 4 5 6 
#
# 1 153.7480 50.2080 16.5462 0.0000 0.0000 0.0000
# 2 50.2080 90.5275 13.2891 0.0000 0.0000 0.0000
# 3 16.5462 13.2891 22.4197 0.0000 0.0000 0.0000
# 4 0.0000 0.0000 0.0000 18.2915 0.0000 0.0000
# 5 0.0000 0.0000 0.0000 0.0000 21.8391 0.0000
# 6 0.0000 0.0000 0.0000 0.0000 0.0000 8.6665
#
#
#
# Elastic Compliance Matrix: (Units=1/GPa)
#
#
# Indices 1 2 3 4 5 6 
#
# 1 0.008211 -0.004014 -0.003681 0.000000 0.000000 0.000000
# 2 -0.004014 0.014061 -0.005372 0.000000 0.000000 0.000000
# 3 -0.003681 -0.005372 0.050505 0.000000 0.000000 0.000000
# 4 0.000000 0.000000 0.000000 0.054670 0.000000 0.000000
# 5 0.000000 0.000000 0.000000 0.000000 0.045789 0.000000
# 6 0.000000 0.000000 0.000000 0.000000 0.000000 0.115387
#
#
# Mechanical properties :
#
#
# Convention : Reuss Voigt Hill
#
# Bulk Modulus (GPa) = 21.43951 47.42021 34.42986
# Shear Modulus (GPa) = 15.13754 22.20288 18.67021
#
# Velocity S-wave (km/s) = 2.72799 3.30384 3.02963
# Velocity P-wave (km/s) = 4.52356 6.15358 5.40042
#
# Compressibility (1/GPa) = 0.04664285
#
# Stress axis : x y z
#
# Youngs Moduli (GPa) = 121.78843 71.11856 19.80018
#
# Poissons Ratio (x) = 0.28544 0.07288
# Poissons Ratio (y) = 0.48881 0.10637
# Poissons Ratio (z) = 0.44828 0.38208
#
# Static dielectric constant tensor:
#      x y z
#    x 4.170990 0.000000 0.000000 
#    y 0.000000 3.372950 0.000000 
#    z 0.000000 0.000000 3.586560 
# 
# 
# High freq. dielectric constant tensor:
#      x y z
#    x 1.808700 0.000000 0.000000 
#    y 0.000000 1.768520 0.000000 
#    z 0.000000 0.000000 1.786530 
# 
# From -- ./inp_files/9220.got.cif
#   From: 2010.03.12/outbox.cif.g09.slc.cpg/sg47_5_cif.got.tgz:9220.got - 2010.04.14 03:12:58.
