data_PCOD8194420
_publ_section_title
;
Structure prediction by ZEFSAII (Michael W. Deem and Ramdas Pophale) SiO2 
 PCOD8194420
Probable space group: P M M M
;
_chemical_formula_sum "Si O2"
_cell_formula_units_Z 52
_cell_length_a 23.540527
_cell_length_b 8.975812
_cell_length_c 14.256300
_cell_angle_alpha 90.000000
_cell_angle_beta 90.000000
_cell_angle_gamma 90.000000
_cell_volume 3012.289823
_symmetry_space_group_name_H-M "P M M M"
_symmetry_group_IT_number 47
_symmetry_cell_setting 'orthorhombic'
loop_
_space_group_symop_operation_xyz
x,y,z
-x,-y,z
x,-y,-z
-x,y,-z
-x,-y,-z
x,y,-z
-x,y,z
x,-y,z
loop_
_atom_site_type_symbol
_atom_site_label
_atom_site_fract_x
_atom_site_fract_y
_atom_site_fract_z
Si Si1 0.562549 0.822769 0.893967
Si Si2 0.109767 0.176741 0.218327
Si Si3 0.670328 0.824298 0.211939
Si Si4 0.219417 0.822551 0.105324
Si Si5 0.000000 0.822834 0.893995
Si Si6 0.728668 0.172288 0.604657
Si Si7 0.152673 0.325229 0.393725
O O1 0.500000 0.763779 0.863261
O O2 0.610945 0.754930 0.825253
O O3 0.562616 0.000000 0.889297
O O4 0.576055 0.771049 0.000000
O O5 0.165345 0.234677 0.163577
O O6 0.055318 0.234991 0.161106
O O7 0.109012 0.247120 0.322380
O O8 0.108887 0.000000 0.228568
O O9 0.723206 0.759793 0.152621
O O10 0.679243 0.783876 0.321681
O O11 0.668026 0.000000 0.196795
O O12 0.219524 0.000000 0.104481
O O13 0.215469 0.759447 0.000000
O O14 0.000000 0.000000 0.898611
O O15 0.000000 0.758355 0.000000
O O16 0.705066 0.202288 0.500000
O O17 0.783900 0.268557 0.626196
O O18 0.746396 0.000000 0.618384
O O19 0.134333 0.284373 0.500000
O O20 0.151484 0.500000 0.376741
#
# Coordination Sequence:
#
# PCOD8194420 Si02
#       7
#     8   8   8   8   4   8   8
#     4   8  13  20  30  48  80 120 153 180 214 259
#     4  10  18  31  50  72  95 121 151 185 225 268
#     4   9  14  21  35  58  84 112 147 184 222 262
#     4   9  15  22  37  63  89 111 141 182 222 260
#     4   9  18  32  52  77 100 122 153 191 224 263
#     4   9  16  27  44  66  90 115 147 186 228 276
#     4  10  20  33  49  69  93 121 152 188 231 276
#
# _framework density 17.262613999999999
#
# number of rings (size 3 to 8) (size 9 to 14) (size 15 to 20)
#    0.000    2.846    1.538    1.846    0.000    4.615 
#    0.000    0.769    0.000    5.077    0.000    3.231 
#    0.000    0.615    0.000    5.538    0.000    5.538 
#
# Total GULP energy -644541.077811 kJ/mol
# GULP energy per Si atom -12395.020727 kJ/mol
# Density = 1.722332 g / cm^3
# Si number density = 17.262614 Si / 1000 Ang^3
#
#
#
# Elastic Constant Matrix: (Units=GPa)
#
#
# Indices 1 2 3 4 5 6 
#
# 1 143.5453 17.4787 88.8121 0.0000 0.0000 0.0000
# 2 17.4787 18.5187 24.9877 0.0000 0.0000 0.0000
# 3 88.8121 24.9877 159.1124 0.0000 0.0000 0.0000
# 4 0.0000 0.0000 0.0000 9.7036 0.0000 0.0000
# 5 0.0000 0.0000 0.0000 0.0000 33.0405 0.0000
# 6 0.0000 0.0000 0.0000 0.0000 0.0000 3.2061
#
#
#
# Elastic Compliance Matrix: (Units=1/GPa)
#
#
# Indices 1 2 3 4 5 6 
#
# 1 0.010739 -0.002598 -0.005586 0.000000 0.000000 0.000000
# 2 -0.002598 0.069148 -0.009409 0.000000 0.000000 0.000000
# 3 -0.005586 -0.009409 0.010881 0.000000 0.000000 0.000000
# 4 0.000000 0.000000 0.000000 0.103055 0.000000 0.000000
# 5 0.000000 0.000000 0.000000 0.000000 0.030266 0.000000
# 6 0.000000 0.000000 0.000000 0.000000 0.000000 0.311910
#
#
# Mechanical properties :
#
#
# Convention : Reuss Voigt Hill
#
# Bulk Modulus (GPa) = 17.99198 64.85924 41.42561
# Shear Modulus (GPa) = 8.47872 21.84989 15.16431
#
# Velocity S-wave (km/s) = 2.21862 3.56158 2.96708
# Velocity P-wave (km/s) = 4.12410 7.38693 5.98226
#
# Compressibility (1/GPa) = 0.05558032
#
# Stress axis : x y z
#
# Youngs Moduli (GPa) = 93.11850 14.46181 91.90741
#
# Poissons Ratio (x) = 0.03758 0.51341
# Poissons Ratio (y) = 0.24196 0.86475
# Poissons Ratio (z) = 0.52017 0.13607
#
# Static dielectric constant tensor:
#      x y z
#    x 3.377350 0.000000 0.000000 
#    y 0.000000 2.659500 0.000000 
#    z 0.000000 0.000000 3.506820 
# 
# 
# High freq. dielectric constant tensor:
#      x y z
#    x 1.654030 0.000000 0.000000 
#    y 0.000000 1.604660 0.000000 
#    z 0.000000 0.000000 1.679160 
# 
# From -- ./inp_files/7657.got.cif
#   From: 2010.03.12/outbox.cif.g09.slc.cpg/sg47_4_cif.got.tgz:7657.got - 2010.04.14 03:12:58.
