data_PCOD8194894
_publ_section_title
;
Structure prediction by ZEFSAII (Michael W. Deem and Ramdas Pophale) SiO2 
 PCOD8194894
Probable space group: P M M M
;
_chemical_formula_sum "Si O2"
_cell_formula_units_Z 52
_cell_length_a 26.273370
_cell_length_b 13.579367
_cell_length_c 9.084701
_cell_angle_alpha 90.000000
_cell_angle_beta 90.000000
_cell_angle_gamma 90.000000
_cell_volume 3241.200863
_symmetry_space_group_name_H-M "P M M M"
_symmetry_group_IT_number 47
_symmetry_cell_setting 'orthorhombic'
loop_
_space_group_symop_operation_xyz
x,y,z
-x,-y,z
x,-y,-z
-x,y,-z
-x,-y,-z
x,y,-z
-x,y,z
x,-y,z
loop_
_atom_site_type_symbol
_atom_site_label
_atom_site_fract_x
_atom_site_fract_y
_atom_site_fract_z
Si Si1 0.057737 0.112257 0.827778
Si Si2 0.850606 0.797471 0.329116
Si Si3 0.697028 0.701296 0.827988
Si Si4 0.500000 0.383250 0.165754
Si Si5 0.601419 0.385426 0.673087
Si Si6 0.788577 0.610282 0.331899
Si Si7 0.758812 0.110322 0.831249
O O1 0.094729 0.186168 0.743390
O O2 0.000000 0.140011 0.785468
O O3 0.069377 0.000000 0.780823
O O4 0.066706 0.125149 0.000000
O O5 0.855489 0.819502 0.500000
O O6 0.834340 0.684973 0.295509
O O7 0.808684 0.871749 0.265527
O O8 0.646286 0.680479 0.737864
O O9 0.741147 0.627692 0.775380
O O10 0.713758 0.813511 0.792395
O O11 0.686869 0.683720 0.000000
O O12 0.500000 0.500000 0.161900
O O13 0.450250 0.346505 0.252133
O O14 0.500000 0.340120 0.000000
O O15 0.597001 0.368150 0.500000
O O16 0.611638 0.500000 0.709831
O O17 0.769717 0.625673 0.500000
O O18 0.809281 0.500000 0.306895
O O19 0.738437 0.000000 0.801262
O O20 0.775614 0.124536 0.000000
#
# Coordination Sequence:
#
# PCOD8194894 Si02
#       7
#     8   8   8   4   8   8   8
#     4   9  18  32  48  65  87 116 145 172 211 265
#     4  10  19  29  45  69  91 112 143 182 219 255
#     4  10  19  29  44  67  90 114 149 188 219 251
#     4   9  17  29  45  65  88 115 150 189 221 252
#     4  10  19  30  44  63  91 124 151 177 217 267
#     4   9  18  32  46  61  87 121 150 176 213 261
#     4   9  18  32  47  63  88 121 150 176 214 265
#
# _framework density 16.043436
#
# number of rings (size 3 to 8) (size 9 to 14) (size 15 to 20)
#    0.000    2.538    0.000    3.000    0.000    8.000 
#    0.000    0.769    0.000    0.462    0.000    3.769 
#    0.000    4.308    0.000    0.000    0.000    0.000 
#
# Total GULP energy -644841.374906 kJ/mol
# GULP energy per Si atom -12400.795671 kJ/mol
# Density = 1.600692 g / cm^3
# Si number density = 16.043436 Si / 1000 Ang^3
#
#
#
# Elastic Constant Matrix: (Units=GPa)
#
#
# Indices 1 2 3 4 5 6 
#
# 1 130.5972 56.3839 64.4974 0.0000 0.0000 0.0000
# 2 56.3839 93.0492 40.1813 0.0000 0.0000 0.0000
# 3 64.4974 40.1813 84.8994 0.0000 0.0000 0.0000
# 4 0.0000 0.0000 0.0000 21.6613 0.0000 0.0000
# 5 0.0000 0.0000 0.0000 0.0000 31.0924 0.0000
# 6 0.0000 0.0000 0.0000 0.0000 0.0000 22.0776
#
#
#
# Elastic Compliance Matrix: (Units=1/GPa)
#
#
# Indices 1 2 3 4 5 6 
#
# 1 0.013780 -0.004813 -0.008191 0.000000 0.000000 0.000000
# 2 -0.004813 0.015189 -0.003532 0.000000 0.000000 0.000000
# 3 -0.008191 -0.003532 0.019673 0.000000 0.000000 0.000000
# 4 0.000000 0.000000 0.000000 0.046165 0.000000 0.000000
# 5 0.000000 0.000000 0.000000 0.000000 0.032162 0.000000
# 6 0.000000 0.000000 0.000000 0.000000 0.000000 0.045295
#
#
# Mechanical properties :
#
#
# Convention : Reuss Voigt Hill
#
# Bulk Modulus (GPa) = 64.22673 70.07454 67.15064
# Shear Modulus (GPa) = 23.75000 24.79849 24.27424
#
# Velocity S-wave (km/s) = 3.85171 3.93582 3.89399
# Velocity P-wave (km/s) = 7.73957 8.02665 7.88441
#
# Compressibility (1/GPa) = 0.01556984
#
# Stress axis : x y z
#
# Youngs Moduli (GPa) = 72.56702 65.83768 50.83174
#
# Poissons Ratio (x) = 0.31690 0.41635
# Poissons Ratio (y) = 0.34929 0.17954
# Poissons Ratio (z) = 0.59438 0.23254
#
# Static dielectric constant tensor:
#      x y z
#    x 2.987310 0.000000 0.000000 
#    y 0.000000 2.963580 0.000000 
#    z 0.000000 0.000000 3.147920 
# 
# 
# High freq. dielectric constant tensor:
#      x y z
#    x 1.607530 0.000000 0.000000 
#    y 0.000000 1.594750 0.000000 
#    z 0.000000 0.000000 1.628790 
# 
# From -- ./inp_files/7698.got.cif
#   From: 2010.03.12/outbox.cif.g09.slc.cpg/sg47_4_cif.got.tgz:7698.got - 2010.04.14 03:12:58.
