data_PCOD8194244
_publ_section_title
;
Structure prediction by ZEFSAII (Michael W. Deem and Ramdas Pophale) SiO2 
 PCOD8194244
Probable space group: P M M M
;
_chemical_formula_sum "Si O2"
_cell_formula_units_Z 64
_cell_length_a 14.301835
_cell_length_b 9.258068
_cell_length_c 31.100727
_cell_angle_alpha 90.000000
_cell_angle_beta 90.000000
_cell_angle_gamma 90.000000
_cell_volume 4117.965186
_symmetry_space_group_name_H-M "P M M M"
_symmetry_group_IT_number 47
_symmetry_cell_setting 'orthorhombic'
loop_
_space_group_symop_operation_xyz
x,y,z
-x,-y,z
x,-y,-z
-x,y,-z
-x,-y,-z
x,y,-z
-x,y,z
x,-y,z
loop_
_atom_site_type_symbol
_atom_site_label
_atom_site_fract_x
_atom_site_fract_y
_atom_site_fract_z
Si Si1 0.893410 0.167446 0.586140
Si Si2 0.895894 0.335823 0.327497
Si Si3 0.388790 0.662016 0.127668
Si Si4 0.731341 0.332729 0.548110
Si Si5 0.388802 0.837767 0.047504
Si Si6 0.608641 0.830618 0.211815
Si Si7 0.395853 0.329031 0.625071
Si Si8 0.294028 0.333100 0.712170
O O1 0.874897 0.230560 0.633273
O O2 0.828211 0.246434 0.551720
O O3 0.000000 0.193249 0.571722
O O4 0.867755 0.000000 0.587528
O O5 0.886847 0.500000 0.344797
O O6 0.818098 0.310088 0.290784
O O7 0.000000 0.307806 0.308319
O O8 0.500000 0.660121 0.125455
O O9 0.348904 0.500000 0.131918
O O10 0.347273 0.732581 0.084051
O O11 0.355559 0.755506 0.168262
O O12 0.691026 0.310851 0.500000
O O13 0.752544 0.500000 0.557498
O O14 0.656919 0.270805 0.582562
O O15 0.500000 0.838125 0.050019
O O16 0.351821 0.000000 0.055842
O O17 0.356771 0.784394 0.000000
O O18 0.500000 0.795981 0.220353
O O19 0.668417 0.768310 0.250637
O O20 0.626706 0.000000 0.207396
O O21 0.500000 0.261636 0.626276
O O22 0.402252 0.500000 0.622683
O O23 0.340365 0.281403 0.667570
O O24 0.319414 0.500000 0.722133
#
# Coordination Sequence:
#
# PCOD8194244 Si02
#       8
#     8   8   8   8   8   8   8   8
#     4  10  20  33  50  71  94 117 138 166 207 251
#     4   9  17  31  52  74  94 114 137 167 204 250
#     4   9  16  25  37  53  75 105 143 187 230 267
#     4  10  20  34  51  70  91 116 146 175 206 248
#     4   8  13  21  33  49  71 102 140 182 228 273
#     4  10  20  31  42  59  85 116 149 184 222 262
#     4   9  17  30  48  70  92 112 138 175 214 247
#     4  10  18  30  49  69  89 112 139 173 212 254
#
# _framework density 15.541657000000001
#
# number of rings (size 3 to 8) (size 9 to 14) (size 15 to 20)
#    0.000    2.625    1.250    1.875    0.000    5.000 
#    0.000    3.750    0.000    0.375    0.000    0.875 
#    0.000    0.000    0.000    0.000    0.000    0.625 
#
# Total GULP energy -793436.046823 kJ/mol
# GULP energy per Si atom -12397.438232 kJ/mol
# Density = 1.550628 g / cm^3
# Si number density = 15.541657 Si / 1000 Ang^3
#
#
#
# Elastic Constant Matrix: (Units=GPa)
#
#
# Indices 1 2 3 4 5 6 
#
# 1 70.1391 31.4071 43.0232 0.0000 0.0000 0.0000
# 2 31.4071 76.2441 54.1891 0.0000 0.0000 0.0000
# 3 43.0232 54.1891 124.3662 0.0000 0.0000 0.0000
# 4 0.0000 0.0000 0.0000 24.1020 0.0000 0.0000
# 5 0.0000 0.0000 0.0000 0.0000 6.9351 0.0000
# 6 0.0000 0.0000 0.0000 0.0000 0.0000 14.1694
#
#
#
# Elastic Compliance Matrix: (Units=1/GPa)
#
#
# Indices 1 2 3 4 5 6 
#
# 1 0.019153 -0.004607 -0.004618 0.000000 0.000000 0.000000
# 2 -0.004607 0.020108 -0.007168 0.000000 0.000000 0.000000
# 3 -0.004618 -0.007168 0.012762 0.000000 0.000000 0.000000
# 4 0.000000 0.000000 0.000000 0.041490 0.000000 0.000000
# 5 0.000000 0.000000 0.000000 0.000000 0.144195 0.000000
# 6 0.000000 0.000000 0.000000 0.000000 0.000000 0.070575
#
#
# Mechanical properties :
#
#
# Convention : Reuss Voigt Hill
#
# Bulk Modulus (GPa) = 51.98550 58.66533 55.32542
# Shear Modulus (GPa) = 14.38927 18.51663 16.45295
#
# Velocity S-wave (km/s) = 3.04608 3.45544 3.25720
# Velocity P-wave (km/s) = 6.77445 7.33138 7.05841
#
# Compressibility (1/GPa) = 0.01923613
#
# Stress axis : x y z
#
# Youngs Moduli (GPa) = 52.21005 49.73168 78.36061
#
# Poissons Ratio (x) = 0.22913 0.36190
# Poissons Ratio (y) = 0.24055 0.56166
# Poissons Ratio (z) = 0.24113 0.35646
#
# Static dielectric constant tensor:
#      x y z
#    x 2.868350 0.000000 0.000000 
#    y 0.000000 2.978840 0.000000 
#    z 0.000000 0.000000 2.987040 
# 
# 
# High freq. dielectric constant tensor:
#      x y z
#    x 1.557540 0.000000 0.000000 
#    y 0.000000 1.591570 0.000000 
#    z 0.000000 0.000000 1.588770 
# 
# From -- ./inp_files/22178.got.cif
#   From: 2010.03.12/outbox.cif.g09.slc.cpg/sg47_12_cif.got.tgz:22178.got - 2010.04.14 03:12:58.
