data_PCOD8194607
_publ_section_title
;
Structure prediction by ZEFSAII (Michael W. Deem and Ramdas Pophale) SiO2 
 PCOD8194607
Probable space group: P M M M
;
_chemical_formula_sum "Si O2"
_cell_formula_units_Z 56
_cell_length_a 8.999393
_cell_length_b 15.124432
_cell_length_c 22.259133
_cell_angle_alpha 90.000000
_cell_angle_beta 90.000000
_cell_angle_gamma 90.000000
_cell_volume 3029.706340
_symmetry_space_group_name_H-M "P M M M"
_symmetry_group_IT_number 47
_symmetry_cell_setting 'orthorhombic'
loop_
_space_group_symop_operation_xyz
x,y,z
-x,-y,z
x,-y,-z
-x,y,-z
-x,-y,-z
x,y,-z
-x,y,z
x,-y,z
loop_
_atom_site_type_symbol
_atom_site_label
_atom_site_fract_x
_atom_site_fract_y
_atom_site_fract_z
Si Si1 0.170332 0.827313 0.616024
Si Si2 0.324240 0.899984 0.500000
Si Si3 0.173819 0.099908 0.930899
Si Si4 0.675014 0.347411 0.345706
Si Si5 0.324150 0.218659 0.166518
Si Si6 0.830899 0.901001 0.740642
Si Si7 0.675318 0.596687 0.787324
Si Si8 0.324341 0.500000 0.566583
O O1 0.268156 0.851078 0.558943
O O2 0.225874 0.737715 0.645405
O O3 0.190044 0.899498 0.668664
O O4 0.000000 0.819392 0.595327
O O5 0.500000 0.896270 0.500000
O O6 0.263896 0.000000 0.500000
O O7 0.257201 0.173233 0.892187
O O8 0.000000 0.109158 0.918614
O O9 0.224898 0.000000 0.913904
O O10 0.211979 0.119102 0.000000
O O11 0.500000 0.324764 0.349007
O O12 0.717985 0.389456 0.281999
O O13 0.726756 0.413447 0.397964
O O14 0.500000 0.216276 0.161458
O O15 0.278943 0.166229 0.226466
O O16 0.265799 0.320616 0.172472
O O17 0.000000 0.875308 0.757716
O O18 0.794862 0.000000 0.762871
O O19 0.500000 0.594118 0.793565
O O20 0.739752 0.500000 0.808059
O O21 0.500000 0.500000 0.562090
O O22 0.252567 0.500000 0.500000
#
# Coordination Sequence:
#
# PCOD8194607 Si02
#       8
#     8   4   8   8   8   8   8   4
#     4  11  23  38  56  78 107 140 175 218 273 331
#     4  11  25  43  61  78  97 130 179 229 272 323
#     4   9  19  37  59  81 111 155 196 224 264 330
#     4  10  18  33  55  77 104 138 179 224 271 324
#     4  11  21  32  53  86 116 142 182 234 278 315
#     4  10  21  36  53  74 106 148 183 212 260 329
#     4   9  17  32  53  77 108 147 186 224 273 331
#     4   9  18  30  51  81 103 131 179 228 273 329
#
# _framework density 18.483640999999999
#
# number of rings (size 3 to 8) (size 9 to 14) (size 15 to 20)
#    0.000    2.000    2.143    2.357    1.000    4.286 
#    0.000    1.071    0.000    4.286    0.000    3.000 
#    0.000    0.000    0.000    0.000    0.000    0.000 
#
# Total GULP energy -694244.261394 kJ/mol
# GULP energy per Si atom -12397.218953 kJ/mol
# Density = 1.844157 g / cm^3
# Si number density = 18.483641 Si / 1000 Ang^3
#
#
#
# Elastic Constant Matrix: (Units=GPa)
#
#
# Indices 1 2 3 4 5 6 
#
# 1 48.8779 36.9485 31.5124 0.0000 0.0000 0.0000
# 2 36.9485 144.1627 58.9198 0.0000 0.0000 0.0000
# 3 31.5124 58.9198 103.6992 0.0000 0.0000 0.0000
# 4 0.0000 0.0000 0.0000 29.2242 0.0000 0.0000
# 5 0.0000 0.0000 0.0000 0.0000 22.5332 0.0000
# 6 0.0000 0.0000 0.0000 0.0000 0.0000 13.1895
#
#
#
# Elastic Compliance Matrix: (Units=1/GPa)
#
#
# Indices 1 2 3 4 5 6 
#
# 1 0.027758 -0.004776 -0.005722 0.000000 0.000000 0.000000
# 2 -0.004776 0.009856 -0.004149 0.000000 0.000000 0.000000
# 3 -0.005722 -0.004149 0.013739 0.000000 0.000000 0.000000
# 4 0.000000 0.000000 0.000000 0.034218 0.000000 0.000000
# 5 0.000000 0.000000 0.000000 0.000000 0.044379 0.000000
# 6 0.000000 0.000000 0.000000 0.000000 0.000000 0.075818
#
#
# Mechanical properties :
#
#
# Convention : Reuss Voigt Hill
#
# Bulk Modulus (GPa) = 45.32882 61.27789 53.30335
# Shear Modulus (GPa) = 20.62574 24.27999 22.45286
#
# Velocity S-wave (km/s) = 3.34412 3.62828 3.48910
# Velocity P-wave (km/s) = 6.28394 7.12580 6.71807
#
# Compressibility (1/GPa) = 0.02206102
#
# Stress axis : x y z
#
# Youngs Moduli (GPa) = 36.02528 101.45790 72.78396
#
# Poissons Ratio (x) = 0.48455 0.41645
# Poissons Ratio (y) = 0.17205 0.30197
# Poissons Ratio (z) = 0.20613 0.42093
#
# Static dielectric constant tensor:
#      x y z
#    x 3.153920 0.000000 0.000000 
#    y 0.000000 3.897420 0.000000 
#    z 0.000000 0.000000 3.433380 
# 
# 
# High freq. dielectric constant tensor:
#      x y z
#    x 1.694030 0.000000 0.000000 
#    y 0.000000 1.726660 0.000000 
#    z 0.000000 0.000000 1.710320 
# 
# From -- ./inp_files/29817.got.cif
#   From: 2010.03.12/outbox.cif.g09.slc.cpg/sg47_15_cif.got.tgz:29817.got - 2010.04.14 03:12:58.
