data_PCOD8194754
_publ_section_title
;
Structure prediction by ZEFSAII (Michael W. Deem and Ramdas Pophale) SiO2 
 PCOD8194754
Probable space group: P M M M
;
_chemical_formula_sum "Si O2"
_cell_formula_units_Z 48
_cell_length_a 19.109100
_cell_length_b 15.441127
_cell_length_c 8.886895
_cell_angle_alpha 90.000000
_cell_angle_beta 90.000000
_cell_angle_gamma 90.000000
_cell_volume 2622.220915
_symmetry_space_group_name_H-M "P M M M"
_symmetry_group_IT_number 47
_symmetry_cell_setting 'orthorhombic'
loop_
_space_group_symop_operation_xyz
x,y,z
-x,-y,z
x,-y,-z
-x,y,-z
-x,-y,-z
x,y,-z
-x,y,z
x,-y,z
loop_
_atom_site_type_symbol
_atom_site_label
_atom_site_fract_x
_atom_site_fract_y
_atom_site_fract_z
Si Si1 0.830944 0.254033 0.821241
Si Si2 0.578277 0.596038 0.178958
Si Si3 0.079884 0.400527 0.324871
Si Si4 0.578363 0.096212 0.821038
Si Si5 0.921436 0.095854 0.821077
Si Si6 0.673184 0.749700 0.179798
O O1 0.868354 0.341450 0.770267
O O2 0.870503 0.169528 0.754753
O O3 0.752067 0.251880 0.757924
O O4 0.831131 0.252089 0.000000
O O5 0.500000 0.618607 0.236130
O O6 0.600082 0.500000 0.234807
O O7 0.633062 0.665418 0.244132
O O8 0.578881 0.599049 0.000000
O O9 0.090863 0.381484 0.500000
O O10 0.097814 0.500000 0.287601
O O11 0.000000 0.380152 0.278240
O O12 0.500000 0.119532 0.764628
O O13 0.633851 0.165172 0.756504
O O14 0.599513 0.000000 0.764792
O O15 0.579196 0.098840 0.000000
O O16 0.000000 0.114024 0.762136
O O17 0.896709 0.000000 0.767487
O O18 0.920755 0.099281 0.000000
O O19 0.672698 0.749876 0.000000
#
# Coordination Sequence:
#
# PCOD8194754 Si02
#       6
#     8   8   8   8   8   8
#     4  10  19  28  43  70  97 118 143 182 231 273
#     4   8  13  21  32  44  63  99 140 167 194 243
#     4   9  19  36  54  68  85 115 152 184 218 267
#     4   8  13  21  33  49  74 115 161 192 214 251
#     4   8  14  25  40  58  83 115 146 173 205 252
#     4   9  16  23  32  52  83 112 136 172 222 263
#
# _framework density 18.305092999999999
#
# number of rings (size 3 to 8) (size 9 to 14) (size 15 to 20)
#    0.000    3.333    0.000    3.000    0.000    4.667 
#    0.000    5.833    0.000    0.500    0.000    2.333 
#    0.000    2.667    0.000   11.000    0.000    8.667 
#
# Total GULP energy -594896.825584 kJ/mol
# GULP energy per Si atom -12393.683866 kJ/mol
# Density = 1.826343 g / cm^3
# Si number density = 18.305093 Si / 1000 Ang^3
#
#
#
# Elastic Constant Matrix: (Units=GPa)
#
#
# Indices 1 2 3 4 5 6 
#
# 1 158.4696 110.0268 11.1111 0.0000 0.0000 0.0000
# 2 110.0268 163.7751 10.6091 0.0000 0.0000 0.0000
# 3 11.1111 10.6091 4.9772 0.0000 0.0000 0.0000
# 4 0.0000 0.0000 0.0000 6.2079 0.0000 0.0000
# 5 0.0000 0.0000 0.0000 0.0000 6.0878 0.0000
# 6 0.0000 0.0000 0.0000 0.0000 0.0000 22.1608
#
#
#
# Elastic Compliance Matrix: (Units=1/GPa)
#
#
# Indices 1 2 3 4 5 6 
#
# 1 0.012368 -0.007565 -0.011485 0.000000 0.000000 0.000000
# 2 -0.007565 0.011711 -0.008075 0.000000 0.000000 0.000000
# 3 -0.011485 -0.008075 0.243766 0.000000 0.000000 0.000000
# 4 0.000000 0.000000 0.000000 0.161084 0.000000 0.000000
# 5 0.000000 0.000000 0.000000 0.000000 0.164264 0.000000
# 6 0.000000 0.000000 0.000000 0.000000 0.000000 0.045125
#
#
# Mechanical properties :
#
#
# Convention : Reuss Voigt Hill
#
# Bulk Modulus (GPa) = 4.68174 65.63511 35.15843
# Shear Modulus (GPa) = 6.54649 19.92296 13.23473
#
# Velocity S-wave (km/s) = 1.89317 3.30264 2.69180
# Velocity P-wave (km/s) = 2.70960 7.10474 5.37677
#
# Compressibility (1/GPa) = 0.21359564
#
# Stress axis : x y z
#
# Youngs Moduli (GPa) = 80.85240 85.38682 4.10229
#
# Poissons Ratio (x) = 0.64597 0.04712
# Poissons Ratio (y) = 0.61166 0.03312
# Poissons Ratio (z) = 0.92862 0.68947
#
# Static dielectric constant tensor:
#      x y z
#    x 3.597610 0.000000 0.000000 
#    y 0.000000 3.744870 0.000000 
#    z 0.000000 0.000000 2.565510 
# 
# 
# High freq. dielectric constant tensor:
#      x y z
#    x 1.710790 0.000000 0.000000 
#    y 0.000000 1.727530 0.000000 
#    z 0.000000 0.000000 1.626100 
# 
# From -- ./inp_files/10864.got.cif
#   From: 2010.03.12/outbox.cif.g09.slc.cpg/sg47_6_cif.got.tgz:10864.got - 2010.04.14 03:12:58.
