data_PCOD8194199
_publ_section_title
;
Structure prediction by ZEFSAII (Michael W. Deem and Ramdas Pophale) SiO2 
 PCOD8194199
Probable space group: P M M M
;
_chemical_formula_sum "Si O2"
_cell_formula_units_Z 44
_cell_length_a 11.583381
_cell_length_b 16.209006
_cell_length_c 15.351148
_cell_angle_alpha 90.000000
_cell_angle_beta 90.000000
_cell_angle_gamma 90.000000
_cell_volume 2882.256207
_symmetry_space_group_name_H-M "P M M M"
_symmetry_group_IT_number 47
_symmetry_cell_setting 'orthorhombic'
loop_
_space_group_symop_operation_xyz
x,y,z
-x,-y,z
x,-y,-z
-x,y,-z
-x,-y,-z
x,y,-z
-x,y,z
x,-y,z
loop_
_atom_site_type_symbol
_atom_site_label
_atom_site_fract_x
_atom_site_fract_y
_atom_site_fract_z
Si Si1 0.000000 0.215978 0.402507
Si Si2 0.870095 0.500000 0.603875
Si Si3 0.636033 0.809388 0.332140
Si Si4 0.777533 0.672482 0.600036
Si Si5 0.000000 0.905181 0.242023
Si Si6 0.362563 0.907298 0.500000
Si Si7 0.751704 0.096493 0.176218
Si Si8 0.630972 0.097563 0.000000
O O1 0.891271 0.273893 0.388639
O O2 0.000000 0.177393 0.500000
O O3 0.000000 0.143813 0.332186
O O4 0.878841 0.500000 0.500000
O O5 0.801390 0.580720 0.636607
O O6 0.000000 0.500000 0.642407
O O7 0.500000 0.810978 0.327673
O O8 0.677583 0.714761 0.342054
O O9 0.684600 0.860416 0.415038
O O10 0.684062 0.851142 0.246676
O O11 0.736651 0.668164 0.500000
O O12 0.888262 0.884723 0.182958
O O13 0.000000 0.000000 0.270374
O O14 0.500000 0.908239 0.500000
O O15 0.312929 0.000000 0.500000
O O16 0.703456 0.127435 0.083616
O O17 0.725219 0.000000 0.191242
O O18 0.500000 0.134215 0.000000
O O19 0.622668 0.000000 0.000000
#
# Coordination Sequence:
#
# PCOD8194199 Si02
#       8
#     4   4   8   8   4   4   8   4
#     4  10  18  30  47  65  93 132 166 198 233 270
#     4   9  16  28  47  69  85 112 158 202 236 284
#     4  11  20  30  45  65  93 128 161 194 236 281
#     4  10  18  30  47  67  91 121 159 200 240 277
#     4  10  20  32  45  69  99 128 162 197 244 287
#     4   9  18  30  42  58  85 124 168 200 222 264
#     4  10  20  33  49  68  93 124 162 205 242 282
#     4   9  18  33  51  69  89 119 161 204 244 284
#
# _framework density 15.265819
#
# number of rings (size 3 to 8) (size 9 to 14) (size 15 to 20)
#    0.000    2.091    3.636    1.091    0.000    2.364 
#    0.000    2.273    0.000    1.636    0.000    0.000 
#    0.000    0.727    0.000    5.273    0.000    0.182 
#
# Total GULP energy -545556.751410 kJ/mol
# GULP energy per Si atom -12399.017077 kJ/mol
# Density = 1.523107 g / cm^3
# Si number density = 15.265819 Si / 1000 Ang^3
#
#
#
# Elastic Constant Matrix: (Units=GPa)
#
#
# Indices 1 2 3 4 5 6 
#
# 1 94.4617 44.8550 52.1252 0.0000 0.0000 0.0000
# 2 44.8550 93.1982 48.9610 0.0000 0.0000 0.0000
# 3 52.1252 48.9610 109.1677 0.0000 0.0000 0.0000
# 4 0.0000 0.0000 0.0000 8.1257 0.0000 0.0000
# 5 0.0000 0.0000 0.0000 0.0000 13.6336 0.0000
# 6 0.0000 0.0000 0.0000 0.0000 0.0000 28.0231
#
#
#
# Elastic Compliance Matrix: (Units=1/GPa)
#
#
# Indices 1 2 3 4 5 6 
#
# 1 0.015848 -0.004778 -0.005424 0.000000 0.000000 0.000000
# 2 -0.004778 0.015478 -0.004660 0.000000 0.000000 0.000000
# 3 -0.005424 -0.004660 0.013840 0.000000 0.000000 0.000000
# 4 0.000000 0.000000 0.000000 0.123066 0.000000 0.000000
# 5 0.000000 0.000000 0.000000 0.000000 0.073348 0.000000
# 6 0.000000 0.000000 0.000000 0.000000 0.000000 0.035685
#
#
# Mechanical properties :
#
#
# Convention : Reuss Voigt Hill
#
# Bulk Modulus (GPa) = 64.76191 65.41223 65.08707
# Shear Modulus (GPa) = 16.01860 20.01558 18.01709
#
# Velocity S-wave (km/s) = 3.24282 3.62489 3.43917
# Velocity P-wave (km/s) = 7.51905 7.77571 7.64845
#
# Compressibility (1/GPa) = 0.01544117
#
# Stress axis : x y z
#
# Youngs Moduli (GPa) = 63.09813 64.60949 72.25262
#
# Poissons Ratio (x) = 0.30870 0.39192
# Poissons Ratio (y) = 0.30148 0.33672
# Poissons Ratio (z) = 0.34227 0.30110
#
# Static dielectric constant tensor:
#      x y z
#    x 3.116140 0.000000 0.000000 
#    y 0.000000 2.935970 0.000000 
#    z 0.000000 0.000000 2.829450 
# 
# 
# High freq. dielectric constant tensor:
#      x y z
#    x 1.594880 0.000000 0.000000 
#    y 0.000000 1.564090 0.000000 
#    z 0.000000 0.000000 1.556830 
# 
# From -- ./inp_files/22672.got.cif
#   From: 2010.03.12/outbox.cif.g09.slc.cpg/sg47_12_cif.got.tgz:22672.got - 2010.04.14 03:12:58.
