data_PCOD8194037
_publ_section_title
;
Structure prediction by ZEFSAII (Michael W. Deem and Ramdas Pophale) SiO2 
 PCOD8194037
Probable space group: P M M M
;
_chemical_formula_sum "Si O2"
_cell_formula_units_Z 52
_cell_length_a 12.330053
_cell_length_b 29.670574
_cell_length_c 9.942327
_cell_angle_alpha 90.000000
_cell_angle_beta 90.000000
_cell_angle_gamma 90.000000
_cell_volume 3637.298424
_symmetry_space_group_name_H-M "P M M M"
_symmetry_group_IT_number 47
_symmetry_cell_setting 'orthorhombic'
loop_
_space_group_symop_operation_xyz
x,y,z
-x,-y,z
x,-y,-z
-x,y,-z
-x,-y,-z
x,y,-z
-x,y,z
x,-y,z
loop_
_atom_site_type_symbol
_atom_site_label
_atom_site_fract_x
_atom_site_fract_y
_atom_site_fract_z
Si Si1 0.371176 0.275051 0.849292
Si Si2 0.374518 0.198250 0.346756
Si Si3 0.500000 0.949381 0.340239
Si Si4 0.127071 0.948454 0.846627
Si Si5 0.370888 0.624929 0.849241
Si Si6 0.713025 0.898920 0.656805
Si Si7 0.629059 0.449936 0.650644
O O1 0.500000 0.274709 0.844073
O O2 0.325766 0.237817 0.746479
O O3 0.330046 0.325028 0.807471
O O4 0.331130 0.263363 0.000000
O O5 0.363850 0.214638 0.500000
O O6 0.500000 0.187128 0.313252
O O7 0.302906 0.154156 0.321003
O O8 0.500000 0.947988 0.500000
O O9 0.393106 0.924412 0.287320
O O10 0.500000 0.000000 0.283622
O O11 0.185579 0.914929 0.744025
O O12 0.000000 0.940824 0.827753
O O13 0.157967 0.000000 0.811845
O O14 0.161162 0.937400 0.000000
O O15 0.500000 0.623553 0.842887
O O16 0.320084 0.587573 0.749662
O O17 0.331566 0.613652 0.000000
O O18 0.734005 0.910064 0.500000
O O19 0.670483 0.439712 0.500000
O O20 0.500000 0.447685 0.654277
O O21 0.667069 0.500000 0.695751
#
# Coordination Sequence:
#
# PCOD8194037 Si02
#       7
#     8   8   4   8   8   8   8
#     4   8  14  23  33  45  62  85 114 145 175 212
#     4   9  16  26  38  54  77 100 121 147 181 221
#     4   9  16  26  41  61  85 109 127 149 186 225
#     4   9  19  35  50  63  82 106 130 159 194 227
#     4   8  13  20  28  38  52  71  99 135 171 208
#     4  10  18  29  45  65  85 105 131 159 187 226
#     4   8  13  19  25  34  49  68  92 126 169 216
#
# _framework density 14.296325
#
# number of rings (size 3 to 8) (size 9 to 14) (size 15 to 20)
#    0.000    3.308    0.769    2.308    0.000    2.769 
#    0.000    5.769    0.000    1.385    0.000    0.000 
#    0.000    0.000    0.000    0.000    0.000    0.000 
#
# Total GULP energy -644481.157248 kJ/mol
# GULP energy per Si atom -12393.868409 kJ/mol
# Density = 1.426379 g / cm^3
# Si number density = 14.296325 Si / 1000 Ang^3
#
#
#
# Elastic Constant Matrix: (Units=GPa)
#
#
# Indices 1 2 3 4 5 6 
#
# 1 26.0214 23.3359 25.5735 0.0000 0.0000 0.0000
# 2 23.3359 119.9148 77.7041 0.0000 0.0000 0.0000
# 3 25.5735 77.7041 91.2215 0.0000 0.0000 0.0000
# 4 0.0000 0.0000 0.0000 32.2842 0.0000 0.0000
# 5 0.0000 0.0000 0.0000 0.0000 13.9997 0.0000
# 6 0.0000 0.0000 0.0000 0.0000 0.0000 5.9360
#
#
#
# Elastic Compliance Matrix: (Units=1/GPa)
#
#
# Indices 1 2 3 4 5 6 
#
# 1 0.053171 -0.001536 -0.013598 0.000000 0.000000 0.000000
# 2 -0.001536 0.018658 -0.015462 0.000000 0.000000 0.000000
# 3 -0.013598 -0.015462 0.027946 0.000000 0.000000 0.000000
# 4 0.000000 0.000000 0.000000 0.030975 0.000000 0.000000
# 5 0.000000 0.000000 0.000000 0.000000 0.071430 0.000000
# 6 0.000000 0.000000 0.000000 0.000000 0.000000 0.168463
#
#
# Mechanical properties :
#
#
# Convention : Reuss Voigt Hill
#
# Bulk Modulus (GPa) = 25.91882 54.48718 40.20300
# Shear Modulus (GPa) = 11.24365 17.81360 14.52862
#
# Velocity S-wave (km/s) = 2.80745 3.53374 3.19132
# Velocity P-wave (km/s) = 5.35520 7.40576 6.46233
#
# Compressibility (1/GPa) = 0.03858200
#
# Stress axis : x y z
#
# Youngs Moduli (GPa) = 18.80716 53.59726 35.78380
#
# Poissons Ratio (x) = 0.08232 0.48659
# Poissons Ratio (y) = 0.02889 0.55330
# Poissons Ratio (z) = 0.25574 0.82874
#
# Static dielectric constant tensor:
#      x y z
#    x 2.219260 0.000000 0.000000 
#    y 0.000000 3.050930 0.000000 
#    z 0.000000 0.000000 2.896570 
# 
# 
# High freq. dielectric constant tensor:
#      x y z
#    x 1.470830 0.000000 0.000000 
#    y 0.000000 1.554980 0.000000 
#    z 0.000000 0.000000 1.547190 
# 
# From -- ./inp_files/4811.got.cif
#   From: 2010.03.12/outbox.cif.g09.slc.cpg/sg47_3_cif.got.tgz:4811.got - 2010.04.14 03:12:58.
