data_PCOD8194699
_publ_section_title
;
Structure prediction by ZEFSAII (Michael W. Deem and Ramdas Pophale) SiO2 
 PCOD8194699
Probable space group: P M M M
;
_chemical_formula_sum "Si O2"
_cell_formula_units_Z 52
_cell_length_a 9.142705
_cell_length_b 13.750338
_cell_length_c 26.199953
_cell_angle_alpha 90.000000
_cell_angle_beta 90.000000
_cell_angle_gamma 90.000000
_cell_volume 3293.734532
_symmetry_space_group_name_H-M "P M M M"
_symmetry_group_IT_number 47
_symmetry_cell_setting 'orthorhombic'
loop_
_space_group_symop_operation_xyz
x,y,z
-x,-y,z
x,-y,-z
-x,y,-z
-x,-y,-z
x,y,-z
-x,y,z
x,-y,z
loop_
_atom_site_type_symbol
_atom_site_label
_atom_site_fract_x
_atom_site_fract_y
_atom_site_fract_z
Si Si1 0.834343 0.383930 0.000000
Si Si2 0.828405 0.387607 0.200189
Si Si3 0.669059 0.390227 0.602145
Si Si4 0.669195 0.109557 0.355130
Si Si5 0.665112 0.384414 0.098869
Si Si6 0.667474 0.292229 0.708288
Si Si7 0.168774 0.214547 0.441843
O O1 0.750957 0.343231 0.049777
O O2 0.834701 0.500000 0.000000
O O3 0.000000 0.344166 0.000000
O O4 0.788670 0.500000 0.211156
O O5 0.747867 0.349279 0.149581
O O6 0.775452 0.321925 0.246797
O O7 0.000000 0.373685 0.192158
O O8 0.500000 0.376988 0.587663
O O9 0.722213 0.500000 0.592799
O O10 0.694173 0.364519 0.661245
O O11 0.761594 0.320670 0.565785
O O12 0.500000 0.123507 0.369642
O O13 0.708825 0.182507 0.308982
O O14 0.758611 0.133665 0.406032
O O15 0.704805 0.000000 0.337311
O O16 0.500000 0.343163 0.098893
O O17 0.663288 0.500000 0.096531
O O18 0.500000 0.298871 0.727400
O O19 0.191653 0.181200 0.500000
O O20 0.000000 0.222116 0.427176
#
# Coordination Sequence:
#
# PCOD8194699 Si02
#       7
#     4   8   8   8   8   8   8
#     4   9  15  23  35  51  75 107 144 187 228 261
#     4  10  19  28  39  59  87 117 148 180 214 252
#     4   9  18  32  49  67  87 115 150 182 211 248
#     4   9  19  36  55  71  86 108 140 176 215 261
#     4   9  16  25  37  53  75 108 150 189 221 253
#     4   9  17  30  47  65  85 108 136 173 215 257
#     4  10  21  34  47  67  94 118 140 171 212 257
#
# _framework density 15.78755
#
# number of rings (size 3 to 8) (size 9 to 14) (size 15 to 20)
#    0.000    2.692    0.000    3.000    0.000    9.231 
#    0.000    3.077    0.000    0.000    0.000    0.000 
#    0.000    0.000    0.000    0.692    0.000   14.385 
#
# Total GULP energy -644817.536428 kJ/mol
# GULP energy per Si atom -12400.337239 kJ/mol
# Density = 1.575162 g / cm^3
# Si number density = 15.787550 Si / 1000 Ang^3
#
#
#
# Elastic Constant Matrix: (Units=GPa)
#
#
# Indices 1 2 3 4 5 6 
#
# 1 101.1289 32.4789 59.7097 0.0000 0.0000 0.0000
# 2 32.4789 74.4953 31.6377 0.0000 0.0000 0.0000
# 3 59.7097 31.6377 97.6689 0.0000 0.0000 0.0000
# 4 0.0000 0.0000 0.0000 9.6054 0.0000 0.0000
# 5 0.0000 0.0000 0.0000 0.0000 31.9487 0.0000
# 6 0.0000 0.0000 0.0000 0.0000 0.0000 11.4788
#
#
#
# Elastic Compliance Matrix: (Units=1/GPa)
#
#
# Indices 1 2 3 4 5 6 
#
# 1 0.016145 -0.003301 -0.008801 0.000000 0.000000 0.000000
# 2 -0.003301 0.016240 -0.003242 0.000000 0.000000 0.000000
# 3 -0.008801 -0.003242 0.016669 0.000000 0.000000 0.000000
# 4 0.000000 0.000000 0.000000 0.104108 0.000000 0.000000
# 5 0.000000 0.000000 0.000000 0.000000 0.031300 0.000000
# 6 0.000000 0.000000 0.000000 0.000000 0.000000 0.087117
#
#
# Mechanical properties :
#
#
# Convention : Reuss Voigt Hill
#
# Bulk Modulus (GPa) = 54.45038 57.88285 56.16662
# Shear Modulus (GPa) = 16.21325 20.57104 18.39215
#
# Velocity S-wave (km/s) = 3.20811 3.61361 3.41688
# Velocity P-wave (km/s) = 6.94888 7.35895 7.15685
#
# Compressibility (1/GPa) = 0.01836534
#
# Stress axis : x y z
#
# Youngs Moduli (GPa) = 61.93913 61.57641 59.99057
#
# Poissons Ratio (x) = 0.20328 0.52796
# Poissons Ratio (y) = 0.20448 0.19451
# Poissons Ratio (z) = 0.54511 0.19965
#
# Static dielectric constant tensor:
#      x y z
#    x 3.097540 0.000000 0.000000 
#    y 0.000000 2.828530 0.000000 
#    z 0.000000 0.000000 2.957930 
# 
# 
# High freq. dielectric constant tensor:
#      x y z
#    x 1.617260 0.000000 0.000000 
#    y 0.000000 1.562620 0.000000 
#    z 0.000000 0.000000 1.601730 
# 
# From -- ./inp_files/7587.got.cif
#   From: 2010.03.12/outbox.cif.g09.slc.cpg/sg47_4_cif.got.tgz:7587.got - 2010.04.14 03:12:58.
