data_PCOD8194349
_publ_section_title
;
Structure prediction by ZEFSAII (Michael W. Deem and Ramdas Pophale) SiO2 
 PCOD8194349
Probable space group: P M M M
;
_chemical_formula_sum "Si O2"
_cell_formula_units_Z 52
_cell_length_a 12.018350
_cell_length_b 27.171058
_cell_length_c 8.783593
_cell_angle_alpha 90.000000
_cell_angle_beta 90.000000
_cell_angle_gamma 90.000000
_cell_volume 2868.293580
_symmetry_space_group_name_H-M "P M M M"
_symmetry_group_IT_number 47
_symmetry_cell_setting 'orthorhombic'
loop_
_space_group_symop_operation_xyz
x,y,z
-x,-y,z
x,-y,-z
-x,y,-z
-x,-y,-z
x,y,-z
-x,y,z
x,-y,z
loop_
_atom_site_type_symbol
_atom_site_label
_atom_site_fract_x
_atom_site_fract_y
_atom_site_fract_z
Si Si1 0.629545 0.724232 0.827385
Si Si2 0.375225 0.000000 0.180691
Si Si3 0.130398 0.445298 0.327379
Si Si4 0.701116 0.620210 0.821161
Si Si5 0.000000 0.056896 0.680604
Si Si6 0.500000 0.555429 0.818053
Si Si7 0.228243 0.090640 0.180332
Si Si8 0.371972 0.825744 0.321963
O O1 0.500000 0.711311 0.824937
O O2 0.692180 0.676183 0.759861
O O3 0.658107 0.769693 0.718235
O O4 0.667204 0.737038 0.000000
O O5 0.309153 0.047487 0.239915
O O6 0.500000 0.000000 0.250188
O O7 0.382098 0.000000 0.000000
O O8 0.171137 0.438040 0.500000
O O9 0.164686 0.500000 0.269789
O O10 0.181117 0.402949 0.222230
O O11 0.000000 0.438844 0.316051
O O12 0.606945 0.584238 0.753026
O O13 0.685863 0.623361 0.000000
O O14 0.892036 0.084887 0.743591
O O15 0.000000 0.060239 0.500000
O O16 0.000000 0.000000 0.735918
O O17 0.500000 0.500000 0.752521
O O18 0.500000 0.554196 0.000000
O O19 0.286249 0.141160 0.228267
O O20 0.212499 0.088899 0.000000
O O21 0.354468 0.834645 0.500000
O O22 0.500000 0.837345 0.273866
#
# Coordination Sequence:
#
# PCOD8194349 Si02
#       8
#     8   4   8   8   4   4   8   8
#     4   9  17  32  53  77 106 140 177 216 264 322
#     4   9  18  31  51  82 116 145 178 221 268 317
#     4   9  19  35  51  68  96 135 174 212 259 314
#     4  10  18  30  51  78 104 133 171 216 262 312
#     4  11  23  39  59  83 117 155 189 225 272 327
#     4   9  16  26  43  73 111 141 163 200 261 320
#     4  11  21  36  59  84 113 148 190 232 271 318
#     4  10  21  36  55  82 114 145 181 225 277 329
#
# _framework density 18.129246999999999
#
# number of rings (size 3 to 8) (size 9 to 14) (size 15 to 20)
#    0.000    2.231    1.538    2.538    0.000    3.692 
#    0.000    1.154    1.692    3.231    0.000    0.000 
#    0.000    0.000    0.000    0.000    0.000    0.000 
#
# Total GULP energy -644789.667355 kJ/mol
# GULP energy per Si atom -12399.801295 kJ/mol
# Density = 1.808798 g / cm^3
# Si number density = 18.129247 Si / 1000 Ang^3
#
#
#
# Elastic Constant Matrix: (Units=GPa)
#
#
# Indices 1 2 3 4 5 6 
#
# 1 99.3885 60.2938 26.7500 0.0000 0.0000 0.0000
# 2 60.2938 128.6326 28.6360 0.0000 0.0000 0.0000
# 3 26.7500 28.6360 40.6999 0.0000 0.0000 0.0000
# 4 0.0000 0.0000 0.0000 25.1385 0.0000 0.0000
# 5 0.0000 0.0000 0.0000 0.0000 23.6872 0.0000
# 6 0.0000 0.0000 0.0000 0.0000 0.0000 28.8235
#
#
#
# Elastic Compliance Matrix: (Units=1/GPa)
#
#
# Indices 1 2 3 4 5 6 
#
# 1 0.015162 -0.005796 -0.005887 0.000000 0.000000 0.000000
# 2 -0.005796 0.011434 -0.004235 0.000000 0.000000 0.000000
# 3 -0.005887 -0.004235 0.031419 0.000000 0.000000 0.000000
# 4 0.000000 0.000000 0.000000 0.039780 0.000000 0.000000
# 5 0.000000 0.000000 0.000000 0.000000 0.042217 0.000000
# 6 0.000000 0.000000 0.000000 0.000000 0.000000 0.034694
#
#
# Mechanical properties :
#
#
# Convention : Reuss Voigt Hill
#
# Bulk Modulus (GPa) = 38.19982 55.56450 46.88216
# Shear Modulus (GPa) = 23.22672 25.73258 24.47965
#
# Velocity S-wave (km/s) = 3.58323 3.77157 3.67861
# Velocity P-wave (km/s) = 6.18352 7.04855 6.63016
#
# Compressibility (1/GPa) = 0.02617813
#
# Stress axis : x y z
#
# Youngs Moduli (GPa) = 65.95234 87.45967 31.82771
#
# Poissons Ratio (x) = 0.50696 0.18738
# Poissons Ratio (y) = 0.38229 0.13479
# Poissons Ratio (z) = 0.38828 0.37039
#
# Static dielectric constant tensor:
#      x y z
#    x 3.237040 0.000000 0.000000 
#    y 0.000000 3.440630 0.000000 
#    z 0.000000 0.000000 3.121490 
# 
# 
# High freq. dielectric constant tensor:
#      x y z
#    x 1.691090 0.000000 0.000000 
#    y 0.000000 1.708320 0.000000 
#    z 0.000000 0.000000 1.685300 
# 
# From -- ./inp_files/4668.got.cif
#   From: 2010.03.12/outbox.cif.g09.slc.cpg/sg47_3_cif.got.tgz:4668.got - 2010.04.14 03:12:58.
