data_PCOD8194200
_publ_section_title
;
Structure prediction by ZEFSAII (Michael W. Deem and Ramdas Pophale) SiO2 
 PCOD8194200
Probable space group: P M M M
;
_chemical_formula_sum "Si O2"
_cell_formula_units_Z 64
_cell_length_a 9.014220
_cell_length_b 19.996182
_cell_length_c 20.234397
_cell_angle_alpha 90.000000
_cell_angle_beta 90.000000
_cell_angle_gamma 90.000000
_cell_volume 3647.249730
_symmetry_space_group_name_H-M "P M M M"
_symmetry_group_IT_number 47
_symmetry_cell_setting 'orthorhombic'
loop_
_space_group_symop_operation_xyz
x,y,z
-x,-y,z
x,-y,-z
-x,y,-z
-x,-y,-z
x,y,-z
-x,y,z
x,-y,z
loop_
_atom_site_type_symbol
_atom_site_label
_atom_site_fract_x
_atom_site_fract_y
_atom_site_fract_z
Si Si1 0.174843 0.286742 0.249230
Si Si2 0.676265 0.925225 0.073749
Si Si3 0.832059 0.127355 0.428062
Si Si4 0.170336 0.074673 0.710772
Si Si5 0.173036 0.427221 0.295940
Si Si6 0.331123 0.605172 0.572867
Si Si7 0.675569 0.169024 0.189460
Si Si8 0.668589 0.249582 0.379731
O O1 0.231644 0.364838 0.251105
O O2 0.254325 0.243887 0.191216
O O3 0.219937 0.252704 0.317909
O O4 0.000000 0.282124 0.238141
O O5 0.500000 0.925628 0.076484
O O6 0.738182 0.870470 0.125279
O O7 0.734213 0.000000 0.091915
O O8 0.730602 0.905772 0.000000
O O9 0.808718 0.092218 0.500000
O O10 0.801289 0.076292 0.368170
O O11 0.717934 0.188571 0.425083
O O12 0.000000 0.154952 0.422511
O O13 0.277663 0.127330 0.745937
O O14 0.000000 0.092753 0.727756
O O15 0.208973 0.000000 0.735151
O O16 0.207949 0.500000 0.262650
O O17 0.238252 0.429025 0.369440
O O18 0.000000 0.416157 0.305099
O O19 0.274432 0.582579 0.500000
O O20 0.500000 0.582099 0.582748
O O21 0.317990 0.684869 0.575943
O O22 0.500000 0.176117 0.187382
O O23 0.500000 0.239872 0.353856
#
# Coordination Sequence:
#
# PCOD8194200 Si02
#       8
#     8   8   8   8   8   8   8   8
#     4  10  19  32  50  70  95 124 155 195 242 290
#     4   8  15  29  49  75 108 142 171 197 228 270
#     4  10  20  32  46  63  85 117 156 198 248 302
#     4  10  21  35  49  66  92 126 161 200 247 294
#     4   9  19  34  49  65  87 118 156 197 239 286
#     4   9  18  30  43  62  88 116 146 183 236 301
#     4  11  20  31  52  79 102 128 163 202 237 276
#     4  10  18  30  47  66  87 114 150 196 245 291
#
# _framework density 17.547467999999999
#
# number of rings (size 3 to 8) (size 9 to 14) (size 15 to 20)
#    0.000    2.375    1.250    2.250    0.000    3.500 
#    0.000    2.500    0.000    1.500    0.000    6.125 
#    0.000    0.500    0.000    6.250    0.000    0.000 
#
# Total GULP energy -793137.497174 kJ/mol
# GULP energy per Si atom -12392.773393 kJ/mol
# Density = 1.750753 g / cm^3
# Si number density = 17.547468 Si / 1000 Ang^3
#
#
#
# Elastic Constant Matrix: (Units=GPa)
#
#
# Indices 1 2 3 4 5 6 
#
# 1 44.8221 33.2035 18.5137 0.0000 0.0000 0.0000
# 2 33.2035 118.2479 50.2350 0.0000 0.0000 0.0000
# 3 18.5137 50.2350 86.1376 0.0000 0.0000 0.0000
# 4 0.0000 0.0000 0.0000 18.4132 0.0000 0.0000
# 5 0.0000 0.0000 0.0000 0.0000 9.7130 0.0000
# 6 0.0000 0.0000 0.0000 0.0000 0.0000 19.0656
#
#
#
# Elastic Compliance Matrix: (Units=1/GPa)
#
#
# Indices 1 2 3 4 5 6 
#
# 1 0.028410 -0.007156 -0.001933 0.000000 0.000000 0.000000
# 2 -0.007156 0.013045 -0.006070 0.000000 0.000000 0.000000
# 3 -0.001933 -0.006070 0.015564 0.000000 0.000000 0.000000
# 4 0.000000 0.000000 0.000000 0.054309 0.000000 0.000000
# 5 0.000000 0.000000 0.000000 0.000000 0.102955 0.000000
# 6 0.000000 0.000000 0.000000 0.000000 0.000000 0.052450
#
#
# Mechanical properties :
#
#
# Convention : Reuss Voigt Hill
#
# Bulk Modulus (GPa) = 37.45014 50.34579 43.89796
# Shear Modulus (GPa) = 16.34247 19.25539 17.79893
#
# Velocity S-wave (km/s) = 3.05508 3.31619 3.18831
# Velocity P-wave (km/s) = 5.81663 6.58911 6.21488
#
# Compressibility (1/GPa) = 0.02670217
#
# Stress axis : x y z
#
# Youngs Moduli (GPa) = 35.19880 76.65894 64.24904
#
# Poissons Ratio (x) = 0.54860 0.12417
# Poissons Ratio (y) = 0.25190 0.38996
# Poissons Ratio (z) = 0.06803 0.46528
#
# Static dielectric constant tensor:
#      x y z
#    x 3.138040 0.000000 0.000000 
#    y 0.000000 3.515850 0.000000 
#    z 0.000000 0.000000 3.148970 
# 
# 
# High freq. dielectric constant tensor:
#      x y z
#    x 1.667270 0.000000 0.000000 
#    y 0.000000 1.679040 0.000000 
#    z 0.000000 0.000000 1.638690 
# 
# From -- ./inp_files/30168.got.cif
#   From: 2010.03.12/outbox.cif.g09.slc.cpg/sg47_16_cif.got.tgz:30168.got - 2010.04.14 03:12:58.
