data_PCOD8194617
_publ_section_title
;
Structure prediction by ZEFSAII (Michael W. Deem and Ramdas Pophale) SiO2 
 PCOD8194617
Probable space group: P M M M
;
_chemical_formula_sum "Si O2"
_cell_formula_units_Z 52
_cell_length_a 13.526424
_cell_length_b 23.663078
_cell_length_c 9.116853
_cell_angle_alpha 90.000000
_cell_angle_beta 90.000000
_cell_angle_gamma 90.000000
_cell_volume 2918.093373
_symmetry_space_group_name_H-M "P M M M"
_symmetry_group_IT_number 47
_symmetry_cell_setting 'orthorhombic'
loop_
_space_group_symop_operation_xyz
x,y,z
-x,-y,z
x,-y,-z
-x,y,-z
-x,-y,-z
x,y,-z
-x,y,z
x,-y,z
loop_
_atom_site_type_symbol
_atom_site_label
_atom_site_fract_x
_atom_site_fract_y
_atom_site_fract_z
Si Si1 0.720216 0.662195 0.672828
Si Si2 0.683770 0.879011 0.167350
Si Si3 0.500000 0.933833 0.669991
Si Si4 0.389483 0.243644 0.164153
Si Si5 0.111962 0.277826 0.833641
Si Si6 0.107890 0.849650 0.825508
Si Si7 0.386856 0.565148 0.169838
O O1 0.726306 0.659353 0.500000
O O2 0.641308 0.709344 0.720326
O O3 0.826757 0.678468 0.736284
O O4 0.687163 0.601436 0.731917
O O5 0.601478 0.909656 0.263749
O O6 0.677002 0.811602 0.178842
O O7 0.798136 0.889385 0.222457
O O8 0.668251 0.899621 0.000000
O O9 0.500000 0.918218 0.500000
O O10 0.500000 0.000000 0.699216
O O11 0.500000 0.223915 0.199629
O O12 0.381140 0.269110 0.000000
O O13 0.120074 0.214501 0.767190
O O14 0.000000 0.299247 0.829901
O O15 0.153573 0.278792 0.000000
O O16 0.000000 0.873710 0.771198
O O17 0.106895 0.846478 0.000000
O O18 0.500000 0.581508 0.206371
O O19 0.367609 0.500000 0.208154
O O20 0.364803 0.577108 0.000000
#
# Coordination Sequence:
#
# PCOD8194617 Si02
#       7
#     8   8   4   8   8   8   8
#     4  12  23  31  46  75 110 141 168 206 261 321
#     4  10  18  33  57  81 105 136 179 225 262 305
#     4  11  25  41  55  75 109 149 184 221 268 323
#     4  10  19  32  49  72 104 139 174 213 257 305
#     4   9  17  32  53  73  99 138 178 213 252 305
#     4   8  14  27  51  81 108 134 168 215 268 314
#     4   9  19  37  58  75  93 127 177 225 263 305
#
# _framework density 17.819853999999999
#
# number of rings (size 3 to 8) (size 9 to 14) (size 15 to 20)
#    0.000    2.231    2.308    3.462    0.000    4.308 
#    0.000    0.769    0.000    1.385    0.000    6.462 
#    0.000    0.000    0.000    0.000    0.000    0.000 
#
# Total GULP energy -644466.596305 kJ/mol
# GULP energy per Si atom -12393.588390 kJ/mol
# Density = 1.777930 g / cm^3
# Si number density = 17.819854 Si / 1000 Ang^3
#
#
#
# Elastic Constant Matrix: (Units=GPa)
#
#
# Indices 1 2 3 4 5 6 
#
# 1 158.0238 44.0650 52.4377 0.0000 0.0000 0.0000
# 2 44.0650 56.6973 40.0408 0.0000 0.0000 0.0000
# 3 52.4377 40.0408 90.3602 0.0000 0.0000 0.0000
# 4 0.0000 0.0000 0.0000 -30.5461 0.0000 0.0000
# 5 0.0000 0.0000 0.0000 0.0000 7.5998 0.0000
# 6 0.0000 0.0000 0.0000 0.0000 0.0000 13.1626
#
#
#
# Elastic Compliance Matrix: (Units=1/GPa)
#
#
# Indices 1 2 3 4 5 6 
#
# 1 0.008587 -0.004591 -0.002949 0.000000 0.000000 0.000000
# 2 -0.004591 0.028126 -0.009799 0.000000 0.000000 0.000000
# 3 -0.002949 -0.009799 0.017120 0.000000 0.000000 0.000000
# 4 0.000000 0.000000 0.000000 -0.032737 0.000000 0.000000
# 5 0.000000 0.000000 0.000000 0.000000 0.131582 0.000000
# 6 0.000000 0.000000 0.000000 0.000000 0.000000 0.075973
#
#
# Mechanical properties :
#
#
# Convention : Reuss Voigt Hill
#
# Bulk Modulus (GPa) = 52.20470 64.24092 58.22281
# Shear Modulus (GPa) = 18.53822 9.27912 13.90867
#
# Velocity S-wave (km/s) = 3.22889 2.28440 2.79680
# Velocity P-wave (km/s) = 6.57726 6.56403 6.57065
#
# Compressibility (1/GPa) = 0.01915536
#
# Stress axis : x y z
#
# Youngs Moduli (GPa) = 116.45637 35.55410 58.41095
#
# Poissons Ratio (x) = 0.16324 0.17223
# Poissons Ratio (y) = 0.53469 0.57236
# Poissons Ratio (z) = 0.34338 0.34839
#
# Static dielectric constant tensor:
#      x y z
#    x 3.688030 0.000000 0.000000 
#    y 0.000000 3.013300 0.000000 
#    z 0.000000 0.000000 3.027500 
# 
# 
# High freq. dielectric constant tensor:
#      x y z
#    x 1.707840 0.000000 0.000000 
#    y 0.000000 1.657930 0.000000 
#    z 0.000000 0.000000 1.660420 
# 
# From -- ./inp_files/7015.got.cif
#   From: 2010.03.12/outbox.cif.g09.slc.cpg/sg47_4_cif.got.tgz:7015.got - 2010.04.14 03:12:58.
