data_PCOD8194213
_publ_section_title
;
Structure prediction by ZEFSAII (Michael W. Deem and Ramdas Pophale) SiO2 
 PCOD8194213
Probable space group: P M M M
;
_chemical_formula_sum "Si O2"
_cell_formula_units_Z 64
_cell_length_a 14.967273
_cell_length_b 25.099759
_cell_length_c 9.008725
_cell_angle_alpha 90.000000
_cell_angle_beta 90.000000
_cell_angle_gamma 90.000000
_cell_volume 3384.352271
_symmetry_space_group_name_H-M "P M M M"
_symmetry_group_IT_number 47
_symmetry_cell_setting 'orthorhombic'
loop_
_space_group_symop_operation_xyz
x,y,z
-x,-y,z
x,-y,-z
-x,y,-z
-x,-y,-z
x,y,-z
-x,y,z
x,-y,z
loop_
_atom_site_type_symbol
_atom_site_label
_atom_site_fract_x
_atom_site_fract_y
_atom_site_fract_z
Si Si1 0.165306 0.159987 0.833296
Si Si2 0.397820 0.685420 0.674517
Si Si3 0.770353 0.357610 0.176827
Si Si4 0.218950 0.058497 0.325058
Si Si5 0.636700 0.203974 0.832229
Si Si6 0.902804 0.267651 0.176069
Si Si7 0.101364 0.562462 0.329386
Si Si8 0.404586 0.897689 0.669101
O O1 0.157654 0.105266 0.741248
O O2 0.261163 0.187175 0.827620
O O3 0.103255 0.206610 0.764258
O O4 0.137340 0.144729 0.000000
O O5 0.379294 0.685327 0.500000
O O6 0.500000 0.667539 0.708771
O O7 0.328698 0.644297 0.752204
O O8 0.381134 0.744196 0.735616
O O9 0.825884 0.306388 0.237607
O O10 0.824967 0.409488 0.226745
O O11 0.760988 0.357765 0.000000
O O12 0.209084 0.060823 0.500000
O O13 0.322443 0.066180 0.274437
O O14 0.188832 0.000000 0.266786
O O15 0.581690 0.155273 0.765147
O O16 0.605182 0.215607 0.000000
O O17 0.000000 0.290402 0.222437
O O18 0.891889 0.265053 0.000000
O O19 0.116450 0.579185 0.500000
O O20 0.116063 0.500000 0.309023
O O21 0.000000 0.577741 0.280485
O O22 0.384774 0.880480 0.500000
O O23 0.500000 0.928876 0.680556
#
# Coordination Sequence:
#
# PCOD8194213 Si02
#       8
#     8   8   8   8   8   8   8   8
#     4   9  17  31  49  70  97 128 163 202 253 316
#     4  11  23  36  51  73 105 148 193 231 271 324
#     4  11  21  35  56  85 118 149 186 232 281 325
#     4   9  18  31  46  64  86 118 161 208 259 311
#     4  10  18  30  47  69  97 130 170 214 262 313
#     4   9  17  31  52  79 110 139 166 205 262 323
#     4   9  19  37  60  87 122 162 198 230 269 321
#     4   9  17  28  42  62  88 119 157 202 256 317
#
# _framework density 18.910561000000001
#
# number of rings (size 3 to 8) (size 9 to 14) (size 15 to 20)
#    0.000    2.375    1.250    2.250    0.000    4.750 
#    0.000    1.875    0.000    2.625    0.000    8.750 
#    0.000    0.000    0.000    0.000    0.000    0.000 
#
# Total GULP energy -793116.388568 kJ/mol
# GULP energy per Si atom -12392.443571 kJ/mol
# Density = 1.886752 g / cm^3
# Si number density = 18.910561 Si / 1000 Ang^3
#
#
#
# Elastic Constant Matrix: (Units=GPa)
#
#
# Indices 1 2 3 4 5 6 
#
# 1 83.8474 39.1139 35.9653 0.0000 0.0000 0.0000
# 2 39.1139 89.5300 37.8492 0.0000 0.0000 0.0000
# 3 35.9653 37.8492 72.0914 0.0000 0.0000 0.0000
# 4 0.0000 0.0000 0.0000 28.4094 0.0000 0.0000
# 5 0.0000 0.0000 0.0000 0.0000 17.6579 0.0000
# 6 0.0000 0.0000 0.0000 0.0000 0.0000 13.1447
#
#
#
# Elastic Compliance Matrix: (Units=1/GPa)
#
#
# Indices 1 2 3 4 5 6 
#
# 1 0.016659 -0.004838 -0.005771 0.000000 0.000000 0.000000
# 2 -0.004838 0.015761 -0.005861 0.000000 0.000000 0.000000
# 3 -0.005771 -0.005861 0.019827 0.000000 0.000000 0.000000
# 4 0.000000 0.000000 0.000000 0.035200 0.000000 0.000000
# 5 0.000000 0.000000 0.000000 0.000000 0.056632 0.000000
# 6 0.000000 0.000000 0.000000 0.000000 0.000000 0.076076
#
#
# Mechanical properties :
#
#
# Convention : Reuss Voigt Hill
#
# Bulk Modulus (GPa) = 51.79437 52.36951 52.08194
# Shear Modulus (GPa) = 19.26558 20.67842 19.97200
#
# Velocity S-wave (km/s) = 3.19529 3.31038 3.25334
# Velocity P-wave (km/s) = 6.40794 6.50883 6.45858
#
# Compressibility (1/GPa) = 0.01930712
#
# Stress axis : x y z
#
# Youngs Moduli (GPa) = 60.02880 63.44788 50.43566
#
# Poissons Ratio (x) = 0.30698 0.29104
# Poissons Ratio (y) = 0.29044 0.29560
# Poissons Ratio (z) = 0.34640 0.37187
#
# Static dielectric constant tensor:
#      x y z
#    x 3.570470 0.000000 0.000000 
#    y 0.000000 3.389950 0.000000 
#    z 0.000000 0.000000 3.407970 
# 
# 
# High freq. dielectric constant tensor:
#      x y z
#    x 1.730680 0.000000 0.000000 
#    y 0.000000 1.716340 0.000000 
#    z 0.000000 0.000000 1.720030 
# 
# From -- ./inp_files/7932.got.cif
#   From: 2010.03.12/outbox.cif.g09.slc.cpg/sg47_4_cif.got.tgz:7932.got - 2010.04.14 03:12:58.
