data_PCOD8194704
_publ_section_title
;
Structure prediction by ZEFSAII (Michael W. Deem and Ramdas Pophale) SiO2 
 PCOD8194704
Probable space group: P M M M
;
_chemical_formula_sum "Si O2"
_cell_formula_units_Z 52
_cell_length_a 26.899948
_cell_length_b 9.221610
_cell_length_c 13.631510
_cell_angle_alpha 90.000000
_cell_angle_beta 90.000000
_cell_angle_gamma 90.000000
_cell_volume 3381.443678
_symmetry_space_group_name_H-M "P M M M"
_symmetry_group_IT_number 47
_symmetry_cell_setting 'orthorhombic'
loop_
_space_group_symop_operation_xyz
x,y,z
-x,-y,z
x,-y,-z
-x,y,-z
-x,-y,-z
x,y,-z
-x,y,z
x,-y,z
loop_
_atom_site_type_symbol
_atom_site_label
_atom_site_fract_x
_atom_site_fract_y
_atom_site_fract_z
Si Si1 0.500000 0.668816 0.613405
Si Si2 0.758200 0.833238 0.890101
Si Si3 0.787778 0.666765 0.609783
Si Si4 0.392360 0.328411 0.614912
Si Si5 0.846272 0.670084 0.203119
Si Si6 0.054332 0.672253 0.889256
Si Si7 0.699162 0.829863 0.701234
O O1 0.500000 0.500000 0.632455
O O2 0.500000 0.704346 0.500000
O O3 0.553028 0.727627 0.653855
O O4 0.807425 0.740847 0.871275
O O5 0.714757 0.792941 0.813187
O O6 0.773442 0.000000 0.876620
O O7 0.738512 0.801355 0.000000
O O8 0.807869 0.693459 0.500000
O O9 0.771302 0.500000 0.625045
O O10 0.832105 0.708231 0.684541
O O11 0.739945 0.766146 0.627092
O O12 0.384849 0.291047 0.500000
O O13 0.386283 0.500000 0.630754
O O14 0.353375 0.244148 0.681546
O O15 0.844182 0.500000 0.182925
O O16 0.901676 0.731235 0.181176
O O17 0.053767 0.500000 0.887239
O O18 0.000000 0.729730 0.853458
O O19 0.064471 0.726473 0.000000
O O20 0.694643 0.000000 0.681998
#
# Coordination Sequence:
#
# PCOD8194704 Si02
#       7
#     4   8   8   8   8   8   8
#     4   7  12  24  41  59  78 105 138 162 185 227
#     4   9  18  31  43  56  79 108 132 158 198 242
#     4   9  17  28  40  55  78 107 135 162 194 231
#     4   9  16  27  43  61  83 110 136 161 191 229
#     4   9  16  26  42  61  78 100 133 167 193 226
#     4   8  13  21  35  57  81 100 121 156 202 243
#     4  10  19  28  40  60  82 104 132 164 197 233
#
# _framework density 15.378047
#
# number of rings (size 3 to 8) (size 9 to 14) (size 15 to 20)
#    0.000    3.154    0.000    2.769    0.000    4.000 
#    0.000    0.385    0.000    2.308    0.000    5.923 
#    0.000    4.308    0.000    7.692    0.000    8.308 
#
# Total GULP energy -644322.726636 kJ/mol
# GULP energy per Si atom -12390.821666 kJ/mol
# Density = 1.534305 g / cm^3
# Si number density = 15.378047 Si / 1000 Ang^3
#
#
#
# Elastic Constant Matrix: (Units=GPa)
#
#
# Indices 1 2 3 4 5 6 
#
# 1 157.7551 40.0680 64.3603 0.0000 0.0000 0.0000
# 2 40.0680 36.2509 26.9278 0.0000 0.0000 0.0000
# 3 64.3603 26.9278 91.8054 0.0000 0.0000 0.0000
# 4 0.0000 0.0000 0.0000 16.8691 0.0000 0.0000
# 5 0.0000 0.0000 0.0000 0.0000 21.9635 0.0000
# 6 0.0000 0.0000 0.0000 0.0000 0.0000 3.9427
#
#
#
# Elastic Compliance Matrix: (Units=1/GPa)
#
#
# Indices 1 2 3 4 5 6 
#
# 1 0.010331 -0.007721 -0.004978 0.000000 0.000000 0.000000
# 2 -0.007721 0.041041 -0.006625 0.000000 0.000000 0.000000
# 3 -0.004978 -0.006625 0.016325 0.000000 0.000000 0.000000
# 4 0.000000 0.000000 0.000000 0.059280 0.000000 0.000000
# 5 0.000000 0.000000 0.000000 0.000000 0.045530 0.000000
# 6 0.000000 0.000000 0.000000 0.000000 0.000000 0.253634
#
#
# Mechanical properties :
#
#
# Convention : Reuss Voigt Hill
#
# Bulk Modulus (GPa) = 34.42401 60.94707 47.68554
# Shear Modulus (GPa) = 10.53804 18.85208 14.69506
#
# Velocity S-wave (km/s) = 2.62060 3.50510 3.09461
# Velocity P-wave (km/s) = 5.62054 7.48996 6.62155
#
# Compressibility (1/GPa) = 0.02904949
#
# Stress axis : x y z
#
# Youngs Moduli (GPa) = 96.79799 24.36601 61.25412
#
# Poissons Ratio (x) = 0.18813 0.30491
# Poissons Ratio (y) = 0.74738 0.40581
# Poissons Ratio (z) = 0.48183 0.16142
#
# Static dielectric constant tensor:
#      x y z
#    x 3.255580 0.000000 0.000000 
#    y 0.000000 2.769570 0.000000 
#    z 0.000000 0.000000 2.911810 
# 
# 
# High freq. dielectric constant tensor:
#      x y z
#    x 1.589010 0.000000 0.000000 
#    y 0.000000 1.569750 0.000000 
#    z 0.000000 0.000000 1.569270 
# 
# From -- ./inp_files/25715.got.cif
#   From: 2010.03.12/outbox.cif.g09.slc.cpg/sg47_13_cif.got.tgz:25715.got - 2010.04.14 03:12:58.
