data_PCOD8194618
_publ_section_title
;
Structure prediction by ZEFSAII (Michael W. Deem and Ramdas Pophale) SiO2 
 PCOD8194618
Probable space group: P M M M
;
_chemical_formula_sum "Si O2"
_cell_formula_units_Z 56
_cell_length_a 21.187944
_cell_length_b 8.818451
_cell_length_c 15.461989
_cell_angle_alpha 90.000000
_cell_angle_beta 90.000000
_cell_angle_gamma 90.000000
_cell_volume 2888.992953
_symmetry_space_group_name_H-M "P M M M"
_symmetry_group_IT_number 47
_symmetry_cell_setting 'orthorhombic'
loop_
_space_group_symop_operation_xyz
x,y,z
-x,-y,z
x,-y,-z
-x,y,-z
-x,-y,-z
x,y,-z
-x,y,z
x,-y,z
loop_
_atom_site_type_symbol
_atom_site_label
_atom_site_fract_x
_atom_site_fract_y
_atom_site_fract_z
Si Si1 0.568660 0.326084 0.343189
Si Si2 0.700597 0.323183 0.403108
Si Si3 0.242413 0.177936 0.242926
Si Si4 0.071437 0.679924 0.593680
Si Si5 0.000000 0.319835 0.900088
Si Si6 0.885147 0.680535 0.221368
Si Si7 0.430256 0.319403 0.000000
Si Si8 0.363361 0.674453 0.169668
O O1 0.500000 0.248031 0.363676
O O2 0.562661 0.500000 0.370866
O O3 0.628869 0.256213 0.394584
O O4 0.582514 0.309585 0.241676
O O5 0.725245 0.300144 0.500000
O O6 0.699542 0.500000 0.375727
O O7 0.749647 0.239052 0.341012
O O8 0.182391 0.252061 0.194704
O O9 0.303533 0.221787 0.188577
O O10 0.233332 0.000000 0.245539
O O11 0.101542 0.731762 0.500000
O O12 0.073645 0.500000 0.598699
O O13 0.103934 0.744196 0.680561
O O14 0.000000 0.737869 0.595971
O O15 0.938293 0.262365 0.846910
O O16 0.000000 0.500000 0.902333
O O17 0.000000 0.258072 0.000000
O O18 0.883181 0.500000 0.220115
O O19 0.392896 0.260121 0.917256
O O20 0.434606 0.500000 0.000000
O O21 0.500000 0.248498 0.000000
O O22 0.341146 0.500000 0.161683
#
# Coordination Sequence:
#
# PCOD8194618 Si02
#       8
#     8   8   8   8   4   8   4   8
#     4   8  13  23  44  74 104 131 162 208 265 317
#     4   9  18  33  53  77 105 138 179 224 267 316
#     4  11  23  37  52  72 104 147 186 219 259 309
#     4   8  13  23  44  76 106 128 155 197 251 308
#     4   9  18  34  58  88 112 131 165 218 272 321
#     4  10  18  33  57  81 106 136 172 218 268 318
#     4   9  16  28  55  91 113 126 161 224 287 331
#     4   9  17  32  52  76 105 136 172 216 267 323
#
# _framework density 19.383915999999999
#
# number of rings (size 3 to 8) (size 9 to 14) (size 15 to 20)
#    0.000    2.857    0.714    3.000    0.000    2.857 
#    1.286    3.571    0.000   11.571    0.000    5.000 
#    0.000    0.000    0.000    0.000    0.000    0.000 
#
# Total GULP energy -693848.201910 kJ/mol
# GULP energy per Si atom -12390.146463 kJ/mol
# Density = 1.933980 g / cm^3
# Si number density = 19.383916 Si / 1000 Ang^3
#
#
#
# Elastic Constant Matrix: (Units=GPa)
#
#
# Indices 1 2 3 4 5 6 
#
# 1 120.5078 24.6462 42.9113 0.0000 0.0000 0.0000
# 2 24.6462 34.2195 21.6115 0.0000 0.0000 0.0000
# 3 42.9113 21.6115 122.4988 0.0000 0.0000 0.0000
# 4 0.0000 0.0000 0.0000 8.5516 0.0000 0.0000
# 5 0.0000 0.0000 0.0000 0.0000 13.3136 0.0000
# 6 0.0000 0.0000 0.0000 0.0000 0.0000 2.7668
#
#
#
# Elastic Compliance Matrix: (Units=1/GPa)
#
#
# Indices 1 2 3 4 5 6 
#
# 1 0.010429 -0.005857 -0.002620 0.000000 0.000000 0.000000
# 2 -0.005857 0.036176 -0.004331 0.000000 0.000000 0.000000
# 3 -0.002620 -0.004331 0.009845 0.000000 0.000000 0.000000
# 4 0.000000 0.000000 0.000000 0.116937 0.000000 0.000000
# 5 0.000000 0.000000 0.000000 0.000000 0.075111 0.000000
# 6 0.000000 0.000000 0.000000 0.000000 0.000000 0.361428
#
#
# Mechanical properties :
#
#
# Convention : Reuss Voigt Hill
#
# Bulk Modulus (GPa) = 32.42993 50.61825 41.52409
# Shear Modulus (GPa) = 7.74208 17.46353 12.60281
#
# Velocity S-wave (km/s) = 2.00069 3.00480 2.55261
# Velocity P-wave (km/s) = 4.70145 6.18132 5.49146
#
# Compressibility (1/GPa) = 0.03083571
#
# Stress axis : x y z
#
# Youngs Moduli (GPa) = 95.88668 27.64232 101.57258
#
# Poissons Ratio (x) = 0.16189 0.26612
# Poissons Ratio (y) = 0.56158 0.43988
# Poissons Ratio (z) = 0.25123 0.11971
#
# Static dielectric constant tensor:
#      x y z
#    x 3.664210 0.000000 0.000000 
#    y 0.000000 2.871670 0.000000 
#    z 0.000000 0.000000 3.747570 
# 
# 
# High freq. dielectric constant tensor:
#      x y z
#    x 1.761380 0.000000 0.000000 
#    y 0.000000 1.684280 0.000000 
#    z 0.000000 0.000000 1.754470 
# 
# From -- ./inp_files/25254.got.cif
#   From: 2010.03.12/outbox.cif.g09.slc.cpg/sg47_13_cif.got.tgz:25254.got - 2010.04.14 03:12:58.
