data_PCOD8194878
_publ_section_title
;
Structure prediction by ZEFSAII (Michael W. Deem and Ramdas Pophale) SiO2 
 PCOD8194878
Probable space group: P M M M
;
_chemical_formula_sum "Si O2"
_cell_formula_units_Z 48
_cell_length_a 14.479833
_cell_length_b 15.560935
_cell_length_c 11.630051
_cell_angle_alpha 90.000000
_cell_angle_beta 90.000000
_cell_angle_gamma 90.000000
_cell_volume 2620.480069
_symmetry_space_group_name_H-M "P M M M"
_symmetry_group_IT_number 47
_symmetry_cell_setting 'orthorhombic'
loop_
_space_group_symop_operation_xyz
x,y,z
-x,-y,z
x,-y,-z
-x,y,-z
-x,-y,-z
x,y,-z
-x,y,z
x,-y,z
loop_
_atom_site_type_symbol
_atom_site_label
_atom_site_fract_x
_atom_site_fract_y
_atom_site_fract_z
Si Si1 0.210632 0.667878 0.863974
Si Si2 0.700516 0.092546 0.500000
Si Si3 0.899417 0.134635 0.500000
Si Si4 0.606479 0.902597 0.722299
Si Si5 0.890348 0.000000 0.867632
Si Si6 0.601260 0.259720 0.135055
Si Si7 0.895689 0.176367 0.755007
Si Si8 0.105819 0.500000 0.863016
O O1 0.319339 0.671992 0.827945
O O2 0.163336 0.750651 0.812476
O O3 0.161305 0.582585 0.814999
O O4 0.199093 0.670993 0.000000
O O5 0.810308 0.074334 0.500000
O O6 0.665918 0.137942 0.383553
O O7 0.650195 0.000000 0.500000
O O8 0.892714 0.190117 0.616854
O O9 0.000000 0.085610 0.500000
O O10 0.500000 0.902721 0.685673
O O11 0.625388 0.837253 0.825868
O O12 0.637948 0.000000 0.756761
O O13 0.855238 0.083805 0.796682
O O14 0.000000 0.000000 0.867328
O O15 0.853593 0.000000 0.000000
O O16 0.500000 0.289137 0.182985
O O17 0.597613 0.254259 0.000000
O O18 0.000000 0.185531 0.800399
O O19 0.000000 0.500000 0.817038
O O20 0.105597 0.500000 0.000000
#
# Coordination Sequence:
#
# PCOD8194878 Si02
#       8
#     8   4   4   8   4   8   8   4
#     4  10  19  33  53  77 101 128 163 209 257 302
#     4  10  19  29  44  63  86 120 163 216 253 286
#     4  10  22  34  45  65  94 136 176 206 247 301
#     4   9  17  30  48  69  93 123 164 210 252 290
#     4   9  18  31  47  69  96 129 167 206 251 298
#     4   9  18  32  48  68  98 133 163 196 243 300
#     4  10  20  33  50  70  99 133 169 210 251 299
#     4   9  18  32  53  80 104 126 160 206 260 312
#
# _framework density 18.317254999999999
#
# number of rings (size 3 to 8) (size 9 to 14) (size 15 to 20)
#    0.000    2.500    0.000    2.250    1.167    3.167 
#    1.500    2.083    0.000    3.000    0.000    2.333 
#    0.000    0.000    0.000    9.417    0.000    1.917 
#
# Total GULP energy -594681.780712 kJ/mol
# GULP energy per Si atom -12389.203765 kJ/mol
# Density = 1.827556 g / cm^3
# Si number density = 18.317255 Si / 1000 Ang^3
#
#
#
# Elastic Constant Matrix: (Units=GPa)
#
#
# Indices 1 2 3 4 5 6 
#
# 1 121.8166 68.5468 27.1092 0.0000 0.0000 0.0000
# 2 68.5468 112.8308 24.1154 0.0000 0.0000 0.0000
# 3 27.1092 24.1154 24.4694 0.0000 0.0000 0.0000
# 4 0.0000 0.0000 0.0000 4.4332 0.0000 0.0000
# 5 0.0000 0.0000 0.0000 0.0000 18.4373 0.0000
# 6 0.0000 0.0000 0.0000 0.0000 0.0000 27.4826
#
#
#
# Elastic Compliance Matrix: (Units=1/GPa)
#
#
# Indices 1 2 3 4 5 6 
#
# 1 0.013862 -0.006511 -0.008941 0.000000 0.000000 0.000000
# 2 -0.006511 0.014286 -0.006866 0.000000 0.000000 0.000000
# 3 -0.008941 -0.006866 0.057540 0.000000 0.000000 0.000000
# 4 0.000000 0.000000 0.000000 0.225572 0.000000 0.000000
# 5 0.000000 0.000000 0.000000 0.000000 0.054238 0.000000
# 6 0.000000 0.000000 0.000000 0.000000 0.000000 0.036387
#
#
# Mechanical properties :
#
#
# Convention : Reuss Voigt Hill
#
# Bulk Modulus (GPa) = 24.35939 55.40662 39.88300
# Shear Modulus (GPa) = 10.86473 19.36031 15.11252
#
# Velocity S-wave (km/s) = 2.43809 3.25459 2.87547
# Velocity P-wave (km/s) = 4.61012 6.66612 5.73107
#
# Compressibility (1/GPa) = 0.04105194
#
# Stress axis : x y z
#
# Youngs Moduli (GPa) = 72.13710 70.00036 17.37922
#
# Poissons Ratio (x) = 0.45575 0.15540
# Poissons Ratio (y) = 0.46966 0.11932
# Poissons Ratio (z) = 0.64501 0.48062
#
# Static dielectric constant tensor:
#      x y z
#    x 3.974110 0.000000 0.000000 
#    y 0.000000 3.195670 0.000000 
#    z 0.000000 0.000000 3.334900 
# 
# 
# High freq. dielectric constant tensor:
#      x y z
#    x 1.730930 0.000000 0.000000 
#    y 0.000000 1.666990 0.000000 
#    z 0.000000 0.000000 1.691670 
# 
# From -- ./inp_files/17626.got.cif
#   From: 2010.03.12/outbox.cif.g09.slc.cpg/sg47_9_cif.got.tgz:17626.got - 2010.04.14 03:12:58.
