data_PCOD8194720
_publ_section_title
;
Structure prediction by ZEFSAII (Michael W. Deem and Ramdas Pophale) SiO2 
 PCOD8194720
Probable space group: P M M M
;
_chemical_formula_sum "Si O2"
_cell_formula_units_Z 52
_cell_length_a 10.748322
_cell_length_b 14.314585
_cell_length_c 21.013483
_cell_angle_alpha 90.000000
_cell_angle_beta 90.000000
_cell_angle_gamma 90.000000
_cell_volume 3233.087611
_symmetry_space_group_name_H-M "P M M M"
_symmetry_group_IT_number 47
_symmetry_cell_setting 'orthorhombic'
loop_
_space_group_symop_operation_xyz
x,y,z
-x,-y,z
x,-y,-z
-x,y,-z
-x,-y,-z
x,y,-z
-x,y,z
x,-y,z
loop_
_atom_site_type_symbol
_atom_site_label
_atom_site_fract_x
_atom_site_fract_y
_atom_site_fract_z
Si Si1 0.643203 0.102295 0.314049
Si Si2 0.645364 0.393746 0.611539
Si Si3 0.000000 0.893445 0.574858
Si Si4 0.352111 0.105127 0.930134
Si Si5 0.353462 0.399972 0.758619
Si Si6 0.748491 0.793449 0.572380
Si Si7 0.350870 0.790078 0.807908
O O1 0.500000 0.089522 0.298228
O O2 0.650972 0.161253 0.379024
O O3 0.703430 0.153050 0.252591
O O4 0.705784 0.000000 0.322661
O O5 0.500000 0.373371 0.597368
O O6 0.677673 0.500000 0.589893
O O7 0.676754 0.379919 0.685343
O O8 0.732658 0.319382 0.574529
O O9 0.881893 0.831663 0.596537
O O10 0.000000 0.903190 0.500000
O O11 0.000000 0.000000 0.603707
O O12 0.500000 0.105791 0.926662
O O13 0.296606 0.169192 0.873909
O O14 0.303320 0.000000 0.919621
O O15 0.308928 0.141736 0.000000
O O16 0.500000 0.405923 0.766725
O O17 0.294731 0.500000 0.779634
O O18 0.300528 0.316252 0.801936
O O19 0.722895 0.826830 0.500000
O O20 0.500000 0.791973 0.807287
#
# Coordination Sequence:
#
# PCOD8194720 Si02
#       7
#     8   8   4   8   8   8   8
#     4  10  19  28  40  62  87 107 132 173 224 269
#     4   9  17  30  47  68  93 115 137 171 219 273
#     4   9  20  38  53  61  75 109 153 187 217 258
#     4   8  13  20  30  46  70 103 140 170 198 238
#     4   8  13  22  37  55  76 104 135 163 196 247
#     4  11  21  33  48  63  81 110 147 182 216 259
#     4   9  14  22  36  53  76 104 133 167 206 249
#
# _framework density 16.083696
#
# number of rings (size 3 to 8) (size 9 to 14) (size 15 to 20)
#    0.000    2.846    1.538    2.769    0.000    4.308 
#    0.000    1.923    0.000    1.846    0.000    3.231 
#    0.000    0.000    0.000    0.692    0.000    7.923 
#
# Total GULP energy -644196.453900 kJ/mol
# GULP energy per Si atom -12388.393344 kJ/mol
# Density = 1.604709 g / cm^3
# Si number density = 16.083696 Si / 1000 Ang^3
#
#
#
# Elastic Constant Matrix: (Units=GPa)
#
#
# Indices 1 2 3 4 5 6 
#
# 1 25.1674 23.9152 6.9885 0.0000 0.0000 0.0000
# 2 23.9152 136.2578 60.8881 0.0000 0.0000 0.0000
# 3 6.9885 60.8881 108.7600 0.0000 0.0000 0.0000
# 4 0.0000 0.0000 0.0000 32.4653 0.0000 0.0000
# 5 0.0000 0.0000 0.0000 0.0000 1.1389 0.0000
# 6 0.0000 0.0000 0.0000 0.0000 0.0000 14.7913
#
#
#
# Elastic Compliance Matrix: (Units=1/GPa)
#
#
# Indices 1 2 3 4 5 6 
#
# 1 0.048072 -0.009411 0.002180 0.000000 0.000000 0.000000
# 2 -0.009411 0.011630 -0.005906 0.000000 0.000000 0.000000
# 3 0.002180 -0.005906 0.012361 0.000000 0.000000 0.000000
# 4 0.000000 0.000000 0.000000 0.030802 0.000000 0.000000
# 5 0.000000 0.000000 0.000000 0.000000 0.878003 0.000000
# 6 0.000000 0.000000 0.000000 0.000000 0.000000 0.067607
#
#
# Mechanical properties :
#
#
# Convention : Reuss Voigt Hill
#
# Bulk Modulus (GPa) = 21.83997 50.41874 36.12935
# Shear Modulus (GPa) = 4.58710 21.57201 13.07955
#
# Velocity S-wave (km/s) = 1.69062 3.66626 2.85479
# Velocity P-wave (km/s) = 4.17365 7.02408 5.77742
#
# Compressibility (1/GPa) = 0.04578761
#
# Stress axis : x y z
#
# Youngs Moduli (GPa) = 20.80218 85.98345 80.89938
#
# Poissons Ratio (x) = 0.80923 -0.17636
# Poissons Ratio (y) = 0.19578 0.47781
# Poissons Ratio (z) = -0.04535 0.50784
#
# Static dielectric constant tensor:
#      x y z
#    x 2.465820 0.000000 0.000000 
#    y 0.000000 1.150740 0.000000 
#    z 0.000000 0.000000 3.090330 
# 
# 
# High freq. dielectric constant tensor:
#      x y z
#    x 1.536750 0.000000 0.000000 
#    y 0.000000 1.635840 0.000000 
#    z 0.000000 0.000000 1.606270 
# 
# From -- ./inp_files/30612.got.cif
#   From: 2010.03.12/outbox.cif.g09.slc.cpg/sg47_16_cif.got.tgz:30612.got - 2010.04.14 03:12:58.
