data_PCOD8194335
_publ_section_title
;
Structure prediction by ZEFSAII (Michael W. Deem and Ramdas Pophale) SiO2 
 PCOD8194335
Probable space group: P M M M
;
_chemical_formula_sum "Si O2"
_cell_formula_units_Z 40
_cell_length_a 12.252951
_cell_length_b 20.174970
_cell_length_c 9.069636
_cell_angle_alpha 90.000000
_cell_angle_beta 90.000000
_cell_angle_gamma 90.000000
_cell_volume 2242.040492
_symmetry_space_group_name_H-M "P M M M"
_symmetry_group_IT_number 47
_symmetry_cell_setting 'orthorhombic'
loop_
_space_group_symop_operation_xyz
x,y,z
-x,-y,z
x,-y,-z
-x,y,-z
-x,-y,-z
x,y,-z
-x,y,z
x,-y,z
loop_
_atom_site_type_symbol
_atom_site_label
_atom_site_fract_x
_atom_site_fract_y
_atom_site_fract_z
Si Si1 0.716880 0.239743 0.672185
Si Si2 0.500000 0.379349 0.332778
Si Si3 0.500000 0.245057 0.826517
Si Si4 0.880980 0.000000 0.174200
Si Si5 0.123888 0.500000 0.826197
Si Si6 0.736793 0.393888 0.332997
Si Si7 0.870069 0.856920 0.168493
O O1 0.698350 0.229440 0.500000
O O2 0.609147 0.213264 0.756466
O O3 0.740590 0.316568 0.709246
O O4 0.820258 0.197989 0.725010
O O5 0.500000 0.347808 0.500000
O O6 0.500000 0.322621 0.210546
O O7 0.611702 0.421162 0.313528
O O8 0.500000 0.232752 0.000000
O O9 0.822932 0.069842 0.216840
O O10 0.000000 0.000000 0.249773
O O11 0.897204 0.000000 0.000000
O O12 0.183168 0.433754 0.772034
O O13 0.000000 0.500000 0.767486
O O14 0.127319 0.500000 0.000000
O O15 0.776211 0.405575 0.500000
O O16 0.000000 0.855793 0.186601
O O17 0.837261 0.840957 0.000000
#
# Coordination Sequence:
#
# PCOD8194335 Si02
#       7
#     8   4   4   4   4   8   8
#     4  10  20  34  52  76 105 134 166 206 252 300
#     4   8  16  33  55  80 104 123 151 198 253 299
#     4  10  18  30  51  76 101 132 168 204 248 298
#     4   7  12  26  47  70  99 134 169 205 247 295
#     4  11  25  40  51  68  98 133 168 209 252 289
#     4   9  19  36  56  74  96 129 164 198 243 303
#     4   9  17  30  50  76 104 135 171 209 249 295
#
# _framework density 17.840890999999999
#
# number of rings (size 3 to 8) (size 9 to 14) (size 15 to 20)
#    0.000    2.800    0.000    4.200    0.000    6.400 
#    0.000    6.500    0.000    2.400    0.000    4.200 
#    0.000    0.000    0.000    0.000    0.000    0.000 
#
# Total GULP energy -495643.549380 kJ/mol
# GULP energy per Si atom -12391.088735 kJ/mol
# Density = 1.780028 g / cm^3
# Si number density = 17.840891 Si / 1000 Ang^3
#
#
#
# Elastic Constant Matrix: (Units=GPa)
#
#
# Indices 1 2 3 4 5 6 
#
# 1 101.8270 52.9542 47.9947 0.0000 0.0000 0.0000
# 2 52.9542 92.3474 43.9274 0.0000 0.0000 0.0000
# 3 47.9947 43.9274 85.3063 0.0000 0.0000 0.0000
# 4 0.0000 0.0000 0.0000 21.1039 0.0000 0.0000
# 5 0.0000 0.0000 0.0000 0.0000 30.6115 0.0000
# 6 0.0000 0.0000 0.0000 0.0000 0.0000 -0.4600
#
#
#
# Elastic Compliance Matrix: (Units=1/GPa)
#
#
# Indices 1 2 3 4 5 6 
#
# 1 0.015776 -0.006389 -0.005586 0.000000 0.000000 0.000000
# 2 -0.006389 0.016929 -0.005123 0.000000 0.000000 0.000000
# 3 -0.005586 -0.005123 0.017503 0.000000 0.000000 0.000000
# 4 0.000000 0.000000 0.000000 0.047385 0.000000 0.000000
# 5 0.000000 0.000000 0.000000 0.000000 0.032667 0.000000
# 6 0.000000 0.000000 0.000000 0.000000 0.000000 -2.173912
#
#
# Mechanical properties :
#
#
# Convention : Reuss Voigt Hill
#
# Bulk Modulus (GPa) = 62.45086 63.24816 62.84951
# Shear Modulus (GPa) = -2.49486 19.22470 8.36492
#
# Velocity S-wave (km/s) = -1.18382 3.28619 2.16767
# Velocity P-wave (km/s) = 5.76296 7.06590 6.44743
#
# Compressibility (1/GPa) = 0.01601259
#
# Stress axis : x y z
#
# Youngs Moduli (GPa) = 63.38704 59.06931 57.13306
#
# Poissons Ratio (x) = 0.37742 0.31913
# Poissons Ratio (y) = 0.40500 0.29268
# Poissons Ratio (z) = 0.35406 0.30260
#
# Static dielectric constant tensor:
#      x y z
#    x 3.366270 0.000000 0.000000 
#    y 0.000000 3.277350 0.000000 
#    z 0.000000 0.000000 3.136150 
# 
# 
# High freq. dielectric constant tensor:
#      x y z
#    x 1.682610 0.000000 0.000000 
#    y 0.000000 1.675570 0.000000 
#    z 0.000000 0.000000 1.680650 
# 
# From -- ./inp_files/4180.got.cif
#   From: 2010.03.12/outbox.cif.g09.slc.cpg/sg47_3_cif.got.tgz:4180.got - 2010.04.14 03:12:58.
