data_PCOD8194271
_publ_section_title
;
Structure prediction by ZEFSAII (Michael W. Deem and Ramdas Pophale) SiO2 
 PCOD8194271
Probable space group: P M M M
;
_chemical_formula_sum "Si O2"
_cell_formula_units_Z 64
_cell_length_a 30.883679
_cell_length_b 14.185078
_cell_length_c 9.096117
_cell_angle_alpha 90.000000
_cell_angle_beta 90.000000
_cell_angle_gamma 90.000000
_cell_volume 3984.894206
_symmetry_space_group_name_H-M "P M M M"
_symmetry_group_IT_number 47
_symmetry_cell_setting 'orthorhombic'
loop_
_space_group_symop_operation_xyz
x,y,z
-x,-y,z
x,-y,-z
-x,y,-z
-x,-y,-z
x,y,-z
-x,y,z
x,-y,z
loop_
_atom_site_type_symbol
_atom_site_label
_atom_site_fract_x
_atom_site_fract_y
_atom_site_fract_z
Si Si1 0.741067 0.607575 0.828371
Si Si2 0.950984 0.106159 0.173077
Si Si3 0.876445 0.210476 0.329320
Si Si4 0.208855 0.894417 0.674715
Si Si5 0.631399 0.888606 0.169347
Si Si6 0.829686 0.394601 0.332323
Si Si7 0.707462 0.780581 0.674662
Si Si8 0.547638 0.888157 0.335280
O O1 0.727170 0.500000 0.795404
O O2 0.789656 0.626089 0.773279
O O3 0.707963 0.675665 0.742802
O O4 0.739319 0.630488 0.000000
O O5 0.919814 0.181655 0.247041
O O6 0.000000 0.129244 0.221747
O O7 0.938726 0.000000 0.223396
O O8 0.946238 0.115179 0.000000
O O9 0.883234 0.188905 0.500000
O O10 0.835416 0.152225 0.267275
O O11 0.868180 0.321335 0.298789
O O12 0.209044 0.895679 0.500000
O O13 0.249682 0.834715 0.731212
O O14 0.212208 0.000000 0.738869
O O15 0.666340 0.836736 0.268283
O O16 0.584175 0.852615 0.222280
O O17 0.636737 0.000000 0.193637
O O18 0.637268 0.860492 0.000000
O O19 0.813141 0.380061 0.500000
O O20 0.848078 0.500000 0.308141
O O21 0.705157 0.773900 0.500000
O O22 0.558199 0.851539 0.500000
O O23 0.500000 0.850927 0.285674
O O24 0.546986 0.000000 0.336013
#
# Coordination Sequence:
#
# PCOD8194271 Si02
#       8
#     8   8   8   8   8   8   8   8
#     4  10  20  33  49  69  93 120 153 197 243 282
#     4   9  19  35  51  68  93 123 152 184 227 276
#     4  10  18  30  49  73  95 117 151 192 230 269
#     4   9  17  28  42  64  93 121 150 187 226 263
#     4  10  20  31  43  64  96 131 165 201 242 287
#     4   9  17  31  50  71  95 121 151 187 229 277
#     4  11  20  32  48  65  91 129 165 195 232 280
#     4   8  14  26  44  64  86 117 161 207 245 284
#
# _framework density 16.060652000000001
#
# number of rings (size 3 to 8) (size 9 to 14) (size 15 to 20)
#    0.000    2.500    1.250    2.625    0.000    3.750 
#    0.000    1.875    0.000    2.625    0.000    2.625 
#    0.000    0.500    0.000    5.250    0.000    2.500 
#
# Total GULP energy -793491.319671 kJ/mol
# GULP energy per Si atom -12398.301870 kJ/mol
# Density = 1.602410 g / cm^3
# Si number density = 16.060652 Si / 1000 Ang^3
#
#
#
# Elastic Constant Matrix: (Units=GPa)
#
#
# Indices 1 2 3 4 5 6 
#
# 1 104.6525 47.8138 44.6185 0.0000 0.0000 0.0000
# 2 47.8138 88.8657 40.5820 0.0000 0.0000 0.0000
# 3 44.6185 40.5820 68.2607 0.0000 0.0000 0.0000
# 4 0.0000 0.0000 0.0000 21.9235 0.0000 0.0000
# 5 0.0000 0.0000 0.0000 0.0000 25.0977 0.0000
# 6 0.0000 0.0000 0.0000 0.0000 0.0000 9.8106
#
#
#
# Elastic Compliance Matrix: (Units=1/GPa)
#
#
# Indices 1 2 3 4 5 6 
#
# 1 0.014601 -0.004801 -0.006690 0.000000 0.000000 0.000000
# 2 -0.004801 0.017025 -0.006984 0.000000 0.000000 0.000000
# 3 -0.006690 -0.006984 0.023174 0.000000 0.000000 0.000000
# 4 0.000000 0.000000 0.000000 0.045613 0.000000 0.000000
# 5 0.000000 0.000000 0.000000 0.000000 0.039844 0.000000
# 6 0.000000 0.000000 0.000000 0.000000 0.000000 0.101931
#
#
# Mechanical properties :
#
#
# Convention : Reuss Voigt Hill
#
# Bulk Modulus (GPa) = 56.01618 58.64529 57.33073
# Shear Modulus (GPa) = 17.53843 19.95066 18.74455
#
# Velocity S-wave (km/s) = 3.30815 3.52832 3.42001
# Velocity P-wave (km/s) = 7.03885 7.29334 7.16723
#
# Compressibility (1/GPa) = 0.01785198
#
# Stress axis : x y z
#
# Youngs Moduli (GPa) = 68.48793 58.73598 43.15132
#
# Poissons Ratio (x) = 0.28200 0.28867
# Poissons Ratio (y) = 0.32882 0.30135
# Poissons Ratio (z) = 0.45816 0.41019
#
# Static dielectric constant tensor:
#      x y z
#    x 3.063920 0.000000 0.000000 
#    y 0.000000 3.076220 0.000000 
#    z 0.000000 0.000000 2.977200 
# 
# 
# High freq. dielectric constant tensor:
#      x y z
#    x 1.604310 0.000000 0.000000 
#    y 0.000000 1.600870 0.000000 
#    z 0.000000 0.000000 1.612030 
# 
# From -- ./inp_files/14350.got.cif
#   From: 2010.03.12/outbox.cif.g09.slc.cpg/sg47_8_cif.got.tgz:14350.got - 2010.04.14 03:12:58.
