data_PCOD8194235
_publ_section_title
;
Structure prediction by ZEFSAII (Michael W. Deem and Ramdas Pophale) SiO2 
 PCOD8194235
Probable space group: P M M M
;
_chemical_formula_sum "Si O2"
_cell_formula_units_Z 60
_cell_length_a 14.623461
_cell_length_b 14.693358
_cell_length_c 15.148184
_cell_angle_alpha 90.000000
_cell_angle_beta 90.000000
_cell_angle_gamma 90.000000
_cell_volume 3254.856177
_symmetry_space_group_name_H-M "P M M M"
_symmetry_group_IT_number 47
_symmetry_cell_setting 'orthorhombic'
loop_
_space_group_symop_operation_xyz
x,y,z
-x,-y,z
x,-y,-z
-x,y,-z
-x,-y,-z
x,y,-z
-x,y,z
x,-y,z
loop_
_atom_site_type_symbol
_atom_site_label
_atom_site_fract_x
_atom_site_fract_y
_atom_site_fract_z
Si Si1 0.398967 0.607866 0.598619
Si Si2 0.895044 0.286278 0.403729
Si Si3 0.102828 0.891771 0.000000
Si Si4 0.398094 0.214145 0.100918
Si Si5 0.307154 0.397940 0.901925
Si Si6 0.229046 0.895274 0.842645
Si Si7 0.897231 0.899283 0.677337
Si Si8 0.233842 0.394938 0.283228
O O1 0.370293 0.640987 0.500000
O O2 0.500000 0.646518 0.622142
O O3 0.402604 0.500000 0.599976
O O4 0.327421 0.642678 0.672019
O O5 0.855326 0.314729 0.500000
O O6 0.883122 0.177207 0.396576
O O7 0.848483 0.337733 0.322991
O O8 0.000000 0.314404 0.398260
O O9 0.159121 0.856646 0.084384
O O10 0.000000 0.850291 0.000000
O O11 0.095484 0.000000 0.000000
O O12 0.500000 0.190298 0.135261
O O13 0.386859 0.323526 0.107002
O O14 0.322620 0.162417 0.159279
O O15 0.386463 0.181429 0.000000
O O16 0.348880 0.500000 0.890069
O O17 0.234574 0.380586 0.822897
O O18 0.260782 0.389534 0.000000
O O19 0.179104 0.882597 0.750513
O O20 0.254269 0.000000 0.861852
O O21 0.000000 0.891786 0.718508
O O22 0.884238 0.000000 0.635377
O O23 0.218617 0.500000 0.308028
#
# Coordination Sequence:
#
# PCOD8194235 Si02
#       8
#     8   8   4   8   8   8   8   8
#     4   8  14  25  42  66  95 125 159 200 246 296
#     4  10  21  35  52  77 107 136 167 203 244 301
#     4   9  16  26  43  69  98 127 163 209 259 304
#     4  10  20  32  46  67  99 139 178 213 252 303
#     4   9  19  35  53  72  94 129 176 224 265 299
#     4  10  18  30  48  72 102 134 168 210 256 305
#     4   9  18  33  53  74  97 128 166 211 261 303
#     4  10  19  32  52  75 102 136 167 204 256 309
#
# _framework density 18.433993999999998
#
# number of rings (size 3 to 8) (size 9 to 14) (size 15 to 20)
#    0.000    2.600    0.667    2.000    0.000    4.000 
#    0.000    5.333    0.000    0.400    0.000    1.867 
#    0.000    0.000    0.000    9.733    0.000    0.400 
#
# Total GULP energy -743560.765051 kJ/mol
# GULP energy per Si atom -12392.679418 kJ/mol
# Density = 1.839204 g / cm^3
# Si number density = 18.433994 Si / 1000 Ang^3
#
#
#
# Elastic Constant Matrix: (Units=GPa)
#
#
# Indices 1 2 3 4 5 6 
#
# 1 107.2835 43.0477 46.1333 0.0000 0.0000 0.0000
# 2 43.0477 62.7253 29.7577 0.0000 0.0000 0.0000
# 3 46.1333 29.7577 97.1830 0.0000 0.0000 0.0000
# 4 0.0000 0.0000 0.0000 17.6171 0.0000 0.0000
# 5 0.0000 0.0000 0.0000 0.0000 20.4206 0.0000
# 6 0.0000 0.0000 0.0000 0.0000 0.0000 21.4288
#
#
#
# Elastic Compliance Matrix: (Units=1/GPa)
#
#
# Indices 1 2 3 4 5 6 
#
# 1 0.014330 -0.007730 -0.004436 0.000000 0.000000 0.000000
# 2 -0.007730 0.022822 -0.003319 0.000000 0.000000 0.000000
# 3 -0.004436 -0.003319 0.013412 0.000000 0.000000 0.000000
# 4 0.000000 0.000000 0.000000 0.056763 0.000000 0.000000
# 5 0.000000 0.000000 0.000000 0.000000 0.048970 0.000000
# 6 0.000000 0.000000 0.000000 0.000000 0.000000 0.046666
#
#
# Mechanical properties :
#
#
# Convention : Reuss Voigt Hill
#
# Bulk Modulus (GPa) = 51.03348 56.11880 53.57614
# Shear Modulus (GPa) = 20.79310 21.77683 21.28497
#
# Velocity S-wave (km/s) = 3.36218 3.44079 3.40171
# Velocity P-wave (km/s) = 6.54346 6.80401 6.67501
#
# Compressibility (1/GPa) = 0.01959498
#
# Stress axis : x y z
#
# Youngs Moduli (GPa) = 69.78214 43.81699 74.56220
#
# Poissons Ratio (x) = 0.33872 0.33073
# Poissons Ratio (y) = 0.53945 0.24744
# Poissons Ratio (z) = 0.30953 0.14541
#
# Static dielectric constant tensor:
#      x y z
#    x 3.305360 0.000000 0.000000 
#    y 0.000000 3.288540 0.000000 
#    z 0.000000 0.000000 3.421060 
# 
# 
# High freq. dielectric constant tensor:
#      x y z
#    x 1.697090 0.000000 0.000000 
#    y 0.000000 1.696450 0.000000 
#    z 0.000000 0.000000 1.710820 
# 
# From -- ./inp_files/23930.got.cif
#   From: 2010.03.12/outbox.cif.g09.slc.cpg/sg47_12_cif.got.tgz:23930.got - 2010.04.14 03:12:58.
