data_PCOD8194908
_publ_section_title
;
Structure prediction by ZEFSAII (Michael W. Deem and Ramdas Pophale) SiO2 
 PCOD8194908
Probable space group: P M M M
;
_chemical_formula_sum "Si O2"
_cell_formula_units_Z 64
_cell_length_a 23.756171
_cell_length_b 14.741166
_cell_length_c 9.461007
_cell_angle_alpha 90.000000
_cell_angle_beta 90.000000
_cell_angle_gamma 90.000000
_cell_volume 3313.184671
_symmetry_space_group_name_H-M "P M M M"
_symmetry_group_IT_number 47
_symmetry_cell_setting 'orthorhombic'
loop_
_space_group_symop_operation_xyz
x,y,z
-x,-y,z
x,-y,-z
-x,y,-z
-x,-y,-z
x,y,-z
-x,y,z
x,-y,z
loop_
_atom_site_type_symbol
_atom_site_label
_atom_site_fract_x
_atom_site_fract_y
_atom_site_fract_z
Si Si1 0.566308 0.897406 0.662392
Si Si2 0.739867 0.901667 0.155424
Si Si3 0.356116 0.230751 0.834430
Si Si4 0.160161 0.140008 0.342121
Si Si5 0.061830 0.145839 0.155704
Si Si6 0.062775 0.639008 0.840158
Si Si7 0.830429 0.645375 0.337263
Si Si8 0.282022 0.396983 0.163080
O O1 0.584694 0.885669 0.500000
O O2 0.500000 0.887812 0.679320
O O3 0.591759 0.812179 0.749507
O O4 0.584279 0.000000 0.713502
O O5 0.695941 0.830288 0.212951
O O6 0.790505 0.909523 0.262115
O O7 0.710413 0.000000 0.147739
O O8 0.761613 0.871588 0.000000
O O9 0.335245 0.332602 0.792237
O O10 0.370788 0.224094 0.000000
O O11 0.160484 0.104211 0.500000
O O12 0.102651 0.105024 0.272699
O O13 0.166954 0.247142 0.330862
O O14 0.061788 0.253591 0.163039
O O15 0.000000 0.107464 0.187621
O O16 0.081728 0.114734 0.000000
O O17 0.113446 0.603588 0.738343
O O18 0.000000 0.604181 0.791777
O O19 0.074812 0.604665 0.000000
O O20 0.828809 0.611136 0.500000
O O21 0.773562 0.615352 0.258049
O O22 0.303602 0.500000 0.179762
O O23 0.265717 0.374980 0.000000
#
# Coordination Sequence:
#
# PCOD8194908 Si02
#       8
#     8   8   8   8   8   8   8   8
#     4   9  19  36  58  87 124 162 194 223 261 313
#     4  10  20  33  50  73 102 137 174 213 261 314
#     4  10  20  35  57  84 113 144 184 232 272 313
#     4  10  19  29  44  68  98 131 166 207 259 317
#     4   8  14  25  42  63  87 120 163 208 256 312
#     4   8  14  25  43  67  94 127 168 213 265 330
#     4  10  19  30  47  72 102 135 172 218 273 330
#     4  10  21  37  57  79 105 142 186 231 279 328
#
# _framework density 19.316759999999999
#
# number of rings (size 3 to 8) (size 9 to 14) (size 15 to 20)
#    0.000    2.625    1.250    2.250    0.000    4.000 
#    0.000    3.125    0.000    1.125    0.000    7.875 
#    0.000    0.000    0.000    0.000    0.000    0.000 
#
# Total GULP energy -792951.944686 kJ/mol
# GULP energy per Si atom -12389.874136 kJ/mol
# Density = 1.927279 g / cm^3
# Si number density = 19.316760 Si / 1000 Ang^3
#
#
#
# Elastic Constant Matrix: (Units=GPa)
#
#
# Indices 1 2 3 4 5 6 
#
# 1 86.6083 37.7969 54.1947 0.0000 0.0000 0.0000
# 2 37.7969 85.9341 31.2393 0.0000 0.0000 0.0000
# 3 54.1947 31.2393 99.7358 0.0000 0.0000 0.0000
# 4 0.0000 0.0000 0.0000 10.3246 0.0000 0.0000
# 5 0.0000 0.0000 0.0000 0.0000 182.2370 0.0000
# 6 0.0000 0.0000 0.0000 0.0000 0.0000 5.9726
#
#
#
# Elastic Compliance Matrix: (Units=1/GPa)
#
#
# Indices 1 2 3 4 5 6 
#
# 1 0.019430 -0.005313 -0.008894 0.000000 0.000000 0.000000
# 2 -0.005313 0.014585 -0.001681 0.000000 0.000000 0.000000
# 3 -0.008894 -0.001681 0.015386 0.000000 0.000000 0.000000
# 4 0.000000 0.000000 0.000000 0.096856 0.000000 0.000000
# 5 0.000000 0.000000 0.000000 0.000000 0.005487 0.000000
# 6 0.000000 0.000000 0.000000 0.000000 0.000000 0.167431
#
#
# Mechanical properties :
#
#
# Convention : Reuss Voigt Hill
#
# Bulk Modulus (GPa) = 56.73877 57.63777 57.18827
# Shear Modulus (GPa) = 14.01241 49.64331 31.82786
#
# Velocity S-wave (km/s) = 2.69625 5.07498 4.06357
# Velocity P-wave (km/s) = 6.25537 8.01521 7.18934
#
# Compressibility (1/GPa) = 0.01762463
#
# Stress axis : x y z
#
# Youngs Moduli (GPa) = 51.46636 68.56429 64.99457
#
# Poissons Ratio (x) = 0.36428 0.57805
# Poissons Ratio (y) = 0.27344 0.10928
# Poissons Ratio (z) = 0.45774 0.11528
#
# Static dielectric constant tensor:
#      x y z
#    x 3.479350 0.000000 0.000000 
#    y 0.000000 3.470890 0.000000 
#    z 0.000000 0.000000 3.667140 
# 
# 
# High freq. dielectric constant tensor:
#      x y z
#    x 1.731440 0.000000 0.000000 
#    y 0.000000 1.744660 0.000000 
#    z 0.000000 0.000000 1.746160 
# 
# From -- ./inp_files/12691.got.cif
#   From: 2010.03.12/outbox.cif.g09.slc.cpg/sg47_7_cif.got.tgz:12691.got - 2010.04.14 03:12:58.
