data_PCOD8194106
_publ_section_title
;
Structure prediction by ZEFSAII (Michael W. Deem and Ramdas Pophale) SiO2 
 PCOD8194106
Probable space group: P M M M
;
_chemical_formula_sum "Si O2"
_cell_formula_units_Z 52
_cell_length_a 14.632464
_cell_length_b 20.589182
_cell_length_c 9.675862
_cell_angle_alpha 90.000000
_cell_angle_beta 90.000000
_cell_angle_gamma 90.000000
_cell_volume 2915.051438
_symmetry_space_group_name_H-M "P M M M"
_symmetry_group_IT_number 47
_symmetry_cell_setting 'orthorhombic'
loop_
_space_group_symop_operation_xyz
x,y,z
-x,-y,z
x,-y,-z
-x,y,-z
-x,-y,-z
x,y,-z
-x,y,z
x,-y,z
loop_
_atom_site_type_symbol
_atom_site_label
_atom_site_fract_x
_atom_site_fract_y
_atom_site_fract_z
Si Si1 0.395448 0.621385 0.657255
Si Si2 0.899536 0.823224 0.836550
Si Si3 0.395574 0.000000 0.835788
Si Si4 0.242052 0.572760 0.159476
Si Si5 0.709750 0.127285 0.163859
Si Si6 0.898632 0.322080 0.164099
Si Si7 0.605261 0.228206 0.656770
O O1 0.366777 0.606998 0.500000
O O2 0.500000 0.601936 0.681426
O O3 0.336441 0.577332 0.758508
O O4 0.379999 0.696759 0.691947
O O5 0.817952 0.872805 0.794468
O O6 0.874562 0.750655 0.782704
O O7 0.000000 0.845297 0.778227
O O8 0.907134 0.820093 0.000000
O O9 0.339722 0.062356 0.781163
O O10 0.500000 0.000000 0.778170
O O11 0.397919 0.000000 0.000000
O O12 0.202112 0.500000 0.175971
O O13 0.171017 0.624596 0.224810
O O14 0.262308 0.588588 0.000000
O O15 0.664041 0.188775 0.234129
O O16 0.697697 0.134640 0.000000
O O17 0.000000 0.340557 0.215814
O O18 0.894698 0.324670 0.000000
O O19 0.636636 0.212843 0.500000
O O20 0.500000 0.208559 0.675187
#
# Coordination Sequence:
#
# PCOD8194106 Si02
#       7
#     8   8   4   8   8   8   8
#     4   9  19  35  51  66  88 121 157 191 234 288
#     4   8  14  25  43  68  93 116 150 196 237 271
#     4   9  18  30  42  64 100 133 161 193 226 267
#     4  10  20  31  45  69  96 120 153 195 230 266
#     4  10  18  29  48  70  94 128 162 189 225 274
#     4   8  14  26  44  66  93 121 147 183 234 284
#     4   9  18  32  49  70  94 117 148 196 244 279
#
# _framework density 17.838450999999999
#
# number of rings (size 3 to 8) (size 9 to 14) (size 15 to 20)
#    0.000    3.000    0.000    3.231    0.000    4.000 
#    0.000    5.385    0.000    4.615    0.000    5.385 
#    0.000    1.231    0.000    0.000    0.000    0.000 
#
# Total GULP energy -644475.738358 kJ/mol
# GULP energy per Si atom -12393.764199 kJ/mol
# Density = 1.779785 g / cm^3
# Si number density = 17.838451 Si / 1000 Ang^3
#
#
#
# Elastic Constant Matrix: (Units=GPa)
#
#
# Indices 1 2 3 4 5 6 
#
# 1 126.5305 62.8115 26.1849 0.0000 0.0000 0.0000
# 2 62.8115 70.5910 18.0053 0.0000 0.0000 0.0000
# 3 26.1849 18.0053 28.6878 0.0000 0.0000 0.0000
# 4 0.0000 0.0000 0.0000 16.2017 0.0000 0.0000
# 5 0.0000 0.0000 0.0000 0.0000 8.7969 0.0000
# 6 0.0000 0.0000 0.0000 0.0000 0.0000 27.9733
#
#
#
# Elastic Compliance Matrix: (Units=1/GPa)
#
#
# Indices 1 2 3 4 5 6 
#
# 1 0.015071 -0.011788 -0.006357 0.000000 0.000000 0.000000
# 2 -0.011788 0.026087 -0.005613 0.000000 0.000000 0.000000
# 3 -0.006357 -0.005613 0.044183 0.000000 0.000000 0.000000
# 4 0.000000 0.000000 0.000000 0.061722 0.000000 0.000000
# 5 0.000000 0.000000 0.000000 0.000000 0.113676 0.000000
# 6 0.000000 0.000000 0.000000 0.000000 0.000000 0.035748
#
#
# Mechanical properties :
#
#
# Convention : Reuss Voigt Hill
#
# Bulk Modulus (GPa) = 26.43824 48.86809 37.65316
# Shear Modulus (GPa) = 14.02080 18.51489 16.26785
#
# Velocity S-wave (km/s) = 2.80659 3.22517 3.02313
# Velocity P-wave (km/s) = 5.03544 6.42832 5.77403
#
# Compressibility (1/GPa) = 0.03782400
#
# Stress axis : x y z
#
# Youngs Moduli (GPa) = 66.35382 38.33320 22.63289
#
# Poissons Ratio (x) = 0.45189 0.14388
# Poissons Ratio (y) = 0.78220 0.12704
# Poissons Ratio (z) = 0.42182 0.21517
#
# Static dielectric constant tensor:
#      x y z
#    x 3.638970 0.000000 0.000000 
#    y 0.000000 3.316830 0.000000 
#    z 0.000000 0.000000 2.844720 
# 
# 
# High freq. dielectric constant tensor:
#      x y z
#    x 1.699650 0.000000 0.000000 
#    y 0.000000 1.682360 0.000000 
#    z 0.000000 0.000000 1.641880 
# 
# From -- ./inp_files/6981.got.cif
#   From: 2010.03.12/outbox.cif.g09.slc.cpg/sg47_4_cif.got.tgz:6981.got - 2010.04.14 03:12:58.
