data_PCOD8194987
_publ_section_title
;
Structure prediction by ZEFSAII (Michael W. Deem and Ramdas Pophale) SiO2 
 PCOD8194987
Probable space group: P M M M
;
_chemical_formula_sum "Si O2"
_cell_formula_units_Z 60
_cell_length_a 8.977006
_cell_length_b 19.281108
_cell_length_c 28.528988
_cell_angle_alpha 90.000000
_cell_angle_beta 90.000000
_cell_angle_gamma 90.000000
_cell_volume 4937.986168
_symmetry_space_group_name_H-M "P M M M"
_symmetry_group_IT_number 47
_symmetry_cell_setting 'orthorhombic'
loop_
_space_group_symop_operation_xyz
x,y,z
-x,-y,z
x,-y,-z
-x,y,-z
-x,-y,-z
x,y,-z
-x,y,z
x,-y,z
loop_
_atom_site_type_symbol
_atom_site_label
_atom_site_fract_x
_atom_site_fract_y
_atom_site_fract_z
Si Si1 0.667551 0.082446 0.948580
Si Si2 0.676700 0.846897 0.586519
Si Si3 0.826894 0.081508 0.672730
Si Si4 0.667136 0.576121 0.555637
Si Si5 0.168862 0.081966 0.500000
Si Si6 0.833008 0.917176 0.858087
Si Si7 0.828569 0.711836 0.444608
Si Si8 0.666881 0.082281 0.233221
O O1 0.500000 0.109924 0.941184
O O2 0.769388 0.112917 0.907060
O O3 0.668086 0.000000 0.946093
O O4 0.727195 0.106271 0.000000
O O5 0.500000 0.850815 0.582683
O O6 0.729252 0.876899 0.635751
O O7 0.747810 0.892752 0.545875
O O8 0.729264 0.767761 0.582335
O O9 0.770741 0.105477 0.723738
O O10 0.000000 0.100770 0.667396
O O11 0.800776 0.000000 0.664865
O O12 0.667171 0.575777 0.500000
O O13 0.500000 0.591353 0.573889
O O14 0.720455 0.500000 0.573745
O O15 0.777945 0.635974 0.573553
O O16 0.000000 0.111697 0.500000
O O17 0.166698 0.000000 0.500000
O O18 0.736143 0.887989 0.814863
O O19 0.000000 0.889327 0.852207
O O20 0.829766 0.000000 0.858352
O O21 0.802055 0.720821 0.500000
O O22 0.000000 0.722285 0.431217
O O23 0.500000 0.112158 0.239513
O O24 0.661597 0.000000 0.230475
#
# Coordination Sequence:
#
# PCOD8194987 Si02
#       8
#     8   8   8   8   4   8   8   8
#     4   8  13  20  28  38  54  76  99 121 146 178
#     4  12  23  33  46  60  74  92 113 137 165 201
#     4  10  20  33  46  57  70  86 105 135 173 208
#     4   8  14  25  41  60  81 101 119 138 158 181
#     4  11  23  37  49  59  72  89 110 137 169 203
#     4   9  15  21  30  44  60  77  97 121 151 186
#     4  10  19  30  44  59  78  99 118 139 161 189
#     4   9  16  26  39  52  64  78  99 127 158 194
#
# _framework density 12.150702000000001
#
# number of rings (size 3 to 8) (size 9 to 14) (size 15 to 20)
#    0.000    2.467    0.667    4.200    0.000    7.200 
#    0.000    2.667    0.000    0.000    0.000    0.000 
#    0.000    0.000    0.000    0.000    0.000    0.000 
#
# Total GULP energy -743790.166213 kJ/mol
# GULP energy per Si atom -12396.502770 kJ/mol
# Density = 1.212305 g / cm^3
# Si number density = 12.150702 Si / 1000 Ang^3
#
#
#
# Elastic Constant Matrix: (Units=GPa)
#
#
# Indices 1 2 3 4 5 6 
#
# 1 98.7507 29.1724 40.0577 0.0000 0.0000 0.0000
# 2 29.1724 42.2187 20.7586 0.0000 0.0000 0.0000
# 3 40.0577 20.7586 77.0776 0.0000 0.0000 0.0000
# 4 0.0000 0.0000 0.0000 -2.6038 0.0000 0.0000
# 5 0.0000 0.0000 0.0000 0.0000 21.6314 0.0000
# 6 0.0000 0.0000 0.0000 0.0000 0.0000 14.4922
#
#
#
# Elastic Compliance Matrix: (Units=1/GPa)
#
#
# Indices 1 2 3 4 5 6 
#
# 1 0.014555 -0.007305 -0.005597 0.000000 0.000000 0.000000
# 2 -0.007305 0.030968 -0.004544 0.000000 0.000000 0.000000
# 3 -0.005597 -0.004544 0.017106 0.000000 0.000000 0.000000
# 4 0.000000 0.000000 0.000000 -0.384058 0.000000 0.000000
# 5 0.000000 0.000000 0.000000 0.000000 0.046229 0.000000
# 6 0.000000 0.000000 0.000000 0.000000 0.000000 0.069003
#
#
# Mechanical properties :
#
#
# Convention : Reuss Voigt Hill
#
# Bulk Modulus (GPa) = 36.05202 44.22494 40.13848
# Shear Modulus (GPa) = -30.85301 15.24117 -7.80592
#
# Velocity S-wave (km/s) = -5.04451 3.54552 -2.53736
# Velocity P-wave (km/s) = 2.04800 7.29637 4.95190
#
# Compressibility (1/GPa) = 0.02773770
#
# Stress axis : x y z
#
# Youngs Moduli (GPa) = 68.70529 32.29119 58.45774
#
# Poissons Ratio (x) = 0.23590 0.32718
# Poissons Ratio (y) = 0.50191 0.26562
# Poissons Ratio (z) = 0.38453 0.14672
#
# Static dielectric constant tensor:
#      x y z
#    x 2.694880 0.000000 0.000000 
#    y 0.000000 2.271530 0.000000 
#    z 0.000000 0.000000 2.571360 
# 
# 
# High freq. dielectric constant tensor:
#      x y z
#    x 1.478740 0.000000 0.000000 
#    y 0.000000 1.404280 0.000000 
#    z 0.000000 0.000000 1.444810 
# 
# From -- ./inp_files/33490.got.cif
#   From: 2010.03.12/outbox.cif.g09.slc.cpg/sg47_17_cif.got.tgz:33490.got - 2010.04.14 03:12:58.
