data_PCOD8194928
_publ_section_title
;
Structure prediction by ZEFSAII (Michael W. Deem and Ramdas Pophale) SiO2 
 PCOD8194928
Probable space group: P M M M
;
_chemical_formula_sum "Si O2"
_cell_formula_units_Z 60
_cell_length_a 18.838376
_cell_length_b 20.904717
_cell_length_c 8.979710
_cell_angle_alpha 90.000000
_cell_angle_beta 90.000000
_cell_angle_gamma 90.000000
_cell_volume 3536.307848
_symmetry_space_group_name_H-M "P M M M"
_symmetry_group_IT_number 47
_symmetry_cell_setting 'orthorhombic'
loop_
_space_group_symop_operation_xyz
x,y,z
-x,-y,z
x,-y,-z
-x,y,-z
-x,-y,-z
x,y,-z
-x,y,z
x,-y,z
loop_
_atom_site_type_symbol
_atom_site_label
_atom_site_fract_x
_atom_site_fract_y
_atom_site_fract_z
Si Si1 0.579264 0.260160 0.169346
Si Si2 0.921145 0.849422 0.330633
Si Si3 0.715572 0.814485 0.172703
Si Si4 0.920588 0.716884 0.825582
Si Si5 0.214597 0.927572 0.326021
Si Si6 0.418483 0.500000 0.176428
Si Si7 0.784629 0.695000 0.325541
Si Si8 0.644296 0.623212 0.326133
O O1 0.500000 0.234238 0.197620
O O2 0.632859 0.201890 0.200168
O O3 0.593475 0.318709 0.279969
O O4 0.588519 0.285416 0.000000
O O5 0.909804 0.824908 0.500000
O O6 0.910219 0.790312 0.220647
O O7 0.865289 0.904519 0.290008
O O8 0.000000 0.878665 0.310884
O O9 0.728545 0.884679 0.238360
O O10 0.764402 0.763250 0.256269
O O11 0.735891 0.812730 0.000000
O O12 0.860934 0.673896 0.742225
O O13 0.000000 0.693282 0.781233
O O14 0.908274 0.710505 0.000000
O O15 0.231443 0.922475 0.500000
O O16 0.222168 0.000000 0.268841
O O17 0.500000 0.500000 0.233627
O O18 0.376771 0.438813 0.234949
O O19 0.416336 0.500000 0.000000
O O20 0.791567 0.704762 0.500000
O O21 0.725826 0.641412 0.287112
O O22 0.634228 0.609554 0.500000
#
# Coordination Sequence:
#
# PCOD8194928 Si02
#       8
#     8   8   8   8   8   4   8   8
#     4   9  18  33  52  74  99 125 157 198 244 294
#     4   9  17  29  45  64  89 123 159 195 239 291
#     4  10  19  31  49  70  92 121 156 198 247 293
#     4  10  19  29  45  71 100 128 160 202 249 292
#     4  10  20  32  46  65  91 124 161 200 243 296
#     4  11  23  37  53  75 108 147 178 201 233 282
#     4  10  19  32  50  72  99 130 165 203 244 290
#     4  10  21  34  51  77 106 136 170 205 237 278
#
# _framework density 16.966849
#
# number of rings (size 3 to 8) (size 9 to 14) (size 15 to 20)
#    0.000    2.200    1.333    2.200    0.000    5.867 
#    0.000    1.333    0.000    0.400    0.000    6.067 
#    0.000    3.733    0.000    0.000    0.000    0.000 
#
# Total GULP energy -743972.426423 kJ/mol
# GULP energy per Si atom -12399.540440 kJ/mol
# Density = 1.692823 g / cm^3
# Si number density = 16.966849 Si / 1000 Ang^3
#
#
#
# Elastic Constant Matrix: (Units=GPa)
#
#
# Indices 1 2 3 4 5 6 
#
# 1 143.6381 58.0880 55.6085 0.0000 0.0000 0.0000
# 2 58.0880 86.4624 38.1530 0.0000 0.0000 0.0000
# 3 55.6085 38.1530 73.6887 0.0000 0.0000 0.0000
# 4 0.0000 0.0000 0.0000 21.4391 0.0000 0.0000
# 5 0.0000 0.0000 0.0000 0.0000 27.5548 0.0000
# 6 0.0000 0.0000 0.0000 0.0000 0.0000 22.1271
#
#
#
# Elastic Compliance Matrix: (Units=1/GPa)
#
#
# Indices 1 2 3 4 5 6 
#
# 1 0.011260 -0.004945 -0.005937 0.000000 0.000000 0.000000
# 2 -0.004945 0.017162 -0.005154 0.000000 0.000000 0.000000
# 3 -0.005937 -0.005154 0.020720 0.000000 0.000000 0.000000
# 4 0.000000 0.000000 0.000000 0.046644 0.000000 0.000000
# 5 0.000000 0.000000 0.000000 0.000000 0.036291 0.000000
# 6 0.000000 0.000000 0.000000 0.000000 0.000000 0.045193
#
#
# Mechanical properties :
#
#
# Convention : Reuss Voigt Hill
#
# Bulk Modulus (GPa) = 58.58419 67.49870 63.04144
# Shear Modulus (GPa) = 23.25220 24.35351 23.80285
#
# Velocity S-wave (km/s) = 3.70597 3.79272 3.74960
# Velocity P-wave (km/s) = 7.27433 7.68432 7.48213
#
# Compressibility (1/GPa) = 0.01706945
#
# Stress axis : x y z
#
# Youngs Moduli (GPa) = 88.80770 58.26692 48.26355
#
# Poissons Ratio (x) = 0.28814 0.28654
# Poissons Ratio (y) = 0.43917 0.24876
# Poissons Ratio (z) = 0.52726 0.30032
#
# Static dielectric constant tensor:
#      x y z
#    x 3.507120 0.000000 0.000000 
#    y 0.000000 2.902760 0.000000 
#    z 0.000000 0.000000 3.248910 
# 
# 
# High freq. dielectric constant tensor:
#      x y z
#    x 1.665880 0.000000 0.000000 
#    y 0.000000 1.612280 0.000000 
#    z 0.000000 0.000000 1.663910 
# 
# From -- ./inp_files/10067.got.cif
#   From: 2010.03.12/outbox.cif.g09.slc.cpg/sg47_6_cif.got.tgz:10067.got - 2010.04.14 03:12:58.
