data_PCOD8194847
_publ_section_title
;
Structure prediction by ZEFSAII (Michael W. Deem and Ramdas Pophale) SiO2 
 PCOD8194847
Probable space group: P M M M
;
_chemical_formula_sum "Si O2"
_cell_formula_units_Z 64
_cell_length_a 19.833630
_cell_length_b 20.036388
_cell_length_c 8.942590
_cell_angle_alpha 90.000000
_cell_angle_beta 90.000000
_cell_angle_gamma 90.000000
_cell_volume 3553.734348
_symmetry_space_group_name_H-M "P M M M"
_symmetry_group_IT_number 47
_symmetry_cell_setting 'orthorhombic'
loop_
_space_group_symop_operation_xyz
x,y,z
-x,-y,z
x,-y,-z
-x,y,-z
-x,-y,-z
x,y,-z
-x,y,z
x,-y,z
loop_
_atom_site_type_symbol
_atom_site_label
_atom_site_fract_x
_atom_site_fract_y
_atom_site_fract_z
Si Si1 0.601221 0.926270 0.169859
Si Si2 0.174163 0.678316 0.322414
Si Si3 0.923744 0.421694 0.827799
Si Si4 0.750052 0.111589 0.832834
Si Si5 0.926676 0.209987 0.677659
Si Si6 0.424636 0.208915 0.672133
Si Si7 0.121748 0.928264 0.676062
Si Si8 0.704096 0.259021 0.174844
O O1 0.681553 0.929146 0.178768
O O2 0.572809 0.867880 0.273428
O O3 0.574349 0.000000 0.218390
O O4 0.578593 0.910420 0.000000
O O5 0.181265 0.677288 0.500000
O O6 0.134146 0.612630 0.271188
O O7 0.130367 0.740800 0.260741
O O8 0.249163 0.683986 0.251524
O O9 0.913677 0.500000 0.806474
O O10 0.000000 0.401750 0.776106
O O11 0.913636 0.401125 0.000000
O O12 0.799887 0.078567 0.715111
O O13 0.738256 0.188454 0.789709
O O14 0.780324 0.106401 0.000000
O O15 0.921619 0.207582 0.500000
O O16 0.917540 0.135222 0.744786
O O17 0.000000 0.236273 0.728996
O O18 0.402627 0.208582 0.500000
O O19 0.500000 0.238759 0.692932
O O20 0.372004 0.256361 0.759967
O O21 0.113665 0.927722 0.500000
O O22 0.094460 0.000000 0.737515
O O23 0.698478 0.274453 0.000000
#
# Coordination Sequence:
#
# PCOD8194847 Si02
#       8
#     8   8   8   8   8   8   8   8
#     4   9  18  31  46  65  89 121 161 202 251 318
#     4  11  20  32  54  80 107 137 173 221 266 306
#     4   9  19  36  56  80 115 156 190 219 255 304
#     4   9  17  30  46  63  86 115 151 200 255 307
#     4   9  18  31  45  65  94 125 160 206 259 309
#     4  10  21  35  50  70  98 129 162 208 266 320
#     4  10  19  29  43  62  84 115 157 205 258 313
#     4  10  20  34  53  74  97 129 170 211 256 313
#
# _framework density 18.009226000000002
#
# number of rings (size 3 to 8) (size 9 to 14) (size 15 to 20)
#    0.000    2.375    1.250    3.000    0.000    5.500 
#    0.000    3.125    0.000    1.125    0.000    0.875 
#    0.000    0.500    0.000    5.250    0.000    2.250 
#
# Total GULP energy -793183.359433 kJ/mol
# GULP energy per Si atom -12393.489991 kJ/mol
# Density = 1.796824 g / cm^3
# Si number density = 18.009226 Si / 1000 Ang^3
#
#
#
# Elastic Constant Matrix: (Units=GPa)
#
#
# Indices 1 2 3 4 5 6 
#
# 1 104.9907 34.1612 40.2803 0.0000 0.0000 0.0000
# 2 34.1612 58.8132 28.1154 0.0000 0.0000 0.0000
# 3 40.2803 28.1154 69.0857 0.0000 0.0000 0.0000
# 4 0.0000 0.0000 0.0000 22.3128 0.0000 0.0000
# 5 0.0000 0.0000 0.0000 0.0000 16.7261 0.0000
# 6 0.0000 0.0000 0.0000 0.0000 0.0000 8.5274
#
#
#
# Elastic Compliance Matrix: (Units=1/GPa)
#
#
# Indices 1 2 3 4 5 6 
#
# 1 0.013362 -0.005012 -0.005751 0.000000 0.000000 0.000000
# 2 -0.005012 0.022990 -0.006434 0.000000 0.000000 0.000000
# 3 -0.005751 -0.006434 0.020446 0.000000 0.000000 0.000000
# 4 0.000000 0.000000 0.000000 0.044817 0.000000 0.000000
# 5 0.000000 0.000000 0.000000 0.000000 0.059787 0.000000
# 6 0.000000 0.000000 0.000000 0.000000 0.000000 0.117269
#
#
# Mechanical properties :
#
#
# Convention : Reuss Voigt Hill
#
# Bulk Modulus (GPa) = 44.63396 48.66703 46.65049
# Shear Modulus (GPa) = 15.59907 18.20212 16.90059
#
# Velocity S-wave (km/s) = 2.94627 3.18262 3.06672
# Velocity P-wave (km/s) = 6.03422 6.37083 6.20481
#
# Compressibility (1/GPa) = 0.02240447
#
# Stress axis : x y z
#
# Youngs Moduli (GPa) = 74.84055 43.49760 48.90891
#
# Poissons Ratio (x) = 0.21800 0.28127
# Poissons Ratio (y) = 0.37509 0.31467
# Poissons Ratio (z) = 0.43040 0.27986
#
# Static dielectric constant tensor:
#      x y z
#    x 3.349820 0.000000 0.000000 
#    y 0.000000 3.185060 0.000000 
#    z 0.000000 0.000000 3.193610 
# 
# 
# High freq. dielectric constant tensor:
#      x y z
#    x 1.695720 0.000000 0.000000 
#    y 0.000000 1.662840 0.000000 
#    z 0.000000 0.000000 1.685110 
# 
# From -- ./inp_files/11859.got.cif
#   From: 2010.03.12/outbox.cif.g09.slc.cpg/sg47_6_cif.got.tgz:11859.got - 2010.04.14 03:12:58.
