data_PCOD8194187
_publ_section_title
;
Structure prediction by ZEFSAII (Michael W. Deem and Ramdas Pophale) SiO2 
 PCOD8194187
Probable space group: P M M M
;
_chemical_formula_sum "Si O2"
_cell_formula_units_Z 52
_cell_length_a 22.096515
_cell_length_b 16.645100
_cell_length_c 7.990505
_cell_angle_alpha 90.000000
_cell_angle_beta 90.000000
_cell_angle_gamma 90.000000
_cell_volume 2938.897366
_symmetry_space_group_name_H-M "P M M M"
_symmetry_group_IT_number 47
_symmetry_cell_setting 'orthorhombic'
loop_
_space_group_symop_operation_xyz
x,y,z
-x,-y,z
x,-y,-z
-x,y,-z
-x,-y,-z
x,y,-z
-x,y,z
x,-y,z
loop_
_atom_site_type_symbol
_atom_site_label
_atom_site_fract_x
_atom_site_fract_y
_atom_site_fract_z
Si Si1 0.719537 0.500000 0.312275
Si Si2 0.131019 0.665665 0.306900
Si Si3 0.848705 0.500000 0.186657
Si Si4 0.245808 0.237854 0.695397
Si Si5 0.352574 0.349239 0.300528
Si Si6 0.428591 0.594215 0.000000
Si Si7 0.181145 0.911667 0.195721
Si Si8 0.932913 0.815607 0.197572
O O1 0.696822 0.500000 0.500000
O O2 0.791303 0.500000 0.307912
O O3 0.692053 0.580679 0.235953
O O4 0.139295 0.646583 0.500000
O O5 0.113449 0.581320 0.218768
O O6 0.193816 0.702736 0.230650
O O7 0.076635 0.727554 0.275874
O O8 0.823597 0.500000 0.000000
O O9 0.234387 0.234441 0.500000
O O10 0.314008 0.267960 0.734373
O O11 0.237178 0.147847 0.766393
O O12 0.371766 0.353674 0.500000
O O13 0.408144 0.358338 0.170486
O O14 0.408082 0.500000 0.000000
O O15 0.500000 0.599314 0.000000
O O16 0.118025 0.876229 0.270056
O O17 0.193137 0.000000 0.275388
O O18 0.173811 0.921266 0.000000
O O19 0.000000 0.846309 0.248037
O O20 0.926328 0.807886 0.000000
#
# Coordination Sequence:
#
# PCOD8194187 Si02
#       8
#     4   8   4   8   8   4   8   8
#     4  10  18  30  46  70 101 131 165 211 255 298
#     4  10  19  32  47  66  94 121 156 205 254 301
#     4  12  22  28  45  71  97 123 157 204 258 311
#     4   9  18  31  49  72  97 129 164 204 256 305
#     4  10  20  34  52  74 104 140 182 223 260 303
#     4  11  24  36  50  76 109 149 194 225 253 291
#     4   9  18  31  48  74 104 130 157 195 250 310
#     4   9  18  33  50  67  91 125 165 203 240 293
#
# _framework density 17.693711
#
# number of rings (size 3 to 8) (size 9 to 14) (size 15 to 20)
#    0.000    2.231    2.308    1.154    2.154    1.846 
#    0.000    2.692    0.000    2.308    0.000    4.308 
#    0.000    1.231    0.000    3.385    0.000    0.000 
#
# Total GULP energy -644301.060918 kJ/mol
# GULP energy per Si atom -12390.405018 kJ/mol
# Density = 1.765344 g / cm^3
# Si number density = 17.693711 Si / 1000 Ang^3
#
#
#
# Elastic Constant Matrix: (Units=GPa)
#
#
# Indices 1 2 3 4 5 6 
#
# 1 70.3390 39.2476 30.1304 0.0000 0.0000 0.0000
# 2 39.2476 142.3572 28.9997 0.0000 0.0000 0.0000
# 3 30.1304 28.9997 53.4334 0.0000 0.0000 0.0000
# 4 0.0000 0.0000 0.0000 19.7164 0.0000 0.0000
# 5 0.0000 0.0000 0.0000 0.0000 20.8969 0.0000
# 6 0.0000 0.0000 0.0000 0.0000 0.0000 15.3712
#
#
#
# Elastic Compliance Matrix: (Units=1/GPa)
#
#
# Indices 1 2 3 4 5 6 
#
# 1 0.020321 -0.003675 -0.009465 0.000000 0.000000 0.000000
# 2 -0.003675 0.008562 -0.002575 0.000000 0.000000 0.000000
# 3 -0.009465 -0.002575 0.025449 0.000000 0.000000 0.000000
# 4 0.000000 0.000000 0.000000 0.050719 0.000000 0.000000
# 5 0.000000 0.000000 0.000000 0.000000 0.047854 0.000000
# 6 0.000000 0.000000 0.000000 0.000000 0.000000 0.065057
#
#
# Mechanical properties :
#
#
# Convention : Reuss Voigt Hill
#
# Bulk Modulus (GPa) = 43.65916 51.43168 47.54542
# Shear Modulus (GPa) = 19.45329 22.38037 20.91683
#
# Velocity S-wave (km/s) = 3.31939 3.56037 3.44199
# Velocity P-wave (km/s) = 6.27851 6.78473 6.53652
#
# Compressibility (1/GPa) = 0.02290470
#
# Stress axis : x y z
#
# Youngs Moduli (GPa) = 49.20899 116.79268 39.29367
#
# Poissons Ratio (x) = 0.42916 0.37190
# Poissons Ratio (y) = 0.18082 0.10118
# Poissons Ratio (z) = 0.46575 0.30073
#
# Static dielectric constant tensor:
#      x y z
#    x 2.951420 0.000000 0.000000 
#    y 0.000000 3.576870 0.000000 
#    z 0.000000 0.000000 3.226420 
# 
# 
# High freq. dielectric constant tensor:
#      x y z
#    x 1.638640 0.000000 0.000000 
#    y 0.000000 1.675030 0.000000 
#    z 0.000000 0.000000 1.683540 
# 
# From -- ./inp_files/12603.got.cif
#   From: 2010.03.12/outbox.cif.g09.slc.cpg/sg47_7_cif.got.tgz:12603.got - 2010.04.14 03:12:58.
