data_PCOD8194862
_publ_section_title
;
Structure prediction by ZEFSAII (Michael W. Deem and Ramdas Pophale) SiO2 
 PCOD8194862
Probable space group: P M M M
;
_chemical_formula_sum "Si O2"
_cell_formula_units_Z 64
_cell_length_a 14.377193
_cell_length_b 9.064646
_cell_length_c 29.045270
_cell_angle_alpha 90.000000
_cell_angle_beta 90.000000
_cell_angle_gamma 90.000000
_cell_volume 3785.300560
_symmetry_space_group_name_H-M "P M M M"
_symmetry_group_IT_number 47
_symmetry_cell_setting 'orthorhombic'
loop_
_space_group_symop_operation_xyz
x,y,z
-x,-y,z
x,-y,-z
-x,y,-z
-x,-y,-z
x,y,-z
-x,y,z
x,-y,z
loop_
_atom_site_type_symbol
_atom_site_label
_atom_site_fract_x
_atom_site_fract_y
_atom_site_fract_z
Si Si1 0.604856 0.671153 0.278678
Si Si2 0.107655 0.668536 0.683460
Si Si3 0.110189 0.835549 0.951331
Si Si4 0.609169 0.830467 0.371748
Si Si5 0.782934 0.670895 0.226455
Si Si6 0.727681 0.329961 0.447983
Si Si7 0.893549 0.826598 0.591066
Si Si8 0.105774 0.823870 0.147958
O O1 0.500000 0.716716 0.264077
O O2 0.610234 0.500000 0.292429
O O3 0.639498 0.760528 0.323189
O O4 0.673478 0.703500 0.235654
O O5 0.132154 0.500000 0.670307
O O6 0.162887 0.721169 0.728043
O O7 0.137781 0.773441 0.641665
O O8 0.000000 0.687453 0.695209
O O9 0.138966 0.760939 0.902553
O O10 0.000000 0.845908 0.950110
O O11 0.152137 0.000000 0.952732
O O12 0.141287 0.755169 0.000000
O O13 0.500000 0.811619 0.378822
O O14 0.656896 0.749573 0.414112
O O15 0.640459 0.000000 0.371776
O O16 0.801357 0.500000 0.215507
O O17 0.819601 0.764997 0.184007
O O18 0.690322 0.312744 0.500000
O O19 0.736103 0.500000 0.433759
O O20 0.829494 0.255519 0.445852
O O21 0.000000 0.781864 0.581130
O O22 0.878360 0.000000 0.587404
O O23 0.000000 0.770934 0.159625
O O24 0.108481 0.000000 0.147466
#
# Coordination Sequence:
#
# PCOD8194862 Si02
#       8
#     8   8   8   8   8   8   8   8
#     4   9  18  33  52  72  94 122 156 189 221 266
#     4   9  17  29  45  65  90 121 155 185 215 263
#     4   7  10  19  36  56  79 111 152 193 228 265
#     4  10  21  37  58  82 103 121 144 181 231 280
#     4  10  19  29  43  64  91 123 154 185 225 268
#     4  11  24  39  55  75  98 126 158 188 220 265
#     4  10  21  36  54  75  97 122 154 194 237 274
#     4   9  17  27  40  62  91 122 156 192 229 270
#
# _framework density 16.907509000000001
#
# number of rings (size 3 to 8) (size 9 to 14) (size 15 to 20)
#    0.000    2.625    0.000    3.375    0.000    5.750 
#    0.000    3.750    0.000    0.375    0.000    1.750 
#    0.000    0.500    0.000    6.250    0.000    0.250 
#
# Total GULP energy -793195.883368 kJ/mol
# GULP energy per Si atom -12393.685678 kJ/mol
# Density = 1.686903 g / cm^3
# Si number density = 16.907509 Si / 1000 Ang^3
#
#
#
# Elastic Constant Matrix: (Units=GPa)
#
#
# Indices 1 2 3 4 5 6 
#
# 1 59.5576 25.8372 50.3500 0.0000 0.0000 0.0000
# 2 25.8372 65.1289 44.1204 0.0000 0.0000 0.0000
# 3 50.3500 44.1204 113.1548 0.0000 0.0000 0.0000
# 4 0.0000 0.0000 0.0000 2.1548 0.0000 0.0000
# 5 0.0000 0.0000 0.0000 0.0000 17.4403 0.0000
# 6 0.0000 0.0000 0.0000 0.0000 0.0000 22.5081
#
#
#
# Elastic Compliance Matrix: (Units=1/GPa)
#
#
# Indices 1 2 3 4 5 6 
#
# 1 0.027510 -0.003562 -0.010852 0.000000 0.000000 0.000000
# 2 -0.003562 0.021327 -0.006731 0.000000 0.000000 0.000000
# 3 -0.010852 -0.006731 0.016291 0.000000 0.000000 0.000000
# 4 0.000000 0.000000 0.000000 0.464075 0.000000 0.000000
# 5 0.000000 0.000000 0.000000 0.000000 0.057339 0.000000
# 6 0.000000 0.000000 0.000000 0.000000 0.000000 0.044428
#
#
# Mechanical properties :
#
#
# Convention : Reuss Voigt Hill
#
# Bulk Modulus (GPa) = 43.78654 53.16183 48.47419
# Shear Modulus (GPa) = 7.34352 16.25622 11.79987
#
# Velocity S-wave (km/s) = 2.08633 3.10414 2.64466
# Velocity P-wave (km/s) = 5.63539 6.66022 6.16912
#
# Compressibility (1/GPa) = 0.02283807
#
# Stress axis : x y z
#
# Youngs Moduli (GPa) = 36.35014 46.88946 61.38471
#
# Poissons Ratio (x) = 0.16701 0.66616
# Poissons Ratio (y) = 0.12947 0.41316
# Poissons Ratio (z) = 0.39448 0.31560
#
# Static dielectric constant tensor:
#      x y z
#    x 3.178570 0.000000 0.000000 
#    y 0.000000 3.072050 0.000000 
#    z 0.000000 0.000000 3.375540 
# 
# 
# High freq. dielectric constant tensor:
#      x y z
#    x 1.635210 0.000000 0.000000 
#    y 0.000000 1.640040 0.000000 
#    z 0.000000 0.000000 1.645370 
# 
# From -- ./inp_files/22130.got.cif
#   From: 2010.03.12/outbox.cif.g09.slc.cpg/sg47_12_cif.got.tgz:22130.got - 2010.04.14 03:12:58.
