data_PCOD8194821
_publ_section_title
;
Structure prediction by ZEFSAII (Michael W. Deem and Ramdas Pophale) SiO2 
 PCOD8194821
Probable space group: P M M M
;
_chemical_formula_sum "Si O2"
_cell_formula_units_Z 64
_cell_length_a 28.723721
_cell_length_b 14.554276
_cell_length_c 9.680524
_cell_angle_alpha 90.000000
_cell_angle_beta 90.000000
_cell_angle_gamma 90.000000
_cell_volume 4046.971743
_symmetry_space_group_name_H-M "P M M M"
_symmetry_group_IT_number 47
_symmetry_cell_setting 'orthorhombic'
loop_
_space_group_symop_operation_xyz
x,y,z
-x,-y,z
x,-y,-z
-x,y,-z
-x,-y,-z
x,y,-z
-x,y,z
x,-y,z
loop_
_atom_site_type_symbol
_atom_site_label
_atom_site_fract_x
_atom_site_fract_y
_atom_site_fract_z
Si Si1 0.095477 0.599656 0.336156
Si Si2 0.226704 0.103711 0.841268
Si Si3 0.799354 0.393528 0.657630
Si Si4 0.364220 0.606491 0.161073
Si Si5 0.448656 0.390999 0.345373
Si Si6 0.138955 0.107211 0.657423
Si Si7 0.051020 0.218109 0.664587
Si Si8 0.272894 0.712709 0.159456
O O1 0.094070 0.593152 0.500000
O O2 0.080868 0.500000 0.274241
O O3 0.148011 0.624873 0.292678
O O4 0.060713 0.678141 0.282151
O O5 0.183199 0.135572 0.748467
O O6 0.268896 0.176474 0.817997
O O7 0.243344 0.000000 0.801230
O O8 0.210164 0.106088 0.000000
O O9 0.792109 0.361343 0.500000
O O10 0.786344 0.500000 0.673000
O O11 0.767318 0.334628 0.755523
O O12 0.352633 0.500000 0.198659
O O13 0.409538 0.644733 0.240317
O O14 0.322405 0.673021 0.209242
O O15 0.374772 0.616445 0.000000
O O16 0.436680 0.356570 0.500000
O O17 0.500000 0.354233 0.301331
O O18 0.449421 0.500000 0.342146
O O19 0.148344 0.140133 0.500000
O O20 0.092107 0.152728 0.719652
O O21 0.129940 0.000000 0.664079
O O22 0.050890 0.214786 0.500000
O O23 0.000000 0.187641 0.720755
O O24 0.265590 0.686466 0.000000
#
# Coordination Sequence:
#
# PCOD8194821 Si02
#       8
#     8   8   8   8   8   8   8   8
#     4   8  14  24  36  51  73 100 130 162 192 226
#     4   9  18  32  48  64  82 107 140 174 208 250
#     4   9  17  28  42  60  82 110 141 169 200 242
#     4   9  17  27  38  56  84 114 141 169 203 244
#     4   8  14  25  40  57  79 110 147 181 207 233
#     4   9  17  29  45  63  81 101 126 159 200 245
#     4   9  16  24  36  56  79 101 125 155 194 239
#     4  10  19  29  42  61  86 113 139 172 213 251
#
# _framework density 15.814294
#
# number of rings (size 3 to 8) (size 9 to 14) (size 15 to 20)
#    0.000    3.125    0.000    2.250    0.000    3.500 
#    0.000    5.000    0.000    0.375    0.000    1.750 
#    0.000    0.500    0.000   17.000    0.000   10.000 
#
# Total GULP energy -793119.882271 kJ/mol
# GULP energy per Si atom -12392.498160 kJ/mol
# Density = 1.577830 g / cm^3
# Si number density = 15.814294 Si / 1000 Ang^3
#
#
#
# Elastic Constant Matrix: (Units=GPa)
#
#
# Indices 1 2 3 4 5 6 
#
# 1 101.6191 54.8537 33.6031 0.0000 0.0000 0.0000
# 2 54.8537 60.7289 24.0360 0.0000 0.0000 0.0000
# 3 33.6031 24.0360 34.2352 0.0000 0.0000 0.0000
# 4 0.0000 0.0000 0.0000 13.7783 0.0000 0.0000
# 5 0.0000 0.0000 0.0000 0.0000 10.7199 0.0000
# 6 0.0000 0.0000 0.0000 0.0000 0.0000 17.5036
#
#
#
# Elastic Compliance Matrix: (Units=1/GPa)
#
#
# Indices 1 2 3 4 5 6 
#
# 1 0.021574 -0.015379 -0.010378 0.000000 0.000000 0.000000
# 2 -0.015379 0.033767 -0.008611 0.000000 0.000000 0.000000
# 3 -0.010378 -0.008611 0.045442 0.000000 0.000000 0.000000
# 4 0.000000 0.000000 0.000000 0.072578 0.000000 0.000000
# 5 0.000000 0.000000 0.000000 0.000000 0.093284 0.000000
# 6 0.000000 0.000000 0.000000 0.000000 0.000000 0.057131
#
#
# Mechanical properties :
#
#
# Convention : Reuss Voigt Hill
#
# Bulk Modulus (GPa) = 31.20633 46.84098 39.02366
# Shear Modulus (GPa) = 12.40089 14.00638 13.20363
#
# Velocity S-wave (km/s) = 2.80332 2.97926 2.89263
# Velocity P-wave (km/s) = 5.50036 6.44348 5.99051
#
# Compressibility (1/GPa) = 0.03204478
#
# Stress axis : x y z
#
# Youngs Moduli (GPa) = 46.35136 29.61514 22.00586
#
# Poissons Ratio (x) = 0.45546 0.22838
# Poissons Ratio (y) = 0.71286 0.18950
# Poissons Ratio (z) = 0.48105 0.25503
#
# Static dielectric constant tensor:
#      x y z
#    x 3.147950 0.000000 0.000000 
#    y 0.000000 3.121070 0.000000 
#    z 0.000000 0.000000 2.849070 
# 
# 
# High freq. dielectric constant tensor:
#      x y z
#    x 1.595870 0.000000 0.000000 
#    y 0.000000 1.594550 0.000000 
#    z 0.000000 0.000000 1.580300 
# 
# From -- ./inp_files/8273.got.cif
#   From: 2010.03.12/outbox.cif.g09.slc.cpg/sg47_5_cif.got.tgz:8273.got - 2010.04.14 03:12:58.
