data_PCOD8194289
_publ_section_title
;
Structure prediction by ZEFSAII (Michael W. Deem and Ramdas Pophale) SiO2 
 PCOD8194289
Probable space group: P M M M
;
_chemical_formula_sum "Si O2"
_cell_formula_units_Z 56
_cell_length_a 8.861326
_cell_length_b 19.055948
_cell_length_c 18.759067
_cell_angle_alpha 90.000000
_cell_angle_beta 90.000000
_cell_angle_gamma 90.000000
_cell_volume 3167.674202
_symmetry_space_group_name_H-M "P M M M"
_symmetry_group_IT_number 47
_symmetry_cell_setting 'orthorhombic'
loop_
_space_group_symop_operation_xyz
x,y,z
-x,-y,z
x,-y,-z
-x,y,-z
-x,-y,-z
x,y,-z
-x,y,z
x,-y,z
loop_
_atom_site_type_symbol
_atom_site_label
_atom_site_fract_x
_atom_site_fract_y
_atom_site_fract_z
Si Si1 0.821604 0.706041 0.792682
Si Si2 0.672219 0.077845 0.841012
Si Si3 0.323326 0.213450 0.335276
Si Si4 0.176005 0.921855 0.692041
Si Si5 0.677521 0.654463 0.422098
Si Si6 0.678569 0.580031 0.282065
Si Si7 0.324164 0.217389 0.081239
O O1 0.755393 0.762170 0.737480
O O2 0.758833 0.628169 0.776649
O O3 0.771613 0.728495 0.871563
O O4 0.000000 0.704992 0.786737
O O5 0.500000 0.086840 0.813990
O O6 0.781846 0.087989 0.774379
O O7 0.712293 0.136339 0.899539
O O8 0.695361 0.000000 0.874632
O O9 0.500000 0.212677 0.320498
O O10 0.264501 0.135744 0.355325
O O11 0.281515 0.265984 0.399436
O O12 0.000000 0.908606 0.682960
O O13 0.221130 0.000000 0.665671
O O14 0.751200 0.638967 0.500000
O O15 0.500000 0.645415 0.428731
O O16 0.737134 0.600979 0.361555
O O17 0.500000 0.592772 0.277039
O O18 0.723152 0.500000 0.266874
O O19 0.500000 0.233661 0.092757
O O20 0.275011 0.229416 0.000000
#
# Coordination Sequence:
#
# PCOD8194289 Si02
#       7
#     8   8   8   8   8   8   8
#     4  11  21  33  51  73 100 133 168 207 247 290
#     4   9  17  29  46  68  96 130 165 203 249 300
#     4  10  18  30  50  72  96 129 170 210 249 294
#     4  10  19  29  44  68  96 126 164 212 261 302
#     4   8  15  28  48  77 108 133 160 198 241 286
#     4   9  18  33  55  81 106 133 163 197 239 289
#     4  10  20  33  50  72 100 134 170 210 254 300
#
# _framework density 17.678585000000002
#
# number of rings (size 3 to 8) (size 9 to 14) (size 15 to 20)
#    0.000    2.429    1.429    3.000    0.000    2.000 
#    0.000    2.857    0.000   11.571    0.000   13.000 
#    0.000    0.000    0.000    0.000    0.000    0.000 
#
# Total GULP energy -694226.820323 kJ/mol
# GULP energy per Si atom -12396.907506 kJ/mol
# Density = 1.763835 g / cm^3
# Si number density = 17.678585 Si / 1000 Ang^3
#
#
#
# Elastic Constant Matrix: (Units=GPa)
#
#
# Indices 1 2 3 4 5 6 
#
# 1 64.8251 47.3481 21.9010 0.0000 0.0000 0.0000
# 2 47.3481 136.1656 41.2647 0.0000 0.0000 0.0000
# 3 21.9010 41.2647 69.2142 0.0000 0.0000 0.0000
# 4 0.0000 0.0000 0.0000 22.1436 0.0000 0.0000
# 5 0.0000 0.0000 0.0000 0.0000 1.9069 0.0000
# 6 0.0000 0.0000 0.0000 0.0000 0.0000 22.2567
#
#
#
# Elastic Compliance Matrix: (Units=1/GPa)
#
#
# Indices 1 2 3 4 5 6 
#
# 1 0.021117 -0.006491 -0.002812 0.000000 0.000000 0.000000
# 2 -0.006491 0.010958 -0.004480 0.000000 0.000000 0.000000
# 3 -0.002812 -0.004480 0.018008 0.000000 0.000000 0.000000
# 4 0.000000 0.000000 0.000000 0.045160 0.000000 0.000000
# 5 0.000000 0.000000 0.000000 0.000000 0.524399 0.000000
# 6 0.000000 0.000000 0.000000 0.000000 0.000000 0.044930
#
#
# Mechanical properties :
#
#
# Convention : Reuss Voigt Hill
#
# Bulk Modulus (GPa) = 44.40689 54.58139 49.49414
# Shear Modulus (GPa) = 7.14649 19.90753 13.52701
#
# Velocity S-wave (km/s) = 2.01277 3.35935 2.76916
# Velocity P-wave (km/s) = 5.52949 6.78147 6.18723
#
# Compressibility (1/GPa) = 0.02251903
#
# Stress axis : x y z
#
# Youngs Moduli (GPa) = 47.35519 91.25364 55.52963
#
# Poissons Ratio (x) = 0.59230 0.15616
# Poissons Ratio (y) = 0.30737 0.24875
# Poissons Ratio (z) = 0.13317 0.40877
#
# Static dielectric constant tensor:
#      x y z
#    x 3.117640 0.000000 0.000000 
#    y 0.000000 3.484320 0.000000 
#    z 0.000000 0.000000 3.139310 
# 
# 
# High freq. dielectric constant tensor:
#      x y z
#    x 1.668840 0.000000 0.000000 
#    y 0.000000 1.689570 0.000000 
#    z 0.000000 0.000000 1.651390 
# 
# From -- ./inp_files/9807.got.cif
#   From: 2010.03.12/outbox.cif.g09.slc.cpg/sg47_5_cif.got.tgz:9807.got - 2010.04.14 03:12:58.
