data_PCOD8194115
_publ_section_title
;
Structure prediction by ZEFSAII (Michael W. Deem and Ramdas Pophale) SiO2 
 PCOD8194115
Probable space group: P M M M
;
_chemical_formula_sum "Si O2"
_cell_formula_units_Z 56
_cell_length_a 22.139238
_cell_length_b 9.065912
_cell_length_c 16.123690
_cell_angle_alpha 90.000000
_cell_angle_beta 90.000000
_cell_angle_gamma 90.000000
_cell_volume 3236.224250
_symmetry_space_group_name_H-M "P M M M"
_symmetry_group_IT_number 47
_symmetry_cell_setting 'orthorhombic'
loop_
_space_group_symop_operation_xyz
x,y,z
-x,-y,z
x,-y,-z
-x,y,-z
-x,-y,-z
x,y,-z
-x,y,z
x,-y,z
loop_
_atom_site_type_symbol
_atom_site_label
_atom_site_fract_x
_atom_site_fract_y
_atom_site_fract_z
Si Si1 0.930612 0.326530 0.837977
Si Si2 0.428286 0.332409 0.907813
Si Si3 0.361267 0.325770 0.404418
Si Si4 0.571649 0.168513 0.743698
Si Si5 0.238987 0.166929 0.404268
Si Si6 0.071483 0.836246 0.000000
Si Si7 0.000000 0.824854 0.591050
Si Si8 0.117671 0.174312 0.313517
O O1 0.924390 0.500000 0.844738
O O2 0.906197 0.254860 0.921636
O O3 0.884625 0.261792 0.771616
O O4 0.000000 0.280039 0.818690
O O5 0.500000 0.325164 0.905962
O O6 0.406137 0.500000 0.894951
O O7 0.402519 0.236873 0.830371
O O8 0.406543 0.275982 0.000000
O O9 0.377331 0.279361 0.500000
O O10 0.365737 0.500000 0.394279
O O11 0.406305 0.252112 0.338823
O O12 0.293812 0.274481 0.381907
O O13 0.500000 0.180357 0.743202
O O14 0.593765 0.000000 0.739609
O O15 0.221726 0.175376 0.500000
O O16 0.179861 0.220663 0.356281
O O17 0.257101 0.000000 0.379401
O O18 0.000000 0.847278 0.000000
O O19 0.100062 0.000000 0.000000
O O20 0.060612 0.767493 0.634350
O O21 0.000000 0.755795 0.500000
O O22 0.000000 0.000000 0.587816
O O23 0.113610 0.000000 0.298348
#
# Coordination Sequence:
#
# PCOD8194115 Si02
#       8
#     8   8   8   8   8   4   4   8
#     4  10  19  30  44  66  98 129 157 192 239 290
#     4   8  14  26  45  70 102 138 171 202 238 285
#     4  10  21  36  53  72  96 131 173 213 252 297
#     4  10  20  32  49  76 107 136 166 205 253 299
#     4   9  18  33  52  73  96 125 165 210 250 287
#     4   9  17  29  47  67  89 119 157 197 238 285
#     4   9  16  26  43  68  97 126 157 195 236 279
#     4  10  18  29  48  72  97 126 162 200 239 287
#
# _framework density 17.304114999999999
#
# number of rings (size 3 to 8) (size 9 to 14) (size 15 to 20)
#    0.000    2.571    0.714    2.357    0.000    6.000 
#    0.000    2.857    0.000    1.714    1.857    0.000 
#    0.000    0.000    0.000    0.000    0.000    0.000 
#
# Total GULP energy -694157.893456 kJ/mol
# GULP energy per Si atom -12395.676669 kJ/mol
# Density = 1.726473 g / cm^3
# Si number density = 17.304115 Si / 1000 Ang^3
#
#
#
# Elastic Constant Matrix: (Units=GPa)
#
#
# Indices 1 2 3 4 5 6 
#
# 1 41.0216 27.4693 36.6654 0.0000 0.0000 0.0000
# 2 27.4693 79.4615 56.0232 0.0000 0.0000 0.0000
# 3 36.6654 56.0232 133.6365 0.0000 0.0000 0.0000
# 4 0.0000 0.0000 0.0000 19.5554 0.0000 0.0000
# 5 0.0000 0.0000 0.0000 0.0000 15.1530 0.0000
# 6 0.0000 0.0000 0.0000 0.0000 0.0000 20.6877
#
#
#
# Elastic Compliance Matrix: (Units=1/GPa)
#
#
# Indices 1 2 3 4 5 6 
#
# 1 0.035277 -0.007625 -0.006482 0.000000 0.000000 0.000000
# 2 -0.007625 0.019513 -0.006088 0.000000 0.000000 0.000000
# 3 -0.006482 -0.006088 0.011814 0.000000 0.000000 0.000000
# 4 0.000000 0.000000 0.000000 0.051137 0.000000 0.000000
# 5 0.000000 0.000000 0.000000 0.000000 0.065994 0.000000
# 6 0.000000 0.000000 0.000000 0.000000 0.000000 0.048338
#
#
# Mechanical properties :
#
#
# Convention : Reuss Voigt Hill
#
# Bulk Modulus (GPa) = 38.14877 54.93727 46.54302
# Shear Modulus (GPa) = 17.78088 20.01001 18.89545
#
# Velocity S-wave (km/s) = 3.20902 3.40424 3.30807
# Velocity P-wave (km/s) = 5.98535 6.87523 6.44566
#
# Compressibility (1/GPa) = 0.02621316
#
# Stress axis : x y z
#
# Youngs Moduli (GPa) = 28.34690 51.24796 84.64618
#
# Poissons Ratio (x) = 0.39075 0.54871
# Poissons Ratio (y) = 0.21614 0.51535
# Poissons Ratio (z) = 0.18376 0.31201
#
# Static dielectric constant tensor:
#      x y z
#    x 2.884500 0.000000 0.000000 
#    y 0.000000 3.220960 0.000000 
#    z 0.000000 0.000000 3.095670 
# 
# 
# High freq. dielectric constant tensor:
#      x y z
#    x 1.625650 0.000000 0.000000 
#    y 0.000000 1.665440 0.000000 
#    z 0.000000 0.000000 1.681220 
# 
# From -- ./inp_files/25156.got.cif
#   From: 2010.03.12/outbox.cif.g09.slc.cpg/sg47_13_cif.got.tgz:25156.got - 2010.04.14 03:12:58.
