data_PCOD8194717
_publ_section_title
;
Structure prediction by ZEFSAII (Michael W. Deem and Ramdas Pophale) SiO2 
 PCOD8194717
Probable space group: P M M M
;
_chemical_formula_sum "Si O2"
_cell_formula_units_Z 48
_cell_length_a 13.572426
_cell_length_b 23.980204
_cell_length_c 9.226594
_cell_angle_alpha 90.000000
_cell_angle_beta 90.000000
_cell_angle_gamma 90.000000
_cell_volume 3002.975344
_symmetry_space_group_name_H-M "P M M M"
_symmetry_group_IT_number 47
_symmetry_cell_setting 'orthorhombic'
loop_
_space_group_symop_operation_xyz
x,y,z
-x,-y,z
x,-y,-z
-x,y,-z
-x,-y,-z
x,y,-z
-x,y,z
x,-y,z
loop_
_atom_site_type_symbol
_atom_site_label
_atom_site_fract_x
_atom_site_fract_y
_atom_site_fract_z
Si Si1 0.610202 0.839373 0.666899
Si Si2 0.297496 0.062507 0.169332
Si Si3 0.890062 0.869474 0.834658
Si Si4 0.883205 0.438658 0.337844
Si Si5 0.115300 0.668472 0.830446
Si Si6 0.798580 0.228432 0.329305
O O1 0.625505 0.855007 0.500000
O O2 0.500000 0.816951 0.697983
O O3 0.626082 0.896277 0.754626
O O4 0.687678 0.791354 0.711602
O O5 0.185458 0.081141 0.203283
O O6 0.311563 0.000000 0.230069
O O7 0.319982 0.064402 0.000000
O O8 0.875224 0.817171 0.729151
O O9 0.000000 0.893099 0.811785
O O10 0.874499 0.848715 0.000000
O O11 0.845185 0.424274 0.500000
O O12 0.843342 0.500000 0.290411
O O13 0.847269 0.391804 0.225286
O O14 0.000000 0.440284 0.338460
O O15 0.181450 0.713466 0.748570
O O16 0.000000 0.678155 0.794825
O O17 0.135922 0.672383 0.000000
O O18 0.813798 0.235851 0.500000
#
# Coordination Sequence:
#
# PCOD8194717 Si02
#       6
#     8   8   8   8   8   8
#     4   9  19  35  51  65  82 106 136 172 217 264
#     4   9  18  31  46  66  89 110 136 170 206 249
#     4   9  17  29  44  61  84 114 143 171 205 245
#     4   8  14  25  40  58  83 117 155 189 215 239
#     4  10  19  28  40  61  90 122 151 178 209 246
#     4  10  19  30  45  63  83 108 140 178 216 255
#
# _framework density 15.984147999999999
#
# number of rings (size 3 to 8) (size 9 to 14) (size 15 to 20)
#    0.000    2.833    0.000    2.000    0.000    5.667 
#    0.000    5.000    0.000    0.000    0.000    4.667 
#    0.000    0.667    0.000    7.667    0.000    2.500 
#
# Total GULP energy -595066.975972 kJ/mol
# GULP energy per Si atom -12397.228666 kJ/mol
# Density = 1.594777 g / cm^3
# Si number density = 15.984148 Si / 1000 Ang^3
#
#
#
# Elastic Constant Matrix: (Units=GPa)
#
#
# Indices 1 2 3 4 5 6 
#
# 1 70.3367 34.3431 28.6496 0.0000 0.0000 0.0000
# 2 34.3431 122.8968 56.7243 0.0000 0.0000 0.0000
# 3 28.6496 56.7243 71.5305 0.0000 0.0000 0.0000
# 4 0.0000 0.0000 0.0000 29.6181 0.0000 0.0000
# 5 0.0000 0.0000 0.0000 0.0000 18.5324 0.0000
# 6 0.0000 0.0000 0.0000 0.0000 0.0000 13.9186
#
#
#
# Elastic Compliance Matrix: (Units=1/GPa)
#
#
# Indices 1 2 3 4 5 6 
#
# 1 0.017505 -0.002611 -0.004940 0.000000 0.000000 0.000000
# 2 -0.002611 0.013224 -0.009441 0.000000 0.000000 0.000000
# 3 -0.004940 -0.009441 0.023445 0.000000 0.000000 0.000000
# 4 0.000000 0.000000 0.000000 0.033763 0.000000 0.000000
# 5 0.000000 0.000000 0.000000 0.000000 0.053960 0.000000
# 6 0.000000 0.000000 0.000000 0.000000 0.000000 0.071846
#
#
# Mechanical properties :
#
#
# Convention : Reuss Voigt Hill
#
# Bulk Modulus (GPa) = 49.53133 56.02198 52.77666
# Shear Modulus (GPa) = 19.64958 22.08361 20.86660
#
# Velocity S-wave (km/s) = 3.50996 3.72101 3.61703
# Velocity P-wave (km/s) = 6.89068 7.32023 7.10870
#
# Compressibility (1/GPa) = 0.02018924
#
# Stress axis : x y z
#
# Youngs Moduli (GPa) = 57.12773 75.61861 42.65218
#
# Poissons Ratio (x) = 0.19747 0.21071
# Poissons Ratio (y) = 0.14919 0.40268
# Poissons Ratio (z) = 0.28222 0.71391
#
# Static dielectric constant tensor:
#      x y z
#    x 2.865060 0.000000 0.000000 
#    y 0.000000 3.180130 0.000000 
#    z 0.000000 0.000000 3.098380 
# 
# 
# High freq. dielectric constant tensor:
#      x y z
#    x 1.580790 0.000000 0.000000 
#    y 0.000000 1.609000 0.000000 
#    z 0.000000 0.000000 1.619230 
# 
# From -- ./inp_files/6796.got.cif
#   From: 2010.03.12/outbox.cif.g09.slc.cpg/sg47_4_cif.got.tgz:6796.got - 2010.04.14 03:12:58.
