data_PCOD8194511
_publ_section_title
;
Structure prediction by ZEFSAII (Michael W. Deem and Ramdas Pophale) SiO2 
 PCOD8194511
Probable space group: P M M M
;
_chemical_formula_sum "Si O2"
_cell_formula_units_Z 28
_cell_length_a 17.052008
_cell_length_b 11.786329
_cell_length_c 9.146197
_cell_angle_alpha 90.000000
_cell_angle_beta 90.000000
_cell_angle_gamma 90.000000
_cell_volume 1838.207945
_symmetry_space_group_name_H-M "P M M M"
_symmetry_group_IT_number 47
_symmetry_cell_setting 'orthorhombic'
loop_
_space_group_symop_operation_xyz
x,y,z
-x,-y,z
x,-y,-z
-x,y,-z
-x,-y,-z
x,y,-z
-x,y,z
x,-y,z
loop_
_atom_site_type_symbol
_atom_site_label
_atom_site_fract_x
_atom_site_fract_y
_atom_site_fract_z
Si Si1 0.910538 0.000000 0.827858
Si Si2 0.500000 0.866300 0.169691
Si Si3 0.641048 0.257042 0.326209
Si Si4 0.209834 0.124870 0.662548
Si Si5 0.412385 0.500000 0.672685
O O1 0.867466 0.886149 0.765456
O O2 0.000000 0.000000 0.774454
O O3 0.903698 0.000000 0.000000
O O4 0.423417 0.816644 0.245449
O O5 0.500000 0.000000 0.191685
O O6 0.500000 0.832254 0.000000
O O7 0.629792 0.242009 0.500000
O O8 0.727044 0.214430 0.275877
O O9 0.633940 0.387977 0.276095
O O10 0.182531 0.161619 0.500000
O O11 0.250712 0.000000 0.656884
O O12 0.500000 0.500000 0.740993
O O13 0.420048 0.500000 0.500000
#
# Coordination Sequence:
#
# PCOD8194511 Si02
#       5
#     4   4   8   8   4
#     4   9  17  29  47  70  95 120 141 169 220 281
#     4  11  23  32  41  62  90 121 156 193 236 269
#     4  10  18  32  49  65  87 120 160 193 227 271
#     4   8  16  28  44  67  92 116 146 182 222 266
#     4   9  16  28  48  68  85 116 161 203 230 256
#
# _framework density 15.232227
#
# number of rings (size 3 to 8) (size 9 to 14) (size 15 to 20)
#    0.857    1.857    1.429    1.286    0.000    4.571 
#    0.000    1.429    0.000    0.000    0.000    1.000 
#    0.000    8.000    0.000    0.000    0.000    0.000 
#
# Total GULP energy -346917.339994 kJ/mol
# GULP energy per Si atom -12389.905000 kJ/mol
# Density = 1.519756 g / cm^3
# Si number density = 15.232227 Si / 1000 Ang^3
#
#
#
# Elastic Constant Matrix: (Units=GPa)
#
#
# Indices 1 2 3 4 5 6 
#
# 1 139.9984 59.2709 50.9962 0.0000 0.0000 0.0000
# 2 59.2709 86.4340 28.8199 0.0000 0.0000 0.0000
# 3 50.9962 28.8199 53.5830 0.0000 0.0000 0.0000
# 4 0.0000 0.0000 0.0000 11.0866 0.0000 0.0000
# 5 0.0000 0.0000 0.0000 0.0000 16.8873 0.0000
# 6 0.0000 0.0000 0.0000 0.0000 0.0000 6.1881
#
#
#
# Elastic Compliance Matrix: (Units=1/GPa)
#
#
# Indices 1 2 3 4 5 6 
#
# 1 0.012958 -0.005817 -0.009204 0.000000 0.000000 0.000000
# 2 -0.005817 0.016709 -0.003451 0.000000 0.000000 0.000000
# 3 -0.009204 -0.003451 0.029278 0.000000 0.000000 0.000000
# 4 0.000000 0.000000 0.000000 0.090199 0.000000 0.000000
# 5 0.000000 0.000000 0.000000 0.000000 0.059216 0.000000
# 6 0.000000 0.000000 0.000000 0.000000 0.000000 0.161601
#
#
# Mechanical properties :
#
#
# Convention : Reuss Voigt Hill
#
# Bulk Modulus (GPa) = 45.45046 62.02105 53.73575
# Shear Modulus (GPa) = 12.07031 16.22762 14.14896
#
# Velocity S-wave (km/s) = 2.81805 3.26751 3.05106
# Velocity P-wave (km/s) = 6.36331 7.41895 6.91131
#
# Compressibility (1/GPa) = 0.02200198
#
# Stress axis : x y z
#
# Youngs Moduli (GPa) = 77.16978 59.84748 34.15486
#
# Poissons Ratio (x) = 0.34814 0.31436
# Poissons Ratio (y) = 0.44891 0.11786
# Poissons Ratio (z) = 0.71028 0.20652
#
# Static dielectric constant tensor:
#      x y z
#    x 2.856930 0.000000 0.000000 
#    y 0.000000 2.982900 0.000000 
#    z 0.000000 0.000000 2.802360 
# 
# 
# High freq. dielectric constant tensor:
#      x y z
#    x 1.567620 0.000000 0.000000 
#    y 0.000000 1.567270 0.000000 
#    z 0.000000 0.000000 1.572700 
# 
# From -- ./inp_files/8548.got.cif
#   From: 2010.03.12/outbox.cif.g09.slc.cpg/sg47_5_cif.got.tgz:8548.got - 2010.04.14 03:12:58.
