data_PCOD8194966
_publ_section_title
;
Structure prediction by ZEFSAII (Michael W. Deem and Ramdas Pophale) SiO2 
 PCOD8194966
Probable space group: P M M M
;
_chemical_formula_sum "Si O2"
_cell_formula_units_Z 56
_cell_length_a 23.421251
_cell_length_b 21.898586
_cell_length_c 9.076687
_cell_angle_alpha 90.000000
_cell_angle_beta 90.000000
_cell_angle_gamma 90.000000
_cell_volume 4655.362683
_symmetry_space_group_name_H-M "P M M M"
_symmetry_group_IT_number 47
_symmetry_cell_setting 'orthorhombic'
loop_
_space_group_symop_operation_xyz
x,y,z
-x,-y,z
x,-y,-z
-x,y,-z
-x,-y,-z
x,y,-z
-x,y,z
x,-y,z
loop_
_atom_site_type_symbol
_atom_site_label
_atom_site_fract_x
_atom_site_fract_y
_atom_site_fract_z
Si Si1 0.567255 0.258419 0.171445
Si Si2 0.568132 0.500000 0.832975
Si Si3 0.500000 0.927725 0.831418
Si Si4 0.602188 0.138631 0.674274
Si Si5 0.937417 0.072606 0.665678
Si Si6 0.828724 0.927209 0.165021
Si Si7 0.567823 0.380650 0.666369
Si Si8 0.283023 0.930681 0.328410
O O1 0.500000 0.247800 0.194144
O O2 0.600639 0.205846 0.257489
O O3 0.587915 0.321919 0.241722
O O4 0.583640 0.258125 0.000000
O O5 0.500000 0.500000 0.834076
O O6 0.591852 0.440563 0.748254
O O7 0.591471 0.500000 0.000000
O O8 0.444400 0.904285 0.748702
O O9 0.500000 0.000000 0.826646
O O10 0.500000 0.903364 0.000000
O O11 0.590814 0.141328 0.500000
O O12 0.663489 0.110926 0.713345
O O13 0.929359 0.096897 0.500000
O O14 0.886463 0.100404 0.763709
O O15 0.000000 0.093112 0.726185
O O16 0.933912 0.000000 0.666945
O O17 0.772611 0.903331 0.248621
O O18 0.830490 0.000000 0.171978
O O19 0.825686 0.902447 0.000000
O O20 0.592233 0.377794 0.500000
O O21 0.500000 0.383404 0.661961
O O22 0.269706 0.929090 0.500000
O O23 0.295985 0.000000 0.276705
#
# Coordination Sequence:
#
# PCOD8194966 Si02
#       8
#     8   4   4   8   8   8   8   8
#     4  10  19  30  42  55  72  90 108 131 166 206
#     4   9  15  23  35  53  75  95 113 131 155 183
#     4  11  23  35  45  57  71  84  99 128 173 219
#     4  11  21  32  46  58  68  83 108 138 170 209
#     4   8  13  21  33  48  66  88 109 126 147 179
#     4   9  16  24  35  51  68  85 104 128 158 191
#     4   9  16  25  38  54  72  92 114 134 154 183
#     4   9  18  31  43  53  65  83 107 135 168 207
#
# _framework density 12.029137
#
# number of rings (size 3 to 8) (size 9 to 14) (size 15 to 20)
#    0.000    2.571    0.714    3.000    0.000    7.429 
#    0.000    2.857    0.000    0.000    0.000    0.000 
#    0.000    0.000    0.000    0.000    0.000    0.000 
#
# Total GULP energy -694283.149878 kJ/mol
# GULP energy per Si atom -12397.913391 kJ/mol
# Density = 1.200176 g / cm^3
# Si number density = 12.029137 Si / 1000 Ang^3
#
#
#
# Elastic Constant Matrix: (Units=GPa)
#
#
# Indices 1 2 3 4 5 6 
#
# 1 81.5965 29.5409 49.1242 0.0000 0.0000 0.0000
# 2 29.5409 65.6470 38.4601 0.0000 0.0000 0.0000
# 3 49.1242 38.4601 92.1809 0.0000 0.0000 0.0000
# 4 0.0000 0.0000 0.0000 18.6409 0.0000 0.0000
# 5 0.0000 0.0000 0.0000 0.0000 7.9743 0.0000
# 6 0.0000 0.0000 0.0000 0.0000 0.0000 -0.1415
#
#
#
# Elastic Compliance Matrix: (Units=1/GPa)
#
#
# Indices 1 2 3 4 5 6 
#
# 1 0.018598 -0.003392 -0.008496 0.000000 0.000000 0.000000
# 2 -0.003392 0.020780 -0.006862 0.000000 0.000000 0.000000
# 3 -0.008496 -0.006862 0.018239 0.000000 0.000000 0.000000
# 4 0.000000 0.000000 0.000000 0.053645 0.000000 0.000000
# 5 0.000000 0.000000 0.000000 0.000000 0.125403 0.000000
# 6 0.000000 0.000000 0.000000 0.000000 0.000000 -7.067782
#
#
# Mechanical properties :
#
#
# Convention : Reuss Voigt Hill
#
# Bulk Modulus (GPa) = 49.70979 52.63054 51.17017
# Shear Modulus (GPa) = -0.73671 13.44803 6.35566
#
# Velocity S-wave (km/s) = -0.78343 3.34721 2.30109
# Velocity P-wave (km/s) = 6.37149 7.66720 7.04918
#
# Compressibility (1/GPa) = 0.02011676
#
# Stress axis : x y z
#
# Youngs Moduli (GPa) = 53.76827 48.12428 54.82737
#
# Poissons Ratio (x) = 0.16322 0.46582
# Poissons Ratio (y) = 0.18236 0.37624
# Poissons Ratio (z) = 0.45683 0.33024
#
# Static dielectric constant tensor:
#      x y z
#    x 2.385890 0.000000 0.000000 
#    y 0.000000 2.310710 0.000000 
#    z 0.000000 0.000000 2.685740 
# 
# 
# High freq. dielectric constant tensor:
#      x y z
#    x 1.423410 0.000000 0.000000 
#    y 0.000000 1.419460 0.000000 
#    z 0.000000 0.000000 1.474520 
# 
# From -- ./inp_files/11771.got.cif
#   From: 2010.03.12/outbox.cif.g09.slc.cpg/sg47_6_cif.got.tgz:11771.got - 2010.04.14 03:12:58.
