data_PCOD8194171
_publ_section_title
;
Structure prediction by ZEFSAII (Michael W. Deem and Ramdas Pophale) SiO2 
 PCOD8194171
Probable space group: P M M M
;
_chemical_formula_sum "Si O2"
_cell_formula_units_Z 64
_cell_length_a 19.897876
_cell_length_b 19.800216
_cell_length_c 9.388321
_cell_angle_alpha 90.000000
_cell_angle_beta 90.000000
_cell_angle_gamma 90.000000
_cell_volume 3698.831763
_symmetry_space_group_name_H-M "P M M M"
_symmetry_group_IT_number 47
_symmetry_cell_setting 'orthorhombic'
loop_
_space_group_symop_operation_xyz
x,y,z
-x,-y,z
x,-y,-z
-x,y,-z
-x,-y,-z
x,y,-z
-x,y,z
x,-y,z
loop_
_atom_site_type_symbol
_atom_site_label
_atom_site_fract_x
_atom_site_fract_y
_atom_site_fract_z
Si Si1 0.782353 0.074568 0.833622
Si Si2 0.926621 0.628210 0.839617
Si Si3 0.786236 0.424543 0.837964
Si Si4 0.927572 0.118026 0.162731
Si Si5 0.578122 0.422860 0.164569
Si Si6 0.894645 0.243280 0.664655
Si Si7 0.684181 0.338447 0.668267
Si Si8 0.744964 0.799335 0.337162
O O1 0.861919 0.075131 0.791796
O O2 0.738739 0.132304 0.755329
O O3 0.755571 0.000000 0.790354
O O4 0.772572 0.087180 0.000000
O O5 0.866531 0.575546 0.811560
O O6 0.921233 0.687688 0.727446
O O7 0.000000 0.593001 0.820144
O O8 0.919996 0.657533 0.000000
O O9 0.759784 0.500000 0.809452
O O10 0.750135 0.374413 0.729888
O O11 0.769008 0.402813 0.000000
O O12 0.933837 0.183348 0.259893
O O13 0.000000 0.078912 0.179737
O O14 0.918008 0.141180 0.000000
O O15 0.500000 0.408777 0.190085
O O16 0.595781 0.500000 0.208211
O O17 0.617966 0.369430 0.260320
O O18 0.597365 0.411434 0.000000
O O19 0.912956 0.241219 0.500000
O O20 0.815457 0.236760 0.692804
O O21 0.682022 0.351386 0.500000
O O22 0.688808 0.257604 0.700540
O O23 0.738280 0.822473 0.500000
#
# Coordination Sequence:
#
# PCOD8194171 Si02
#       8
#     8   8   8   8   8   8   8   8
#     4   9  18  31  47  68  92 120 157 201 249 301
#     4  10  20  32  46  63  84 113 153 204 260 312
#     4  10  21  35  50  68  91 123 163 206 256 310
#     4   9  17  28  42  61  86 115 148 189 242 304
#     4   9  19  36  56  80 113 149 179 205 239 289
#     4  10  18  30  45  62  86 115 150 196 247 298
#     4  11  21  34  53  78 105 133 170 212 247 286
#     4   9  19  33  48  68  95 126 161 200 244 292
#
# _framework density 17.302761
#
# number of rings (size 3 to 8) (size 9 to 14) (size 15 to 20)
#    0.000    2.375    1.250    1.875    0.000    6.500 
#    0.000    3.125    0.000    0.000    0.000    5.250 
#    0.000    0.500    0.000    5.500    0.000    4.000 
#
# Total GULP energy -793153.440646 kJ/mol
# GULP energy per Si atom -12393.022510 kJ/mol
# Density = 1.726338 g / cm^3
# Si number density = 17.302761 Si / 1000 Ang^3
#
#
#
# Elastic Constant Matrix: (Units=GPa)
#
#
# Indices 1 2 3 4 5 6 
#
# 1 72.5528 42.2183 35.0468 0.0000 0.0000 0.0000
# 2 42.2183 105.2707 54.3579 0.0000 0.0000 0.0000
# 3 35.0468 54.3579 78.8931 0.0000 0.0000 0.0000
# 4 0.0000 0.0000 0.0000 17.7518 0.0000 0.0000
# 5 0.0000 0.0000 0.0000 0.0000 19.5633 0.0000
# 6 0.0000 0.0000 0.0000 0.0000 0.0000 15.3322
#
#
#
# Elastic Compliance Matrix: (Units=1/GPa)
#
#
# Indices 1 2 3 4 5 6 
#
# 1 0.019169 -0.005108 -0.004996 0.000000 0.000000 0.000000
# 2 -0.005108 0.016106 -0.008828 0.000000 0.000000 0.000000
# 3 -0.004996 -0.008828 0.020978 0.000000 0.000000 0.000000
# 4 0.000000 0.000000 0.000000 0.056332 0.000000 0.000000
# 5 0.000000 0.000000 0.000000 0.000000 0.051116 0.000000
# 6 0.000000 0.000000 0.000000 0.000000 0.000000 0.065222
#
#
# Mechanical properties :
#
#
# Convention : Reuss Voigt Hill
#
# Bulk Modulus (GPa) = 54.38247 57.77361 56.07804
# Shear Modulus (GPa) = 18.32059 18.86904 18.59481
#
# Velocity S-wave (km/s) = 3.25749 3.30589 3.28178
# Velocity P-wave (km/s) = 6.75622 6.93067 6.84400
#
# Compressibility (1/GPa) = 0.01838828
#
# Stress axis : x y z
#
# Youngs Moduli (GPa) = 52.16880 62.08700 47.66975
#
# Poissons Ratio (x) = 0.31712 0.23816
# Poissons Ratio (y) = 0.26646 0.42085
# Poissons Ratio (z) = 0.26064 0.54813
#
# Static dielectric constant tensor:
#      x y z
#    x 3.104750 0.000000 0.000000 
#    y 0.000000 3.207680 0.000000 
#    z 0.000000 0.000000 3.203270 
# 
# 
# High freq. dielectric constant tensor:
#      x y z
#    x 1.640930 0.000000 0.000000 
#    y 0.000000 1.652200 0.000000 
#    z 0.000000 0.000000 1.668120 
# 
# From -- ./inp_files/10022.got.cif
#   From: 2010.03.12/outbox.cif.g09.slc.cpg/sg47_6_cif.got.tgz:10022.got - 2010.04.14 03:12:58.
