data_PCOD8194393
_publ_section_title
;
Structure prediction by ZEFSAII (Michael W. Deem and Ramdas Pophale) SiO2 
 PCOD8194393
Probable space group: P M M M
;
_chemical_formula_sum "Si O2"
_cell_formula_units_Z 52
_cell_length_a 16.074686
_cell_length_b 9.192865
_cell_length_c 20.665870
_cell_angle_alpha 90.000000
_cell_angle_beta 90.000000
_cell_angle_gamma 90.000000
_cell_volume 3053.845586
_symmetry_space_group_name_H-M "P M M M"
_symmetry_group_IT_number 47
_symmetry_cell_setting 'orthorhombic'
loop_
_space_group_symop_operation_xyz
x,y,z
-x,-y,z
x,-y,-z
-x,y,-z
-x,-y,-z
x,y,-z
-x,y,z
x,-y,z
loop_
_atom_site_type_symbol
_atom_site_label
_atom_site_fract_x
_atom_site_fract_y
_atom_site_fract_z
Si Si1 0.161784 0.666961 0.360846
Si Si2 0.903997 0.827792 0.000000
Si Si3 0.731947 0.331907 0.237540
Si Si4 0.155520 0.666199 0.877645
Si Si5 0.595277 0.167657 0.309852
Si Si6 0.000000 0.335441 0.787522
Si Si7 0.000000 0.171835 0.343798
Si Si8 0.330652 0.330404 0.426752
O O1 0.133671 0.500000 0.365912
O O2 0.194116 0.702298 0.288332
O O3 0.234250 0.703671 0.411828
O O4 0.082744 0.766379 0.378245
O O5 0.852782 0.771993 0.938334
O O6 0.000000 0.770382 0.000000
O O7 0.902915 0.000000 0.000000
O O8 0.706551 0.500000 0.244882
O O9 0.762174 0.296895 0.164546
O O10 0.651009 0.236975 0.253190
O O11 0.157863 0.500000 0.902473
O O12 0.078828 0.693197 0.831231
O O13 0.500000 0.188719 0.289284
O O14 0.609743 0.241920 0.379259
O O15 0.619661 0.000000 0.316688
O O16 0.000000 0.500000 0.759101
O O17 0.000000 0.220388 0.730420
O O18 0.000000 0.000000 0.349393
O O19 0.350494 0.283362 0.500000
O O20 0.348628 0.500000 0.415343
#
# Coordination Sequence:
#
# PCOD8194393 Si02
#       8
#     8   4   8   8   8   4   4   8
#     4   9  17  32  50  68  93 124 162 208 253 294
#     4  11  23  33  43  69 108 143 176 213 247 284
#     4   9  18  33  54  76  96 125 169 214 250 289
#     4  10  19  33  52  71  95 135 178 210 247 291
#     4  10  21  35  52  78 109 135 157 188 242 309
#     4  10  18  31  49  67  94 130 169 211 251 290
#     4  12  22  28  42  70  98 127 166 208 251 296
#     4   9  19  36  56  75  95 125 166 207 246 291
#
# _framework density 17.027711
#
# number of rings (size 3 to 8) (size 9 to 14) (size 15 to 20)
#    0.000    2.231    2.308    2.308    0.000    5.846 
#    0.000    1.923    0.000    2.308    0.000    0.538 
#    0.000    4.308    0.000    0.000    0.000    0.000 
#
# Total GULP energy -644792.885381 kJ/mol
# GULP energy per Si atom -12399.863180 kJ/mol
# Density = 1.698896 g / cm^3
# Si number density = 17.027711 Si / 1000 Ang^3
#
#
#
# Elastic Constant Matrix: (Units=GPa)
#
#
# Indices 1 2 3 4 5 6 
#
# 1 86.9278 52.2286 32.3430 0.0000 0.0000 0.0000
# 2 52.2286 89.1355 35.6039 0.0000 0.0000 0.0000
# 3 32.3430 35.6039 82.9600 0.0000 0.0000 0.0000
# 4 0.0000 0.0000 0.0000 17.7239 0.0000 0.0000
# 5 0.0000 0.0000 0.0000 0.0000 18.9493 0.0000
# 6 0.0000 0.0000 0.0000 0.0000 0.0000 26.9726
#
#
#
# Elastic Compliance Matrix: (Units=1/GPa)
#
#
# Indices 1 2 3 4 5 6 
#
# 1 0.018380 -0.009543 -0.003070 0.000000 0.000000 0.000000
# 2 -0.009543 0.018495 -0.004217 0.000000 0.000000 0.000000
# 3 -0.003070 -0.004217 0.015061 0.000000 0.000000 0.000000
# 4 0.000000 0.000000 0.000000 0.056421 0.000000 0.000000
# 5 0.000000 0.000000 0.000000 0.000000 0.052772 0.000000
# 6 0.000000 0.000000 0.000000 0.000000 0.000000 0.037075
#
#
# Mechanical properties :
#
#
# Convention : Reuss Voigt Hill
#
# Bulk Modulus (GPa) = 54.71890 55.48602 55.10246
# Shear Modulus (GPa) = 21.01226 21.98568 21.49897
#
# Velocity S-wave (km/s) = 3.51665 3.59718 3.55715
# Velocity P-wave (km/s) = 6.97811 7.06466 7.02152
#
# Compressibility (1/GPa) = 0.01827522
#
# Stress axis : x y z
#
# Youngs Moduli (GPa) = 54.40700 54.06799 66.39829
#
# Poissons Ratio (x) = 0.51600 0.20384
# Poissons Ratio (y) = 0.51923 0.28000
# Poissons Ratio (z) = 0.16702 0.22800
#
# Static dielectric constant tensor:
#      x y z
#    x 3.079820 0.000000 0.000000 
#    y 0.000000 3.114560 0.000000 
#    z 0.000000 0.000000 3.184430 
# 
# 
# High freq. dielectric constant tensor:
#      x y z
#    x 1.645550 0.000000 0.000000 
#    y 0.000000 1.652740 0.000000 
#    z 0.000000 0.000000 1.638960 
# 
# From -- ./inp_files/11152.got.cif
#   From: 2010.03.12/outbox.cif.g09.slc.cpg/sg47_6_cif.got.tgz:11152.got - 2010.04.14 03:12:58.
