data_PCOD8194904
_publ_section_title
;
Structure prediction by ZEFSAII (Michael W. Deem and Ramdas Pophale) SiO2 
 PCOD8194904
Probable space group: P M M M
;
_chemical_formula_sum "Si O2"
_cell_formula_units_Z 40
_cell_length_a 9.124180
_cell_length_b 15.400285
_cell_length_c 18.697904
_cell_angle_alpha 90.000000
_cell_angle_beta 90.000000
_cell_angle_gamma 90.000000
_cell_volume 2627.335464
_symmetry_space_group_name_H-M "P M M M"
_symmetry_group_IT_number 47
_symmetry_cell_setting 'orthorhombic'
loop_
_space_group_symop_operation_xyz
x,y,z
-x,-y,z
x,-y,-z
-x,y,-z
-x,-y,-z
x,y,-z
-x,y,z
x,-y,z
loop_
_atom_site_type_symbol
_atom_site_label
_atom_site_fract_x
_atom_site_fract_y
_atom_site_fract_z
Si Si1 0.826988 0.259586 0.328433
Si Si2 0.333003 0.399687 0.417323
Si Si3 0.664780 0.904339 0.342693
Si Si4 0.830934 0.098940 0.918063
Si Si5 0.664171 0.187542 0.204684
O O1 0.778876 0.345276 0.369823
O O2 0.768978 0.173374 0.371783
O O3 0.756906 0.260900 0.248287
O O4 0.000000 0.255994 0.322568
O O5 0.296522 0.383133 0.500000
O O6 0.500000 0.371662 0.400650
O O7 0.309670 0.500000 0.397918
O O8 0.500000 0.891859 0.373413
O O9 0.660454 0.897645 0.255869
O O10 0.725306 0.000000 0.363817
O O11 0.737540 0.164651 0.870414
O O12 0.000000 0.106956 0.895791
O O13 0.777682 0.000000 0.907101
O O14 0.808130 0.126976 0.000000
O O15 0.500000 0.222566 0.190158
#
# Coordination Sequence:
#
# PCOD8194904 Si02
#       5
#     8   8   8   8   8
#     4  10  19  29  44  68  95 121 150 187 229 272
#     4   9  18  34  55  75  95 120 147 177 220 275
#     4   8  15  27  42  60  83 114 152 190 223 258
#     4   9  17  27  38  56  85 119 154 194 239 281
#     4   9  17  28  41  58  83 116 157 195 226 264
#
# _framework density 15.224550000000001
#
# number of rings (size 3 to 8) (size 9 to 14) (size 15 to 20)
#    1.200    1.800    0.000    3.600    0.000    2.800 
#    0.000    2.000    0.000    0.600    0.000    4.200 
#    0.000    0.800    0.000    8.400    0.000    3.600 
#
# Total GULP energy -495522.159775 kJ/mol
# GULP energy per Si atom -12388.053994 kJ/mol
# Density = 1.518990 g / cm^3
# Si number density = 15.224550 Si / 1000 Ang^3
#
#
#
# Elastic Constant Matrix: (Units=GPa)
#
#
# Indices 1 2 3 4 5 6 
#
# 1 114.9238 45.2939 44.3813 0.0000 0.0000 0.0000
# 2 45.2939 64.0335 36.4304 0.0000 0.0000 0.0000
# 3 44.3813 36.4304 55.3531 0.0000 0.0000 0.0000
# 4 0.0000 0.0000 0.0000 -7.6201 0.0000 0.0000
# 5 0.0000 0.0000 0.0000 0.0000 23.8732 0.0000
# 6 0.0000 0.0000 0.0000 0.0000 0.0000 21.1280
#
#
#
# Elastic Compliance Matrix: (Units=1/GPa)
#
#
# Indices 1 2 3 4 5 6 
#
# 1 0.013721 -0.005510 -0.007375 0.000000 0.000000 0.000000
# 2 -0.005510 0.027177 -0.013469 0.000000 0.000000 0.000000
# 3 -0.007375 -0.013469 0.032844 0.000000 0.000000 0.000000
# 4 0.000000 0.000000 0.000000 -0.131231 0.000000 0.000000
# 5 0.000000 0.000000 0.000000 0.000000 0.041888 0.000000
# 6 0.000000 0.000000 0.000000 0.000000 0.000000 0.047331
#
#
# Mechanical properties :
#
#
# Convention : Reuss Voigt Hill
#
# Bulk Modulus (GPa) = 47.54151 54.05797 50.79974
# Shear Modulus (GPa) = 54.67628 14.68985 34.68306
#
# Velocity S-wave (km/s) = 5.99927 3.10962 4.77812
# Velocity P-wave (km/s) = 8.90410 6.96255 7.99250
#
# Compressibility (1/GPa) = 0.02103425
#
# Stress axis : x y z
#
# Youngs Moduli (GPa) = 72.88089 36.79609 30.44727
#
# Poissons Ratio (x) = 0.20273 0.22456
# Poissons Ratio (y) = 0.40154 0.41009
# Poissons Ratio (z) = 0.53751 0.49560
#
# Static dielectric constant tensor:
#      x y z
#    x 2.859920 0.000000 0.000000 
#    y 0.000000 2.641340 0.000000 
#    z 0.000000 0.000000 2.635300 
# 
# 
# High freq. dielectric constant tensor:
#      x y z
#    x 1.587680 0.000000 0.000000 
#    y 0.000000 1.552330 0.000000 
#    z 0.000000 0.000000 1.556020 
# 
# From -- ./inp_files/29409.got.cif
#   From: 2010.03.12/outbox.cif.g09.slc.cpg/sg47_15_cif.got.tgz:29409.got - 2010.04.14 03:12:58.
