data_PCOD8194613
_publ_section_title
;
Structure prediction by ZEFSAII (Michael W. Deem and Ramdas Pophale) SiO2 
 PCOD8194613
Probable space group: P M M M
;
_chemical_formula_sum "Si O2"
_cell_formula_units_Z 64
_cell_length_a 13.507595
_cell_length_b 14.487849
_cell_length_c 17.785027
_cell_angle_alpha 90.000000
_cell_angle_beta 90.000000
_cell_angle_gamma 90.000000
_cell_volume 3480.458585
_symmetry_space_group_name_H-M "P M M M"
_symmetry_group_IT_number 47
_symmetry_cell_setting 'orthorhombic'
loop_
_space_group_symop_operation_xyz
x,y,z
-x,-y,z
x,-y,-z
-x,y,-z
-x,-y,-z
x,y,-z
-x,y,z
x,-y,z
loop_
_atom_site_type_symbol
_atom_site_label
_atom_site_fract_x
_atom_site_fract_y
_atom_site_fract_z
Si Si1 0.612504 0.211248 0.085581
Si Si2 0.386691 0.607093 0.688431
Si Si3 0.729349 0.892267 0.212044
Si Si4 0.107746 0.396672 0.189557
Si Si5 0.112064 0.225610 0.292188
Si Si6 0.737355 0.738867 0.415621
Si Si7 0.316978 0.604603 0.143444
Si Si8 0.614965 0.895983 0.361807
O O1 0.500000 0.186596 0.108322
O O2 0.689151 0.155522 0.136781
O O3 0.627073 0.322059 0.091707
O O4 0.632911 0.181866 0.000000
O O5 0.500000 0.642662 0.686060
O O6 0.381635 0.500000 0.668637
O O7 0.321613 0.658942 0.627059
O O8 0.341986 0.627633 0.770182
O O9 0.832440 0.845681 0.236741
O O10 0.648899 0.874790 0.276785
O O11 0.747616 0.000000 0.196301
O O12 0.116822 0.500000 0.223541
O O13 0.115930 0.327998 0.258980
O O14 0.198340 0.382176 0.131430
O O15 0.000000 0.383661 0.148982
O O16 0.161646 0.232382 0.373965
O O17 0.000000 0.189823 0.301644
O O18 0.762292 0.706094 0.500000
O O19 0.668980 0.829533 0.420183
O O20 0.350515 0.500000 0.122488
O O21 0.500000 0.876478 0.366169
O O22 0.642041 0.000000 0.384765
#
# Coordination Sequence:
#
# PCOD8194613 Si02
#       8
#     8   8   8   8   8   8   8   8
#     4  11  23  36  52  81 120 154 181 213 261 321
#     4  10  20  33  50  73 102 142 192 235 267 307
#     4  10  20  37  59  81 104 136 181 229 270 313
#     4   9  16  29  55  84 103 125 168 225 276 317
#     4  10  20  36  58  82 105 134 176 225 273 321
#     4  11  22  34  49  73 107 143 174 214 269 329
#     4  10  18  33  56  79 107 146 189 231 273 317
#     4   9  18  33  54  77  98 126 171 224 270 313
#
# _framework density 18.388380999999999
#
# number of rings (size 3 to 8) (size 9 to 14) (size 15 to 20)
#    0.000    2.000    2.500    1.875    0.000    4.000 
#    0.000    2.500    0.000    1.500    0.000    8.750 
#    0.000    0.000    0.000    0.000    0.000    0.000 
#
# Total GULP energy -793498.096668 kJ/mol
# GULP energy per Si atom -12398.407760 kJ/mol
# Density = 1.834653 g / cm^3
# Si number density = 18.388381 Si / 1000 Ang^3
#
#
#
# Elastic Constant Matrix: (Units=GPa)
#
#
# Indices 1 2 3 4 5 6 
#
# 1 112.2153 31.1635 43.0548 0.0000 0.0000 0.0000
# 2 31.1635 78.5625 24.5540 0.0000 0.0000 0.0000
# 3 43.0548 24.5540 68.7753 0.0000 0.0000 0.0000
# 4 0.0000 0.0000 0.0000 16.0341 0.0000 0.0000
# 5 0.0000 0.0000 0.0000 0.0000 15.8266 0.0000
# 6 0.0000 0.0000 0.0000 0.0000 0.0000 23.8286
#
#
#
# Elastic Compliance Matrix: (Units=1/GPa)
#
#
# Indices 1 2 3 4 5 6 
#
# 1 0.012242 -0.002770 -0.006675 0.000000 0.000000 0.000000
# 2 -0.002770 0.014954 -0.003605 0.000000 0.000000 0.000000
# 3 -0.006675 -0.003605 0.020006 0.000000 0.000000 0.000000
# 4 0.000000 0.000000 0.000000 0.062367 0.000000 0.000000
# 5 0.000000 0.000000 0.000000 0.000000 0.063185 0.000000
# 6 0.000000 0.000000 0.000000 0.000000 0.000000 0.041966
#
#
# Mechanical properties :
#
#
# Convention : Reuss Voigt Hill
#
# Bulk Modulus (GPa) = 47.38760 50.78864 49.08812
# Shear Modulus (GPa) = 20.17330 21.85658 21.01494
#
# Velocity S-wave (km/s) = 3.31579 3.45136 3.38426
# Velocity P-wave (km/s) = 6.36284 6.60018 6.48260
#
# Compressibility (1/GPa) = 0.02110257
#
# Stress axis : x y z
#
# Youngs Moduli (GPa) = 81.68898 66.87125 49.98611
#
# Poissons Ratio (x) = 0.18522 0.33364
# Poissons Ratio (y) = 0.22626 0.18020
# Poissons Ratio (z) = 0.54524 0.24107
#
# Static dielectric constant tensor:
#      x y z
#    x 3.644510 0.000000 0.000000 
#    y 0.000000 3.535050 0.000000 
#    z 0.000000 0.000000 3.032520 
# 
# 
# High freq. dielectric constant tensor:
#      x y z
#    x 1.719930 0.000000 0.000000 
#    y 0.000000 1.722510 0.000000 
#    z 0.000000 0.000000 1.677750 
# 
# From -- ./inp_files/28331.got.cif
#   From: 2010.03.12/outbox.cif.g09.slc.cpg/sg47_15_cif.got.tgz:28331.got - 2010.04.14 03:12:58.
