data_PCOD8194560
_publ_section_title
;
Structure prediction by ZEFSAII (Michael W. Deem and Ramdas Pophale) SiO2 
 PCOD8194560
Probable space group: P M M M
;
_chemical_formula_sum "Si O2"
_cell_formula_units_Z 52
_cell_length_a 11.967116
_cell_length_b 9.005409
_cell_length_c 25.564282
_cell_angle_alpha 90.000000
_cell_angle_beta 90.000000
_cell_angle_gamma 90.000000
_cell_volume 2755.031333
_symmetry_space_group_name_H-M "P M M M"
_symmetry_group_IT_number 47
_symmetry_cell_setting 'orthorhombic'
loop_
_space_group_symop_operation_xyz
x,y,z
-x,-y,z
x,-y,-z
-x,y,-z
-x,-y,-z
x,y,-z
-x,y,z
x,-y,z
loop_
_atom_site_type_symbol
_atom_site_label
_atom_site_fract_x
_atom_site_fract_y
_atom_site_fract_z
Si Si1 0.760012 0.323754 0.249323
Si Si2 0.213136 0.670984 0.059522
Si Si3 0.000000 0.675556 0.785295
Si Si4 0.624955 0.676345 0.651890
Si Si5 0.000000 0.166362 0.562147
Si Si6 0.000000 0.824474 0.897769
Si Si7 0.624667 0.324041 0.149933
Si Si8 0.221405 0.674516 0.440707
O O1 0.752196 0.500000 0.249674
O O2 0.889990 0.274639 0.247019
O O3 0.701938 0.258611 0.301493
O O4 0.694627 0.259800 0.198929
O O5 0.180483 0.500000 0.071516
O O6 0.107152 0.773444 0.069758
O O7 0.314780 0.723283 0.096366
O O8 0.253364 0.690680 0.000000
O O9 0.000000 0.753221 0.840904
O O10 0.000000 0.500000 0.795653
O O11 0.500000 0.742810 0.656154
O O12 0.620109 0.500000 0.656256
O O13 0.675966 0.723738 0.595948
O O14 0.110237 0.249633 0.582246
O O15 0.000000 0.168825 0.500000
O O16 0.000000 0.000000 0.584459
O O17 0.000000 0.000000 0.892265
O O18 0.500000 0.255494 0.150471
O O19 0.617373 0.500000 0.154408
O O20 0.248872 0.725653 0.500000
O O21 0.200092 0.500000 0.438220
#
# Coordination Sequence:
#
# PCOD8194560 Si02
#       8
#     8   8   4   8   4   4   8   8
#     4   9  16  27  47  73 101 129 162 207 253 296
#     4  10  20  34  53  77 105 135 166 204 251 299
#     4  10  18  32  54  77 100 127 162 206 259 308
#     4   9  17  28  44  72 107 137 168 208 252 297
#     4   9  17  30  49  71  95 127 168 212 254 297
#     4  12  23  35  53  76 103 133 168 208 249 300
#     4   9  16  27  47  75 103 129 160 203 251 293
#     4   9  17  29  47  73 105 138 170 207 252 302
#
# _framework density 18.874559999999999
#
# number of rings (size 3 to 8) (size 9 to 14) (size 15 to 20)
#    0.000    2.538    1.538    1.615    0.000    5.231 
#    0.000    5.385    0.000    2.769    0.000    3.231 
#    0.000    0.000    0.000    0.000    0.000    0.000 
#
# Total GULP energy -644706.115916 kJ/mol
# GULP energy per Si atom -12398.194537 kJ/mol
# Density = 1.883160 g / cm^3
# Si number density = 18.874560 Si / 1000 Ang^3
#
#
#
# Elastic Constant Matrix: (Units=GPa)
#
#
# Indices 1 2 3 4 5 6 
#
# 1 185.7111 22.9516 87.2813 0.0000 0.0000 0.0000
# 2 22.9516 29.4111 18.7727 0.0000 0.0000 0.0000
# 3 87.2813 18.7727 138.1469 0.0000 0.0000 0.0000
# 4 0.0000 0.0000 0.0000 6.3377 0.0000 0.0000
# 5 0.0000 0.0000 0.0000 0.0000 41.8505 0.0000
# 6 0.0000 0.0000 0.0000 0.0000 0.0000 1.4488
#
#
#
# Elastic Compliance Matrix: (Units=1/GPa)
#
#
# Indices 1 2 3 4 5 6 
#
# 1 0.007937 -0.003277 -0.004569 0.000000 0.000000 0.000000
# 2 -0.003277 0.038583 -0.003172 0.000000 0.000000 0.000000
# 3 -0.004569 -0.003172 0.010557 0.000000 0.000000 0.000000
# 4 0.000000 0.000000 0.000000 0.157787 0.000000 0.000000
# 5 0.000000 0.000000 0.000000 0.000000 0.023895 0.000000
# 6 0.000000 0.000000 0.000000 0.000000 0.000000 0.690218
#
#
# Mechanical properties :
#
#
# Convention : Reuss Voigt Hill
#
# Bulk Modulus (GPa) = 28.53975 67.92003 48.22989
# Shear Modulus (GPa) = 5.19375 24.87831 15.03603
#
# Velocity S-wave (km/s) = 1.66063 3.63449 2.82552
# Velocity P-wave (km/s) = 4.33941 7.32637 6.02106
#
# Compressibility (1/GPa) = 0.03503884
#
# Stress axis : x y z
#
# Youngs Moduli (GPa) = 125.98713 25.91796 94.72635
#
# Poissons Ratio (x) = 0.08495 0.43285
# Poissons Ratio (y) = 0.41292 0.30051
# Poissons Ratio (z) = 0.57569 0.08222
#
# Static dielectric constant tensor:
#      x y z
#    x 3.765600 0.000000 0.000000 
#    y 0.000000 2.914050 0.000000 
#    z 0.000000 0.000000 3.567550 
# 
# 
# High freq. dielectric constant tensor:
#      x y z
#    x 1.743640 0.000000 0.000000 
#    y 0.000000 1.668230 0.000000 
#    z 0.000000 0.000000 1.736990 
# 
# From -- ./inp_files/4686.got.cif
#   From: 2010.03.12/outbox.cif.g09.slc.cpg/sg47_3_cif.got.tgz:4686.got - 2010.04.14 03:12:58.
