data_PCOD8194729
_publ_section_title
;
Structure prediction by ZEFSAII (Michael W. Deem and Ramdas Pophale) SiO2 
 PCOD8194729
Probable space group: P M M M
;
_chemical_formula_sum "Si O2"
_cell_formula_units_Z 56
_cell_length_a 8.854882
_cell_length_b 21.492030
_cell_length_c 18.515589
_cell_angle_alpha 90.000000
_cell_angle_beta 90.000000
_cell_angle_gamma 90.000000
_cell_volume 3523.690440
_symmetry_space_group_name_H-M "P M M M"
_symmetry_group_IT_number 47
_symmetry_cell_setting 'orthorhombic'
loop_
_space_group_symop_operation_xyz
x,y,z
-x,-y,z
x,-y,-z
-x,y,-z
-x,-y,-z
x,y,-z
-x,y,z
x,-y,z
loop_
_atom_site_type_symbol
_atom_site_label
_atom_site_fract_x
_atom_site_fract_y
_atom_site_fract_z
Si Si1 0.825006 0.707002 0.580187
Si Si2 0.824154 0.637711 0.283640
Si Si3 0.675851 0.569909 0.169351
Si Si4 0.323827 0.250865 0.798840
Si Si5 0.177000 0.928934 0.418238
Si Si6 0.177533 0.319065 0.082628
Si Si7 0.677463 0.180177 0.662705
O O1 0.765294 0.691014 0.500000
O O2 0.799093 0.645458 0.630125
O O3 0.742267 0.767284 0.610319
O O4 0.000000 0.724971 0.578760
O O5 0.760708 0.574351 0.248048
O O6 0.719363 0.688750 0.246386
O O7 0.000000 0.647160 0.263787
O O8 0.500000 0.584546 0.179595
O O9 0.701187 0.500000 0.140142
O O10 0.745193 0.618134 0.112102
O O11 0.500000 0.250199 0.817096
O O12 0.232823 0.256784 0.874348
O O13 0.279021 0.192340 0.747364
O O14 0.225092 0.910997 0.500000
O O15 0.261962 0.886944 0.359969
O O16 0.000000 0.918985 0.408742
O O17 0.222082 0.000000 0.402275
O O18 0.000000 0.326517 0.092065
O O19 0.225152 0.309895 0.000000
O O20 0.500000 0.181978 0.653231
#
# Coordination Sequence:
#
# PCOD8194729 Si02
#       7
#     8   8   8   8   8   8   8
#     4   9  17  28  42  61  84 109 138 174 217 262
#     4   9  16  27  44  62  80 105 137 174 214 251
#     4  10  20  32  46  63  83 110 142 171 202 248
#     4   9  17  29  44  62  86 114 141 170 207 253
#     4   9  18  31  44  59  84 121 160 191 220 255
#     4  10  20  32  47  68  91 112 136 169 207 246
#     4  10  19  28  41  64  89 113 146 183 215 250
#
# _framework density 15.892429
#
# number of rings (size 3 to 8) (size 9 to 14) (size 15 to 20)
#    0.000    2.571    0.000    4.714    0.000    7.429 
#    0.000    2.143    0.000    0.429    0.000    3.000 
#    0.000    0.571    0.000    6.286    0.000    4.571 
#
# Total GULP energy -693831.229508 kJ/mol
# GULP energy per Si atom -12389.843384 kJ/mol
# Density = 1.585626 g / cm^3
# Si number density = 15.892429 Si / 1000 Ang^3
#
#
#
# Elastic Constant Matrix: (Units=GPa)
#
#
# Indices 1 2 3 4 5 6 
#
# 1 55.9965 29.7907 52.1717 0.0000 0.0000 0.0000
# 2 29.7907 58.2024 55.6419 0.0000 0.0000 0.0000
# 3 52.1717 55.6419 140.7680 0.0000 0.0000 0.0000
# 4 0.0000 0.0000 0.0000 21.7984 0.0000 0.0000
# 5 0.0000 0.0000 0.0000 0.0000 17.8467 0.0000
# 6 0.0000 0.0000 0.0000 0.0000 0.0000 22.9798
#
#
#
# Elastic Compliance Matrix: (Units=1/GPa)
#
#
# Indices 1 2 3 4 5 6 
#
# 1 0.029121 -0.007374 -0.007878 0.000000 0.000000 0.000000
# 2 -0.007374 0.029485 -0.008922 0.000000 0.000000 0.000000
# 3 -0.007878 -0.008922 0.013550 0.000000 0.000000 0.000000
# 4 0.000000 0.000000 0.000000 0.045875 0.000000 0.000000
# 5 0.000000 0.000000 0.000000 0.000000 0.056033 0.000000
# 6 0.000000 0.000000 0.000000 0.000000 0.000000 0.043516
#
#
# Mechanical properties :
#
#
# Convention : Reuss Voigt Hill
#
# Bulk Modulus (GPa) = 42.00135 58.90838 50.45487
# Shear Modulus (GPa) = 18.25716 20.34916 19.30316
#
# Velocity S-wave (km/s) = 3.39307 3.58219 3.48891
# Velocity P-wave (km/s) = 6.46811 7.36593 6.93157
#
# Compressibility (1/GPa) = 0.02380876
#
# Stress axis : x y z
#
# Youngs Moduli (GPa) = 34.33890 33.91559 73.79932
#
# Poissons Ratio (x) = 0.25009 0.58141
# Poissons Ratio (y) = 0.25322 0.65841
# Poissons Ratio (z) = 0.27053 0.30258
#
# Static dielectric constant tensor:
#      x y z
#    x 3.088330 0.000000 0.000000 
#    y 0.000000 2.980760 0.000000 
#    z 0.000000 0.000000 3.429850 
# 
# 
# High freq. dielectric constant tensor:
#      x y z
#    x 1.623610 0.000000 0.000000 
#    y 0.000000 1.573810 0.000000 
#    z 0.000000 0.000000 1.605060 
# 
# From -- ./inp_files/26942.got.cif
#   From: 2010.03.12/outbox.cif.g09.slc.cpg/sg47_14_cif.got.tgz:26942.got - 2010.04.14 03:12:58.
