data_PCOD8194581
_publ_section_title
;
Structure prediction by ZEFSAII (Michael W. Deem and Ramdas Pophale) SiO2 
 PCOD8194581
Probable space group: P M M M
;
_chemical_formula_sum "Si O2"
_cell_formula_units_Z 48
_cell_length_a 8.680193
_cell_length_b 20.518291
_cell_length_c 14.139136
_cell_angle_alpha 90.000000
_cell_angle_beta 90.000000
_cell_angle_gamma 90.000000
_cell_volume 2518.218664
_symmetry_space_group_name_H-M "P M M M"
_symmetry_group_IT_number 47
_symmetry_cell_setting 'orthorhombic'
loop_
_space_group_symop_operation_xyz
x,y,z
-x,-y,z
x,-y,-z
-x,y,-z
-x,-y,-z
x,y,-z
-x,y,z
x,-y,z
loop_
_atom_site_type_symbol
_atom_site_label
_atom_site_fract_x
_atom_site_fract_y
_atom_site_fract_z
Si Si1 0.319915 0.256012 0.390042
Si Si2 0.817466 0.072839 0.896266
Si Si3 0.817606 0.131250 0.705498
Si Si4 0.318383 0.500000 0.605507
Si Si5 0.817774 0.000000 0.395609
Si Si6 0.319902 0.575323 0.106873
Si Si7 0.820414 0.621655 0.289224
O O1 0.271813 0.255233 0.500000
O O2 0.500000 0.270569 0.378465
O O3 0.279130 0.187663 0.342982
O O4 0.223445 0.310309 0.335734
O O5 0.767420 0.124500 0.815845
O O6 0.000000 0.067267 0.893567
O O7 0.751154 0.000000 0.876559
O O8 0.761546 0.097445 0.000000
O O9 0.000000 0.144362 0.693200
O O10 0.762710 0.064391 0.657714
O O11 0.500000 0.500000 0.601442
O O12 0.248085 0.500000 0.500000
O O13 0.267459 0.564323 0.658567
O O14 0.744656 0.000000 0.500000
O O15 0.000000 0.000000 0.400769
O O16 0.500000 0.586707 0.123268
O O17 0.277893 0.500000 0.126049
O O18 0.225640 0.621114 0.178502
O O19 0.273414 0.594634 0.000000
O O20 0.000000 0.609934 0.299860
#
# Coordination Sequence:
#
# PCOD8194581 Si02
#       7
#     8   8   8   4   4   8   8
#     4  11  25  43  59  76 107 154 198 237 290 353
#     4   8  13  24  47  81 116 145 177 222 276 333
#     4  10  18  32  55  83 111 144 186 233 285 339
#     4  11  23  39  60  85 116 153 191 234 286 349
#     4   9  16  26  46  78 110 137 175 231 288 339
#     4   9  18  35  61  90 121 158 193 227 277 340
#     4  12  24  38  60  90 118 148 190 243 292 336
#
# _framework density 19.061093
#
# number of rings (size 3 to 8) (size 9 to 14) (size 15 to 20)
#    0.000    2.000    1.667    4.250    0.000    5.000 
#    0.000    2.083    0.000    5.000    0.000    1.167 
#    0.000    0.000    0.000    0.000    0.000    0.000 
#
# Total GULP energy -595129.112944 kJ/mol
# GULP energy per Si atom -12398.523186 kJ/mol
# Density = 1.901771 g / cm^3
# Si number density = 19.061093 Si / 1000 Ang^3
#
#
#
# Elastic Constant Matrix: (Units=GPa)
#
#
# Indices 1 2 3 4 5 6 
#
# 1 45.2794 13.6159 29.4646 0.0000 0.0000 0.0000
# 2 13.6159 92.7775 50.4362 0.0000 0.0000 0.0000
# 3 29.4646 50.4362 157.4660 0.0000 0.0000 0.0000
# 4 0.0000 0.0000 0.0000 41.9669 0.0000 0.0000
# 5 0.0000 0.0000 0.0000 0.0000 18.4932 0.0000
# 6 0.0000 0.0000 0.0000 0.0000 0.0000 30.1782
#
#
#
# Elastic Compliance Matrix: (Units=1/GPa)
#
#
# Indices 1 2 3 4 5 6 
#
# 1 0.025292 -0.001379 -0.004291 0.000000 0.000000 0.000000
# 2 -0.001379 0.013126 -0.003946 0.000000 0.000000 0.000000
# 3 -0.004291 -0.003946 0.008417 0.000000 0.000000 0.000000
# 4 0.000000 0.000000 0.000000 0.023828 0.000000 0.000000
# 5 0.000000 0.000000 0.000000 0.000000 0.054074 0.000000
# 6 0.000000 0.000000 0.000000 0.000000 0.000000 0.033137
#
#
# Mechanical properties :
#
#
# Convention : Reuss Voigt Hill
#
# Bulk Modulus (GPa) = 36.22782 53.61736 44.92259
# Shear Modulus (GPa) = 26.83730 31.59474 29.21602
#
# Velocity S-wave (km/s) = 3.75635 4.07572 3.91929
# Velocity P-wave (km/s) = 6.15313 7.09499 6.64078
#
# Compressibility (1/GPa) = 0.02760309
#
# Stress axis : x y z
#
# Youngs Moduli (GPa) = 39.53818 76.18376 118.80110
#
# Poissons Ratio (x) = 0.10508 0.50975
# Poissons Ratio (y) = 0.05453 0.46882
# Poissons Ratio (z) = 0.16965 0.30064
#
# Static dielectric constant tensor:
#      x y z
#    x 3.174480 0.000000 0.000000 
#    y 0.000000 10.737120 0.000000 
#    z 0.000000 0.000000 4.051430 
# 
# 
# High freq. dielectric constant tensor:
#      x y z
#    x 1.712320 0.000000 0.000000 
#    y 0.000000 1.725500 0.000000 
#    z 0.000000 0.000000 1.764690 
# 
# From -- ./inp_files/21069.got.cif
#   From: 2010.03.12/outbox.cif.g09.slc.cpg/sg47_11_cif.got.tgz:21069.got - 2010.04.14 03:12:58.
