data_PCOD8194725
_publ_section_title
;
Structure prediction by ZEFSAII (Michael W. Deem and Ramdas Pophale) SiO2 
 PCOD8194725
Probable space group: P M M M
;
_chemical_formula_sum "Si O2"
_cell_formula_units_Z 60
_cell_length_a 9.087829
_cell_length_b 23.829014
_cell_length_c 18.602568
_cell_angle_alpha 90.000000
_cell_angle_beta 90.000000
_cell_angle_gamma 90.000000
_cell_volume 4028.460594
_symmetry_space_group_name_H-M "P M M M"
_symmetry_group_IT_number 47
_symmetry_cell_setting 'orthorhombic'
loop_
_space_group_symop_operation_xyz
x,y,z
-x,-y,z
x,-y,-z
-x,y,-z
-x,-y,-z
x,y,-z
-x,y,z
x,-y,z
loop_
_atom_site_type_symbol
_atom_site_label
_atom_site_fract_x
_atom_site_fract_y
_atom_site_fract_z
Si Si1 0.327523 0.620106 0.080695
Si Si2 0.664576 0.938364 0.914856
Si Si3 0.674086 0.500000 0.421233
Si Si4 0.672020 0.377938 0.415665
Si Si5 0.171743 0.829082 0.084115
Si Si6 0.829122 0.562098 0.799073
Si Si7 0.173417 0.330119 0.289665
Si Si8 0.326454 0.269459 0.167154
O O1 0.500000 0.610147 0.082410
O O2 0.253634 0.570294 0.125489
O O3 0.285229 0.680138 0.113787
O O4 0.265501 0.618446 0.000000
O O5 0.500000 0.923814 0.886878
O O6 0.779515 0.891056 0.889583
O O7 0.713096 0.000000 0.885417
O O8 0.662567 0.940532 0.000000
O O9 0.500000 0.500000 0.429204
O O10 0.745655 0.500000 0.500000
O O11 0.721026 0.440431 0.385988
O O12 0.708738 0.371277 0.500000
O O13 0.500000 0.367997 0.401685
O O14 0.763665 0.331621 0.370959
O O15 0.263105 0.786315 0.132112
O O16 0.000000 0.821452 0.099217
O O17 0.209030 0.819694 0.000000
O O18 0.790070 0.500000 0.768455
O O19 0.779704 0.609791 0.743516
O O20 0.000000 0.567736 0.815744
O O21 0.250238 0.280547 0.244389
O O22 0.000000 0.319600 0.290745
O O23 0.500000 0.263111 0.178661
#
# Coordination Sequence:
#
# PCOD8194725 Si02
#       8
#     8   8   4   8   8   8   8   8
#     4   9  18  31  45  60  75  92 121 165 209 244
#     4   8  14  25  40  58  82 113 148 182 214 249
#     4   7  12  24  41  61  83 103 124 153 186 225
#     4   9  17  30  47  66  86 107 132 160 193 239
#     4  10  19  28  41  63  88 113 143 181 223 260
#     4   9  19  33  44  56  76 101 126 152 192 248
#     4  10  20  32  46  62  83 106 130 165 206 249
#     4  10  19  32  47  60  78 105 140 175 210 252
#
# _framework density 14.894026
#
# number of rings (size 3 to 8) (size 9 to 14) (size 15 to 20)
#    0.000    2.867    0.000    2.800    0.933    3.733 
#    0.000    2.667    0.000    1.200    0.000    0.000 
#    0.000    0.000    0.000    0.000    0.000    0.667 
#
# Total GULP energy -743590.386890 kJ/mol
# GULP energy per Si atom -12393.173115 kJ/mol
# Density = 1.486013 g / cm^3
# Si number density = 14.894026 Si / 1000 Ang^3
#
#
#
# Elastic Constant Matrix: (Units=GPa)
#
#
# Indices 1 2 3 4 5 6 
#
# 1 57.2765 33.6358 31.2467 0.0000 0.0000 0.0000
# 2 33.6358 73.8919 26.0029 0.0000 0.0000 0.0000
# 3 31.2467 26.0029 60.7692 0.0000 0.0000 0.0000
# 4 0.0000 0.0000 0.0000 11.6131 0.0000 0.0000
# 5 0.0000 0.0000 0.0000 0.0000 20.9482 0.0000
# 6 0.0000 0.0000 0.0000 0.0000 0.0000 22.8743
#
#
#
# Elastic Compliance Matrix: (Units=1/GPa)
#
#
# Indices 1 2 3 4 5 6 
#
# 1 0.028846 -0.009314 -0.010847 0.000000 0.000000 0.000000
# 2 -0.009314 0.018940 -0.003315 0.000000 0.000000 0.000000
# 3 -0.010847 -0.003315 0.023452 0.000000 0.000000 0.000000
# 4 0.000000 0.000000 0.000000 0.086109 0.000000 0.000000
# 5 0.000000 0.000000 0.000000 0.000000 0.047737 0.000000
# 6 0.000000 0.000000 0.000000 0.000000 0.000000 0.043717
#
#
# Mechanical properties :
#
#
# Convention : Reuss Voigt Hill
#
# Bulk Modulus (GPa) = 41.17677 41.52317 41.34997
# Shear Modulus (GPa) = 16.45561 17.82394 17.13978
#
# Velocity S-wave (km/s) = 3.32753 3.46311 3.39600
# Velocity P-wave (km/s) = 6.51688 6.62801 6.57268
#
# Compressibility (1/GPa) = 0.02428554
#
# Stress axis : x y z
#
# Youngs Moduli (GPa) = 34.66659 52.79953 42.64099
#
# Poissons Ratio (x) = 0.49176 0.46253
# Poissons Ratio (y) = 0.32288 0.14136
# Poissons Ratio (z) = 0.37603 0.17504
#
# Static dielectric constant tensor:
#      x y z
#    x 2.838400 0.000000 0.000000 
#    y 0.000000 2.912980 0.000000 
#    z 0.000000 0.000000 2.703950 
# 
# 
# High freq. dielectric constant tensor:
#      x y z
#    x 1.573060 0.000000 0.000000 
#    y 0.000000 1.546090 0.000000 
#    z 0.000000 0.000000 1.539950 
# 
# From -- ./inp_files/27113.got.cif
#   From: 2010.03.12/outbox.cif.g09.slc.cpg/sg47_14_cif.got.tgz:27113.got - 2010.04.14 03:12:58.
