data_PCOD8194433
_publ_section_title
;
Structure prediction by ZEFSAII (Michael W. Deem and Ramdas Pophale) SiO2 
 PCOD8194433
Probable space group: P M M M
;
_chemical_formula_sum "Si O2"
_cell_formula_units_Z 44
_cell_length_a 10.261302
_cell_length_b 28.447033
_cell_length_c 7.906509
_cell_angle_alpha 90.000000
_cell_angle_beta 90.000000
_cell_angle_gamma 90.000000
_cell_volume 2307.938414
_symmetry_space_group_name_H-M "P M M M"
_symmetry_group_IT_number 47
_symmetry_cell_setting 'orthorhombic'
loop_
_space_group_symop_operation_xyz
x,y,z
-x,-y,z
x,-y,-z
-x,y,-z
-x,-y,-z
x,y,-z
-x,y,z
x,-y,z
loop_
_atom_site_type_symbol
_atom_site_label
_atom_site_fract_x
_atom_site_fract_y
_atom_site_fract_z
Si Si1 0.348019 0.119004 0.303927
Si Si2 0.145765 0.697959 0.194647
Si Si3 0.346992 0.948111 0.000000
Si Si4 0.750194 0.604826 0.304859
Si Si5 0.147190 0.799531 0.697923
Si Si6 0.500000 0.446478 0.297632
Si Si7 0.000000 0.553025 0.297699
O O1 0.324578 0.103338 0.500000
O O2 0.500000 0.133349 0.278339
O O3 0.253884 0.161742 0.252119
O O4 0.306245 0.077941 0.174101
O O5 0.243445 0.661227 0.282935
O O6 0.196078 0.751031 0.219356
O O7 0.000000 0.693542 0.273588
O O8 0.142944 0.685112 0.000000
O O9 0.500000 0.953701 0.000000
O O10 0.281583 0.000000 0.000000
O O11 0.746167 0.591985 0.500000
O O12 0.622914 0.581767 0.221159
O O13 0.875782 0.580198 0.221768
O O14 0.144487 0.791940 0.500000
O O15 0.000000 0.813084 0.761583
O O16 0.500000 0.500000 0.230886
O O17 0.500000 0.445844 0.500000
O O18 0.000000 0.500000 0.229787
O O19 0.000000 0.554266 0.500000
#
# Coordination Sequence:
#
# PCOD8194433 Si02
#       7
#     8   8   4   8   8   4   4
#     4   9  18  33  53  79 110 142 180 229 273 316
#     4  10  20  33  50  73 100 129 164 208 252 302
#     4   9  18  32  53  81 113 149 187 229 270 315
#     4  10  18  31  51  72  97 125 156 201 250 299
#     4   9  18  33  54  77 101 134 175 214 260 315
#     4   9  18  32  51  75  99 123 157 203 251 298
#     4   9  16  26  47  75  93 115 157 201 241 290
#
# _framework density 19.064633000000001
#
# number of rings (size 3 to 8) (size 9 to 14) (size 15 to 20)
#    0.000    2.636    0.909    1.091    1.273    3.273 
#    1.636    2.273    0.000    4.364    0.000    2.545 
#    0.000    0.000    0.000    0.000    0.000    0.000 
#
# Total GULP energy -545360.897299 kJ/mol
# GULP energy per Si atom -12394.565848 kJ/mol
# Density = 1.902124 g / cm^3
# Si number density = 19.064633 Si / 1000 Ang^3
#
#
#
# Elastic Constant Matrix: (Units=GPa)
#
#
# Indices 1 2 3 4 5 6 
#
# 1 123.0183 80.7039 26.7738 0.0000 0.0000 0.0000
# 2 80.7039 160.0272 42.0826 0.0000 0.0000 0.0000
# 3 26.7738 42.0826 45.5628 0.0000 0.0000 0.0000
# 4 0.0000 0.0000 0.0000 -3.2750 0.0000 0.0000
# 5 0.0000 0.0000 0.0000 0.0000 10.2086 0.0000
# 6 0.0000 0.0000 0.0000 0.0000 0.0000 27.5747
#
#
#
# Elastic Compliance Matrix: (Units=1/GPa)
#
#
# Indices 1 2 3 4 5 6 
#
# 1 0.012281 -0.005674 -0.001976 0.000000 0.000000 0.000000
# 2 -0.005674 0.010875 -0.006710 0.000000 0.000000 0.000000
# 3 -0.001976 -0.006710 0.029307 0.000000 0.000000 0.000000
# 4 0.000000 0.000000 0.000000 -0.305346 0.000000 0.000000
# 5 0.000000 0.000000 0.000000 0.000000 0.097957 0.000000
# 6 0.000000 0.000000 0.000000 0.000000 0.000000 0.036265
#
#
# Mechanical properties :
#
#
# Convention : Reuss Voigt Hill
#
# Bulk Modulus (GPa) = 42.11905 69.74767 55.93336
# Shear Modulus (GPa) = -60.95620 18.83818 -21.05901
#
# Velocity S-wave (km/s) = -5.66064 3.14685 -3.32718
# Velocity P-wave (km/s) = 4.53686 7.06172 3.82654
#
# Compressibility (1/GPa) = 0.02374223
#
# Stress axis : x y z
#
# Youngs Moduli (GPa) = 81.42495 91.95439 34.12192
#
# Poissons Ratio (x) = 0.52174 0.06743
# Poissons Ratio (y) = 0.46200 0.22896
# Poissons Ratio (z) = 0.16091 0.61703
#
# Static dielectric constant tensor:
#      x y z
#    x 3.637560 0.000000 0.000000 
#    y 0.000000 3.563370 0.000000 
#    z 0.000000 0.000000 3.248560 
# 
# 
# High freq. dielectric constant tensor:
#      x y z
#    x 1.725010 0.000000 0.000000 
#    y 0.000000 1.736670 0.000000 
#    z 0.000000 0.000000 1.726750 
# 
# From -- ./inp_files/2372.got.cif
#   From: 2010.03.12/outbox.cif.g09.slc.cpg/sg47_2_cif.got.tgz:2372.got - 2010.04.14 03:12:58.
