data_PCOD8194374
_publ_section_title
;
Structure prediction by ZEFSAII (Michael W. Deem and Ramdas Pophale) SiO2 
 PCOD8194374
Probable space group: P M M M
;
_chemical_formula_sum "Si O2"
_cell_formula_units_Z 52
_cell_length_a 20.256179
_cell_length_b 15.070198
_cell_length_c 9.387127
_cell_angle_alpha 90.000000
_cell_angle_beta 90.000000
_cell_angle_gamma 90.000000
_cell_volume 2865.557834
_symmetry_space_group_name_H-M "P M M M"
_symmetry_group_IT_number 47
_symmetry_cell_setting 'orthorhombic'
loop_
_space_group_symop_operation_xyz
x,y,z
-x,-y,z
x,-y,-z
-x,y,-z
-x,-y,-z
x,y,-z
-x,y,z
x,-y,z
loop_
_atom_site_type_symbol
_atom_site_label
_atom_site_fract_x
_atom_site_fract_y
_atom_site_fract_z
Si Si1 0.721992 0.397724 0.335633
Si Si2 0.686679 0.230881 0.830561
Si Si3 0.925696 0.500000 0.848048
Si Si4 0.426416 0.901107 0.831032
Si Si5 0.924445 0.188359 0.838783
Si Si6 0.873103 0.652474 0.663825
Si Si7 0.794697 0.095625 0.163187
O O1 0.700996 0.388810 0.500000
O O2 0.711243 0.500000 0.284517
O O3 0.680219 0.327974 0.241866
O O4 0.797187 0.370133 0.313255
O O5 0.624585 0.172908 0.776277
O O6 0.752194 0.178007 0.773584
O O7 0.687596 0.245816 0.000000
O O8 0.914515 0.585408 0.755127
O O9 0.000000 0.500000 0.894385
O O10 0.885462 0.500000 0.000000
O O11 0.500000 0.876974 0.775851
O O12 0.406465 0.000000 0.776324
O O13 0.425534 0.901864 0.000000
O O14 0.894844 0.252924 0.721096
O O15 0.874108 0.106110 0.826363
O O16 0.000000 0.160145 0.803220
O O17 0.921007 0.228321 0.000000
O O18 0.893393 0.644766 0.500000
O O19 0.777472 0.000000 0.235381
O O20 0.772076 0.090596 0.000000
#
# Coordination Sequence:
#
# PCOD8194374 Si02
#       7
#     8   8   4   8   8   8   8
#     4  10  21  37  53  71  98 132 169 212 261 309
#     4  10  18  30  53  81 105 133 170 211 251 295
#     4  11  23  35  49  71  97 123 156 207 268 323
#     4   8  14  26  48  82 120 148 168 198 245 298
#     4  10  20  33  48  68  96 129 166 210 259 304
#     4  11  21  35  52  69  92 126 167 210 260 316
#     4   9  17  29  47  73 101 129 166 210 252 298
#
# _framework density 18.146554999999999
#
# number of rings (size 3 to 8) (size 9 to 14) (size 15 to 20)
#    0.000    2.231    2.308    2.077    0.000    5.846 
#    0.000    1.538    0.000    4.154    0.000    5.385 
#    0.000    0.000    0.000    0.000    0.000    0.000 
#
# Total GULP energy -644234.284640 kJ/mol
# GULP energy per Si atom -12389.120858 kJ/mol
# Density = 1.810525 g / cm^3
# Si number density = 18.146555 Si / 1000 Ang^3
#
#
#
# Elastic Constant Matrix: (Units=GPa)
#
#
# Indices 1 2 3 4 5 6 
#
# 1 99.5687 54.9005 27.6078 0.0000 0.0000 0.0000
# 2 54.9005 134.6315 43.3208 0.0000 0.0000 0.0000
# 3 27.6078 43.3208 61.5339 0.0000 0.0000 0.0000
# 4 0.0000 0.0000 0.0000 22.4676 0.0000 0.0000
# 5 0.0000 0.0000 0.0000 0.0000 12.2845 0.0000
# 6 0.0000 0.0000 0.0000 0.0000 0.0000 2.0627
#
#
#
# Elastic Compliance Matrix: (Units=1/GPa)
#
#
# Indices 1 2 3 4 5 6 
#
# 1 0.013315 -0.004535 -0.002781 0.000000 0.000000 0.000000
# 2 -0.004535 0.011147 -0.005813 0.000000 0.000000 0.000000
# 3 -0.002781 -0.005813 0.021592 0.000000 0.000000 0.000000
# 4 0.000000 0.000000 0.000000 0.044509 0.000000 0.000000
# 5 0.000000 0.000000 0.000000 0.000000 0.081403 0.000000
# 6 0.000000 0.000000 0.000000 0.000000 0.000000 0.484805
#
#
# Mechanical properties :
#
#
# Convention : Reuss Voigt Hill
#
# Bulk Modulus (GPa) = 50.51732 60.82137 55.66935
# Shear Modulus (GPa) = 7.25028 18.68997 12.97013
#
# Velocity S-wave (km/s) = 2.00102 3.21276 2.67637
# Velocity P-wave (km/s) = 5.76522 6.88128 6.34782
#
# Compressibility (1/GPa) = 0.01979519
#
# Stress axis : x y z
#
# Youngs Moduli (GPa) = 75.10428 89.70687 46.31371
#
# Poissons Ratio (x) = 0.40678 0.12882
# Poissons Ratio (y) = 0.34057 0.26924
# Poissons Ratio (z) = 0.20890 0.52151
#
# Static dielectric constant tensor:
#      x y z
#    x 3.408390 0.000000 0.000000 
#    y 0.000000 3.976230 0.000000 
#    z 0.000000 0.000000 3.059220 
# 
# 
# High freq. dielectric constant tensor:
#      x y z
#    x 1.689150 0.000000 0.000000 
#    y 0.000000 1.705020 0.000000 
#    z 0.000000 0.000000 1.668030 
# 
# From -- ./inp_files/10982.got.cif
#   From: 2010.03.12/outbox.cif.g09.slc.cpg/sg47_6_cif.got.tgz:10982.got - 2010.04.14 03:12:58.
