data_PCOD8194577
_publ_section_title
;
Structure prediction by ZEFSAII (Michael W. Deem and Ramdas Pophale) SiO2 
 PCOD8194577
Probable space group: P M M M
;
_chemical_formula_sum "Si O2"
_cell_formula_units_Z 64
_cell_length_a 9.108278
_cell_length_b 20.015528
_cell_length_c 20.038940
_cell_angle_alpha 90.000000
_cell_angle_beta 90.000000
_cell_angle_gamma 90.000000
_cell_volume 3653.238901
_symmetry_space_group_name_H-M "P M M M"
_symmetry_group_IT_number 47
_symmetry_cell_setting 'orthorhombic'
loop_
_space_group_symop_operation_xyz
x,y,z
-x,-y,z
x,-y,-z
-x,y,-z
-x,-y,-z
x,y,-z
-x,y,z
x,-y,z
loop_
_atom_site_type_symbol
_atom_site_label
_atom_site_fract_x
_atom_site_fract_y
_atom_site_fract_z
Si Si1 0.334093 0.301768 0.246199
Si Si2 0.674396 0.925135 0.074193
Si Si3 0.672602 0.111419 0.425169
Si Si4 0.168122 0.073882 0.700701
Si Si5 0.168745 0.426356 0.294816
Si Si6 0.326641 0.603506 0.573099
Si Si7 0.674412 0.164951 0.193920
Si Si8 0.665671 0.254919 0.394558
O O1 0.500000 0.324997 0.231382
O O2 0.237824 0.369484 0.246734
O O3 0.283009 0.244442 0.193088
O O4 0.322401 0.262764 0.315444
O O5 0.500000 0.924095 0.074530
O O6 0.734439 0.870070 0.126335
O O7 0.728541 0.000000 0.093735
O O8 0.732326 0.906735 0.000000
O O9 0.699861 0.084508 0.500000
O O10 0.500000 0.109003 0.407165
O O11 0.761498 0.067106 0.372871
O O12 0.740214 0.186559 0.418553
O O13 0.255067 0.127730 0.743606
O O14 0.000000 0.097087 0.695261
O O15 0.179553 0.000000 0.733308
O O16 0.184684 0.500000 0.261057
O O17 0.244260 0.433678 0.367358
O O18 0.000000 0.407228 0.305588
O O19 0.296502 0.570843 0.500000
O O20 0.500000 0.601632 0.590171
O O21 0.265742 0.679539 0.570966
O O22 0.500000 0.157671 0.201293
O O23 0.500000 0.250210 0.419538
#
# Coordination Sequence:
#
# PCOD8194577 Si02
#       8
#     8   8   8   8   8   8   8   8
#     4   9  17  30  50  72  92 117 154 197 238 278
#     4   8  14  25  45  78 115 143 166 195 233 277
#     4  10  19  32  51  69  85 111 153 204 253 302
#     4  11  24  37  47  64  94 128 160 200 250 297
#     4  10  21  34  46  63  91 124 153 188 239 293
#     4   9  17  29  46  66  87 113 147 187 233 289
#     4  10  18  32  55  78  99 128 167 206 238 276
#     4   8  13  26  45  65  86 106 136 186 240 284
#
# _framework density 17.518699999999999
#
# number of rings (size 3 to 8) (size 9 to 14) (size 15 to 20)
#    0.000    2.625    1.250    2.625    0.000    5.500 
#    0.000    2.500    0.000    1.875    0.000    1.750 
#    0.000    0.500    0.000    6.250    0.000    1.000 
#
# Total GULP energy -792929.184981 kJ/mol
# GULP energy per Si atom -12389.518515 kJ/mol
# Density = 1.747883 g / cm^3
# Si number density = 17.518700 Si / 1000 Ang^3
#
#
#
# Elastic Constant Matrix: (Units=GPa)
#
#
# Indices 1 2 3 4 5 6 
#
# 1 58.4603 40.3782 24.7188 0.0000 0.0000 0.0000
# 2 40.3782 117.3456 43.3873 0.0000 0.0000 0.0000
# 3 24.7188 43.3873 74.9147 0.0000 0.0000 0.0000
# 4 0.0000 0.0000 0.0000 8.0960 0.0000 0.0000
# 5 0.0000 0.0000 0.0000 0.0000 5.4535 0.0000
# 6 0.0000 0.0000 0.0000 0.0000 0.0000 21.1108
#
#
#
# Elastic Compliance Matrix: (Units=1/GPa)
#
#
# Indices 1 2 3 4 5 6 
#
# 1 0.023289 -0.006582 -0.003873 0.000000 0.000000 0.000000
# 2 -0.006582 0.012704 -0.005186 0.000000 0.000000 0.000000
# 3 -0.003873 -0.005186 0.017630 0.000000 0.000000 0.000000
# 4 0.000000 0.000000 0.000000 0.123518 0.000000 0.000000
# 5 0.000000 0.000000 0.000000 0.000000 0.183368 0.000000
# 6 0.000000 0.000000 0.000000 0.000000 0.000000 0.047369
#
#
# Mechanical properties :
#
#
# Convention : Reuss Voigt Hill
#
# Bulk Modulus (GPa) = 44.75809 51.96547 48.36178
# Shear Modulus (GPa) = 11.19555 16.41448 13.80501
#
# Velocity S-wave (km/s) = 2.53071 3.06432 2.81021
# Velocity P-wave (km/s) = 5.84325 6.49979 6.18024
#
# Compressibility (1/GPa) = 0.02234233
#
# Stress axis : x y z
#
# Youngs Moduli (GPa) = 42.93854 78.71495 56.72242
#
# Poissons Ratio (x) = 0.51809 0.21966
# Poissons Ratio (y) = 0.28262 0.29416
# Poissons Ratio (z) = 0.16628 0.40821
#
# Static dielectric constant tensor:
#      x y z
#    x 2.960630 0.000000 0.000000 
#    y 0.000000 3.459780 0.000000 
#    z 0.000000 0.000000 3.191160 
# 
# 
# High freq. dielectric constant tensor:
#      x y z
#    x 1.643890 0.000000 0.000000 
#    y 0.000000 1.685210 0.000000 
#    z 0.000000 0.000000 1.635830 
# 
# From -- ./inp_files/30169.got.cif
#   From: 2010.03.12/outbox.cif.g09.slc.cpg/sg47_16_cif.got.tgz:30169.got - 2010.04.14 03:12:58.
