data_PCOD8194823
_publ_section_title
;
Structure prediction by ZEFSAII (Michael W. Deem and Ramdas Pophale) SiO2 
 PCOD8194823
Probable space group: P M M M
;
_chemical_formula_sum "Si O2"
_cell_formula_units_Z 56
_cell_length_a 9.003137
_cell_length_b 29.265014
_cell_length_c 13.610570
_cell_angle_alpha 90.000000
_cell_angle_beta 90.000000
_cell_angle_gamma 90.000000
_cell_volume 3586.071204
_symmetry_space_group_name_H-M "P M M M"
_symmetry_group_IT_number 47
_symmetry_cell_setting 'orthorhombic'
loop_
_space_group_symop_operation_xyz
x,y,z
-x,-y,z
x,-y,-z
-x,y,-z
-x,-y,-z
x,y,-z
-x,y,z
x,-y,z
loop_
_atom_site_type_symbol
_atom_site_label
_atom_site_fract_x
_atom_site_fract_y
_atom_site_fract_z
Si Si1 0.328831 0.136168 0.887206
Si Si2 0.175329 0.948205 0.801045
Si Si3 0.333033 0.550218 0.383165
Si Si4 0.824448 0.812271 0.281442
Si Si5 0.825290 0.097791 0.606925
Si Si6 0.674697 0.270943 0.386368
Si Si7 0.165500 0.637562 0.383404
O O1 0.500000 0.134892 0.854260
O O2 0.260227 0.085582 0.874026
O O3 0.241793 0.173920 0.824083
O O4 0.312079 0.150641 0.000000
O O5 0.228296 0.938498 0.688752
O O6 0.000000 0.938774 0.811007
O O7 0.216065 0.000000 0.829099
O O8 0.333915 0.553267 0.500000
O O9 0.500000 0.557291 0.343653
O O10 0.273406 0.500000 0.350475
O O11 0.230416 0.590325 0.338799
O O12 0.780860 0.851338 0.359561
O O13 0.754635 0.765440 0.317696
O O14 0.000000 0.806603 0.270676
O O15 0.751579 0.087678 0.500000
O O16 0.000000 0.094099 0.596078
O O17 0.717602 0.262048 0.500000
O O18 0.500000 0.268212 0.369992
O O19 0.730748 0.320469 0.351249
O O20 0.161403 0.634063 0.500000
O O21 0.000000 0.644893 0.341264
#
# Coordination Sequence:
#
# PCOD8194823 Si02
#       7
#     8   8   8   8   8   8   8
#     4  10  21  36  52  68  86 109 138 172 211 257
#     4   9  18  31  47  69  93 115 141 172 206 245
#     4   8  13  21  32  45  64  94 133 177 223 265
#     4  10  19  31  48  68  88 109 138 175 213 255
#     4   8  14  25  42  64  88 112 137 166 199 236
#     4  10  19  29  42  61  87 117 145 175 213 255
#     4   9  16  24  34  50  73 102 139 181 219 254
#
# _framework density 15.615975000000001
#
# number of rings (size 3 to 8) (size 9 to 14) (size 15 to 20)
#    0.000    2.857    0.000    3.429    0.000    5.429 
#    0.000    4.286    0.000    3.857    0.000    4.000 
#    0.000    0.000    0.000    0.000    0.000    0.714 
#
# Total GULP energy -694146.749773 kJ/mol
# GULP energy per Si atom -12395.477675 kJ/mol
# Density = 1.558043 g / cm^3
# Si number density = 15.615975 Si / 1000 Ang^3
#
#
#
# Elastic Constant Matrix: (Units=GPa)
#
#
# Indices 1 2 3 4 5 6 
#
# 1 83.9570 54.7188 29.4049 0.0000 0.0000 0.0000
# 2 54.7188 119.3726 28.6622 0.0000 0.0000 0.0000
# 3 29.4049 28.6622 52.8697 0.0000 0.0000 0.0000
# 4 0.0000 0.0000 0.0000 11.8074 0.0000 0.0000
# 5 0.0000 0.0000 0.0000 0.0000 16.3864 0.0000
# 6 0.0000 0.0000 0.0000 0.0000 0.0000 28.9308
#
#
#
# Elastic Compliance Matrix: (Units=1/GPa)
#
#
# Indices 1 2 3 4 5 6 
#
# 1 0.018825 -0.007030 -0.006659 0.000000 0.000000 0.000000
# 2 -0.007030 0.012256 -0.002734 0.000000 0.000000 0.000000
# 3 -0.006659 -0.002734 0.024100 0.000000 0.000000 0.000000
# 4 0.000000 0.000000 0.000000 0.084693 0.000000 0.000000
# 5 0.000000 0.000000 0.000000 0.000000 0.061026 0.000000
# 6 0.000000 0.000000 0.000000 0.000000 0.000000 0.034565
#
#
# Mechanical properties :
#
#
# Convention : Reuss Voigt Hill
#
# Bulk Modulus (GPa) = 44.77332 53.53011 49.15172
# Shear Modulus (GPa) = 18.13189 20.98581 19.55885
#
# Velocity S-wave (km/s) = 3.41121 3.66986 3.54289
# Velocity P-wave (km/s) = 6.65198 7.23261 6.94836
#
# Compressibility (1/GPa) = 0.02233473
#
# Stress axis : x y z
#
# Youngs Moduli (GPa) = 53.12087 81.59081 41.49338
#
# Poissons Ratio (x) = 0.57361 0.27629
# Poissons Ratio (y) = 0.37346 0.11346
# Poissons Ratio (z) = 0.35371 0.22310
#
# Static dielectric constant tensor:
#      x y z
#    x 3.019720 0.000000 0.000000 
#    y 0.000000 3.101590 0.000000 
#    z 0.000000 0.000000 2.701910 
# 
# 
# High freq. dielectric constant tensor:
#      x y z
#    x 1.599160 0.000000 0.000000 
#    y 0.000000 1.600920 0.000000 
#    z 0.000000 0.000000 1.547740 
# 
# From -- ./inp_files/22098.got.cif
#   From: 2010.03.12/outbox.cif.g09.slc.cpg/sg47_12_cif.got.tgz:22098.got - 2010.04.14 03:12:58.
