data_PCOD8194889
_publ_section_title
;
Structure prediction by ZEFSAII (Michael W. Deem and Ramdas Pophale) SiO2 
 PCOD8194889
Probable space group: P M M M
;
_chemical_formula_sum "Si O2"
_cell_formula_units_Z 56
_cell_length_a 28.847455
_cell_length_b 9.523118
_cell_length_c 13.534430
_cell_angle_alpha 90.000000
_cell_angle_beta 90.000000
_cell_angle_gamma 90.000000
_cell_volume 3718.147724
_symmetry_space_group_name_H-M "P M M M"
_symmetry_group_IT_number 47
_symmetry_cell_setting 'orthorhombic'
loop_
_space_group_symop_operation_xyz
x,y,z
-x,-y,z
x,-y,-z
-x,y,-z
-x,-y,-z
x,y,-z
-x,y,z
x,-y,z
loop_
_atom_site_type_symbol
_atom_site_label
_atom_site_fract_x
_atom_site_fract_y
_atom_site_fract_z
Si Si1 0.136049 0.163118 0.385250
Si Si2 0.949026 0.342003 0.617395
Si Si3 0.446527 0.160879 0.885604
Si Si4 0.632879 0.335322 0.199238
Si Si5 0.687795 0.659897 0.389698
Si Si6 0.286697 0.839649 0.110642
Si Si7 0.232785 0.162920 0.698420
O O1 0.144743 0.199629 0.500000
O O2 0.091368 0.242612 0.340647
O O3 0.180633 0.213951 0.322990
O O4 0.126233 0.000000 0.370232
O O5 0.948557 0.335422 0.500000
O O6 0.939346 0.500000 0.653880
O O7 0.000000 0.292403 0.655155
O O8 0.500000 0.191132 0.862001
O O9 0.416914 0.265415 0.817963
O O10 0.434059 0.000000 0.860228
O O11 0.435709 0.191295 0.000000
O O12 0.630411 0.500000 0.174746
O O13 0.646745 0.305564 0.312922
O O14 0.670315 0.263670 0.127506
O O15 0.668447 0.686374 0.500000
O O16 0.704356 0.500000 0.375349
O O17 0.732309 0.755989 0.372771
O O18 0.245080 0.806638 0.186914
O O19 0.304157 0.000000 0.124969
O O20 0.267466 0.815964 0.000000
O O21 0.237611 0.000000 0.671116
#
# Coordination Sequence:
#
# PCOD8194889 Si02
#       7
#     8   8   8   8   8   8   8
#     4   9  16  24  35  53  77 103 129 160 198 234
#     4   8  14  24  36  50  70  98 131 162 191 229
#     4   9  18  32  48  65  86 111 135 160 196 243
#     4  10  19  29  44  66  87 107 134 168 202 234
#     4   9  18  31  44  59  82 111 140 168 198 234
#     4   9  17  29  44  60  81 111 140 163 194 239
#     4   9  17  28  41  59  82 106 136 171 201 233
#
# _framework density 15.061261999999999
#
# number of rings (size 3 to 8) (size 9 to 14) (size 15 to 20)
#    0.000    3.000    0.000    2.143    0.000    4.857 
#    0.000    3.571    0.000    0.429    0.000    3.000 
#    0.000    0.571    0.000    7.143    0.000    1.429 
#
# Total GULP energy -694243.978764 kJ/mol
# GULP energy per Si atom -12397.213906 kJ/mol
# Density = 1.502698 g / cm^3
# Si number density = 15.061262 Si / 1000 Ang^3
#
#
#
# Elastic Constant Matrix: (Units=GPa)
#
#
# Indices 1 2 3 4 5 6 
#
# 1 125.2222 64.1889 48.3596 0.0000 0.0000 0.0000
# 2 64.1889 72.5019 36.4548 0.0000 0.0000 0.0000
# 3 48.3596 36.4548 75.5263 0.0000 0.0000 0.0000
# 4 0.0000 0.0000 0.0000 17.2824 0.0000 0.0000
# 5 0.0000 0.0000 0.0000 0.0000 17.8763 0.0000
# 6 0.0000 0.0000 0.0000 0.0000 0.0000 23.6672
#
#
#
# Elastic Compliance Matrix: (Units=1/GPa)
#
#
# Indices 1 2 3 4 5 6 
#
# 1 0.015657 -0.011648 -0.004403 0.000000 0.000000 0.000000
# 2 -0.011648 0.026878 -0.005515 0.000000 0.000000 0.000000
# 3 -0.004403 -0.005515 0.018722 0.000000 0.000000 0.000000
# 4 0.000000 0.000000 0.000000 0.057862 0.000000 0.000000
# 5 0.000000 0.000000 0.000000 0.000000 0.055940 0.000000
# 6 0.000000 0.000000 0.000000 0.000000 0.000000 0.042252
#
#
# Mechanical properties :
#
#
# Convention : Reuss Voigt Hill
#
# Bulk Modulus (GPa) = 55.17382 63.47299 59.32341
# Shear Modulus (GPa) = 18.76274 20.04832 19.40553
#
# Velocity S-wave (km/s) = 3.53336 3.65241 3.59338
# Velocity P-wave (km/s) = 7.30470 7.74735 7.52928
#
# Compressibility (1/GPa) = 0.01812454
#
# Stress axis : x y z
#
# Youngs Moduli (GPa) = 63.86983 37.20489 53.41353
#
# Poissons Ratio (x) = 0.43335 0.23518
# Poissons Ratio (y) = 0.74394 0.29460
# Poissons Ratio (z) = 0.28122 0.20520
#
# Static dielectric constant tensor:
#      x y z
#    x 2.967020 0.000000 0.000000 
#    y 0.000000 2.983450 0.000000 
#    z 0.000000 0.000000 2.772580 
# 
# 
# High freq. dielectric constant tensor:
#      x y z
#    x 1.568870 0.000000 0.000000 
#    y 0.000000 1.582260 0.000000 
#    z 0.000000 0.000000 1.546920 
# 
# From -- ./inp_files/14204.got.cif
#   From: 2010.03.12/outbox.cif.g09.slc.cpg/sg47_8_cif.got.tgz:14204.got - 2010.04.14 03:12:58.
