data_PCOD8194706
_publ_section_title
;
Structure prediction by ZEFSAII (Michael W. Deem and Ramdas Pophale) SiO2 
 PCOD8194706
Probable space group: P M M M
;
_chemical_formula_sum "Si O2"
_cell_formula_units_Z 56
_cell_length_a 22.003155
_cell_length_b 18.089106
_cell_length_c 9.202381
_cell_angle_alpha 90.000000
_cell_angle_beta 90.000000
_cell_angle_gamma 90.000000
_cell_volume 3662.707788
_symmetry_space_group_name_H-M "P M M M"
_symmetry_group_IT_number 47
_symmetry_cell_setting 'orthorhombic'
loop_
_space_group_symop_operation_xyz
x,y,z
-x,-y,z
x,-y,-z
-x,y,-z
-x,-y,-z
x,y,-z
-x,y,z
x,-y,z
loop_
_atom_site_type_symbol
_atom_site_label
_atom_site_fract_x
_atom_site_fract_y
_atom_site_fract_z
Si Si1 0.869059 0.197548 0.336725
Si Si2 0.313963 0.838430 0.672568
Si Si3 0.566775 0.917153 0.672394
Si Si4 0.179509 0.416963 0.171052
Si Si5 0.752390 0.698542 0.339212
Si Si6 0.204803 0.086669 0.832626
Si Si7 0.931711 0.317363 0.832307
O O1 0.888820 0.175544 0.500000
O O2 0.810481 0.249095 0.339200
O O3 0.853146 0.124564 0.244841
O O4 0.923272 0.242557 0.259932
O O5 0.304625 0.850442 0.500000
O O6 0.381459 0.860534 0.726632
O O7 0.303275 0.751566 0.712089
O O8 0.267258 0.891489 0.754593
O O9 0.566384 0.918478 0.500000
O O10 0.500000 0.891552 0.729160
O O11 0.580942 0.000000 0.729983
O O12 0.181234 0.500000 0.233931
O O13 0.236611 0.370846 0.233859
O O14 0.115184 0.381029 0.218387
O O15 0.186990 0.417470 0.000000
O O16 0.739965 0.666826 0.500000
O O17 0.194939 0.000000 0.818802
O O18 0.207706 0.112442 0.000000
O O19 0.000000 0.347349 0.807561
O O20 0.919853 0.297424 0.000000
#
# Coordination Sequence:
#
# PCOD8194706 Si02
#       7
#     8   8   8   8   8   8   8
#     4   9  17  29  44  60  79 104 134 168 203 240
#     4   9  16  26  41  60  82 109 142 175 203 238
#     4   8  13  21  35  57  84 113 144 176 207 237
#     4   9  17  28  42  61  84 108 133 161 194 235
#     4   8  15  26  39  57  79 104 133 164 201 241
#     4  10  19  28  40  60  83 105 132 169 212 252
#     4   9  17  29  45  63  83 108 134 159 191 234
#
# _framework density 15.289235
#
# number of rings (size 3 to 8) (size 9 to 14) (size 15 to 20)
#    0.000    3.143    0.000    2.571    0.000    6.000 
#    0.000    1.429    0.000    0.857    0.000    9.000 
#    0.000    0.571    0.000    7.143    0.000    1.143 
#
# Total GULP energy -694041.061859 kJ/mol
# GULP energy per Si atom -12393.590390 kJ/mol
# Density = 1.525444 g / cm^3
# Si number density = 15.289235 Si / 1000 Ang^3
#
#
#
# Elastic Constant Matrix: (Units=GPa)
#
#
# Indices 1 2 3 4 5 6 
#
# 1 75.0066 55.8088 21.8461 0.0000 0.0000 0.0000
# 2 55.8088 101.5215 41.3073 0.0000 0.0000 0.0000
# 3 21.8461 41.3073 55.9469 0.0000 0.0000 0.0000
# 4 0.0000 0.0000 0.0000 22.1818 0.0000 0.0000
# 5 0.0000 0.0000 0.0000 0.0000 12.7546 0.0000
# 6 0.0000 0.0000 0.0000 0.0000 0.0000 20.3153
#
#
#
# Elastic Compliance Matrix: (Units=1/GPa)
#
#
# Indices 1 2 3 4 5 6 
#
# 1 0.022569 -0.012609 0.000497 0.000000 0.000000 0.000000
# 2 -0.012609 0.021124 -0.010673 0.000000 0.000000 0.000000
# 3 0.000497 -0.010673 0.025560 0.000000 0.000000 0.000000
# 4 0.000000 0.000000 0.000000 0.045082 0.000000 0.000000
# 5 0.000000 0.000000 0.000000 0.000000 0.078403 0.000000
# 6 0.000000 0.000000 0.000000 0.000000 0.000000 0.049224
#
#
# Mechanical properties :
#
#
# Convention : Reuss Voigt Hill
#
# Bulk Modulus (GPa) = 42.22400 52.26661 47.24531
# Shear Modulus (GPa) = 16.92459 18.61786 17.77122
#
# Velocity S-wave (km/s) = 3.33071 3.49336 3.41300
# Velocity P-wave (km/s) = 6.51677 7.10850 6.81906
#
# Compressibility (1/GPa) = 0.02368321
#
# Stress axis : x y z
#
# Youngs Moduli (GPa) = 44.30820 47.33882 39.12290
#
# Poissons Ratio (x) = 0.59689 -0.01943
# Poissons Ratio (y) = 0.55868 0.41757
# Poissons Ratio (z) = -0.02201 0.50526
#
# Static dielectric constant tensor:
#      x y z
#    x 3.008710 0.000000 0.000000 
#    y 0.000000 2.995080 0.000000 
#    z 0.000000 0.000000 2.943750 
# 
# 
# High freq. dielectric constant tensor:
#      x y z
#    x 1.559160 0.000000 0.000000 
#    y 0.000000 1.570480 0.000000 
#    z 0.000000 0.000000 1.578020 
# 
# From -- ./inp_files/10101.got.cif
#   From: 2010.03.12/outbox.cif.g09.slc.cpg/sg47_6_cif.got.tgz:10101.got - 2010.04.14 03:12:58.
