data_PCOD8194565
_publ_section_title
;
Structure prediction by ZEFSAII (Michael W. Deem and Ramdas Pophale) SiO2 
 PCOD8194565
Probable space group: P M M M
;
_chemical_formula_sum "Si O2"
_cell_formula_units_Z 64
_cell_length_a 9.109228
_cell_length_b 24.063868
_cell_length_c 15.562025
_cell_angle_alpha 90.000000
_cell_angle_beta 90.000000
_cell_angle_gamma 90.000000
_cell_volume 3411.246615
_symmetry_space_group_name_H-M "P M M M"
_symmetry_group_IT_number 47
_symmetry_cell_setting 'orthorhombic'
loop_
_space_group_symop_operation_xyz
x,y,z
-x,-y,z
x,-y,-z
-x,y,-z
-x,-y,-z
x,y,-z
-x,y,z
x,-y,z
loop_
_atom_site_type_symbol
_atom_site_label
_atom_site_fract_x
_atom_site_fract_y
_atom_site_fract_z
Si Si1 0.673508 0.751714 0.845738
Si Si2 0.169189 0.249935 0.667499
Si Si3 0.325784 0.367965 0.094478
Si Si4 0.824943 0.937640 0.247519
Si Si5 0.674366 0.563258 0.744368
Si Si6 0.826985 0.867285 0.406158
Si Si7 0.169198 0.630302 0.597718
Si Si8 0.831169 0.859219 0.903766
O O1 0.500000 0.757726 0.848090
O O2 0.725429 0.750514 0.748405
O O3 0.726792 0.695021 0.890639
O O4 0.741683 0.802533 0.897531
O O5 0.211424 0.196945 0.610292
O O6 0.199541 0.304577 0.611750
O O7 0.000000 0.246580 0.698204
O O8 0.500000 0.370878 0.097813
O O9 0.261784 0.407566 0.169385
O O10 0.269734 0.387501 0.000000
O O11 0.760336 0.906802 0.331972
O O12 0.769807 0.904817 0.163056
O O13 0.000000 0.938926 0.249499
O O14 0.761085 0.000000 0.244638
O O15 0.500000 0.567076 0.742243
O O16 0.729416 0.500000 0.744778
O O17 0.732867 0.593335 0.659916
O O18 0.762488 0.883817 0.500000
O O19 0.000000 0.875750 0.406768
O O20 0.211886 0.615558 0.500000
O O21 0.000000 0.616231 0.616063
O O22 0.000000 0.845641 0.882058
O O23 0.813930 0.883398 0.000000
#
# Coordination Sequence:
#
# PCOD8194565 Si02
#       8
#     8   8   8   8   8   8   8   8
#     4  11  20  32  54  80 108 138 168 208 261 315
#     4  10  18  32  54  78 106 136 170 211 258 313
#     4   9  18  33  53  78 106 134 167 210 261 313
#     4   9  17  29  46  72 104 135 171 214 257 303
#     4  10  21  37  56  78 105 139 180 222 261 305
#     4   9  16  27  47  74 103 132 162 205 259 309
#     4  10  21  36  56  81 108 140 176 216 264 317
#     4  10  20  34  52  75 104 138 174 212 257 307
#
# _framework density 18.761469999999999
#
# number of rings (size 3 to 8) (size 9 to 14) (size 15 to 20)
#    0.000    2.250    2.500    1.125    0.000    3.750 
#    0.000    5.000    0.000    2.625    0.000    1.750 
#    0.000    1.000    0.000    0.000    0.000    0.000 
#
# Total GULP energy -793502.086924 kJ/mol
# GULP energy per Si atom -12398.470108 kJ/mol
# Density = 1.871877 g / cm^3
# Si number density = 18.761470 Si / 1000 Ang^3
#
#
#
# Elastic Constant Matrix: (Units=GPa)
#
#
# Indices 1 2 3 4 5 6 
#
# 1 23.4847 24.9417 18.9368 0.0000 0.0000 0.0000
# 2 24.9417 154.0992 76.2549 0.0000 0.0000 0.0000
# 3 18.9368 76.2549 162.1177 0.0000 0.0000 0.0000
# 4 0.0000 0.0000 0.0000 16.2371 0.0000 0.0000
# 5 0.0000 0.0000 0.0000 0.0000 20.9037 0.0000
# 6 0.0000 0.0000 0.0000 0.0000 0.0000 18.8354
#
#
#
# Elastic Compliance Matrix: (Units=1/GPa)
#
#
# Indices 1 2 3 4 5 6 
#
# 1 0.052361 -0.007101 -0.002776 0.000000 0.000000 0.000000
# 2 -0.007101 0.009421 -0.003602 0.000000 0.000000 0.000000
# 3 -0.002776 -0.003602 0.008187 0.000000 0.000000 0.000000
# 4 0.000000 0.000000 0.000000 0.061587 0.000000 0.000000
# 5 0.000000 0.000000 0.000000 0.000000 0.047838 0.000000
# 6 0.000000 0.000000 0.000000 0.000000 0.000000 0.053092
#
#
# Mechanical properties :
#
#
# Convention : Reuss Voigt Hill
#
# Bulk Modulus (GPa) = 23.24995 64.44094 43.84545
# Shear Modulus (GPa) = 18.26273 25.83312 22.04792
#
# Velocity S-wave (km/s) = 3.12335 3.71472 3.43179
# Velocity P-wave (km/s) = 5.04246 7.26780 6.25489
#
# Compressibility (1/GPa) = 0.04301084
#
# Stress axis : x y z
#
# Youngs Moduli (GPa) = 19.09809 106.14527 122.14735
#
# Poissons Ratio (x) = 0.75376 0.33909
# Poissons Ratio (y) = 0.13562 0.43996
# Poissons Ratio (z) = 0.05302 0.38232
#
# Static dielectric constant tensor:
#      x y z
#    x 3.006980 0.000000 0.000000 
#    y 0.000000 3.624550 0.000000 
#    z 0.000000 0.000000 3.728610 
# 
# 
# High freq. dielectric constant tensor:
#      x y z
#    x 1.677590 0.000000 0.000000 
#    y 0.000000 1.730320 0.000000 
#    z 0.000000 0.000000 1.746140 
# 
# From -- ./inp_files/7791.got.cif
#   From: 2010.03.12/outbox.cif.g09.slc.cpg/sg47_4_cif.got.tgz:7791.got - 2010.04.14 03:12:58.
