data_PCOD8194232
_publ_section_title
;
Structure prediction by ZEFSAII (Michael W. Deem and Ramdas Pophale) SiO2 
 PCOD8194232
Probable space group: P M M M
;
_chemical_formula_sum "Si O2"
_cell_formula_units_Z 52
_cell_length_a 16.470458
_cell_length_b 20.246766
_cell_length_c 9.159919
_cell_angle_alpha 90.000000
_cell_angle_beta 90.000000
_cell_angle_gamma 90.000000
_cell_volume 3054.590331
_symmetry_space_group_name_H-M "P M M M"
_symmetry_group_IT_number 47
_symmetry_cell_setting 'orthorhombic'
loop_
_space_group_symop_operation_xyz
x,y,z
-x,-y,z
x,-y,-z
-x,y,-z
-x,-y,-z
x,y,-z
-x,y,z
x,-y,z
loop_
_atom_site_type_symbol
_atom_site_label
_atom_site_fract_x
_atom_site_fract_y
_atom_site_fract_z
Si Si1 0.156562 0.372722 0.831339
Si Si2 0.000000 0.153019 0.328302
Si Si3 0.591454 0.188140 0.669101
Si Si4 0.000000 0.715090 0.837787
Si Si5 0.175735 0.130381 0.669714
Si Si6 0.744486 0.269022 0.331806
Si Si7 0.322613 0.924871 0.831825
Si Si8 0.905282 0.500000 0.326160
O O1 0.077369 0.329461 0.811457
O O2 0.232498 0.331162 0.768598
O O3 0.143030 0.438002 0.737529
O O4 0.173330 0.390860 0.000000
O O5 0.000000 0.227786 0.278279
O O6 0.917179 0.116574 0.277512
O O7 0.000000 0.157588 0.500000
O O8 0.603347 0.169779 0.500000
O O9 0.500000 0.211330 0.704269
O O10 0.652628 0.247410 0.710501
O O11 0.610941 0.121841 0.757612
O O12 0.000000 0.745814 0.000000
O O13 0.188009 0.113386 0.500000
O O14 0.196399 0.207094 0.699565
O O15 0.233734 0.083142 0.761512
O O16 0.750526 0.290941 0.500000
O O17 0.351733 0.000000 0.811516
O O18 0.315797 0.905035 0.000000
O O19 0.898989 0.500000 0.500000
O O20 0.000000 0.500000 0.276257
#
# Coordination Sequence:
#
# PCOD8194232 Si02
#       8
#     8   4   8   4   8   8   8   4
#     4  11  21  33  48  70 102 138 173 206 245 290
#     4  10  18  30  48  70  94 123 166 216 255 288
#     4   9  19  36  57  80 103 127 158 199 247 298
#     4  10  20  29  43  69 100 134 167 203 247 294
#     4   9  18  31  49  71  94 125 166 211 252 291
#     4   9  17  31  51  74  99 127 161 201 244 294
#     4  10  21  35  50  70  99 133 164 198 245 301
#     4  11  23  35  49  69  98 139 182 219 251 282
#
# _framework density 17.023558999999999
#
# number of rings (size 3 to 8) (size 9 to 14) (size 15 to 20)
#    0.000    2.231    2.308    2.077    0.000    5.846 
#    0.000    1.923    0.000    2.308    0.000    0.538 
#    0.000    4.308    0.000    0.000    0.000    0.000 
#
# Total GULP energy -644733.432350 kJ/mol
# GULP energy per Si atom -12398.719853 kJ/mol
# Density = 1.698481 g / cm^3
# Si number density = 17.023559 Si / 1000 Ang^3
#
#
#
# Elastic Constant Matrix: (Units=GPa)
#
#
# Indices 1 2 3 4 5 6 
#
# 1 127.2635 38.1038 42.3122 0.0000 0.0000 0.0000
# 2 38.1038 72.2631 42.1516 0.0000 0.0000 0.0000
# 3 42.3122 42.1516 70.8233 0.0000 0.0000 0.0000
# 4 0.0000 0.0000 0.0000 27.2610 0.0000 0.0000
# 5 0.0000 0.0000 0.0000 0.0000 18.3684 0.0000
# 6 0.0000 0.0000 0.0000 0.0000 0.0000 20.5851
#
#
#
# Elastic Compliance Matrix: (Units=1/GPa)
#
#
# Indices 1 2 3 4 5 6 
#
# 1 0.010158 -0.002782 -0.004413 0.000000 0.000000 0.000000
# 2 -0.002782 0.021959 -0.011407 0.000000 0.000000 0.000000
# 3 -0.004413 -0.011407 0.023545 0.000000 0.000000 0.000000
# 4 0.000000 0.000000 0.000000 0.036683 0.000000 0.000000
# 5 0.000000 0.000000 0.000000 0.000000 0.054441 0.000000
# 6 0.000000 0.000000 0.000000 0.000000 0.000000 0.048579
#
#
# Mechanical properties :
#
#
# Convention : Reuss Voigt Hill
#
# Bulk Modulus (GPa) = 54.17725 57.27611 55.72668
# Shear Modulus (GPa) = 20.94486 23.09505 22.01995
#
# Velocity S-wave (km/s) = 3.51143 3.68727 3.60043
# Velocity P-wave (km/s) = 6.95228 7.20043 7.07744
#
# Compressibility (1/GPa) = 0.01845793
#
# Stress axis : x y z
#
# Youngs Moduli (GPa) = 98.44586 45.53892 42.47148
#
# Poissons Ratio (x) = 0.12670 0.18742
# Poissons Ratio (y) = 0.27389 0.48448
# Poissons Ratio (z) = 0.43442 0.51947
#
# Static dielectric constant tensor:
#      x y z
#    x 3.332810 0.000000 0.000000 
#    y 0.000000 2.963140 0.000000 
#    z 0.000000 0.000000 3.219160 
# 
# 
# High freq. dielectric constant tensor:
#      x y z
#    x 1.650280 0.000000 0.000000 
#    y 0.000000 1.631760 0.000000 
#    z 0.000000 0.000000 1.661080 
# 
# From -- ./inp_files/9608.got.cif
#   From: 2010.03.12/outbox.cif.g09.slc.cpg/sg47_5_cif.got.tgz:9608.got - 2010.04.14 03:12:58.
