data_PCOD8194194
_publ_section_title
;
Structure prediction by ZEFSAII (Michael W. Deem and Ramdas Pophale) SiO2 
 PCOD8194194
Probable space group: P M M M
;
_chemical_formula_sum "Si O2"
_cell_formula_units_Z 40
_cell_length_a 8.131696
_cell_length_b 23.578515
_cell_length_c 12.688923
_cell_angle_alpha 90.000000
_cell_angle_beta 90.000000
_cell_angle_gamma 90.000000
_cell_volume 2432.889285
_symmetry_space_group_name_H-M "P M M M"
_symmetry_group_IT_number 47
_symmetry_cell_setting 'orthorhombic'
loop_
_space_group_symop_operation_xyz
x,y,z
-x,-y,z
x,-y,-z
-x,y,-z
-x,-y,-z
x,y,-z
-x,y,z
x,-y,z
loop_
_atom_site_type_symbol
_atom_site_label
_atom_site_fract_x
_atom_site_fract_y
_atom_site_fract_z
Si Si1 0.808808 0.064436 0.120748
Si Si2 0.317412 0.631732 0.374740
Si Si3 0.812082 0.750037 0.380561
Si Si4 0.000000 0.435487 0.625631
Si Si5 0.686861 0.136451 0.305732
Si Si6 0.193971 0.064222 0.500000
O O1 0.706997 0.107233 0.192634
O O2 0.000000 0.070042 0.148828
O O3 0.750513 0.000000 0.141641
O O4 0.775453 0.081149 0.000000
O O5 0.308564 0.628889 0.500000
O O6 0.500000 0.611255 0.336197
O O7 0.294094 0.697000 0.338670
O O8 0.167867 0.593406 0.329102
O O9 0.761326 0.766677 0.500000
O O10 0.787988 0.805016 0.307883
O O11 0.000000 0.730079 0.376569
O O12 0.000000 0.500000 0.665195
O O13 0.000000 0.431647 0.500000
O O14 0.500000 0.153143 0.324846
O O15 0.743108 0.093503 0.395111
O O16 0.000000 0.067049 0.500000
O O17 0.259222 0.000000 0.500000
#
# Coordination Sequence:
#
# PCOD8194194 Si02
#       6
#     8   8   8   4   8   4
#     4   9  19  37  57  71  86 115 154 191 230 285
#     4   9  16  26  40  58  81 113 151 192 235 275
#     4  10  18  30  47  63  86 119 155 191 232 280
#     4   9  16  26  38  56  82 114 153 194 231 267
#     4  12  23  32  47  72  95 117 148 190 241 289
#     4  11  23  37  49  63  89 123 153 186 233 288
#
# _framework density 16.441358000000001
#
# number of rings (size 3 to 8) (size 9 to 14) (size 15 to 20)
#    0.000    2.000    2.000    3.900    0.000    5.200 
#    0.000    3.000    0.000    0.000    0.000    0.000 
#    0.000    0.000    0.000    0.000    0.000    2.000 
#
# Total GULP energy -495938.865960 kJ/mol
# GULP energy per Si atom -12398.471649 kJ/mol
# Density = 1.640394 g / cm^3
# Si number density = 16.441358 Si / 1000 Ang^3
#
#
#
# Elastic Constant Matrix: (Units=GPa)
#
#
# Indices 1 2 3 4 5 6 
#
# 1 98.6927 49.6178 14.4754 0.0000 0.0000 0.0000
# 2 49.6178 98.0198 28.2376 0.0000 0.0000 0.0000
# 3 14.4754 28.2376 44.4785 0.0000 0.0000 0.0000
# 4 0.0000 0.0000 0.0000 10.3343 0.0000 0.0000
# 5 0.0000 0.0000 0.0000 0.0000 9.5424 0.0000
# 6 0.0000 0.0000 0.0000 0.0000 0.0000 18.1889
#
#
#
# Elastic Compliance Matrix: (Units=1/GPa)
#
#
# Indices 1 2 3 4 5 6 
#
# 1 0.013592 -0.006860 -0.000068 0.000000 0.000000 0.000000
# 2 -0.006860 0.015948 -0.007892 0.000000 0.000000 0.000000
# 3 -0.000068 -0.007892 0.027515 0.000000 0.000000 0.000000
# 4 0.000000 0.000000 0.000000 0.096765 0.000000 0.000000
# 5 0.000000 0.000000 0.000000 0.000000 0.104796 0.000000
# 6 0.000000 0.000000 0.000000 0.000000 0.000000 0.054978
#
#
# Mechanical properties :
#
#
# Convention : Reuss Voigt Hill
#
# Bulk Modulus (GPa) = 36.47772 47.31696 41.89734
# Shear Modulus (GPa) = 14.18948 17.53715 15.86331
#
# Velocity S-wave (km/s) = 2.94093 3.26950 3.10956
# Velocity P-wave (km/s) = 5.81093 6.56464 6.19925
#
# Compressibility (1/GPa) = 0.02741399
#
# Stress axis : x y z
#
# Youngs Moduli (GPa) = 73.57523 62.70211 36.34337
#
# Poissons Ratio (x) = 0.43017 0.00247
# Poissons Ratio (y) = 0.50476 0.28683
# Poissons Ratio (z) = 0.00499 0.49486
#
# Static dielectric constant tensor:
#      x y z
#    x 3.314350 0.000000 0.000000 
#    y 0.000000 3.101460 0.000000 
#    z 0.000000 0.000000 2.649610 
# 
# 
# High freq. dielectric constant tensor:
#      x y z
#    x 1.650270 0.000000 0.000000 
#    y 0.000000 1.630320 0.000000 
#    z 0.000000 0.000000 1.566170 
# 
# From -- ./inp_files/15111.got.cif
#   From: 2010.03.12/outbox.cif.g09.slc.cpg/sg47_8_cif.got.tgz:15111.got - 2010.04.14 03:12:58.
