data_PCOD8194174
_publ_section_title
;
Structure prediction by ZEFSAII (Michael W. Deem and Ramdas Pophale) SiO2 
 PCOD8194174
Probable space group: P M M M
;
_chemical_formula_sum "Si O2"
_cell_formula_units_Z 36
_cell_length_a 14.362175
_cell_length_b 9.324278
_cell_length_c 18.258659
_cell_angle_alpha 90.000000
_cell_angle_beta 90.000000
_cell_angle_gamma 90.000000
_cell_volume 2445.143238
_symmetry_space_group_name_H-M "P M M M"
_symmetry_group_IT_number 47
_symmetry_cell_setting 'orthorhombic'
loop_
_space_group_symop_operation_xyz
x,y,z
-x,-y,z
x,-y,-z
-x,y,-z
-x,-y,-z
x,y,-z
-x,y,z
x,-y,z
loop_
_atom_site_type_symbol
_atom_site_label
_atom_site_fract_x
_atom_site_fract_y
_atom_site_fract_z
Si Si1 0.399202 0.169696 0.417877
Si Si2 0.796709 0.170202 0.366805
Si Si3 0.889355 0.338180 0.919816
Si Si4 0.107009 0.167338 0.782138
Si Si5 0.889798 0.666120 0.500000
O O1 0.382948 0.229510 0.500000
O O2 0.500000 0.226295 0.387770
O O3 0.312187 0.217363 0.367966
O O4 0.402398 0.000000 0.421118
O O5 0.835301 0.217931 0.288255
O O6 0.852213 0.255022 0.428337
O O7 0.809819 0.000000 0.380378
O O8 0.855193 0.500000 0.906792
O O9 0.849174 0.241541 0.854207
O O10 0.000000 0.330128 0.918755
O O11 0.854028 0.284191 0.000000
O O12 0.000000 0.212483 0.769408
O O13 0.116697 0.000000 0.795324
O O14 0.858204 0.500000 0.500000
O O15 0.000000 0.679604 0.500000
#
# Coordination Sequence:
#
# PCOD8194174 Si02
#       5
#     8   8   8   8   4
#     4   8  13  23  42  65  81  96 128 172 211 245
#     4  10  18  30  46  61  79 107 140 171 204 244
#     4   8  14  25  40  56  75 103 136 163 191 232
#     4   9  17  26  37  57  82 106 133 164 197 233
#     4  11  23  33  40  55  80 110 143 175 204 235
#
# _framework density 14.723063
#
# number of rings (size 3 to 8) (size 9 to 14) (size 15 to 20)
#    0.000    3.000    1.111    2.333    0.000    3.111 
#    0.000    4.444    0.000    1.333    0.000    0.000 
#    0.000    0.889    0.000   11.111    0.000    2.222 
#
# Total GULP energy -446073.889580 kJ/mol
# GULP energy per Si atom -12390.941377 kJ/mol
# Density = 1.468955 g / cm^3
# Si number density = 14.723063 Si / 1000 Ang^3
#
#
#
# Elastic Constant Matrix: (Units=GPa)
#
#
# Indices 1 2 3 4 5 6 
#
# 1 80.6982 26.0001 58.5601 0.0000 0.0000 0.0000
# 2 26.0001 41.4514 50.2178 0.0000 0.0000 0.0000
# 3 58.5601 50.2178 146.3969 0.0000 0.0000 0.0000
# 4 0.0000 0.0000 0.0000 18.1721 0.0000 0.0000
# 5 0.0000 0.0000 0.0000 0.0000 2.9633 0.0000
# 6 0.0000 0.0000 0.0000 0.0000 0.0000 7.9193
#
#
#
# Elastic Compliance Matrix: (Units=1/GPa)
#
#
# Indices 1 2 3 4 5 6 
#
# 1 0.017911 -0.004371 -0.005665 0.000000 0.000000 0.000000
# 2 -0.004371 0.042346 -0.012777 0.000000 0.000000 0.000000
# 3 -0.005665 -0.012777 0.013480 0.000000 0.000000 0.000000
# 4 0.000000 0.000000 0.000000 0.055030 0.000000 0.000000
# 5 0.000000 0.000000 0.000000 0.000000 0.337466 0.000000
# 6 0.000000 0.000000 0.000000 0.000000 0.000000 0.126274
#
#
# Mechanical properties :
#
#
# Convention : Reuss Voigt Hill
#
# Bulk Modulus (GPa) = 35.57517 59.78913 47.68215
# Shear Modulus (GPa) = 7.72197 14.72883 11.22540
#
# Velocity S-wave (km/s) = 2.29264 3.16633 2.76422
# Velocity P-wave (km/s) = 5.58781 7.35288 6.53025
#
# Compressibility (1/GPa) = 0.02810949
#
# Stress axis : x y z
#
# Youngs Moduli (GPa) = 55.83064 23.61509 74.18562
#
# Poissons Ratio (x) = 0.10323 0.42027
# Poissons Ratio (y) = 0.24406 0.94787
# Poissons Ratio (z) = 0.31629 0.30173
#
# Static dielectric constant tensor:
#      x y z
#    x 2.975800 0.000000 0.000000 
#    y 0.000000 2.734050 0.000000 
#    z 0.000000 0.000000 3.103350 
# 
# 
# High freq. dielectric constant tensor:
#      x y z
#    x 1.534830 0.000000 0.000000 
#    y 0.000000 1.544000 0.000000 
#    z 0.000000 0.000000 1.558110 
# 
# From -- ./inp_files/5972.got.cif
#   From: 2010.03.12/outbox.cif.g09.slc.cpg/sg47_3_cif.got.tgz:5972.got - 2010.04.14 03:12:58.
