data_PCOD8194558
_publ_section_title
;
Structure prediction by ZEFSAII (Michael W. Deem and Ramdas Pophale) SiO2 
 PCOD8194558
Probable space group: P M M M
;
_chemical_formula_sum "Si O2"
_cell_formula_units_Z 40
_cell_length_a 8.827179
_cell_length_b 10.291958
_cell_length_c 24.457719
_cell_angle_alpha 90.000000
_cell_angle_beta 90.000000
_cell_angle_gamma 90.000000
_cell_volume 2221.958226
_symmetry_space_group_name_H-M "P M M M"
_symmetry_group_IT_number 47
_symmetry_cell_setting 'orthorhombic'
loop_
_space_group_symop_operation_xyz
x,y,z
-x,-y,z
x,-y,-z
-x,y,-z
-x,-y,-z
x,y,-z
-x,y,z
x,-y,z
loop_
_atom_site_type_symbol
_atom_site_label
_atom_site_fract_x
_atom_site_fract_y
_atom_site_fract_z
Si Si1 0.180314 0.646620 0.353686
Si Si2 0.179633 0.500000 0.060857
Si Si3 0.820606 0.242537 0.121657
Si Si4 0.819725 0.145166 0.438705
Si Si5 0.678930 0.000000 0.937803
Si Si6 0.179632 0.644371 0.767364
O O1 0.237225 0.500000 0.366805
O O2 0.250342 0.748526 0.397114
O O3 0.234770 0.689688 0.292842
O O4 0.000000 0.649471 0.356766
O O5 0.236464 0.627663 0.091796
O O6 0.000000 0.500000 0.059162
O O7 0.248515 0.500000 0.000000
O O8 0.736231 0.124316 0.094302
O O9 0.769755 0.254887 0.185422
O O10 0.000000 0.221817 0.115824
O O11 0.763657 0.178633 0.500000
O O12 0.000000 0.149961 0.436729
O O13 0.764807 0.000000 0.422193
O O14 0.500000 0.000000 0.938245
O O15 0.742158 0.000000 0.000000
O O16 0.244132 0.500000 0.779874
O O17 0.000000 0.634933 0.768000
#
# Coordination Sequence:
#
# PCOD8194558 Si02
#       6
#     8   4   8   8   4   8
#     4   8  13  20  31  48  72 101 132 172 222 268
#     4   9  16  26  47  77  97 111 142 190 234 271
#     4  10  18  32  54  76  96 120 153 192 233 280
#     4   8  13  20  27  37  60  98 143 185 218 249
#     4  11  25  41  51  65  97 133 158 187 230 276
#     4   8  13  24  42  65  90 110 135 182 238 279
#
# _framework density 18.002137999999999
#
# number of rings (size 3 to 8) (size 9 to 14) (size 15 to 20)
#    0.000    3.200    1.000    2.700    0.000    2.000 
#    1.800    2.500    0.000    1.800    0.000    0.000 
#    0.000    0.000    0.000    0.000    0.000    2.000 
#
# Total GULP energy -495637.209520 kJ/mol
# GULP energy per Si atom -12390.930238 kJ/mol
# Density = 1.796116 g / cm^3
# Si number density = 18.002138 Si / 1000 Ang^3
#
#
#
# Elastic Constant Matrix: (Units=GPa)
#
#
# Indices 1 2 3 4 5 6 
#
# 1 13.1103 17.8525 16.3805 0.0000 0.0000 0.0000
# 2 17.8525 151.3658 109.7213 0.0000 0.0000 0.0000
# 3 16.3805 109.7213 181.7212 0.0000 0.0000 0.0000
# 4 0.0000 0.0000 0.0000 36.7144 0.0000 0.0000
# 5 0.0000 0.0000 0.0000 0.0000 4.4334 0.0000
# 6 0.0000 0.0000 0.0000 0.0000 0.0000 -22.8073
#
#
#
# Elastic Compliance Matrix: (Units=1/GPa)
#
#
# Indices 1 2 3 4 5 6 
#
# 1 0.091836 -0.008591 -0.003091 0.000000 0.000000 0.000000
# 2 -0.008591 0.012552 -0.006804 0.000000 0.000000 0.000000
# 3 -0.003091 -0.006804 0.009890 0.000000 0.000000 0.000000
# 4 0.000000 0.000000 0.000000 0.027237 0.000000 0.000000
# 5 0.000000 0.000000 0.000000 0.000000 0.225561 0.000000
# 6 0.000000 0.000000 0.000000 0.000000 0.000000 -0.043846
#
#
# Mechanical properties :
#
#
# Convention : Reuss Voigt Hill
#
# Bulk Modulus (GPa) = 12.93566 70.45621 41.69594
# Shear Modulus (GPa) = 12.95430 17.15097 15.05264
#
# Velocity S-wave (km/s) = 2.68544 3.08996 2.89478
# Velocity P-wave (km/s) = 4.10082 7.20785 5.86387
#
# Compressibility (1/GPa) = 0.07730568
#
# Stress axis : x y z
#
# Youngs Moduli (GPa) = 10.88895 79.66802 101.11188
#
# Poissons Ratio (x) = 0.68440 0.31256
# Poissons Ratio (y) = 0.09354 0.68801
# Poissons Ratio (z) = 0.03366 0.54210
#
# Static dielectric constant tensor:
#      x y z
#    x 2.559740 0.000000 0.000000 
#    y 0.000000 3.237710 0.000000 
#    z 0.000000 0.000000 3.889520 
# 
# 
# High freq. dielectric constant tensor:
#      x y z
#    x 1.615160 0.000000 0.000000 
#    y 0.000000 1.695280 0.000000 
#    z 0.000000 0.000000 1.715110 
# 
# From -- ./inp_files/32995.got.cif
#   From: 2010.03.12/outbox.cif.g09.slc.cpg/sg47_17_cif.got.tgz:32995.got - 2010.04.14 03:12:58.
