data_PCOD8194440
_publ_section_title
;
Structure prediction by ZEFSAII (Michael W. Deem and Ramdas Pophale) SiO2 
 PCOD8194440
Probable space group: P M M M
;
_chemical_formula_sum "Si O2"
_cell_formula_units_Z 64
_cell_length_a 19.552169
_cell_length_b 20.452040
_cell_length_c 9.495376
_cell_angle_alpha 90.000000
_cell_angle_beta 90.000000
_cell_angle_gamma 90.000000
_cell_volume 3797.027500
_symmetry_space_group_name_H-M "P M M M"
_symmetry_group_IT_number 47
_symmetry_cell_setting 'orthorhombic'
loop_
_space_group_symop_operation_xyz
x,y,z
-x,-y,z
x,-y,-z
-x,y,-z
-x,-y,-z
x,y,-z
-x,y,z
x,-y,z
loop_
_atom_site_type_symbol
_atom_site_label
_atom_site_fract_x
_atom_site_fract_y
_atom_site_fract_z
Si Si1 0.924751 0.611184 0.840939
Si Si2 0.580602 0.685327 0.164503
Si Si3 0.423367 0.071573 0.667100
Si Si4 0.197847 0.764336 0.660494
Si Si5 0.649816 0.425656 0.338082
Si Si6 0.074779 0.233324 0.841279
Si Si7 0.348051 0.199303 0.334369
Si Si8 0.200435 0.613165 0.662370
O O1 0.923162 0.688942 0.831752
O O2 0.863645 0.581993 0.746352
O O3 0.000000 0.586675 0.789463
O O4 0.912399 0.587500 0.000000
O O5 0.500000 0.693003 0.184073
O O6 0.603989 0.617559 0.234761
O O7 0.617033 0.744526 0.243713
O O8 0.601197 0.685323 0.000000
O O9 0.423861 0.072002 0.500000
O O10 0.500000 0.084187 0.723807
O O11 0.375121 0.129568 0.721938
O O12 0.397494 0.000000 0.720283
O O13 0.175696 0.771393 0.500000
O O14 0.135858 0.796429 0.748252
O O15 0.267230 0.802869 0.693631
O O16 0.210762 0.689059 0.700072
O O17 0.641693 0.401091 0.500000
O O18 0.624389 0.500000 0.322717
O O19 0.729536 0.422415 0.294178
O O20 0.000000 0.208988 0.787901
O O21 0.086554 0.209508 0.000000
O O22 0.363876 0.211678 0.500000
O O23 0.183368 0.602039 0.500000
#
# Coordination Sequence:
#
# PCOD8194440 Si02
#       8
#     8   8   8   8   8   8   8   8
#     4   8  14  24  39  61  87 116 150 184 221 271
#     4  11  24  38  52  73  99 124 154 196 243 290
#     4   8  14  25  44  72 101 129 164 202 236 272
#     4   9  16  25  40  64  92 119 150 190 234 277
#     4  10  21  38  57  73  91 119 157 199 243 294
#     4   8  14  24  37  56  85 120 154 186 225 275
#     4  10  18  31  51  74 101 131 163 198 236 282
#     4   9  16  28  44  65  90 113 146 190 233 280
#
# _framework density 16.85529
#
# number of rings (size 3 to 8) (size 9 to 14) (size 15 to 20)
#    0.000    2.875    1.250    1.875    0.000    3.500 
#    0.000    3.750    0.000    0.750    0.000    4.375 
#    0.000    0.500    0.000    6.250    0.000    1.250 
#
# Total GULP energy -793256.258668 kJ/mol
# GULP energy per Si atom -12394.629042 kJ/mol
# Density = 1.681693 g / cm^3
# Si number density = 16.855290 Si / 1000 Ang^3
#
#
#
# Elastic Constant Matrix: (Units=GPa)
#
#
# Indices 1 2 3 4 5 6 
#
# 1 102.8839 41.3298 54.3332 0.0000 0.0000 0.0000
# 2 41.3298 72.8526 32.1349 0.0000 0.0000 0.0000
# 3 54.3332 32.1349 69.8208 0.0000 0.0000 0.0000
# 4 0.0000 0.0000 0.0000 6.4990 0.0000 0.0000
# 5 0.0000 0.0000 0.0000 0.0000 31.3274 0.0000
# 6 0.0000 0.0000 0.0000 0.0000 0.0000 12.3575
#
#
#
# Elastic Compliance Matrix: (Units=1/GPa)
#
#
# Indices 1 2 3 4 5 6 
#
# 1 0.017853 -0.005019 -0.011583 0.000000 0.000000 0.000000
# 2 -0.005019 0.018634 -0.004671 0.000000 0.000000 0.000000
# 3 -0.011583 -0.004671 0.025485 0.000000 0.000000 0.000000
# 4 0.000000 0.000000 0.000000 0.153869 0.000000 0.000000
# 5 0.000000 0.000000 0.000000 0.000000 0.031921 0.000000
# 6 0.000000 0.000000 0.000000 0.000000 0.000000 0.080923
#
#
# Mechanical properties :
#
#
# Convention : Reuss Voigt Hill
#
# Bulk Modulus (GPa) = 51.47311 55.68366 53.57839
# Shear Modulus (GPa) = 13.23787 17.88741 15.56264
#
# Velocity S-wave (km/s) = 2.80551 3.26119 3.04190
# Velocity P-wave (km/s) = 6.41086 6.87667 6.64784
#
# Compressibility (1/GPa) = 0.01942762
#
# Stress axis : x y z
#
# Youngs Moduli (GPa) = 56.01391 53.66604 39.23807
#
# Poissons Ratio (x) = 0.26934 0.45448
# Poissons Ratio (y) = 0.28113 0.18326
# Poissons Ratio (z) = 0.64879 0.25065
#
# Static dielectric constant tensor:
#      x y z
#    x 3.463360 0.000000 0.000000 
#    y 0.000000 2.991840 0.000000 
#    z 0.000000 0.000000 3.119460 
# 
# 
# High freq. dielectric constant tensor:
#      x y z
#    x 1.659180 0.000000 0.000000 
#    y 0.000000 1.608050 0.000000 
#    z 0.000000 0.000000 1.633760 
# 
# From -- ./inp_files/11826.got.cif
#   From: 2010.03.12/outbox.cif.g09.slc.cpg/sg47_6_cif.got.tgz:11826.got - 2010.04.14 03:12:58.
