data_PCOD8194601
_publ_section_title
;
Structure prediction by ZEFSAII (Michael W. Deem and Ramdas Pophale) SiO2 
 PCOD8194601
Probable space group: P M M M
;
_chemical_formula_sum "Si O2"
_cell_formula_units_Z 56
_cell_length_a 9.302672
_cell_length_b 22.573012
_cell_length_c 14.875459
_cell_angle_alpha 90.000000
_cell_angle_beta 90.000000
_cell_angle_gamma 90.000000
_cell_volume 3123.687620
_symmetry_space_group_name_H-M "P M M M"
_symmetry_group_IT_number 47
_symmetry_cell_setting 'orthorhombic'
loop_
_space_group_symop_operation_xyz
x,y,z
-x,-y,z
x,-y,-z
-x,y,-z
-x,-y,-z
x,y,-z
-x,y,z
x,-y,z
loop_
_atom_site_type_symbol
_atom_site_label
_atom_site_fract_x
_atom_site_fract_y
_atom_site_fract_z
Si Si1 0.160595 0.106276 0.151674
Si Si2 0.161505 0.935175 0.646434
Si Si3 0.831270 0.812212 0.598260
Si Si4 0.666902 0.385666 0.603501
Si Si5 0.649582 0.000000 0.098378
Si Si6 0.329941 0.725667 0.727238
Si Si7 0.830867 0.238424 0.103809
Si Si8 0.838523 0.500000 0.606583
O O1 0.166156 0.093542 0.256143
O O2 0.216211 0.171443 0.126320
O O3 0.000000 0.098499 0.113430
O O4 0.260825 0.058987 0.107087
O O5 0.222572 0.881060 0.586924
O O6 0.000000 0.948327 0.616538
O O7 0.242726 0.000000 0.639973
O O8 0.808931 0.782427 0.500000
O O9 0.737121 0.780740 0.673733
O O10 0.000000 0.809927 0.626817
O O11 0.706842 0.369432 0.500000
O O12 0.500000 0.402158 0.610235
O O13 0.707579 0.332136 0.669140
O O14 0.756418 0.441535 0.640056
O O15 0.500000 0.000000 0.157825
O O16 0.590480 0.000000 0.000000
O O17 0.500000 0.734915 0.737277
O O18 0.258375 0.720232 0.826521
O O19 0.000000 0.248013 0.120812
O O20 0.791219 0.253854 0.000000
O O21 0.840126 0.500000 0.500000
O O22 0.000000 0.500000 0.645927
#
# Coordination Sequence:
#
# PCOD8194601 Si02
#       8
#     8   8   8   8   4   8   8   4
#     4  10  18  33  54  70  88 121 163 205 254 318
#     4   9  16  29  50  72  92 118 160 212 261 312
#     4  10  20  34  53  75 100 132 172 220 269 316
#     4   9  18  33  52  76 111 154 189 213 248 302
#     4  11  23  33  43  67  98 119 146 198 260 322
#     4  11  22  35  54  79 109 143 178 219 263 315
#     4  10  21  37  56  76 100 132 172 220 270 320
#     4   9  17  29  49  81 116 147 182 223 259 290
#
# _framework density 17.927527999999999
#
# number of rings (size 3 to 8) (size 9 to 14) (size 15 to 20)
#    0.000    2.143    2.143    1.714    0.000    5.143 
#    0.000    2.857    0.000    0.000    0.000    1.500 
#    0.000    4.000    0.000    0.000    0.000    0.000 
#
# Total GULP energy -693743.367152 kJ/mol
# GULP energy per Si atom -12388.274413 kJ/mol
# Density = 1.788672 g / cm^3
# Si number density = 17.927528 Si / 1000 Ang^3
#
#
#
# Elastic Constant Matrix: (Units=GPa)
#
#
# Indices 1 2 3 4 5 6 
#
# 1 74.8808 50.4301 42.8668 0.0000 0.0000 0.0000
# 2 50.4301 110.4359 47.8512 0.0000 0.0000 0.0000
# 3 42.8668 47.8512 100.9315 0.0000 0.0000 0.0000
# 4 0.0000 0.0000 0.0000 28.1222 0.0000 0.0000
# 5 0.0000 0.0000 0.0000 0.0000 22.0934 0.0000
# 6 0.0000 0.0000 0.0000 0.0000 0.0000 52.2882
#
#
#
# Elastic Compliance Matrix: (Units=1/GPa)
#
#
# Indices 1 2 3 4 5 6 
#
# 1 0.021577 -0.007403 -0.005654 0.000000 0.000000 0.000000
# 2 -0.007403 0.013936 -0.003463 0.000000 0.000000 0.000000
# 3 -0.005654 -0.003463 0.013951 0.000000 0.000000 0.000000
# 4 0.000000 0.000000 0.000000 0.035559 0.000000 0.000000
# 5 0.000000 0.000000 0.000000 0.000000 0.045262 0.000000
# 6 0.000000 0.000000 0.000000 0.000000 0.000000 0.019125
#
#
# Mechanical properties :
#
#
# Convention : Reuss Voigt Hill
#
# Bulk Modulus (GPa) = 60.88797 63.17161 62.02979
# Shear Modulus (GPa) = 26.60624 30.17409 28.39016
#
# Velocity S-wave (km/s) = 3.85658 4.10703 3.98377
# Velocity P-wave (km/s) = 7.33949 7.60289 7.47235
#
# Compressibility (1/GPa) = 0.01642361
#
# Stress axis : x y z
#
# Youngs Moduli (GPa) = 46.34492 71.75619 71.68009
#
# Poissons Ratio (x) = 0.53123 0.40530
# Poissons Ratio (y) = 0.34310 0.24821
# Poissons Ratio (z) = 0.26205 0.24848
#
# Static dielectric constant tensor:
#      x y z
#    x 3.313940 0.000000 0.000000 
#    y 0.000000 2.681300 0.000000 
#    z 0.000000 0.000000 3.523040 
# 
# 
# High freq. dielectric constant tensor:
#      x y z
#    x 1.678400 0.000000 0.000000 
#    y 0.000000 1.678660 0.000000 
#    z 0.000000 0.000000 1.685400 
# 
# From -- ./inp_files/21657.got.cif
#   From: 2010.03.12/outbox.cif.g09.slc.cpg/sg47_11_cif.got.tgz:21657.got - 2010.04.14 03:12:58.
