data_PCOD8194658
_publ_section_title
;
Structure prediction by ZEFSAII (Michael W. Deem and Ramdas Pophale) SiO2 
 PCOD8194658
Probable space group: P M M M
;
_chemical_formula_sum "Si O2"
_cell_formula_units_Z 48
_cell_length_a 13.280936
_cell_length_b 15.703616
_cell_length_c 15.444540
_cell_angle_alpha 90.000000
_cell_angle_beta 90.000000
_cell_angle_gamma 90.000000
_cell_volume 3221.093479
_symmetry_space_group_name_H-M "P M M M"
_symmetry_group_IT_number 47
_symmetry_cell_setting 'orthorhombic'
loop_
_space_group_symop_operation_xyz
x,y,z
-x,-y,z
x,-y,-z
-x,y,-z
-x,-y,-z
x,y,-z
-x,y,z
x,-y,z
loop_
_atom_site_type_symbol
_atom_site_label
_atom_site_fract_x
_atom_site_fract_y
_atom_site_fract_z
Si Si1 0.880837 0.000000 0.902506
Si Si2 0.386196 0.898295 0.500000
Si Si3 0.387870 0.594191 0.102669
Si Si4 0.617543 0.904550 0.151765
Si Si5 0.255223 0.748027 0.098190
Si Si6 0.117984 0.160303 0.787581
Si Si7 0.721306 0.902672 0.328731
O O1 0.846157 0.082149 0.848759
O O2 0.000000 0.000000 0.908815
O O3 0.835624 0.000000 0.000000
O O4 0.500000 0.861895 0.500000
O O5 0.326747 0.863935 0.584142
O O6 0.390689 0.000000 0.500000
O O7 0.500000 0.609158 0.140424
O O8 0.349008 0.500000 0.130237
O O9 0.314110 0.667097 0.138195
O O10 0.392634 0.601372 0.000000
O O11 0.500000 0.893653 0.133917
O O12 0.674774 0.831838 0.098584
O O13 0.637848 0.893674 0.253959
O O14 0.653043 0.000000 0.121889
O O15 0.156593 0.757547 0.159258
O O16 0.219454 0.731358 0.000000
O O17 0.177372 0.149761 0.696977
O O18 0.000000 0.165262 0.769039
O O19 0.753436 0.000000 0.344445
#
# Coordination Sequence:
#
# PCOD8194658 Si02
#       7
#     4   4   8   8   8   8   8
#     4   9  16  26  40  53  67 100 148 185 211 236
#     4   9  16  26  43  63  79  97 131 174 214 257
#     4   8  14  26  43  60  78 101 131 171 218 261
#     4   9  17  27  37  52  80 113 137 163 206 252
#     4  10  19  27  39  58  78 104 143 183 212 247
#     4  10  19  30  41  54  77 108 140 179 216 243
#     4   9  16  27  41  57  76 102 137 174 209 250
#
# _framework density 14.901771999999999
#
# number of rings (size 3 to 8) (size 9 to 14) (size 15 to 20)
#    0.000    2.833    0.833    2.000    1.167    4.333 
#    0.000    1.250    0.000    2.000    0.000    2.333 
#    0.000    0.000    0.000   12.000    0.000   97.000 
#
# Total GULP energy -594947.247154 kJ/mol
# GULP energy per Si atom -12394.734316 kJ/mol
# Density = 1.486785 g / cm^3
# Si number density = 14.901772 Si / 1000 Ang^3
#
#
#
# Elastic Constant Matrix: (Units=GPa)
#
#
# Indices 1 2 3 4 5 6 
#
# 1 89.0666 35.5045 32.4532 0.0000 0.0000 0.0000
# 2 35.5045 66.2741 13.9730 0.0000 0.0000 0.0000
# 3 32.4532 13.9730 71.5357 0.0000 0.0000 0.0000
# 4 0.0000 0.0000 0.0000 3.8379 0.0000 0.0000
# 5 0.0000 0.0000 0.0000 0.0000 20.9266 0.0000
# 6 0.0000 0.0000 0.0000 0.0000 0.0000 19.4303
#
#
#
# Elastic Compliance Matrix: (Units=1/GPa)
#
#
# Indices 1 2 3 4 5 6 
#
# 1 0.016405 -0.007529 -0.005972 0.000000 0.000000 0.000000
# 2 -0.007529 0.019193 -0.000333 0.000000 0.000000 0.000000
# 3 -0.005972 -0.000333 0.016753 0.000000 0.000000 0.000000
# 4 0.000000 0.000000 0.000000 0.260559 0.000000 0.000000
# 5 0.000000 0.000000 0.000000 0.000000 0.047786 0.000000
# 6 0.000000 0.000000 0.000000 0.000000 0.000000 0.051466
#
#
# Mechanical properties :
#
#
# Convention : Reuss Voigt Hill
#
# Bulk Modulus (GPa) = 40.51430 43.41531 41.96480
# Shear Modulus (GPa) = 11.15927 18.50200 14.83063
#
# Velocity S-wave (km/s) = 2.73949 3.52745 3.15814
# Velocity P-wave (km/s) = 6.10352 6.76669 6.44365
#
# Compressibility (1/GPa) = 0.02468265
#
# Stress axis : x y z
#
# Youngs Moduli (GPa) = 60.95754 52.10300 59.69012
#
# Poissons Ratio (x) = 0.39230 0.35645
# Poissons Ratio (y) = 0.45897 0.01988
# Poissons Ratio (z) = 0.36401 0.01735
#
# Static dielectric constant tensor:
#      x y z
#    x 2.900160 0.000000 0.000000 
#    y 0.000000 2.801260 0.000000 
#    z 0.000000 0.000000 2.708880 
# 
# 
# High freq. dielectric constant tensor:
#      x y z
#    x 1.575560 0.000000 0.000000 
#    y 0.000000 1.530820 0.000000 
#    z 0.000000 0.000000 1.539080 
# 
# From -- ./inp_files/23708.got.cif
#   From: 2010.03.12/outbox.cif.g09.slc.cpg/sg47_12_cif.got.tgz:23708.got - 2010.04.14 03:12:58.
