data_PCOD8194685
_publ_section_title
;
Structure prediction by ZEFSAII (Michael W. Deem and Ramdas Pophale) SiO2 
 PCOD8194685
Probable space group: P M M M
;
_chemical_formula_sum "Si O2"
_cell_formula_units_Z 56
_cell_length_a 9.269902
_cell_length_b 13.716442
_cell_length_c 28.759937
_cell_angle_alpha 90.000000
_cell_angle_beta 90.000000
_cell_angle_gamma 90.000000
_cell_volume 3656.828093
_symmetry_space_group_name_H-M "P M M M"
_symmetry_group_IT_number 47
_symmetry_cell_setting 'orthorhombic'
loop_
_space_group_symop_operation_xyz
x,y,z
-x,-y,z
x,-y,-z
-x,y,-z
-x,-y,-z
x,y,-z
-x,y,z
x,-y,z
loop_
_atom_site_type_symbol
_atom_site_label
_atom_site_fract_x
_atom_site_fract_y
_atom_site_fract_z
Si Si1 0.333698 0.889542 0.408351
Si Si2 0.661824 0.884040 0.137939
Si Si3 0.162015 0.884056 0.051378
Si Si4 0.335369 0.792920 0.311303
Si Si5 0.169367 0.112952 0.228837
Si Si6 0.833856 0.715092 0.553066
Si Si7 0.666325 0.609967 0.630497
O O1 0.500000 0.873355 0.421961
O O2 0.309986 0.865235 0.354303
O O3 0.237680 0.820875 0.440635
O O4 0.284720 0.000000 0.417346
O O5 0.500000 0.842450 0.142301
O O6 0.732855 0.840715 0.090867
O O7 0.754691 0.849445 0.181964
O O8 0.660042 0.000000 0.135543
O O9 0.000000 0.845489 0.060419
O O10 0.161682 0.000000 0.054099
O O11 0.215230 0.850657 0.000000
O O12 0.500000 0.800690 0.293325
O O13 0.226879 0.822007 0.270848
O O14 0.297029 0.682619 0.327076
O O15 0.000000 0.129167 0.223195
O O16 0.206892 0.000000 0.238491
O O17 0.815955 0.681204 0.500000
O O18 0.759635 0.633983 0.585125
O O19 0.000000 0.723501 0.567519
O O20 0.500000 0.624406 0.616059
O O21 0.699140 0.500000 0.646929
#
# Coordination Sequence:
#
# PCOD8194685 Si02
#       7
#     8   8   8   8   8   8   8
#     4   9  18  32  49  67  87 114 146 176 204 238
#     4   9  16  24  34  49  70  98 134 175 213 245
#     4   8  13  21  32  45  64  93 129 170 214 254
#     4   9  17  30  47  65  84 104 130 166 205 244
#     4  10  19  28  39  57  82 111 140 169 203 245
#     4  10  21  34  47  67  94 118 139 167 204 244
#     4   9  19  36  55  71  86 107 136 169 205 247
#
# _framework density 15.313819000000001
#
# number of rings (size 3 to 8) (size 9 to 14) (size 15 to 20)
#    0.000    2.857    0.000    3.000    0.000    8.000 
#    0.000    4.286    0.000    0.000    0.000    0.000 
#    0.000    0.000    0.000    0.000    0.000    0.714 
#
# Total GULP energy -694308.271719 kJ/mol
# GULP energy per Si atom -12398.361995 kJ/mol
# Density = 1.527896 g / cm^3
# Si number density = 15.313819 Si / 1000 Ang^3
#
#
#
# Elastic Constant Matrix: (Units=GPa)
#
#
# Indices 1 2 3 4 5 6 
#
# 1 98.3889 31.7948 62.8254 0.0000 0.0000 0.0000
# 2 31.7948 65.7686 28.9668 0.0000 0.0000 0.0000
# 3 62.8254 28.9668 100.2644 0.0000 0.0000 0.0000
# 4 0.0000 0.0000 0.0000 7.8773 0.0000 0.0000
# 5 0.0000 0.0000 0.0000 0.0000 31.6582 0.0000
# 6 0.0000 0.0000 0.0000 0.0000 0.0000 10.8675
#
#
#
# Elastic Compliance Matrix: (Units=1/GPa)
#
#
# Indices 1 2 3 4 5 6 
#
# 1 0.017928 -0.004262 -0.010002 0.000000 0.000000 0.000000
# 2 -0.004262 0.018435 -0.002656 0.000000 0.000000 0.000000
# 3 -0.010002 -0.002656 0.017008 0.000000 0.000000 0.000000
# 4 0.000000 0.000000 0.000000 0.126947 0.000000 0.000000
# 5 0.000000 0.000000 0.000000 0.000000 0.031587 0.000000
# 6 0.000000 0.000000 0.000000 0.000000 0.000000 0.092017
#
#
# Mechanical properties :
#
#
# Convention : Reuss Voigt Hill
#
# Bulk Modulus (GPa) = 51.19858 56.84399 54.02128
# Shear Modulus (GPa) = 14.52341 19.46961 16.99651
#
# Velocity S-wave (km/s) = 3.08293 3.56950 3.33510
# Velocity P-wave (km/s) = 6.79545 7.36128 7.08402
#
# Compressibility (1/GPa) = 0.01953179
#
# Stress axis : x y z
#
# Youngs Moduli (GPa) = 55.77942 54.24586 58.79498
#
# Poissons Ratio (x) = 0.23117 0.58809
# Poissons Ratio (y) = 0.23771 0.15613
# Poissons Ratio (z) = 0.55792 0.14405
#
# Static dielectric constant tensor:
#      x y z
#    x 3.051350 0.000000 0.000000 
#    y 0.000000 2.677080 0.000000 
#    z 0.000000 0.000000 2.960360 
# 
# 
# High freq. dielectric constant tensor:
#      x y z
#    x 1.596210 0.000000 0.000000 
#    y 0.000000 1.535870 0.000000 
#    z 0.000000 0.000000 1.584230 
# 
# From -- ./inp_files/8139.got.cif
#   From: 2010.03.12/outbox.cif.g09.slc.cpg/sg47_5_cif.got.tgz:8139.got - 2010.04.14 03:12:58.
