data_PCOD8194499
_publ_section_title
;
Structure prediction by ZEFSAII (Michael W. Deem and Ramdas Pophale) SiO2 
 PCOD8194499
Probable space group: P M M M
;
_chemical_formula_sum "Si O2"
_cell_formula_units_Z 52
_cell_length_a 9.652522
_cell_length_b 20.701270
_cell_length_c 14.062393
_cell_angle_alpha 90.000000
_cell_angle_beta 90.000000
_cell_angle_gamma 90.000000
_cell_volume 2809.939833
_symmetry_space_group_name_H-M "P M M M"
_symmetry_group_IT_number 47
_symmetry_cell_setting 'orthorhombic'
loop_
_space_group_symop_operation_xyz
x,y,z
-x,-y,z
x,-y,-z
-x,y,-z
-x,-y,-z
x,y,-z
-x,y,z
x,-y,z
loop_
_atom_site_type_symbol
_atom_site_label
_atom_site_fract_x
_atom_site_fract_y
_atom_site_fract_z
Si Si1 0.339644 0.758250 0.108834
Si Si2 0.840698 0.368405 0.106341
Si Si3 0.848098 0.303179 0.603421
Si Si4 0.835870 0.928566 0.605797
Si Si5 0.834422 0.189273 0.733637
Si Si6 0.500000 0.424507 0.605932
Si Si7 0.780133 0.573497 0.297139
O O1 0.500000 0.752479 0.141747
O O2 0.263118 0.690216 0.123083
O O3 0.253269 0.810843 0.168964
O O4 0.331864 0.780817 0.000000
O O5 0.800644 0.423075 0.183263
O O6 0.000000 0.345379 0.121317
O O7 0.821897 0.397344 0.000000
O O8 0.771612 0.307626 0.500000
O O9 0.778122 0.251852 0.674632
O O10 0.873454 0.373926 0.649698
O O11 0.000000 0.274405 0.585127
O O12 0.778345 0.913025 0.500000
O O13 0.784049 0.874794 0.679174
O O14 0.000000 0.927172 0.602175
O O15 0.784857 0.000000 0.638199
O O16 0.000000 0.190782 0.753732
O O17 0.500000 0.500000 0.590849
O O18 0.500000 0.392311 0.500000
O O19 0.628833 0.403436 0.669718
O O20 0.814895 0.500000 0.329273
#
# Coordination Sequence:
#
# PCOD8194499 Si02
#       7
#     8   8   8   8   8   4   8
#     4  10  21  36  55  78 104 136 176 222 270 322
#     4  10  21  37  56  78 105 136 174 224 281 333
#     4  10  20  32  47  71 101 131 167 213 261 307
#     4   8  14  26  48  81 117 148 177 211 255 307
#     4  10  18  31  54  80 107 139 175 217 262 310
#     4   9  20  38  55  71  97 137 179 217 265 322
#     4  11  22  35  52  73 100 137 180 222 265 321
#
# _framework density 18.505735000000001
#
# number of rings (size 3 to 8) (size 9 to 14) (size 15 to 20)
#    0.000    2.231    1.538    2.308    1.077    5.231 
#    0.000    1.538    0.000    3.692    0.000    4.308 
#    0.000    0.000    0.000    0.000    0.000    0.000 
#
# Total GULP energy -644281.548045 kJ/mol
# GULP energy per Si atom -12390.029770 kJ/mol
# Density = 1.846362 g / cm^3
# Si number density = 18.505735 Si / 1000 Ang^3
#
#
#
# Elastic Constant Matrix: (Units=GPa)
#
#
# Indices 1 2 3 4 5 6 
#
# 1 85.6420 23.4855 43.9543 0.0000 0.0000 0.0000
# 2 23.4855 105.4174 48.8104 0.0000 0.0000 0.0000
# 3 43.9543 48.8104 121.3621 0.0000 0.0000 0.0000
# 4 0.0000 0.0000 0.0000 31.0066 0.0000 0.0000
# 5 0.0000 0.0000 0.0000 0.0000********** 0.0000
# 6 0.0000 0.0000 0.0000 0.0000 0.0000 3.0686
#
#
#
# Elastic Compliance Matrix: (Units=1/GPa)
#
#
# Indices 1 2 3 4 5 6 
#
# 1 0.014424 -0.000976 -0.004831 0.000000 0.000000 0.000000
# 2 -0.000976 0.011723 -0.004361 0.000000 0.000000 0.000000
# 3 -0.004831 -0.004361 0.011744 0.000000 0.000000 0.000000
# 4 0.000000 0.000000 0.000000 0.032251 0.000000 0.000000
# 5 0.000000 0.000000 0.000000 0.000000 -0.000002 0.000000
# 6 0.000000 0.000000 0.000000 0.000000 0.000000 0.325878
#
#
# Mechanical properties :
#
#
# Convention : Reuss Voigt Hill
#
# Bulk Modulus (GPa) = 56.97161 60.54689 58.75925
# Shear Modulus (GPa) = 11.84256 -86191.64871 -43089.90308
#
# Velocity S-wave (km/s) = 2.53245 -216.04804 -152.75854
# Velocity P-wave (km/s) = 6.27725 249.40506 176.30014
#
# Compressibility (1/GPa) = 0.01755260
#
# Stress axis : x y z
#
# Youngs Moduli (GPa) = 69.32968 85.30275 85.15297
#
# Poissons Ratio (x) = 0.08330 0.41139
# Poissons Ratio (y) = 0.06770 0.37137
# Poissons Ratio (z) = 0.33495 0.37202
#
# Static dielectric constant tensor:
#      x y z
#    x 3.438430 0.000000 0.000000 
#    y 0.000000 3.292500 0.000000 
#    z 0.000000 0.000000 3.710650 
# 
# 
# High freq. dielectric constant tensor:
#      x y z
#    x 1.693190 0.000000 0.000000 
#    y 0.000000 1.691100 0.000000 
#    z 0.000000 0.000000 1.728480 
# 
# From -- ./inp_files/21410.got.cif
#   From: 2010.03.12/outbox.cif.g09.slc.cpg/sg47_11_cif.got.tgz:21410.got - 2010.04.14 03:12:58.
