data_PCOD8194467
_publ_section_title
;
Structure prediction by ZEFSAII (Michael W. Deem and Ramdas Pophale) SiO2 
 PCOD8194467
Probable space group: P M M M
;
_chemical_formula_sum "Si O2"
_cell_formula_units_Z 52
_cell_length_a 13.450787
_cell_length_b 8.950929
_cell_length_c 24.127032
_cell_angle_alpha 90.000000
_cell_angle_beta 90.000000
_cell_angle_gamma 90.000000
_cell_volume 2904.823223
_symmetry_space_group_name_H-M "P M M M"
_symmetry_group_IT_number 47
_symmetry_cell_setting 'orthorhombic'
loop_
_space_group_symop_operation_xyz
x,y,z
-x,-y,z
x,-y,-z
-x,y,-z
-x,-y,-z
x,y,-z
-x,y,z
x,-y,z
loop_
_atom_site_type_symbol
_atom_site_label
_atom_site_fract_x
_atom_site_fract_y
_atom_site_fract_z
Si Si1 0.111721 0.175632 0.149698
Si Si2 0.611119 0.177335 0.561227
Si Si3 0.112035 0.330537 0.266834
Si Si4 0.388737 0.332017 0.759406
Si Si5 0.302056 0.671148 0.877198
Si Si6 0.275912 0.824361 0.667765
Si Si7 0.500000 0.323581 0.064088
O O1 0.125403 0.235087 0.211641
O O2 0.197498 0.244831 0.109666
O O3 0.000000 0.217120 0.128053
O O4 0.127006 0.000000 0.150841
O O5 0.647404 0.229158 0.500000
O O6 0.500000 0.240354 0.572632
O O7 0.687329 0.235480 0.607868
O O8 0.606516 0.000000 0.564149
O O9 0.146339 0.500000 0.253962
O O10 0.176019 0.262820 0.316765
O O11 0.000000 0.326120 0.288463
O O12 0.500000 0.300591 0.779939
O O13 0.378476 0.500000 0.735484
O O14 0.317411 0.311806 0.811671
O O15 0.360687 0.213072 0.712653
O O16 0.289068 0.500000 0.895705
O O17 0.397914 0.741783 0.909047
O O18 0.255256 0.000000 0.667446
O O19 0.500000 0.500000 0.075184
O O20 0.500000 0.280232 0.000000
#
# Coordination Sequence:
#
# PCOD8194467 Si02
#       7
#     8   8   8   8   8   8   4
#     4  10  20  33  50  75 105 135 170 214 261 306
#     4   8  15  29  47  67  94 127 161 199 243 291
#     4  10  20  33  48  67  96 133 167 199 245 307
#     4  10  19  30  44  67 102 138 165 195 245 306
#     4  10  18  31  52  76 104 139 173 207 253 303
#     4  11  20  29  47  74  99 125 163 207 252 299
#     4   9  18  34  57  83 109 141 182 221 252 290
#
# _framework density 17.901260000000001
#
# number of rings (size 3 to 8) (size 9 to 14) (size 15 to 20)
#    0.000    2.231    2.308    2.308    0.000    2.769 
#    0.000    0.385    0.000    3.692    0.000   11.846 
#    0.000    0.000    0.000    0.000    0.000    0.000 
#
# Total GULP energy -644528.762893 kJ/mol
# GULP energy per Si atom -12394.783902 kJ/mol
# Density = 1.786052 g / cm^3
# Si number density = 17.901260 Si / 1000 Ang^3
#
#
#
# Elastic Constant Matrix: (Units=GPa)
#
#
# Indices 1 2 3 4 5 6 
#
# 1 155.8935 46.2040 43.3324 0.0000 0.0000 0.0000
# 2 46.2040 53.9720 21.9271 0.0000 0.0000 0.0000
# 3 43.3324 21.9271 67.5856 0.0000 0.0000 0.0000
# 4 0.0000 0.0000 0.0000 14.1743 0.0000 0.0000
# 5 0.0000 0.0000 0.0000 0.0000 18.5328 0.0000
# 6 0.0000 0.0000 0.0000 0.0000 0.0000 28.8850
#
#
#
# Elastic Compliance Matrix: (Units=1/GPa)
#
#
# Indices 1 2 3 4 5 6 
#
# 1 0.009429 -0.006468 -0.003947 0.000000 0.000000 0.000000
# 2 -0.006468 0.025778 -0.004216 0.000000 0.000000 0.000000
# 3 -0.003947 -0.004216 0.018694 0.000000 0.000000 0.000000
# 4 0.000000 0.000000 0.000000 0.070550 0.000000 0.000000
# 5 0.000000 0.000000 0.000000 0.000000 0.053958 0.000000
# 6 0.000000 0.000000 0.000000 0.000000 0.000000 0.034620
#
#
# Mechanical properties :
#
#
# Convention : Reuss Voigt Hill
#
# Bulk Modulus (GPa) = 40.58601 55.59756 48.09178
# Shear Modulus (GPa) = 19.95962 23.38425 21.67193
#
# Velocity S-wave (km/s) = 3.34276 3.61819 3.48320
# Velocity P-wave (km/s) = 6.13352 6.96996 6.56508
#
# Compressibility (1/GPa) = 0.02463903
#
# Stress axis : x y z
#
# Youngs Moduli (GPa) = 106.05859 38.79217 53.49202
#
# Poissons Ratio (x) = 0.25092 0.21112
# Poissons Ratio (y) = 0.68602 0.22554
# Poissons Ratio (z) = 0.41858 0.16356
#
# Static dielectric constant tensor:
#      x y z
#    x 3.633800 0.000000 0.000000 
#    y 0.000000 3.109220 0.000000 
#    z 0.000000 0.000000 3.133990 
# 
# 
# High freq. dielectric constant tensor:
#      x y z
#    x 1.708020 0.000000 0.000000 
#    y 0.000000 1.671450 0.000000 
#    z 0.000000 0.000000 1.658700 
# 
# From -- ./inp_files/32675.got.cif
#   From: 2010.03.12/outbox.cif.g09.slc.cpg/sg47_17_cif.got.tgz:32675.got - 2010.04.14 03:12:58.
