data_PCOD8194639
_publ_section_title
;
Structure prediction by ZEFSAII (Michael W. Deem and Ramdas Pophale) SiO2 
 PCOD8194639
Probable space group: P M M M
;
_chemical_formula_sum "Si O2"
_cell_formula_units_Z 56
_cell_length_a 14.423993
_cell_length_b 20.911674
_cell_length_c 13.592643
_cell_angle_alpha 90.000000
_cell_angle_beta 90.000000
_cell_angle_gamma 90.000000
_cell_volume 4099.946725
_symmetry_space_group_name_H-M "P M M M"
_symmetry_group_IT_number 47
_symmetry_cell_setting 'orthorhombic'
loop_
_space_group_symop_operation_xyz
x,y,z
-x,-y,z
x,-y,-z
-x,y,-z
-x,-y,-z
x,y,-z
-x,y,z
x,-y,z
loop_
_atom_site_type_symbol
_atom_site_label
_atom_site_fract_x
_atom_site_fract_y
_atom_site_fract_z
Si Si1 0.289992 0.692552 0.382056
Si Si2 0.397620 0.184536 0.614361
Si Si3 0.894749 0.887434 0.385748
Si Si4 0.603846 0.924432 0.108213
Si Si5 0.395734 0.429708 0.383070
Si Si6 0.288391 0.926978 0.703104
Si Si7 0.900613 0.738981 0.384610
O O1 0.291134 0.693514 0.500000
O O2 0.347091 0.753152 0.339801
O O3 0.331330 0.626405 0.339488
O O4 0.184374 0.697603 0.341635
O O5 0.407622 0.197040 0.500000
O O6 0.500000 0.177776 0.662051
O O7 0.339423 0.119646 0.627121
O O8 0.873129 0.902996 0.500000
O O9 0.822479 0.924041 0.314758
O O10 0.881389 0.813014 0.363746
O O11 0.000000 0.909174 0.360587
O O12 0.500000 0.900754 0.138203
O O13 0.680969 0.902707 0.187929
O O14 0.603176 0.000000 0.101826
O O15 0.630276 0.896629 0.000000
O O16 0.395392 0.426132 0.500000
O O17 0.500000 0.418766 0.344332
O O18 0.359789 0.500000 0.349035
O O19 0.321751 0.000000 0.686163
O O20 0.907025 0.728099 0.500000
O O21 0.000000 0.718315 0.337288
#
# Coordination Sequence:
#
# PCOD8194639 Si02
#       7
#     8   8   8   8   8   8   8
#     4   9  14  22  35  47  63  89 118 147 179 212
#     4  10  19  27  34  49  74 100 122 144 178 225
#     4   9  17  29  41  53  73 100 129 158 186 220
#     4   8  15  29  46  59  70  88 117 151 187 230
#     4   8  13  20  30  45  63  84 114 149 180 211
#     4  11  20  28  40  56  73  93 121 157 192 223
#     4   8  13  22  36  49  61  84 120 154 178 205
#
# _framework density 13.658714
#
# number of rings (size 3 to 8) (size 9 to 14) (size 15 to 20)
#    0.000    3.000    1.429    3.000    0.000    4.000 
#    0.000    1.429    0.000    0.857    0.000    5.000 
#    0.000    0.000    0.000    0.000    0.000    0.714 
#
# Total GULP energy -693735.833256 kJ/mol
# GULP energy per Si atom -12388.139880 kJ/mol
# Density = 1.362763 g / cm^3
# Si number density = 13.658714 Si / 1000 Ang^3
#
#
#
# Elastic Constant Matrix: (Units=GPa)
#
#
# Indices 1 2 3 4 5 6 
#
# 1 111.7399 48.7560 26.6754 0.0000 0.0000 0.0000
# 2 48.7560 80.5116 8.6964 0.0000 0.0000 0.0000
# 3 26.6754 8.6964 32.4185 0.0000 0.0000 0.0000
# 4 0.0000 0.0000 0.0000 0.8230 0.0000 0.0000
# 5 0.0000 0.0000 0.0000 0.0000 13.8276 0.0000
# 6 0.0000 0.0000 0.0000 0.0000 0.0000 24.1550
#
#
#
# Elastic Compliance Matrix: (Units=1/GPa)
#
#
# Indices 1 2 3 4 5 6 
#
# 1 0.014781 -0.007865 -0.010053 0.000000 0.000000 0.000000
# 2 -0.007865 0.016976 0.001918 0.000000 0.000000 0.000000
# 3 -0.010053 0.001918 0.038604 0.000000 0.000000 0.000000
# 4 0.000000 0.000000 0.000000 1.215066 0.000000 0.000000
# 5 0.000000 0.000000 0.000000 0.000000 0.072319 0.000000
# 6 0.000000 0.000000 0.000000 0.000000 0.000000 0.041399
#
#
# Mechanical properties :
#
#
# Convention : Reuss Voigt Hill
#
# Bulk Modulus (GPa) = 26.06794 43.65840 34.86317
# Shear Modulus (GPa) = 3.46276 17.13060 10.29668
#
# Velocity S-wave (km/s) = 1.59396 3.54529 2.74862
# Velocity P-wave (km/s) = 4.74492 6.98513 5.97102
#
# Compressibility (1/GPa) = 0.03836130
#
# Stress axis : x y z
#
# Youngs Moduli (GPa) = 67.65409 58.90524 25.90419
#
# Poissons Ratio (x) = 0.46330 0.26040
# Poissons Ratio (y) = 0.53212 -0.04968
# Poissons Ratio (z) = 0.68010 -0.11297
#
# Static dielectric constant tensor:
#      x y z
#    x 2.973970 0.000000 0.000000 
#    y 0.000000 2.700560 0.000000 
#    z 0.000000 0.000000 2.342660 
# 
# 
# High freq. dielectric constant tensor:
#      x y z
#    x 1.533080 0.000000 0.000000 
#    y 0.000000 1.504120 0.000000 
#    z 0.000000 0.000000 1.447900 
# 
# From -- ./inp_files/23987.got.cif
#   From: 2010.03.12/outbox.cif.g09.slc.cpg/sg47_12_cif.got.tgz:23987.got - 2010.04.14 03:12:58.
