data_PCOD8194568
_publ_section_title
;
Structure prediction by ZEFSAII (Michael W. Deem and Ramdas Pophale) SiO2 
 PCOD8194568
Probable space group: P M M M
;
_chemical_formula_sum "Si O2"
_cell_formula_units_Z 64
_cell_length_a 23.887540
_cell_length_b 15.157191
_cell_length_c 9.397495
_cell_angle_alpha 90.000000
_cell_angle_beta 90.000000
_cell_angle_gamma 90.000000
_cell_volume 3402.532279
_symmetry_space_group_name_H-M "P M M M"
_symmetry_group_IT_number 47
_symmetry_cell_setting 'orthorhombic'
loop_
_space_group_symop_operation_xyz
x,y,z
-x,-y,z
x,-y,-z
-x,y,-z
-x,-y,-z
x,y,-z
-x,y,z
x,-y,z
loop_
_atom_site_type_symbol
_atom_site_label
_atom_site_fract_x
_atom_site_fract_y
_atom_site_fract_z
Si Si1 0.331308 0.347228 0.658202
Si Si2 0.212045 0.402910 0.668808
Si Si3 0.937573 0.098809 0.331200
Si Si4 0.339995 0.148067 0.658158
Si Si5 0.757170 0.097647 0.838061
Si Si6 0.562234 0.604101 0.160467
Si Si7 0.838415 0.221350 0.330832
Si Si8 0.437172 0.896706 0.841319
O O1 0.342838 0.385387 0.500000
O O2 0.275864 0.392413 0.727464
O O3 0.314590 0.245359 0.649263
O O4 0.387602 0.357430 0.747304
O O5 0.215843 0.397757 0.500000
O O6 0.189401 0.500000 0.717848
O O7 0.169717 0.324031 0.718755
O O8 0.938222 0.098724 0.500000
O O9 0.897084 0.178056 0.277496
O O10 0.000000 0.118933 0.272729
O O11 0.918640 0.000000 0.279470
O O12 0.340510 0.105579 0.500000
O O13 0.304139 0.089910 0.768149
O O14 0.402348 0.153739 0.721153
O O15 0.790980 0.164162 0.741362
O O16 0.784237 0.000000 0.835415
O O17 0.753363 0.132650 0.000000
O O18 0.500000 0.631850 0.217062
O O19 0.567375 0.500000 0.162911
O O20 0.569511 0.639715 0.000000
O O21 0.832274 0.212304 0.500000
O O22 0.500000 0.860871 0.827785
O O23 0.434917 0.000000 0.810622
O O24 0.414290 0.876174 0.000000
#
# Coordination Sequence:
#
# PCOD8194568 Si02
#       8
#     8   8   8   8   8   8   8   8
#     4  10  20  34  50  70  97 127 164 209 259 315
#     4   9  17  31  51  74 102 136 174 218 268 316
#     4   8  14  25  45  77 113 146 181 221 263 305
#     4  11  22  35  51  73  99 127 167 214 255 305
#     4  11  23  36  51  74 106 140 170 207 261 319
#     4   9  19  35  52  71  95 122 157 204 258 317
#     4  10  18  32  54  79 106 139 182 224 259 301
#     4   9  19  36  54  70  92 126 166 205 253 315
#
# _framework density 18.809519999999999
#
# number of rings (size 3 to 8) (size 9 to 14) (size 15 to 20)
#    0.000    2.375    1.250    3.000    0.000    6.000 
#    0.000    3.750    0.000    1.125    0.000    4.375 
#    0.000    0.000    0.000    1.125    0.000    1.375 
#
# Total GULP energy -792999.856629 kJ/mol
# GULP energy per Si atom -12390.622760 kJ/mol
# Density = 1.876671 g / cm^3
# Si number density = 18.809520 Si / 1000 Ang^3
#
#
#
# Elastic Constant Matrix: (Units=GPa)
#
#
# Indices 1 2 3 4 5 6 
#
# 1 109.5926 54.0053 31.9476 0.0000 0.0000 0.0000
# 2 54.0053 110.0536 21.7454 0.0000 0.0000 0.0000
# 3 31.9476 21.7454 57.9428 0.0000 0.0000 0.0000
# 4 0.0000 0.0000 0.0000 15.8717 0.0000 0.0000
# 5 0.0000 0.0000 0.0000 0.0000 8.0268 0.0000
# 6 0.0000 0.0000 0.0000 0.0000 0.0000 30.2722
#
#
#
# Elastic Compliance Matrix: (Units=1/GPa)
#
#
# Indices 1 2 3 4 5 6 
#
# 1 0.013395 -0.005524 -0.005313 0.000000 0.000000 0.000000
# 2 -0.005524 0.012092 -0.001492 0.000000 0.000000 0.000000
# 3 -0.005313 -0.001492 0.020748 0.000000 0.000000 0.000000
# 4 0.000000 0.000000 0.000000 0.063005 0.000000 0.000000
# 5 0.000000 0.000000 0.000000 0.000000 0.124583 0.000000
# 6 0.000000 0.000000 0.000000 0.000000 0.000000 0.033034
#
#
# Mechanical properties :
#
#
# Convention : Reuss Voigt Hill
#
# Bulk Modulus (GPa) = 46.34484 54.77619 50.56051
# Shear Modulus (GPa) = 16.73882 22.16019 19.44951
#
# Velocity S-wave (km/s) = 2.98638 3.43612 3.21911
# Velocity P-wave (km/s) = 6.04845 6.70279 6.38401
#
# Compressibility (1/GPa) = 0.02157738
#
# Stress axis : x y z
#
# Youngs Moduli (GPa) = 74.65255 82.69992 48.19796
#
# Poissons Ratio (x) = 0.45680 0.25607
# Poissons Ratio (y) = 0.41235 0.07193
# Poissons Ratio (z) = 0.39661 0.12342
#
# Static dielectric constant tensor:
#      x y z
#    x 3.621740 0.000000 0.000000 
#    y 0.000000 3.605380 0.000000 
#    z 0.000000 0.000000 3.233700 
# 
# 
# High freq. dielectric constant tensor:
#      x y z
#    x 1.715310 0.000000 0.000000 
#    y 0.000000 1.731500 0.000000 
#    z 0.000000 0.000000 1.697730 
# 
# From -- ./inp_files/7873.got.cif
#   From: 2010.03.12/outbox.cif.g09.slc.cpg/sg47_4_cif.got.tgz:7873.got - 2010.04.14 03:12:58.
