data_PCOD8194595
_publ_section_title
;
Structure prediction by ZEFSAII (Michael W. Deem and Ramdas Pophale) SiO2 
 PCOD8194595
Probable space group: P M M M
;
_chemical_formula_sum "Si O2"
_cell_formula_units_Z 64
_cell_length_a 15.364733
_cell_length_b 23.861352
_cell_length_c 8.989937
_cell_angle_alpha 90.000000
_cell_angle_beta 90.000000
_cell_angle_gamma 90.000000
_cell_volume 3295.920392
_symmetry_space_group_name_H-M "P M M M"
_symmetry_group_IT_number 47
_symmetry_cell_setting 'orthorhombic'
loop_
_space_group_symop_operation_xyz
x,y,z
-x,-y,z
x,-y,-z
-x,y,-z
-x,-y,-z
x,y,-z
-x,y,z
x,-y,z
loop_
_atom_site_type_symbol
_atom_site_label
_atom_site_fract_x
_atom_site_fract_y
_atom_site_fract_z
Si Si1 0.153031 0.757037 0.324733
Si Si2 0.754689 0.064657 0.674335
Si Si3 0.404409 0.361896 0.823888
Si Si4 0.099886 0.633711 0.673201
Si Si5 0.097428 0.135084 0.170120
Si Si6 0.667208 0.756689 0.170355
Si Si7 0.597928 0.876698 0.169585
Si Si8 0.246506 0.563828 0.823544
O O1 0.142407 0.764189 0.500000
O O2 0.119574 0.696522 0.270901
O O3 0.095595 0.804092 0.245712
O O4 0.252304 0.766058 0.278978
O O5 0.765023 0.073552 0.500000
O O6 0.836663 0.093203 0.751409
O O7 0.663980 0.091606 0.723530
O O8 0.754250 0.000000 0.720125
O O9 0.500000 0.378201 0.760092
O O10 0.384283 0.298261 0.776628
O O11 0.330507 0.403156 0.758688
O O12 0.406005 0.367451 0.000000
O O13 0.122148 0.628506 0.500000
O O14 0.158108 0.589810 0.761571
O O15 0.000000 0.618750 0.706225
O O16 0.000000 0.109986 0.181146
O O17 0.127524 0.141966 0.000000
O O18 0.604419 0.809725 0.187302
O O19 0.699883 0.749737 0.000000
O O20 0.500000 0.894423 0.213407
O O21 0.618750 0.893980 0.000000
O O22 0.253901 0.500000 0.769541
O O23 0.243165 0.568350 0.000000
#
# Coordination Sequence:
#
# PCOD8194595 Si02
#       8
#     8   8   8   8   8   8   8   8
#     4  11  21  35  59  88 119 151 185 231 288 347
#     4  11  25  43  62  86 118 157 200 246 292 338
#     4   9  17  31  54  83 115 150 186 228 281 340
#     4  10  22  39  58  81 111 149 190 231 281 344
#     4  11  24  41  63  91 120 152 191 236 289 350
#     4  10  18  32  57  86 117 151 188 231 284 344
#     4  10  21  37  60  90 121 154 195 243 292 345
#     4  10  21  36  55  82 113 145 189 243 290 333
#
# _framework density 19.417943999999999
#
# number of rings (size 3 to 8) (size 9 to 14) (size 15 to 20)
#    0.000    1.750    2.500    1.875    0.000    6.250 
#    0.000    5.000    0.000    2.250    0.000    0.875 
#    0.000    0.000    0.000    0.000    0.000    0.000 
#
# Total GULP energy -793751.847892 kJ/mol
# GULP energy per Si atom -12402.372623 kJ/mol
# Density = 1.937375 g / cm^3
# Si number density = 19.417944 Si / 1000 Ang^3
#
#
#
# Elastic Constant Matrix: (Units=GPa)
#
#
# Indices 1 2 3 4 5 6 
#
# 1 132.3424 60.6802 36.0416 0.0000 0.0000 0.0000
# 2 60.6802 136.6596 49.5066 0.0000 0.0000 0.0000
# 3 36.0416 49.5066 58.4033 0.0000 0.0000 0.0000
# 4 0.0000 0.0000 0.0000 28.1744 0.0000 0.0000
# 5 0.0000 0.0000 0.0000 0.0000 6.5460 0.0000
# 6 0.0000 0.0000 0.0000 0.0000 0.0000 9.6356
#
#
#
# Elastic Compliance Matrix: (Units=1/GPa)
#
#
# Indices 1 2 3 4 5 6 
#
# 1 0.009949 -0.003165 -0.003456 0.000000 0.000000 0.000000
# 2 -0.003165 0.011567 -0.007852 0.000000 0.000000 0.000000
# 3 -0.003456 -0.007852 0.025911 0.000000 0.000000 0.000000
# 4 0.000000 0.000000 0.000000 0.035493 0.000000 0.000000
# 5 0.000000 0.000000 0.000000 0.000000 0.152766 0.000000
# 6 0.000000 0.000000 0.000000 0.000000 0.000000 0.103782
#
#
# Mechanical properties :
#
#
# Convention : Reuss Voigt Hill
#
# Bulk Modulus (GPa) = 54.11259 68.87358 61.49308
# Shear Modulus (GPa) = 13.34844 20.94965 17.14904
#
# Velocity S-wave (km/s) = 2.62473 3.28820 2.97502
# Velocity P-wave (km/s) = 6.09208 7.06840 6.59832
#
# Compressibility (1/GPa) = 0.01847999
#
# Stress axis : x y z
#
# Youngs Moduli (GPa) = 100.51442 86.44979 38.59353
#
# Poissons Ratio (x) = 0.27365 0.13339
# Poissons Ratio (y) = 0.31817 0.30303
# Poissons Ratio (z) = 0.34741 0.67879
#
# Static dielectric constant tensor:
#      x y z
#    x 3.662180 0.000000 0.000000 
#    y 0.000000 3.648540 0.000000 
#    z 0.000000 0.000000 3.402110 
# 
# 
# High freq. dielectric constant tensor:
#      x y z
#    x 1.768130 0.000000 0.000000 
#    y 0.000000 1.757400 0.000000 
#    z 0.000000 0.000000 1.737760 
# 
# From -- ./inp_files/7794.got.cif
#   From: 2010.03.12/outbox.cif.g09.slc.cpg/sg47_4_cif.got.tgz:7794.got - 2010.04.14 03:12:58.
