data_PCOD8194429
_publ_section_title
;
Structure prediction by ZEFSAII (Michael W. Deem and Ramdas Pophale) SiO2 
 PCOD8194429
Probable space group: P M M M
;
_chemical_formula_sum "Si O2"
_cell_formula_units_Z 52
_cell_length_a 22.816631
_cell_length_b 9.488133
_cell_length_c 14.700367
_cell_angle_alpha 90.000000
_cell_angle_beta 90.000000
_cell_angle_gamma 90.000000
_cell_volume 3182.441725
_symmetry_space_group_name_H-M "P M M M"
_symmetry_group_IT_number 47
_symmetry_cell_setting 'orthorhombic'
loop_
_space_group_symop_operation_xyz
x,y,z
-x,-y,z
x,-y,-z
-x,y,-z
-x,-y,-z
x,y,-z
-x,y,z
x,-y,z
loop_
_atom_site_type_symbol
_atom_site_label
_atom_site_fract_x
_atom_site_fract_y
_atom_site_fract_z
Si Si1 0.569595 0.342892 0.099369
Si Si2 0.000000 0.833516 0.392131
Si Si3 0.102602 0.333514 0.705860
Si Si4 0.778933 0.663062 0.604364
Si Si5 0.668555 0.162989 0.395464
Si Si6 0.566259 0.164694 0.734631
Si Si7 0.933981 0.666689 0.901149
O O1 0.500000 0.339358 0.097280
O O2 0.591702 0.500000 0.122927
O O3 0.592852 0.236316 0.175213
O O4 0.593757 0.297205 0.000000
O O5 0.056741 0.759026 0.350054
O O6 0.000000 0.808861 0.500000
O O7 0.000000 0.000000 0.368783
O O8 0.087357 0.500000 0.694917
O O9 0.166116 0.297647 0.666623
O O10 0.103152 0.286303 0.812551
O O11 0.793374 0.704474 0.500000
O O12 0.762771 0.500000 0.612309
O O13 0.723609 0.749692 0.642373
O O14 0.658105 0.198762 0.500000
O O15 0.608337 0.208946 0.347501
O O16 0.682717 0.000000 0.378468
O O17 0.500000 0.216095 0.712008
O O18 0.566934 0.000000 0.752971
O O19 0.935075 0.500000 0.904803
O O20 0.000000 0.724027 0.887885
O O21 0.909259 0.722163 0.000000
#
# Coordination Sequence:
#
# PCOD8194429 Si02
#       7
#     8   4   8   8   8   8   8
#     4   8  14  25  41  62  89 119 147 176 217 270
#     4  11  23  33  42  65 100 128 149 183 232 277
#     4  10  18  31  51  71  91 121 157 190 227 269
#     4   9  18  31  47  67  88 114 154 198 231 266
#     4   9  18  32  48  65  88 121 156 187 226 276
#     4   9  17  28  44  68  93 116 148 190 232 274
#     4   8  13  23  43  71  96 116 145 186 226 263
#
# _framework density 16.339655
#
# number of rings (size 3 to 8) (size 9 to 14) (size 15 to 20)
#    0.000    3.000    0.769    1.615    0.000    3.077 
#    0.000    4.615    0.000    1.846    0.000    6.462 
#    0.000    0.000    0.000    0.000    0.000    0.000 
#
# Total GULP energy -644421.977187 kJ/mol
# GULP energy per Si atom -12392.730331 kJ/mol
# Density = 1.630246 g / cm^3
# Si number density = 16.339655 Si / 1000 Ang^3
#
#
#
# Elastic Constant Matrix: (Units=GPa)
#
#
# Indices 1 2 3 4 5 6 
#
# 1 101.7522 47.3779 71.2486 0.0000 0.0000 0.0000
# 2 47.3779 47.8921 45.7169 0.0000 0.0000 0.0000
# 3 71.2486 45.7169 125.7343 0.0000 0.0000 0.0000
# 4 0.0000 0.0000 0.0000 20.8952 0.0000 0.0000
# 5 0.0000 0.0000 0.0000 0.0000 11.4080 0.0000
# 6 0.0000 0.0000 0.0000 0.0000 0.0000 23.4943
#
#
#
# Elastic Compliance Matrix: (Units=1/GPa)
#
#
# Indices 1 2 3 4 5 6 
#
# 1 0.021443 -0.014725 -0.006797 0.000000 0.000000 0.000000
# 2 -0.014725 0.042091 -0.006960 0.000000 0.000000 0.000000
# 3 -0.006797 -0.006960 0.014336 0.000000 0.000000 0.000000
# 4 0.000000 0.000000 0.000000 0.047858 0.000000 0.000000
# 5 0.000000 0.000000 0.000000 0.000000 0.087658 0.000000
# 6 0.000000 0.000000 0.000000 0.000000 0.000000 0.042564
#
#
# Mechanical properties :
#
#
# Convention : Reuss Voigt Hill
#
# Bulk Modulus (GPa) = 47.83388 67.11839 57.47613
# Shear Modulus (GPa) = 15.63070 18.56183 17.09627
#
# Velocity S-wave (km/s) = 3.09627 3.37412 3.23817
# Velocity P-wave (km/s) = 6.49005 7.50638 7.01664
#
# Compressibility (1/GPa) = 0.02090569
#
# Stress axis : x y z
#
# Youngs Moduli (GPa) = 46.63419 23.75792 69.75527
#
# Poissons Ratio (x) = 0.34983 0.47415
# Poissons Ratio (y) = 0.68668 0.48553
# Poissons Ratio (z) = 0.31698 0.16537
#
# Static dielectric constant tensor:
#      x y z
#    x 2.974530 0.000000 0.000000 
#    y 0.000000 2.986930 0.000000 
#    z 0.000000 0.000000 3.534220 
# 
# 
# High freq. dielectric constant tensor:
#      x y z
#    x 1.600900 0.000000 0.000000 
#    y 0.000000 1.611200 0.000000 
#    z 0.000000 0.000000 1.636810 
# 
# From -- ./inp_files/25418.got.cif
#   From: 2010.03.12/outbox.cif.g09.slc.cpg/sg47_13_cif.got.tgz:25418.got - 2010.04.14 03:12:58.
