data_PCOD8194438
_publ_section_title
;
Structure prediction by ZEFSAII (Michael W. Deem and Ramdas Pophale) SiO2 
 PCOD8194438
Probable space group: P M M M
;
_chemical_formula_sum "Si O2"
_cell_formula_units_Z 44
_cell_length_a 14.818296
_cell_length_b 7.783830
_cell_length_c 19.157435
_cell_angle_alpha 90.000000
_cell_angle_beta 90.000000
_cell_angle_gamma 90.000000
_cell_volume 2209.677883
_symmetry_space_group_name_H-M "P M M M"
_symmetry_group_IT_number 47
_symmetry_cell_setting 'orthorhombic'
loop_
_space_group_symop_operation_xyz
x,y,z
-x,-y,z
x,-y,-z
-x,y,-z
-x,-y,-z
x,y,-z
-x,y,z
x,-y,z
loop_
_atom_site_type_symbol
_atom_site_label
_atom_site_fract_x
_atom_site_fract_y
_atom_site_fract_z
Si Si1 0.500000 0.688794 0.918030
Si Si2 0.845144 0.695770 0.172193
Si Si3 0.898073 0.703581 0.678439
Si Si4 0.397601 0.000000 0.582634
Si Si5 0.000000 0.705760 0.923096
Si Si6 0.735334 0.301543 0.418021
Si Si7 0.308326 0.195083 0.078775
O O1 0.500000 0.500000 0.882887
O O2 0.411540 0.793313 0.895871
O O3 0.500000 0.667374 0.000000
O O4 0.873177 0.500000 0.181962
O O5 0.857111 0.779857 0.248782
O O6 0.746154 0.706878 0.138874
O O7 0.913237 0.780648 0.116928
O O8 0.903047 0.500000 0.680681
O O9 0.828968 0.759385 0.617691
O O10 0.000000 0.776479 0.665606
O O11 0.344883 0.826557 0.606962
O O12 0.500000 0.000000 0.613849
O O13 0.403911 0.000000 0.500000
O O14 0.000000 0.500000 0.927389
O O15 0.000000 0.786128 0.000000
O O16 0.751683 0.283819 0.500000
O O17 0.710298 0.500000 0.398152
O O18 0.276763 0.000000 0.077877
O O19 0.295007 0.273804 0.000000
#
# Coordination Sequence:
#
# PCOD8194438 Si02
#       7
#     4   8   8   4   4   8   8
#     4   9  17  31  53  77  95 119 164 215 260 313
#     4  10  18  31  51  73  98 133 175 216 259 310
#     4   9  17  32  54  78 107 143 179 220 273 324
#     4   9  18  34  57  85 117 149 182 227 278 324
#     4   9  16  26  45  73  98 124 169 224 265 302
#     4   9  18  33  56  86 116 147 186 229 272 325
#     4  10  20  33  49  71 101 133 164 208 266 320
#
# _framework density 19.912403999999999
#
# number of rings (size 3 to 8) (size 9 to 14) (size 15 to 20)
#    0.000    2.636    0.909    1.364    0.000    3.636 
#    1.636    4.545    2.000    3.273    0.000    0.000 
#    0.000    0.000    0.000    0.000    0.000    0.000 
#
# Total GULP energy -545206.886670 kJ/mol
# GULP energy per Si atom -12391.065606 kJ/mol
# Density = 1.986708 g / cm^3
# Si number density = 19.912404 Si / 1000 Ang^3
#
#
#
# Elastic Constant Matrix: (Units=GPa)
#
#
# Indices 1 2 3 4 5 6 
#
# 1 169.5128 32.0795 61.3649 0.0000 0.0000 0.0000
# 2 32.0795 58.7036 22.1452 0.0000 0.0000 0.0000
# 3 61.3649 22.1452 83.4128 0.0000 0.0000 0.0000
# 4 0.0000 0.0000 0.0000 9.5830 0.0000 0.0000
# 5 0.0000 0.0000 0.0000 0.0000 16.2874 0.0000
# 6 0.0000 0.0000 0.0000 0.0000 0.0000 2.8283
#
#
#
# Elastic Compliance Matrix: (Units=1/GPa)
#
#
# Indices 1 2 3 4 5 6 
#
# 1 0.008358 -0.002498 -0.005485 0.000000 0.000000 0.000000
# 2 -0.002498 0.019677 -0.003386 0.000000 0.000000 0.000000
# 3 -0.005485 -0.003386 0.016923 0.000000 0.000000 0.000000
# 4 0.000000 0.000000 0.000000 0.104351 0.000000 0.000000
# 5 0.000000 0.000000 0.000000 0.000000 0.061397 0.000000
# 6 0.000000 0.000000 0.000000 0.000000 0.000000 0.353570
#
#
# Mechanical properties :
#
#
# Convention : Reuss Voigt Hill
#
# Bulk Modulus (GPa) = 45.00742 60.31204 52.65973
# Shear Modulus (GPa) = 8.41153 18.80906 13.61029
#
# Velocity S-wave (km/s) = 2.05753 3.07675 2.61724
# Velocity P-wave (km/s) = 5.31943 6.55563 5.96962
#
# Compressibility (1/GPa) = 0.02221856
#
# Stress axis : x y z
#
# Youngs Moduli (GPa) = 119.64955 50.82011 59.09069
#
# Poissons Ratio (x) = 0.12694 0.32414
# Poissons Ratio (y) = 0.29887 0.20011
# Poissons Ratio (z) = 0.65633 0.17210
#
# Static dielectric constant tensor:
#      x y z
#    x 3.878370 0.000000 0.000000 
#    y 0.000000 3.383010 0.000000 
#    z 0.000000 0.000000 3.533250 
# 
# 
# High freq. dielectric constant tensor:
#      x y z
#    x 1.780340 0.000000 0.000000 
#    y 0.000000 1.755750 0.000000 
#    z 0.000000 0.000000 1.750550 
# 
# From -- ./inp_files/27920.got.cif
#   From: 2010.03.12/outbox.cif.g09.slc.cpg/sg47_14_cif.got.tgz:27920.got - 2010.04.14 03:12:58.
