data_PCOD8194045
_publ_section_title
;
Structure prediction by ZEFSAII (Michael W. Deem and Ramdas Pophale) SiO2 
 PCOD8194045
Probable space group: P M M M
;
_chemical_formula_sum "Si O2"
_cell_formula_units_Z 44
_cell_length_a 13.812701
_cell_length_b 10.068105
_cell_length_c 17.712943
_cell_angle_alpha 90.000000
_cell_angle_beta 90.000000
_cell_angle_gamma 90.000000
_cell_volume 2463.298668
_symmetry_space_group_name_H-M "P M M M"
_symmetry_group_IT_number 47
_symmetry_cell_setting 'orthorhombic'
loop_
_space_group_symop_operation_xyz
x,y,z
-x,-y,z
x,-y,-z
-x,y,-z
-x,-y,-z
x,y,-z
-x,y,z
x,-y,z
loop_
_atom_site_type_symbol
_atom_site_label
_atom_site_fract_x
_atom_site_fract_y
_atom_site_fract_z
Si Si1 0.108285 0.657695 0.415990
Si Si2 0.114693 0.648492 0.871731
Si Si3 0.115165 0.152597 0.000000
Si Si4 0.614329 0.000000 0.084489
Si Si5 0.230465 0.345854 0.722198
Si Si6 0.615096 0.500000 0.083983
Si Si7 0.614043 0.250693 0.179971
O O1 0.142940 0.699668 0.500000
O O2 0.104573 0.500000 0.408509
O O3 0.183782 0.714134 0.354366
O O4 0.000000 0.713618 0.400902
O O5 0.147802 0.500000 0.899267
O O6 0.153744 0.677320 0.788524
O O7 0.000000 0.652636 0.867177
O O8 0.152746 0.764535 0.927367
O O9 0.000000 0.148099 0.000000
O O10 0.155676 0.000000 0.000000
O O11 0.648467 0.874724 0.132285
O O12 0.500000 0.000000 0.075371
O O13 0.660340 0.000000 0.000000
O O14 0.257892 0.500000 0.711644
O O15 0.328548 0.262618 0.740899
O O16 0.500000 0.500000 0.079609
O O17 0.651550 0.372425 0.129018
O O18 0.658971 0.500000 0.000000
O O19 0.500000 0.251773 0.197078
#
# Coordination Sequence:
#
# PCOD8194045 Si02
#       7
#     8   8   4   4   8   4   8
#     4   8  14  26  47  75 104 129 153 189 238 288
#     4   9  17  30  46  63  87 121 157 194 231 273
#     4   9  17  31  47  61  86 123 160 196 234 272
#     4   9  18  34  52  66  88 125 170 216 254 285
#     4  10  18  29  45  71  97 123 156 194 238 287
#     4   9  16  28  46  64  86 119 160 204 246 281
#     4  10  19  32  47  67  94 127 162 200 247 290
#
# _framework density 17.862226
#
# number of rings (size 3 to 8) (size 9 to 14) (size 15 to 20)
#    0.000    2.818    0.909    1.909    0.000    5.455 
#    4.909    0.000    0.000    0.545    0.000    3.182 
#    0.000    3.636    0.000    0.000    0.000    0.000 
#
# Total GULP energy -545363.442859 kJ/mol
# GULP energy per Si atom -12394.623701 kJ/mol
# Density = 1.782157 g / cm^3
# Si number density = 17.862226 Si / 1000 Ang^3
#
#
#
# Elastic Constant Matrix: (Units=GPa)
#
#
# Indices 1 2 3 4 5 6 
#
# 1 55.2739 31.2413 60.2350 0.0000 0.0000 0.0000
# 2 31.2413 100.6127 50.7553 0.0000 0.0000 0.0000
# 3 60.2350 50.7553 145.9895 0.0000 0.0000 0.0000
# 4 0.0000 0.0000 0.0000 14.7603 0.0000 0.0000
# 5 0.0000 0.0000 0.0000 0.0000 27.6463 0.0000
# 6 0.0000 0.0000 0.0000 0.0000 0.0000 11.6112
#
#
#
# Elastic Compliance Matrix: (Units=1/GPa)
#
#
# Indices 1 2 3 4 5 6 
#
# 1 0.034314 -0.004260 -0.012677 0.000000 0.000000 0.000000
# 2 -0.004260 0.012582 -0.002617 0.000000 0.000000 0.000000
# 3 -0.012677 -0.002617 0.012990 0.000000 0.000000 0.000000
# 4 0.000000 0.000000 0.000000 0.067749 0.000000 0.000000
# 5 0.000000 0.000000 0.000000 0.000000 0.036171 0.000000
# 6 0.000000 0.000000 0.000000 0.000000 0.000000 0.086123
#
#
# Mechanical properties :
#
#
# Convention : Reuss Voigt Hill
#
# Bulk Modulus (GPa) = 48.12530 65.14882 56.63706
# Shear Modulus (GPa) = 16.89398 21.44652 19.17025
#
# Velocity S-wave (km/s) = 3.07871 3.46882 3.27957
# Velocity P-wave (km/s) = 6.29595 7.25229 6.79097
#
# Compressibility (1/GPa) = 0.02077909
#
# Stress axis : x y z
#
# Youngs Moduli (GPa) = 29.14244 79.47967 76.98219
#
# Poissons Ratio (x) = 0.33857 0.97590
# Poissons Ratio (y) = 0.12414 0.20143
# Poissons Ratio (z) = 0.36944 0.20797
#
# Static dielectric constant tensor:
#      x y z
#    x 3.260070 0.000000 0.000000 
#    y 0.000000 3.245040 0.000000 
#    z 0.000000 0.000000 3.369060 
# 
# 
# High freq. dielectric constant tensor:
#      x y z
#    x 1.693420 0.000000 0.000000 
#    y 0.000000 1.661600 0.000000 
#    z 0.000000 0.000000 1.670380 
# 
# From -- ./inp_files/24363.got.cif
#   From: 2010.03.12/outbox.cif.g09.slc.cpg/sg47_13_cif.got.tgz:24363.got - 2010.04.14 03:12:58.
