data_PCOD8194412
_publ_section_title
;
Structure prediction by ZEFSAII (Michael W. Deem and Ramdas Pophale) SiO2 
 PCOD8194412
Probable space group: P M M M
;
_chemical_formula_sum "Si O2"
_cell_formula_units_Z 64
_cell_length_a 14.575181
_cell_length_b 14.082207
_cell_length_c 19.294643
_cell_angle_alpha 90.000000
_cell_angle_beta 90.000000
_cell_angle_gamma 90.000000
_cell_volume 3960.239289
_symmetry_space_group_name_H-M "P M M M"
_symmetry_group_IT_number 47
_symmetry_cell_setting 'orthorhombic'
loop_
_space_group_symop_operation_xyz
x,y,z
-x,-y,z
x,-y,-z
-x,y,-z
-x,-y,-z
x,y,-z
-x,y,z
x,-y,z
loop_
_atom_site_type_symbol
_atom_site_label
_atom_site_fract_x
_atom_site_fract_y
_atom_site_fract_z
Si Si1 0.253507 0.111231 0.578148
Si Si2 0.605550 0.798518 0.324256
Si Si3 0.607105 0.110867 0.820194
Si Si4 0.396596 0.603597 0.733755
Si Si5 0.895496 0.891957 0.688237
Si Si6 0.892727 0.238549 0.819169
Si Si7 0.241859 0.392147 0.847317
Si Si8 0.744129 0.211409 0.079494
O O1 0.238533 0.147904 0.500000
O O2 0.341893 0.161605 0.609944
O O3 0.164035 0.138567 0.622192
O O4 0.272309 0.000000 0.579517
O O5 0.500000 0.825755 0.334925
O O6 0.641748 0.843580 0.252074
O O7 0.622750 0.685127 0.322549
O O8 0.500000 0.131715 0.831804
O O9 0.660639 0.156940 0.884131
O O10 0.628756 0.000000 0.817242
O O11 0.500000 0.617033 0.763232
O O12 0.385629 0.500000 0.697825
O O13 0.328574 0.611553 0.797527
O O14 0.873103 0.821937 0.750825
O O15 0.000000 0.881752 0.664267
O O16 0.873840 0.000000 0.711788
O O17 0.847354 0.343776 0.809950
O O18 0.840777 0.184758 0.882702
O O19 0.000000 0.247808 0.836176
O O20 0.218313 0.500000 0.869828
O O21 0.268795 0.326341 0.913439
O O22 0.747827 0.180272 0.000000
#
# Coordination Sequence:
#
# PCOD8194412 Si02
#       8
#     8   8   8   8   8   8   8   8
#     4  10  20  31  45  70 102 131 160 196 239 289
#     4  10  18  31  50  70  96 130 166 200 235 280
#     4  10  20  34  53  75  98 129 169 208 247 293
#     4   9  16  28  50  76  98 122 158 205 251 291
#     4   9  17  31  52  73  94 124 160 199 244 293
#     4   9  19  34  50  72  97 125 166 209 247 292
#     4   9  18  32  49  72  98 126 163 205 252 302
#     4  10  21  34  48  70  98 130 164 204 248 297
#
# _framework density 16.160640000000001
#
# number of rings (size 3 to 8) (size 9 to 14) (size 15 to 20)
#    0.750    1.750    1.250    1.875    0.000    4.000 
#    0.000    2.500    0.000    1.125    0.000    7.000 
#    0.000    0.000    0.000   10.750    0.000    0.250 
#
# Total GULP energy -793165.581985 kJ/mol
# GULP energy per Si atom -12393.212219 kJ/mol
# Density = 1.612386 g / cm^3
# Si number density = 16.160640 Si / 1000 Ang^3
#
#
#
# Elastic Constant Matrix: (Units=GPa)
#
#
# Indices 1 2 3 4 5 6 
#
# 1 83.7417 42.5774 48.9748 0.0000 0.0000 0.0000
# 2 42.5774 87.2841 45.1383 0.0000 0.0000 0.0000
# 3 48.9748 45.1383 105.3584 0.0000 0.0000 0.0000
# 4 0.0000 0.0000 0.0000 19.4074 0.0000 0.0000
# 5 0.0000 0.0000 0.0000 0.0000 15.9136 0.0000
# 6 0.0000 0.0000 0.0000 0.0000 0.0000 23.6905
#
#
#
# Elastic Compliance Matrix: (Units=1/GPa)
#
#
# Indices 1 2 3 4 5 6 
#
# 1 0.018480 -0.005874 -0.006074 0.000000 0.000000 0.000000
# 2 -0.005874 0.016584 -0.004375 0.000000 0.000000 0.000000
# 3 -0.006074 -0.004375 0.014189 0.000000 0.000000 0.000000
# 4 0.000000 0.000000 0.000000 0.051527 0.000000 0.000000
# 5 0.000000 0.000000 0.000000 0.000000 0.062839 0.000000
# 6 0.000000 0.000000 0.000000 0.000000 0.000000 0.042211
#
#
# Mechanical properties :
#
#
# Convention : Reuss Voigt Hill
#
# Bulk Modulus (GPa) = 60.20884 61.08503 60.64694
# Shear Modulus (GPa) = 20.49083 21.11521 20.80302
#
# Velocity S-wave (km/s) = 3.56469 3.61859 3.59174
# Velocity P-wave (km/s) = 7.36750 7.43906 7.40337
#
# Compressibility (1/GPa) = 0.01660886
#
# Stress axis : x y z
#
# Youngs Moduli (GPa) = 54.11261 60.29747 70.47646
#
# Poissons Ratio (x) = 0.35416 0.42806
# Poissons Ratio (y) = 0.31783 0.30833
# Poissons Ratio (z) = 0.32867 0.26380
#
# Static dielectric constant tensor:
#      x y z
#    x 3.100970 0.000000 0.000000 
#    y 0.000000 3.230570 0.000000 
#    z 0.000000 0.000000 2.800750 
# 
# 
# High freq. dielectric constant tensor:
#      x y z
#    x 1.630000 0.000000 0.000000 
#    y 0.000000 1.621520 0.000000 
#    z 0.000000 0.000000 1.590730 
# 
# From -- ./inp_files/28322.got.cif
#   From: 2010.03.12/outbox.cif.g09.slc.cpg/sg47_15_cif.got.tgz:28322.got - 2010.04.14 03:12:58.
