data_PCOD8194638
_publ_section_title
;
Structure prediction by ZEFSAII (Michael W. Deem and Ramdas Pophale) SiO2 
 PCOD8194638
Probable space group: P M M M
;
_chemical_formula_sum "Si O2"
_cell_formula_units_Z 64
_cell_length_a 26.406304
_cell_length_b 9.279922
_cell_length_c 18.375144
_cell_angle_alpha 90.000000
_cell_angle_beta 90.000000
_cell_angle_gamma 90.000000
_cell_volume 4502.800398
_symmetry_space_group_name_H-M "P M M M"
_symmetry_group_IT_number 47
_symmetry_cell_setting 'orthorhombic'
loop_
_space_group_symop_operation_xyz
x,y,z
-x,-y,z
x,-y,-z
-x,y,-z
-x,-y,-z
x,y,-z
-x,y,z
x,-y,z
loop_
_atom_site_type_symbol
_atom_site_label
_atom_site_fract_x
_atom_site_fract_y
_atom_site_fract_z
Si Si1 0.613986 0.333532 0.293450
Si Si2 0.055606 0.161755 0.413638
Si Si3 0.347511 0.832675 0.416482
Si Si4 0.241156 0.836078 0.343073
Si Si5 0.152220 0.330740 0.584174
Si Si6 0.343229 0.330560 0.084207
Si Si7 0.554829 0.666328 0.157128
Si Si8 0.300746 0.832981 0.793329
O O1 0.629499 0.500000 0.302206
O O2 0.609966 0.259990 0.373001
O O3 0.563582 0.317265 0.244411
O O4 0.656463 0.247270 0.251096
O O5 0.054741 0.164920 0.500000
O O6 0.099365 0.267564 0.385041
O O7 0.000000 0.211404 0.384710
O O8 0.067282 0.000000 0.386109
O O9 0.351170 0.787105 0.500000
O O10 0.291607 0.794757 0.387557
O O11 0.359515 0.000000 0.404382
O O12 0.197195 0.729826 0.367028
O O13 0.249859 0.818885 0.255616
O O14 0.225519 0.000000 0.361687
O O15 0.160979 0.286794 0.500000
O O16 0.150115 0.500000 0.594135
O O17 0.338717 0.500000 0.101542
O O18 0.398451 0.269580 0.109977
O O19 0.298610 0.246213 0.127999
O O20 0.335584 0.296228 0.000000
O O21 0.500000 0.739082 0.138633
O O22 0.551548 0.500000 0.135811
O O23 0.314847 0.000000 0.804273
#
# Coordination Sequence:
#
# PCOD8194638 Si02
#       8
#     8   8   8   8   8   8   8   8
#     4   9  16  26  41  59  76  95 122 155 188 223
#     4   8  14  25  39  51  65  93 133 170 202 237
#     4   9  17  28  41  56  74  97 124 155 193 235
#     4   9  17  28  40  53  71  97 128 158 188 227
#     4  10  19  26  34  53  78 101 127 164 208 243
#     4   9  17  28  43  64  85 102 123 152 183 215
#     4   8  14  25  41  60  80 101 124 150 181 217
#     4   9  17  29  43  57  75 102 131 154 182 223
#
# _framework density 14.213376999999999
#
# number of rings (size 3 to 8) (size 9 to 14) (size 15 to 20)
#    0.000    3.125    0.000    3.375    0.000    4.750 
#    0.000    2.500    0.000    9.750    0.000    6.125 
#    0.000    0.000    0.000    0.000    0.000    0.625 
#
# Total GULP energy -792908.997747 kJ/mol
# GULP energy per Si atom -12389.203090 kJ/mol
# Density = 1.418103 g / cm^3
# Si number density = 14.213377 Si / 1000 Ang^3
#
#
#
# Elastic Constant Matrix: (Units=GPa)
#
#
# Indices 1 2 3 4 5 6 
#
# 1 45.4567 29.7400 24.4382 0.0000 0.0000 0.0000
# 2 29.7400 65.1415 38.5078 0.0000 0.0000 0.0000
# 3 24.4382 38.5078 85.5108 0.0000 0.0000 0.0000
# 4 0.0000 0.0000 0.0000 22.6256 0.0000 0.0000
# 5 0.0000 0.0000 0.0000 0.0000 10.1883 0.0000
# 6 0.0000 0.0000 0.0000 0.0000 0.0000 16.1879
#
#
#
# Elastic Compliance Matrix: (Units=1/GPa)
#
#
# Indices 1 2 3 4 5 6 
#
# 1 0.032124 -0.012591 -0.003511 0.000000 0.000000 0.000000
# 2 -0.012591 0.025855 -0.008045 0.000000 0.000000 0.000000
# 3 -0.003511 -0.008045 0.016321 0.000000 0.000000 0.000000
# 4 0.000000 0.000000 0.000000 0.044198 0.000000 0.000000
# 5 0.000000 0.000000 0.000000 0.000000 0.098152 0.000000
# 6 0.000000 0.000000 0.000000 0.000000 0.000000 0.061775
#
#
# Mechanical properties :
#
#
# Convention : Reuss Voigt Hill
#
# Bulk Modulus (GPa) = 38.45144 42.38679 40.41911
# Shear Modulus (GPa) = 14.90821 16.69521 15.80171
#
# Velocity S-wave (km/s) = 3.24216 3.43098 3.33791
# Velocity P-wave (km/s) = 6.41305 6.75144 6.58442
#
# Compressibility (1/GPa) = 0.02600683
#
# Stress axis : x y z
#
# Youngs Moduli (GPa) = 31.12957 38.67722 61.27205
#
# Poissons Ratio (x) = 0.48697 0.21512
# Poissons Ratio (y) = 0.39194 0.49293
# Poissons Ratio (z) = 0.10929 0.31116
#
# Static dielectric constant tensor:
#      x y z
#    x 2.848760 0.000000 0.000000 
#    y 0.000000 2.867520 0.000000 
#    z 0.000000 0.000000 3.045330 
# 
# 
# High freq. dielectric constant tensor:
#      x y z
#    x 1.512550 0.000000 0.000000 
#    y 0.000000 1.542410 0.000000 
#    z 0.000000 0.000000 1.518940 
# 
# From -- ./inp_files/13517.got.cif
#   From: 2010.03.12/outbox.cif.g09.slc.cpg/sg47_7_cif.got.tgz:13517.got - 2010.04.14 03:12:58.
