data_PCOD8194310
_publ_section_title
;
Structure prediction by ZEFSAII (Michael W. Deem and Ramdas Pophale) SiO2 
 PCOD8194310
Probable space group: P M M M
;
_chemical_formula_sum "Si O2"
_cell_formula_units_Z 56
_cell_length_a 15.373883
_cell_length_b 8.976491
_cell_length_c 20.311472
_cell_angle_alpha 90.000000
_cell_angle_beta 90.000000
_cell_angle_gamma 90.000000
_cell_volume 2803.054681
_symmetry_space_group_name_H-M "P M M M"
_symmetry_group_IT_number 47
_symmetry_cell_setting 'orthorhombic'
loop_
_space_group_symop_operation_xyz
x,y,z
-x,-y,z
x,-y,-z
-x,y,-z
-x,-y,-z
x,y,-z
-x,y,z
x,-y,z
loop_
_atom_site_type_symbol
_atom_site_label
_atom_site_fract_x
_atom_site_fract_y
_atom_site_fract_z
Si Si1 0.597006 0.329815 0.387805
Si Si2 0.406076 0.829314 0.879979
Si Si3 0.825907 0.823538 0.787980
Si Si4 0.768467 0.170497 0.425152
Si Si5 0.777041 0.824211 0.929374
Si Si6 0.651396 0.670180 0.757874
Si Si7 0.902321 0.671618 0.671504
O O1 0.500000 0.281361 0.411174
O O2 0.615171 0.500000 0.408720
O O3 0.669682 0.228289 0.421461
O O4 0.599236 0.313478 0.309342
O O5 0.500000 0.812460 0.916500
O O6 0.325343 0.780472 0.925570
O O7 0.410811 0.725777 0.815861
O O8 0.391171 0.000000 0.857466
O O9 0.828449 0.765030 0.864569
O O10 0.735648 0.775669 0.754643
O O11 0.900399 0.748617 0.743722
O O12 0.836415 0.000000 0.785543
O O13 0.801060 0.187125 0.500000
O O14 0.834048 0.260446 0.379236
O O15 0.770231 0.000000 0.401948
O O16 0.787528 0.000000 0.930721
O O17 0.811872 0.759264 0.000000
O O18 0.680367 0.500000 0.770463
O O19 0.877353 0.500000 0.680454
O O20 0.000000 0.691576 0.643691
#
# Coordination Sequence:
#
# PCOD8194310 Si02
#       7
#     8   8   8   8   8   8   8
#     4  10  21  36  56  83 116 159 206 245 285 336
#     4   9  17  27  41  66 100 140 189 242 292 339
#     4  10  19  33  57  86 114 146 187 235 287 338
#     4  11  25  43  63  89 122 158 194 237 290 343
#     4   8  15  28  47  74 108 146 187 232 285 342
#     4  10  18  30  50  75 106 146 191 237 288 340
#     4  11  24  42  66  94 120 150 189 232 286 353
#
# _framework density 19.978203000000001
#
# number of rings (size 3 to 8) (size 9 to 14) (size 15 to 20)
#    0.000    2.143    1.429    3.000    0.000    4.857 
#    0.000    4.286    0.000   11.143    0.000    7.000 
#    0.000    0.000    0.000    0.000    0.000    0.000 
#
# Total GULP energy -693996.743014 kJ/mol
# GULP energy per Si atom -12392.798982 kJ/mol
# Density = 1.993273 g / cm^3
# Si number density = 19.978203 Si / 1000 Ang^3
#
#
#
# Elastic Constant Matrix: (Units=GPa)
#
#
# Indices 1 2 3 4 5 6 
#
# 1 88.0932 39.5812 37.2028 0.0000 0.0000 0.0000
# 2 39.5812 93.3933 44.5933 0.0000 0.0000 0.0000
# 3 37.2028 44.5933 106.5502 0.0000 0.0000 0.0000
# 4 0.0000 0.0000 0.0000 8.4165 0.0000 0.0000
# 5 0.0000 0.0000 0.0000 0.0000 9.9099 0.0000
# 6 0.0000 0.0000 0.0000 0.0000 0.0000 21.6793
#
#
#
# Elastic Compliance Matrix: (Units=1/GPa)
#
#
# Indices 1 2 3 4 5 6 
#
# 1 0.014839 -0.004768 -0.003186 0.000000 0.000000 0.000000
# 2 -0.004768 0.014913 -0.004577 0.000000 0.000000 0.000000
# 3 -0.003186 -0.004577 0.012413 0.000000 0.000000 0.000000
# 4 0.000000 0.000000 0.000000 0.118814 0.000000 0.000000
# 5 0.000000 0.000000 0.000000 0.000000 0.100909 0.000000
# 6 0.000000 0.000000 0.000000 0.000000 0.000000 0.046127
#
#
# Mechanical properties :
#
#
# Convention : Reuss Voigt Hill
#
# Bulk Modulus (GPa) = 58.46322 58.97681 58.72002
# Shear Modulus (GPa) = 14.75888 19.11175 16.93532
#
# Velocity S-wave (km/s) = 2.72094 3.09630 2.91467
# Velocity P-wave (km/s) = 6.26086 6.50903 6.38615
#
# Compressibility (1/GPa) = 0.01710477
#
# Stress axis : x y z
#
# Youngs Moduli (GPa) = 67.38874 67.05359 80.56025
#
# Poissons Ratio (x) = 0.31971 0.25665
# Poissons Ratio (y) = 0.32130 0.36871
# Poissons Ratio (z) = 0.21468 0.30689
#
# Static dielectric constant tensor:
#      x y z
#    x 3.500130 0.000000 0.000000 
#    y 0.000000 3.587060 0.000000 
#    z 0.000000 0.000000 3.877950 
# 
# 
# High freq. dielectric constant tensor:
#      x y z
#    x 1.761880 0.000000 0.000000 
#    y 0.000000 1.765300 0.000000 
#    z 0.000000 0.000000 1.779230 
# 
# From -- ./inp_files/7261.got.cif
#   From: 2010.03.12/outbox.cif.g09.slc.cpg/sg47_4_cif.got.tgz:7261.got - 2010.04.14 03:12:58.
