data_PCOD8194629
_publ_section_title
;
Structure prediction by ZEFSAII (Michael W. Deem and Ramdas Pophale) SiO2 
 PCOD8194629
Probable space group: P M M M
;
_chemical_formula_sum "Si O2"
_cell_formula_units_Z 48
_cell_length_a 17.594915
_cell_length_b 8.921420
_cell_length_c 14.865073
_cell_angle_alpha 90.000000
_cell_angle_beta 90.000000
_cell_angle_gamma 90.000000
_cell_volume 2333.394688
_symmetry_space_group_name_H-M "P M M M"
_symmetry_group_IT_number 47
_symmetry_cell_setting 'orthorhombic'
loop_
_space_group_symop_operation_xyz
x,y,z
-x,-y,z
x,-y,-z
-x,y,-z
-x,-y,-z
x,y,-z
-x,y,z
x,-y,z
loop_
_atom_site_type_symbol
_atom_site_label
_atom_site_fract_x
_atom_site_fract_y
_atom_site_fract_z
Si Si1 0.500000 0.822540 0.396317
Si Si2 0.317479 0.322891 0.899802
Si Si3 0.846592 0.676639 0.843571
Si Si4 0.084585 0.841263 0.000000
Si Si5 0.230899 0.827978 0.599663
Si Si6 0.361751 0.322394 0.707741
Si Si7 0.912386 0.677664 0.346231
O O1 0.500000 0.770549 0.500000
O O2 0.426107 0.760097 0.347738
O O3 0.500000 0.000000 0.388401
O O4 0.312782 0.500000 0.908597
O O5 0.235881 0.257745 0.870303
O O6 0.372119 0.281934 0.814851
O O7 0.341885 0.259289 0.000000
O O8 0.844282 0.500000 0.847106
O O9 0.904668 0.738948 0.914259
O O10 0.878921 0.731004 0.748984
O O11 0.000000 0.894315 0.000000
O O12 0.131959 0.000000 0.000000
O O13 0.268369 0.818853 0.500000
O O14 0.279811 0.730477 0.670538
O O15 0.145314 0.762238 0.587218
O O16 0.228697 0.000000 0.632725
O O17 0.367701 0.500000 0.693592
O O18 0.907547 0.500000 0.360806
O O19 0.000000 0.730492 0.359314
#
# Coordination Sequence:
#
# PCOD8194629 Si02
#       7
#     4   8   8   4   8   8   8
#     4  11  25  45  68  97 134 168 197 237 298 365
#     4   9  17  33  60  91 120 152 195 245 295 349
#     4  10  18  34  57  78 105 148 200 251 305 362
#     4  11  23  33  43  71 113 150 193 252 311 363
#     4  11  24  40  59  85 120 162 203 248 311 380
#     4  11  22  40  68  98 126 158 202 252 296 349
#     4  10  21  37  57  82 112 150 204 266 317 362
#
# _framework density 20.570886999999999
#
# number of rings (size 3 to 8) (size 9 to 14) (size 15 to 20)
#    0.000    1.667    2.500    2.500    0.000    6.667 
#    0.000    2.083    0.000    2.500    0.000    0.000 
#    0.000    0.000    0.000    0.000    0.000    0.000 
#
# Total GULP energy -594700.953151 kJ/mol
# GULP energy per Si atom -12389.603191 kJ/mol
# Density = 2.052407 g / cm^3
# Si number density = 20.570887 Si / 1000 Ang^3
#
#
#
# Elastic Constant Matrix: (Units=GPa)
#
#
# Indices 1 2 3 4 5 6 
#
# 1 105.0847 24.9217 45.5902 0.0000 0.0000 0.0000
# 2 24.9217 24.5542 34.9720 0.0000 0.0000 0.0000
# 3 45.5902 34.9720 148.1062 0.0000 0.0000 0.0000
# 4 0.0000 0.0000 0.0000 -21.9114 0.0000 0.0000
# 5 0.0000 0.0000 0.0000 0.0000 30.7861 0.0000
# 6 0.0000 0.0000 0.0000 0.0000 0.0000 22.8700
#
#
#
# Elastic Compliance Matrix: (Units=1/GPa)
#
#
# Indices 1 2 3 4 5 6 
#
# 1 0.012698 -0.011031 -0.001304 0.000000 0.000000 0.000000
# 2 -0.011031 0.070945 -0.013357 0.000000 0.000000 0.000000
# 3 -0.001304 -0.013357 0.010307 0.000000 0.000000 0.000000
# 4 0.000000 0.000000 0.000000 -0.045638 0.000000 0.000000
# 5 0.000000 0.000000 0.000000 0.000000 0.032482 0.000000
# 6 0.000000 0.000000 0.000000 0.000000 0.000000 0.043725
#
#
# Mechanical properties :
#
#
# Convention : Reuss Voigt Hill
#
# Bulk Modulus (GPa) = 23.49193 54.30142 38.89667
# Shear Modulus (GPa) = 26.30310 17.83302 22.06806
#
# Velocity S-wave (km/s) = 3.57971 2.94752 3.27889
# Velocity P-wave (km/s) = 5.34140 6.16752 5.76927
#
# Compressibility (1/GPa) = 0.04256781
#
# Stress axis : x y z
#
# Youngs Moduli (GPa) = 78.75334 14.09535 97.01941
#
# Poissons Ratio (x) = 0.15548 0.12652
# Poissons Ratio (y) = 0.86869 1.29586
# Poissons Ratio (z) = 0.10270 0.18827
#
# Static dielectric constant tensor:
#      x y z
#    x 3.676030 0.000000 0.000000 
#    y 0.000000 3.471630 0.000000 
#    z 0.000000 0.000000 4.123560 
# 
# 
# High freq. dielectric constant tensor:
#      x y z
#    x 1.788170 0.000000 0.000000 
#    y 0.000000 1.786140 0.000000 
#    z 0.000000 0.000000 1.823240 
# 
# From -- ./inp_files/24431.got.cif
#   From: 2010.03.12/outbox.cif.g09.slc.cpg/sg47_13_cif.got.tgz:24431.got - 2010.04.14 03:12:58.
