data_PCOD8194752
_publ_section_title
;
Structure prediction by ZEFSAII (Michael W. Deem and Ramdas Pophale) SiO2 
 PCOD8194752
Probable space group: P M M M
;
_chemical_formula_sum "Si O2"
_cell_formula_units_Z 64
_cell_length_a 19.237431
_cell_length_b 23.778477
_cell_length_c 8.984834
_cell_angle_alpha 90.000000
_cell_angle_beta 90.000000
_cell_angle_gamma 90.000000
_cell_volume 4109.993808
_symmetry_space_group_name_H-M "P M M M"
_symmetry_group_IT_number 47
_symmetry_cell_setting 'orthorhombic'
loop_
_space_group_symop_operation_xyz
x,y,z
-x,-y,z
x,-y,-z
-x,y,-z
-x,-y,-z
x,y,-z
-x,y,z
x,-y,z
loop_
_atom_site_type_symbol
_atom_site_label
_atom_site_fract_x
_atom_site_fract_y
_atom_site_fract_z
Si Si1 0.920183 0.064174 0.827961
Si Si2 0.714838 0.562544 0.677339
Si Si3 0.194351 0.664828 0.328063
Si Si4 0.146955 0.165647 0.322921
Si Si5 0.575242 0.743986 0.322324
Si Si6 0.280392 0.775123 0.328707
Si Si7 0.079621 0.268721 0.828151
Si Si8 0.575731 0.383076 0.323315
O O1 0.871236 0.103032 0.728072
O O2 0.000000 0.073276 0.780977
O O3 0.897922 0.000000 0.798552
O O4 0.910239 0.080011 0.000000
O O5 0.711876 0.564358 0.500000
O O6 0.733293 0.500000 0.735202
O O7 0.774196 0.605948 0.731870
O O8 0.638934 0.579787 0.742065
O O9 0.172042 0.660721 0.500000
O O10 0.253561 0.711694 0.306619
O O11 0.126145 0.680336 0.234262
O O12 0.143754 0.170231 0.500000
O O13 0.224316 0.181204 0.260251
O O14 0.092569 0.210360 0.257789
O O15 0.579267 0.743339 0.500000
O O16 0.500000 0.769410 0.271373
O O17 0.641568 0.779344 0.257946
O O18 0.581870 0.680466 0.262710
O O19 0.286632 0.790574 0.500000
O O20 0.000000 0.286430 0.805308
O O21 0.097691 0.258711 0.000000
O O22 0.581048 0.382104 0.500000
O O23 0.500000 0.407970 0.275233
#
# Coordination Sequence:
#
# PCOD8194752 Si02
#       8
#     8   8   8   8   8   8   8   8
#     4   9  18  32  47  62  86 122 156 181 205 235
#     4   9  15  22  34  53  79 109 137 168 208 252
#     4   9  16  27  42  59  81 106 133 166 207 256
#     4  10  19  28  43  67  93 117 141 172 208 246
#     4   8  11  16  29  47  72 109 143 165 193 241
#     4   8  13  22  34  52  80 109 136 168 206 243
#     4  10  20  32  46  63  82 104 132 170 213 254
#     4   8  12  17  27  46  75 111 143 166 194 240
#
# _framework density 15.5718
#
# number of rings (size 3 to 8) (size 9 to 14) (size 15 to 20)
#    0.000    3.125    1.250    3.000    0.000    3.250 
#    0.000    1.875    0.000    0.750    0.000    2.625 
#    0.000   17.500    0.000    7.375    0.000    2.250 
#
# Total GULP energy -792930.288768 kJ/mol
# GULP energy per Si atom -12389.535762 kJ/mol
# Density = 1.553636 g / cm^3
# Si number density = 15.571800 Si / 1000 Ang^3
#
#
#
# Elastic Constant Matrix: (Units=GPa)
#
#
# Indices 1 2 3 4 5 6 
#
# 1 118.0497 56.3707 32.2323 0.0000 0.0000 0.0000
# 2 56.3707 86.3761 24.2183 0.0000 0.0000 0.0000
# 3 32.2323 24.2183 35.4501 0.0000 0.0000 0.0000
# 4 0.0000 0.0000 0.0000 10.8338 0.0000 0.0000
# 5 0.0000 0.0000 0.0000 0.0000 1.1602 0.0000
# 6 0.0000 0.0000 0.0000 0.0000 0.0000 25.1452
#
#
#
# Elastic Compliance Matrix: (Units=1/GPa)
#
#
# Indices 1 2 3 4 5 6 
#
# 1 0.013919 -0.006847 -0.007978 0.000000 0.000000 0.000000
# 2 -0.006847 0.017688 -0.005859 0.000000 0.000000 0.000000
# 3 -0.007978 -0.005859 0.039465 0.000000 0.000000 0.000000
# 4 0.000000 0.000000 0.000000 0.092304 0.000000 0.000000
# 5 0.000000 0.000000 0.000000 0.000000 0.861928 0.000000
# 6 0.000000 0.000000 0.000000 0.000000 0.000000 0.039769
#
#
# Mechanical properties :
#
#
# Convention : Reuss Voigt Hill
#
# Bulk Modulus (GPa) = 33.66422 51.72428 42.69425
# Shear Modulus (GPa) = 4.47892 15.89814 10.18853
#
# Velocity S-wave (km/s) = 1.69781 3.19871 2.56069
# Velocity P-wave (km/s) = 5.05065 6.85062 6.01831
#
# Compressibility (1/GPa) = 0.02970513
#
# Stress axis : x y z
#
# Youngs Moduli (GPa) = 71.84560 56.53445 25.33904
#
# Poissons Ratio (x) = 0.38708 0.20215
# Poissons Ratio (y) = 0.49191 0.14846
# Poissons Ratio (z) = 0.57317 0.33122
#
# Static dielectric constant tensor:
#      x y z
#    x 3.301310 0.000000 0.000000 
#    y 0.000000 2.854460 0.000000 
#    z 0.000000 0.000000 2.564640 
# 
# 
# High freq. dielectric constant tensor:
#      x y z
#    x 1.603380 0.000000 0.000000 
#    y 0.000000 1.566750 0.000000 
#    z 0.000000 0.000000 1.553010 
# 
# From -- ./inp_files/11923.got.cif
#   From: 2010.03.12/outbox.cif.g09.slc.cpg/sg47_6_cif.got.tgz:11923.got - 2010.04.14 03:12:58.
