data_PCOD8194723
_publ_section_title
;
Structure prediction by ZEFSAII (Michael W. Deem and Ramdas Pophale) SiO2 
 PCOD8194723
Probable space group: P M M M
;
_chemical_formula_sum "Si O2"
_cell_formula_units_Z 60
_cell_length_a 9.238040
_cell_length_b 18.709242
_cell_length_c 23.755429
_cell_angle_alpha 90.000000
_cell_angle_beta 90.000000
_cell_angle_gamma 90.000000
_cell_volume 4105.810572
_symmetry_space_group_name_H-M "P M M M"
_symmetry_group_IT_number 47
_symmetry_cell_setting 'orthorhombic'
loop_
_space_group_symop_operation_xyz
x,y,z
-x,-y,z
x,-y,-z
-x,y,-z
-x,-y,-z
x,y,-z
-x,y,z
x,-y,z
loop_
_atom_site_type_symbol
_atom_site_label
_atom_site_fract_x
_atom_site_fract_y
_atom_site_fract_z
Si Si1 0.830094 0.167899 0.766886
Si Si2 0.666975 0.717276 0.170544
Si Si3 0.668125 0.580939 0.109896
Si Si4 0.666749 0.194492 0.937871
Si Si5 0.161616 0.084597 0.438089
Si Si6 0.831332 0.080187 0.122185
Si Si7 0.162164 0.415260 0.000000
Si Si8 0.329916 0.083461 0.329735
O O1 0.765524 0.246632 0.781190
O O2 0.794149 0.116036 0.818378
O O3 0.752706 0.133965 0.713488
O O4 0.000000 0.175376 0.754883
O O5 0.500000 0.732273 0.185997
O O6 0.698698 0.632230 0.163977
O O7 0.708449 0.747743 0.109029
O O8 0.500000 0.585562 0.092895
O O9 0.712174 0.500000 0.126747
O O10 0.755891 0.610074 0.056158
O O11 0.500000 0.173830 0.933647
O O12 0.754028 0.121477 0.928238
O O13 0.705653 0.224842 0.000000
O O14 0.207366 0.114261 0.500000
O O15 0.276994 0.109143 0.391357
O O16 0.000000 0.112384 0.422558
O O17 0.158946 0.000000 0.440649
O O18 0.000000 0.081922 0.109771
O O19 0.771020 0.000000 0.124417
O O20 0.158616 0.500000 0.000000
O O21 0.000000 0.383191 0.000000
O O22 0.500000 0.096728 0.324916
O O23 0.291235 0.000000 0.318880
#
# Coordination Sequence:
#
# PCOD8194723 Si02
#       8
#     8   8   8   8   8   8   4   8
#     4  10  19  31  45  59  78 102 134 169 205 248
#     4   9  18  31  46  60  79 102 126 160 198 240
#     4   9  17  29  46  65  82 103 130 157 191 240
#     4   9  18  30  42  56  73  94 119 147 187 237
#     4   8  14  25  40  58  82 112 144 176 210 246
#     4   9  18  31  44  56  70  90 118 156 199 237
#     4   9  17  27  39  59  85 105 122 151 188 227
#     4  10  19  28  41  62  85 110 142 179 216 249
#
# _framework density 14.613436
#
# number of rings (size 3 to 8) (size 9 to 14) (size 15 to 20)
#    0.000    2.867    0.000    1.800    0.933    4.267 
#    0.000    2.667    0.000    0.000    0.000    0.000 
#    0.000    0.000    0.000    0.000    0.000    0.667 
#
# Total GULP energy -743707.521931 kJ/mol
# GULP energy per Si atom -12395.125366 kJ/mol
# Density = 1.458018 g / cm^3
# Si number density = 14.613436 Si / 1000 Ang^3
#
#
#
# Elastic Constant Matrix: (Units=GPa)
#
#
# Indices 1 2 3 4 5 6 
#
# 1 64.7150 30.9183 43.0344 0.0000 0.0000 0.0000
# 2 30.9183 65.0652 30.9192 0.0000 0.0000 0.0000
# 3 43.0344 30.9192 81.8614 0.0000 0.0000 0.0000
# 4 0.0000 0.0000 0.0000 11.2670 0.0000 0.0000
# 5 0.0000 0.0000 0.0000 0.0000 24.2846 0.0000
# 6 0.0000 0.0000 0.0000 0.0000 0.0000 15.3386
#
#
#
# Elastic Compliance Matrix: (Units=1/GPa)
#
#
# Indices 1 2 3 4 5 6 
#
# 1 0.026272 -0.007216 -0.011085 0.000000 0.000000 0.000000
# 2 -0.007216 0.020713 -0.004030 0.000000 0.000000 0.000000
# 3 -0.011085 -0.004030 0.019565 0.000000 0.000000 0.000000
# 4 0.000000 0.000000 0.000000 0.088755 0.000000 0.000000
# 5 0.000000 0.000000 0.000000 0.000000 0.041178 0.000000
# 6 0.000000 0.000000 0.000000 0.000000 0.000000 0.065195
#
#
# Mechanical properties :
#
#
# Convention : Reuss Voigt Hill
#
# Bulk Modulus (GPa) = 45.68843 46.82060 46.25452
# Shear Modulus (GPa) = 15.94199 17.29601 16.61900
#
# Velocity S-wave (km/s) = 3.30648 3.44404 3.37596
# Velocity P-wave (km/s) = 6.77566 6.92273 6.84959
#
# Compressibility (1/GPa) = 0.02188738
#
# Stress axis : x y z
#
# Youngs Moduli (GPa) = 38.06400 48.27824 51.11057
#
# Poissons Ratio (x) = 0.34838 0.56658
# Poissons Ratio (y) = 0.27468 0.20597
# Poissons Ratio (z) = 0.42195 0.19456
#
# Static dielectric constant tensor:
#      x y z
#    x 2.928750 0.000000 0.000000 
#    y 0.000000 2.799150 0.000000 
#    z 0.000000 0.000000 2.832650 
# 
# 
# High freq. dielectric constant tensor:
#      x y z
#    x 1.565470 0.000000 0.000000 
#    y 0.000000 1.530260 0.000000 
#    z 0.000000 0.000000 1.532390 
# 
# From -- ./inp_files/32208.got.cif
#   From: 2010.03.12/outbox.cif.g09.slc.cpg/sg47_17_cif.got.tgz:32208.got - 2010.04.14 03:12:58.
