data_PCOD8194280
_publ_section_title
;
Structure prediction by ZEFSAII (Michael W. Deem and Ramdas Pophale) SiO2 
 PCOD8194280
Probable space group: P M M M
;
_chemical_formula_sum "Si O2"
_cell_formula_units_Z 60
_cell_length_a 14.551076
_cell_length_b 14.463658
_cell_length_c 14.327822
_cell_angle_alpha 90.000000
_cell_angle_beta 90.000000
_cell_angle_gamma 90.000000
_cell_volume 3015.459019
_symmetry_space_group_name_H-M "P M M M"
_symmetry_group_IT_number 47
_symmetry_cell_setting 'orthorhombic'
loop_
_space_group_symop_operation_xyz
x,y,z
-x,-y,z
x,-y,-z
-x,y,-z
-x,-y,-z
x,y,-z
-x,y,z
x,-y,z
loop_
_atom_site_type_symbol
_atom_site_label
_atom_site_fract_x
_atom_site_fract_y
_atom_site_fract_z
Si Si1 0.642189 0.899687 0.144852
Si Si2 0.402531 0.298162 0.897002
Si Si3 0.103200 0.000000 0.610208
Si Si4 0.897872 0.268462 0.767228
Si Si5 0.221872 0.391865 0.109501
Si Si6 0.146634 0.896549 0.890780
Si Si7 0.397764 0.895843 0.357769
Si Si8 0.206838 0.817198 0.605871
O O1 0.603092 0.812735 0.089454
O O2 0.750997 0.890749 0.148062
O O3 0.601079 0.894168 0.247173
O O4 0.615392 0.000000 0.099772
O O5 0.500000 0.322838 0.845968
O O6 0.313969 0.343121 0.847583
O O7 0.405864 0.341730 0.000000
O O8 0.158834 0.910573 0.644254
O O9 0.097963 0.000000 0.500000
O O10 0.000000 0.000000 0.652506
O O11 0.863049 0.351485 0.832916
O O12 0.909264 0.176464 0.830010
O O13 0.829594 0.260243 0.677745
O O14 0.000000 0.293422 0.730796
O O15 0.228867 0.500000 0.127462
O O16 0.208602 0.368420 0.000000
O O17 0.106645 0.000000 0.875746
O O18 0.143131 0.869822 0.000000
O O19 0.500000 0.863721 0.391987
O O20 0.317757 0.828018 0.394834
O O21 0.378350 0.000000 0.394584
O O22 0.175865 0.792825 0.500000
#
# Coordination Sequence:
#
# PCOD8194280 Si02
#       8
#     8   8   4   8   8   8   8   8
#     4  10  18  30  49  75 115 165 205 238 278 334
#     4  10  19  31  51  81 116 154 198 243 287 341
#     4   9  18  32  51  75 106 150 198 237 279 337
#     4  12  25  39  60  87 114 148 196 251 302 360
#     4  10  22  42  65  88 117 151 191 245 308 368
#     4  10  20  34  53  77 112 158 200 237 283 343
#     4  10  19  31  50  77 111 154 204 251 293 337
#     4  11  22  38  57  81 116 155 196 246 298 351
#
# _framework density 19.897468
#
# number of rings (size 3 to 8) (size 9 to 14) (size 15 to 20)
#    0.000    1.667    3.333    1.600    0.933    4.533 
#    0.000    4.000    0.000    0.400    0.000    0.933 
#    0.000    0.000    0.000    5.200    0.000    0.133 
#
# Total GULP energy -743529.233982 kJ/mol
# GULP energy per Si atom -12392.153900 kJ/mol
# Density = 1.985218 g / cm^3
# Si number density = 19.897468 Si / 1000 Ang^3
#
#
#
# Elastic Constant Matrix: (Units=GPa)
#
#
# Indices 1 2 3 4 5 6 
#
# 1 141.3666 34.6720 29.2430 0.0000 0.0000 0.0000
# 2 34.6720 83.0883 32.0791 0.0000 0.0000 0.0000
# 3 29.2430 32.0791 70.3072 0.0000 0.0000 0.0000
# 4 0.0000 0.0000 0.0000 15.2432 0.0000 0.0000
# 5 0.0000 0.0000 0.0000 0.0000 7.7828 0.0000
# 6 0.0000 0.0000 0.0000 0.0000 0.0000 8.5276
#
#
#
# Elastic Compliance Matrix: (Units=1/GPa)
#
#
# Indices 1 2 3 4 5 6 
#
# 1 0.008159 -0.002542 -0.002234 0.000000 0.000000 0.000000
# 2 -0.002542 0.015401 -0.005970 0.000000 0.000000 0.000000
# 3 -0.002234 -0.005970 0.017876 0.000000 0.000000 0.000000
# 4 0.000000 0.000000 0.000000 0.065603 0.000000 0.000000
# 5 0.000000 0.000000 0.000000 0.000000 0.128488 0.000000
# 6 0.000000 0.000000 0.000000 0.000000 0.000000 0.117266
#
#
# Mechanical properties :
#
#
# Convention : Reuss Voigt Hill
#
# Bulk Modulus (GPa) = 50.13753 54.08337 52.11045
# Shear Modulus (GPa) = 13.12566 19.56193 16.34380
#
# Velocity S-wave (km/s) = 2.57118 3.13890 2.86912
# Velocity P-wave (km/s) = 5.83672 6.35429 6.10099
#
# Compressibility (1/GPa) = 0.01994514
#
# Stress axis : x y z
#
# Youngs Moduli (GPa) = 122.55731 64.93041 55.94052
#
# Poissons Ratio (x) = 0.16508 0.12496
# Poissons Ratio (y) = 0.31160 0.33394
# Poissons Ratio (z) = 0.27376 0.38761
#
# Static dielectric constant tensor:
#      x y z
#    x 3.817520 0.000000 0.000000 
#    y 0.000000 3.316270 0.000000 
#    z 0.000000 0.000000 3.406960 
# 
# 
# High freq. dielectric constant tensor:
#      x y z
#    x 1.791690 0.000000 0.000000 
#    y 0.000000 1.723990 0.000000 
#    z 0.000000 0.000000 1.756920 
# 
# From -- ./inp_files/23942.got.cif
#   From: 2010.03.12/outbox.cif.g09.slc.cpg/sg47_12_cif.got.tgz:23942.got - 2010.04.14 03:12:58.
