data_PCOD8194710
_publ_section_title
;
Structure prediction by ZEFSAII (Michael W. Deem and Ramdas Pophale) SiO2 
 PCOD8194710
Probable space group: P M M M
;
_chemical_formula_sum "Si O2"
_cell_formula_units_Z 56
_cell_length_a 21.592417
_cell_length_b 17.901040
_cell_length_c 9.222220
_cell_angle_alpha 90.000000
_cell_angle_beta 90.000000
_cell_angle_gamma 90.000000
_cell_volume 3564.634452
_symmetry_space_group_name_H-M "P M M M"
_symmetry_group_IT_number 47
_symmetry_cell_setting 'orthorhombic'
loop_
_space_group_symop_operation_xyz
x,y,z
-x,-y,z
x,-y,-z
-x,y,-z
-x,-y,-z
x,y,-z
-x,y,z
x,-y,z
loop_
_atom_site_type_symbol
_atom_site_label
_atom_site_fract_x
_atom_site_fract_y
_atom_site_fract_z
Si Si1 0.864304 0.196473 0.340461
Si Si2 0.321336 0.839902 0.671574
Si Si3 0.571381 0.913963 0.833308
Si Si4 0.180387 0.413379 0.166892
Si Si5 0.746106 0.697984 0.340729
Si Si6 0.208931 0.086926 0.833586
Si Si7 0.930159 0.339147 0.670552
O O1 0.878715 0.162615 0.500000
O O2 0.804483 0.248141 0.349853
O O3 0.851738 0.129636 0.228169
O O4 0.919492 0.251589 0.288313
O O5 0.317111 0.853166 0.500000
O O6 0.388827 0.861078 0.729607
O O7 0.310299 0.751953 0.709555
O O8 0.270670 0.892862 0.746313
O O9 0.500000 0.893909 0.806362
O O10 0.584234 0.000000 0.793492
O O11 0.589620 0.899376 0.000000
O O12 0.194645 0.500000 0.188888
O O13 0.239841 0.368944 0.229786
O O14 0.116295 0.393562 0.245794
O O15 0.172933 0.391406 0.000000
O O16 0.732609 0.663556 0.500000
O O17 0.195206 0.000000 0.817000
O O18 0.218677 0.110287 0.000000
O O19 0.917936 0.350139 0.500000
O O20 0.000000 0.361150 0.713696
#
# Coordination Sequence:
#
# PCOD8194710 Si02
#       7
#     8   8   8   8   8   8   8
#     4   8  15  28  44  61  80 102 133 175 215 249
#     4  10  19  29  43  64  87 111 145 185 217 249
#     4   9  18  31  44  60  87 123 158 187 215 250
#     4  10  20  31  44  66  93 115 137 169 207 247
#     4   8  16  30  45  62  84 111 142 174 210 253
#     4  10  19  28  40  60  84 109 138 173 215 262
#     4   9  18  32  48  64  82 108 142 173 203 248
#
# _framework density 15.709885
#
# number of rings (size 3 to 8) (size 9 to 14) (size 15 to 20)
#    0.000    2.857    0.000    3.857    0.000   10.857 
#    0.000    2.143    0.000    0.429    0.000    3.000 
#    0.000    0.571    0.000    6.286    0.000    4.571 
#
# Total GULP energy -694132.220068 kJ/mol
# GULP energy per Si atom -12395.218215 kJ/mol
# Density = 1.567413 g / cm^3
# Si number density = 15.709885 Si / 1000 Ang^3
#
#
#
# Elastic Constant Matrix: (Units=GPa)
#
#
# Indices 1 2 3 4 5 6 
#
# 1 55.9607 39.2423 37.2409 0.0000 0.0000 0.0000
# 2 39.2423 81.8548 57.1754 0.0000 0.0000 0.0000
# 3 37.2409 57.1754 94.2818 0.0000 0.0000 0.0000
# 4 0.0000 0.0000 0.0000 25.8030 0.0000 0.0000
# 5 0.0000 0.0000 0.0000 0.0000 23.0565 0.0000
# 6 0.0000 0.0000 0.0000 0.0000 0.0000 20.6181
#
#
#
# Elastic Compliance Matrix: (Units=1/GPa)
#
#
# Indices 1 2 3 4 5 6 
#
# 1 0.028273 -0.009982 -0.005114 0.000000 0.000000 0.000000
# 2 -0.009982 0.024719 -0.011047 0.000000 0.000000 0.000000
# 3 -0.005114 -0.011047 0.019326 0.000000 0.000000 0.000000
# 4 0.000000 0.000000 0.000000 0.038755 0.000000 0.000000
# 5 0.000000 0.000000 0.000000 0.000000 0.043372 0.000000
# 6 0.000000 0.000000 0.000000 0.000000 0.000000 0.048501
#
#
# Mechanical properties :
#
#
# Convention : Reuss Voigt Hill
#
# Bulk Modulus (GPa) = 49.92402 55.49051 52.70727
# Shear Modulus (GPa) = 19.09051 20.45814 19.77432
#
# Velocity S-wave (km/s) = 3.48974 3.61258 3.55169
# Velocity P-wave (km/s) = 6.93437 7.26634 7.10229
#
# Compressibility (1/GPa) = 0.02003044
#
# Stress axis : x y z
#
# Youngs Moduli (GPa) = 35.36931 40.45483 51.74364
#
# Poissons Ratio (x) = 0.40383 0.26463
# Poissons Ratio (y) = 0.35306 0.57163
# Poissons Ratio (z) = 0.18089 0.44692
#
# Static dielectric constant tensor:
#      x y z
#    x 3.013530 0.000000 0.000000 
#    y 0.000000 3.020660 0.000000 
#    z 0.000000 0.000000 3.100170 
# 
# 
# High freq. dielectric constant tensor:
#      x y z
#    x 1.572990 0.000000 0.000000 
#    y 0.000000 1.587200 0.000000 
#    z 0.000000 0.000000 1.610920 
# 
# From -- ./inp_files/12797.got.cif
#   From: 2010.03.12/outbox.cif.g09.slc.cpg/sg47_7_cif.got.tgz:12797.got - 2010.04.14 03:12:58.
