data_PCOD8194880
_publ_section_title
;
Structure prediction by ZEFSAII (Michael W. Deem and Ramdas Pophale) SiO2 
 PCOD8194880
Probable space group: P M M M
;
_chemical_formula_sum "Si O2"
_cell_formula_units_Z 60
_cell_length_a 17.408854
_cell_length_b 9.288593
_cell_length_c 23.024484
_cell_angle_alpha 90.000000
_cell_angle_beta 90.000000
_cell_angle_gamma 90.000000
_cell_volume 3723.145621
_symmetry_space_group_name_H-M "P M M M"
_symmetry_group_IT_number 47
_symmetry_cell_setting 'orthorhombic'
loop_
_space_group_symop_operation_xyz
x,y,z
-x,-y,z
x,-y,-z
-x,y,-z
-x,-y,-z
x,y,-z
-x,y,z
x,-y,z
loop_
_atom_site_type_symbol
_atom_site_label
_atom_site_fract_x
_atom_site_fract_y
_atom_site_fract_z
Si Si1 0.145989 0.835848 0.565065
Si Si2 0.677943 0.662271 0.240481
Si Si3 0.000000 0.340722 0.431340
Si Si4 0.186071 0.658966 0.148082
Si Si5 0.281816 0.830870 0.065320
Si Si6 0.088700 0.331579 0.251406
Si Si7 0.217983 0.166802 0.318730
Si Si8 0.587390 0.833371 0.153347
O O1 0.172748 0.788683 0.500000
O O2 0.215362 0.817731 0.611007
O O3 0.075949 0.740815 0.589216
O O4 0.116986 0.000000 0.563780
O O5 0.654400 0.500000 0.258102
O O6 0.746821 0.663152 0.195277
O O7 0.706155 0.749193 0.297306
O O8 0.605513 0.741720 0.211130
O O9 0.000000 0.500000 0.403065
O O10 0.000000 0.349691 0.500000
O O11 0.178311 0.500000 0.120902
O O12 0.205612 0.766553 0.095662
O O13 0.109100 0.702287 0.183486
O O14 0.358863 0.784850 0.099663
O O15 0.270985 0.000000 0.065096
O O16 0.289004 0.770502 0.000000
O O17 0.106617 0.500000 0.263802
O O18 0.139699 0.232991 0.293098
O O19 0.000000 0.294036 0.262581
O O20 0.223414 0.000000 0.299668
O O21 0.500000 0.804507 0.134308
O O22 0.601802 0.000000 0.168467
#
# Coordination Sequence:
#
# PCOD8194880 Si02
#       8
#     8   8   4   8   8   8   8   8
#     4   9  18  31  43  56  81 116 148 180 220 263
#     4   9  17  30  46  63  86 115 145 178 218 257
#     4   9  17  27  39  55  75 105 145 183 216 253
#     4   8  15  28  44  60  79 107 142 177 217 261
#     4   9  17  28  43  64  89 117 147 176 208 247
#     4   9  18  31  45  62  84 109 138 181 233 273
#     4  10  19  29  44  64  85 111 147 185 218 260
#     4   9  17  29  46  68  94 121 146 174 207 245
#
# _framework density 16.115406
#
# number of rings (size 3 to 8) (size 9 to 14) (size 15 to 20)
#    0.000    3.000    0.000    1.800    0.933    6.133 
#    0.000    1.333    0.000    0.400    0.000    6.533 
#    0.000    0.533    0.000    6.133    0.000    1.733 
#
# Total GULP energy -743682.589594 kJ/mol
# GULP energy per Si atom -12394.709827 kJ/mol
# Density = 1.607873 g / cm^3
# Si number density = 16.115406 Si / 1000 Ang^3
#
#
#
# Elastic Constant Matrix: (Units=GPa)
#
#
# Indices 1 2 3 4 5 6 
#
# 1 24.9724 15.7903 24.6033 0.0000 0.0000 0.0000
# 2 15.7903 70.5197 39.9698 0.0000 0.0000 0.0000
# 3 24.6033 39.9698 89.9494 0.0000 0.0000 0.0000
# 4 0.0000 0.0000 0.0000 17.2077 0.0000 0.0000
# 5 0.0000 0.0000 0.0000 0.0000 19.0671 0.0000
# 6 0.0000 0.0000 0.0000 0.0000 0.0000 20.3072
#
#
#
# Elastic Compliance Matrix: (Units=1/GPa)
#
#
# Indices 1 2 3 4 5 6 
#
# 1 0.056194 -0.005174 -0.013071 0.000000 0.000000 0.000000
# 2 -0.005174 0.019431 -0.007219 0.000000 0.000000 0.000000
# 3 -0.013071 -0.007219 0.017900 0.000000 0.000000 0.000000
# 4 0.000000 0.000000 0.000000 0.058113 0.000000 0.000000
# 5 0.000000 0.000000 0.000000 0.000000 0.052446 0.000000
# 6 0.000000 0.000000 0.000000 0.000000 0.000000 0.049244
#
#
# Mechanical properties :
#
#
# Convention : Reuss Voigt Hill
#
# Bulk Modulus (GPa) = 23.47608 38.46316 30.96962
# Shear Modulus (GPa) = 15.70078 18.32160 17.01119
#
# Velocity S-wave (km/s) = 3.12472 3.37545 3.25250
# Velocity P-wave (km/s) = 5.25524 6.25386 5.77617
#
# Compressibility (1/GPa) = 0.04259655
#
# Stress axis : x y z
#
# Youngs Moduli (GPa) = 17.79556 51.46528 55.86446
#
# Poissons Ratio (x) = 0.26628 0.73022
# Poissons Ratio (y) = 0.09207 0.40328
# Poissons Ratio (z) = 0.23261 0.37153
#
# Static dielectric constant tensor:
#      x y z
#    x 2.874150 0.000000 0.000000 
#    y 0.000000 3.207180 0.000000 
#    z 0.000000 0.000000 3.112030 
# 
# 
# High freq. dielectric constant tensor:
#      x y z
#    x 1.580780 0.000000 0.000000 
#    y 0.000000 1.626310 0.000000 
#    z 0.000000 0.000000 1.607830 
# 
# From -- ./inp_files/32939.got.cif
#   From: 2010.03.12/outbox.cif.g09.slc.cpg/sg47_17_cif.got.tgz:32939.got - 2010.04.14 03:12:58.
