data_PCOD8194436
_publ_section_title
;
Structure prediction by ZEFSAII (Michael W. Deem and Ramdas Pophale) SiO2 
 PCOD8194436
Probable space group: P M M M
;
_chemical_formula_sum "Si O2"
_cell_formula_units_Z 52
_cell_length_a 9.134675
_cell_length_b 14.134046
_cell_length_c 21.498798
_cell_angle_alpha 90.000000
_cell_angle_beta 90.000000
_cell_angle_gamma 90.000000
_cell_volume 2775.708018
_symmetry_space_group_name_H-M "P M M M"
_symmetry_group_IT_number 47
_symmetry_cell_setting 'orthorhombic'
loop_
_space_group_symop_operation_xyz
x,y,z
-x,-y,z
x,-y,-z
-x,y,-z
-x,-y,-z
x,y,-z
-x,y,z
x,-y,z
loop_
_atom_site_type_symbol
_atom_site_label
_atom_site_fract_x
_atom_site_fract_y
_atom_site_fract_z
Si Si1 0.672771 0.609147 0.686527
Si Si2 0.326772 0.397798 0.068880
Si Si3 0.326777 0.208115 0.124722
Si Si4 0.669433 0.729626 0.569542
Si Si5 0.828766 0.225614 0.752936
Si Si6 0.326271 0.106145 0.000000
Si Si7 0.170652 0.107163 0.631864
O O1 0.500000 0.617399 0.698341
O O2 0.724189 0.500000 0.691859
O O3 0.716879 0.647744 0.617948
O O4 0.753724 0.673258 0.737909
O O5 0.500000 0.395664 0.062564
O O6 0.273195 0.500000 0.094090
O O7 0.278798 0.317470 0.116631
O O8 0.261182 0.378914 0.000000
O O9 0.500000 0.193010 0.134033
O O10 0.241216 0.176069 0.186160
O O11 0.268690 0.154219 0.063323
O O12 0.704726 0.692756 0.500000
O O13 0.500000 0.752867 0.578075
O O14 0.752528 0.828284 0.580248
O O15 0.795581 0.150093 0.699384
O O16 0.000000 0.242947 0.762760
O O17 0.500000 0.112779 0.000000
O O18 0.267444 0.000000 0.000000
O O19 0.000000 0.108430 0.617236
O O20 0.231821 0.000000 0.628980
#
# Coordination Sequence:
#
# PCOD8194436 Si02
#       7
#     8   8   8   8   8   4   8
#     4   9  18  34  55  77 103 138 177 209 239 289
#     4   8  13  23  42  67  90 113 146 187 228 274
#     4  10  18  31  51  73  97 127 163 204 250 304
#     4   9  18  32  51  79 111 136 162 204 256 302
#     4  10  21  35  51  73 101 133 169 214 262 303
#     4   9  18  32  50  74 102 129 161 206 256 305
#     4   9  19  36  54  70  94 133 178 217 252 297
#
# _framework density 18.733958000000001
#
# number of rings (size 3 to 8) (size 9 to 14) (size 15 to 20)
#    0.000    2.846    0.769    0.923    0.000    3.385 
#    0.000    5.000    0.000    0.462    0.000    5.385 
#    0.000    0.000    0.000    0.000    0.000    0.000 
#
# Total GULP energy -644547.057265 kJ/mol
# GULP energy per Si atom -12395.135717 kJ/mol
# Density = 1.869132 g / cm^3
# Si number density = 18.733958 Si / 1000 Ang^3
#
#
#
# Elastic Constant Matrix: (Units=GPa)
#
#
# Indices 1 2 3 4 5 6 
#
# 1 36.3502 24.2855 29.6895 0.0000 0.0000 0.0000
# 2 24.2855 99.4686 28.4363 0.0000 0.0000 0.0000
# 3 29.6895 28.4363 105.5904 0.0000 0.0000 0.0000
# 4 0.0000 0.0000 0.0000 14.8027 0.0000 0.0000
# 5 0.0000 0.0000 0.0000 0.0000 20.7500 0.0000
# 6 0.0000 0.0000 0.0000 0.0000 0.0000 20.2199
#
#
#
# Elastic Compliance Matrix: (Units=1/GPa)
#
#
# Indices 1 2 3 4 5 6 
#
# 1 0.039822 -0.007066 -0.009294 0.000000 0.000000 0.000000
# 2 -0.007066 0.012146 -0.001284 0.000000 0.000000 0.000000
# 3 -0.009294 -0.001284 0.012430 0.000000 0.000000 0.000000
# 4 0.000000 0.000000 0.000000 0.067555 0.000000 0.000000
# 5 0.000000 0.000000 0.000000 0.000000 0.048193 0.000000
# 6 0.000000 0.000000 0.000000 0.000000 0.000000 0.049456
#
#
# Mechanical properties :
#
#
# Convention : Reuss Voigt Hill
#
# Bulk Modulus (GPa) = 34.35335 45.13687 39.74511
# Shear Modulus (GPa) = 18.20881 21.75437 19.98159
#
# Velocity S-wave (km/s) = 3.12102 3.41137 3.26942
# Velocity P-wave (km/s) = 5.60045 6.29782 5.95934
#
# Compressibility (1/GPa) = 0.02910925
#
# Stress axis : x y z
#
# Youngs Moduli (GPa) = 25.11193 82.33414 80.45247
#
# Poissons Ratio (x) = 0.58173 0.74773
# Poissons Ratio (y) = 0.17743 0.10332
# Poissons Ratio (z) = 0.23339 0.10574
#
# Static dielectric constant tensor:
#      x y z
#    x 3.093770 0.000000 0.000000 
#    y 0.000000 3.687070 0.000000 
#    z 0.000000 0.000000 3.491120 
# 
# 
# High freq. dielectric constant tensor:
#      x y z
#    x 1.689410 0.000000 0.000000 
#    y 0.000000 1.727440 0.000000 
#    z 0.000000 0.000000 1.731230 
# 
# From -- ./inp_files/29565.got.cif
#   From: 2010.03.12/outbox.cif.g09.slc.cpg/sg47_15_cif.got.tgz:29565.got - 2010.04.14 03:12:58.
