data_PCOD8194338
_publ_section_title
;
Structure prediction by ZEFSAII (Michael W. Deem and Ramdas Pophale) SiO2 
 PCOD8194338
Probable space group: P M M M
;
_chemical_formula_sum "Si O2"
_cell_formula_units_Z 52
_cell_length_a 12.201480
_cell_length_b 25.007542
_cell_length_c 9.593236
_cell_angle_alpha 90.000000
_cell_angle_beta 90.000000
_cell_angle_gamma 90.000000
_cell_volume 2927.174733
_symmetry_space_group_name_H-M "P M M M"
_symmetry_group_IT_number 47
_symmetry_cell_setting 'orthorhombic'
loop_
_space_group_symop_operation_xyz
x,y,z
-x,-y,z
x,-y,-z
-x,y,-z
-x,-y,-z
x,y,-z
-x,y,z
x,-y,z
loop_
_atom_site_type_symbol
_atom_site_label
_atom_site_fract_x
_atom_site_fract_y
_atom_site_fract_z
Si Si1 0.376007 0.755874 0.164584
Si Si2 0.693685 0.440151 0.845208
Si Si3 0.230411 0.854717 0.156505
Si Si4 0.000000 0.702853 0.334378
Si Si5 0.500000 0.563249 0.653162
Si Si6 0.125014 0.937975 0.338129
Si Si7 0.200255 0.331734 0.157920
Si Si8 0.000000 0.799467 0.149754
O O1 0.500000 0.752745 0.227899
O O2 0.313058 0.809435 0.218251
O O3 0.307384 0.702471 0.205343
O O4 0.384101 0.759421 0.000000
O O5 0.737733 0.500000 0.806838
O O6 0.605940 0.418145 0.736202
O O7 0.787250 0.395824 0.840331
O O8 0.640918 0.441766 0.000000
O O9 0.221282 0.906483 0.255432
O O10 0.107684 0.834028 0.154224
O O11 0.267527 0.871233 0.000000
O O12 0.106976 0.676174 0.270542
O O13 0.000000 0.697223 0.500000
O O14 0.000000 0.763973 0.287829
O O15 0.500000 0.500000 0.643348
O O16 0.500000 0.589571 0.500000
O O17 0.141026 0.925035 0.500000
O O18 0.000000 0.922296 0.293944
O O19 0.144425 0.000000 0.306537
O O20 0.167731 0.313660 0.000000
O O21 0.000000 0.767714 0.000000
#
# Coordination Sequence:
#
# PCOD8194338 Si02
#       8
#     8   8   8   4   4   8   8   4
#     4   9  18  32  52  78 104 134 173 213 259 314
#     4   9  18  32  52  79 105 133 177 226 264 309
#     4  10  18  30  51  76 104 135 171 215 255 306
#     4  12  24  36  53  78 107 135 176 222 262 317
#     4   9  17  29  47  71 103 141 171 205 258 311
#     4   9  18  31  47  72 107 141 172 211 261 312
#     4  10  20  36  58  77 104 140 173 216 269 321
#     4  10  18  32  51  76 105 137 176 212 260 315
#
# _framework density 17.764569999999999
#
# number of rings (size 3 to 8) (size 9 to 14) (size 15 to 20)
#    0.000    2.385    2.308    1.385    1.077    2.462 
#    0.000    1.154    0.000    4.154    0.000    3.231 
#    0.000    0.000    0.000    0.000    0.000    0.000 
#
# Total GULP energy -644203.548349 kJ/mol
# GULP energy per Si atom -12388.529776 kJ/mol
# Density = 1.772414 g / cm^3
# Si number density = 17.764570 Si / 1000 Ang^3
#
#
#
# Elastic Constant Matrix: (Units=GPa)
#
#
# Indices 1 2 3 4 5 6 
#
# 1 94.0777 38.4760 36.4607 0.0000 0.0000 0.0000
# 2 38.4760 98.3650 36.5942 0.0000 0.0000 0.0000
# 3 36.4607 36.5942 93.6776 0.0000 0.0000 0.0000
# 4 0.0000 0.0000 0.0000 17.4052 0.0000 0.0000
# 5 0.0000 0.0000 0.0000 0.0000 34.2329 0.0000
# 6 0.0000 0.0000 0.0000 0.0000 0.0000 25.6084
#
#
#
# Elastic Compliance Matrix: (Units=1/GPa)
#
#
# Indices 1 2 3 4 5 6 
#
# 1 0.013717 -0.003954 -0.003794 0.000000 0.000000 0.000000
# 2 -0.003954 0.013035 -0.003553 0.000000 0.000000 0.000000
# 3 -0.003794 -0.003553 0.013540 0.000000 0.000000 0.000000
# 4 0.000000 0.000000 0.000000 0.057454 0.000000 0.000000
# 5 0.000000 0.000000 0.000000 0.000000 0.029212 0.000000
# 6 0.000000 0.000000 0.000000 0.000000 0.000000 0.039050
#
#
# Mechanical properties :
#
#
# Convention : Reuss Voigt Hill
#
# Bulk Modulus (GPa) = 56.53234 56.57578 56.55406
# Shear Modulus (GPa) = 25.70624 27.08861 26.39742
#
# Velocity S-wave (km/s) = 3.80814 3.90919 3.85900
# Velocity P-wave (km/s) = 7.15738 7.23135 7.19446
#
# Compressibility (1/GPa) = 0.01768899
#
# Stress axis : x y z
#
# Youngs Moduli (GPa) = 72.90155 76.71893 73.85734
#
# Poissons Ratio (x) = 0.30334 0.28024
# Poissons Ratio (y) = 0.28825 0.26241
# Poissons Ratio (z) = 0.27661 0.27257
#
# Static dielectric constant tensor:
#      x y z
#    x 3.238320 0.000000 0.000000 
#    y 0.000000 3.285940 0.000000 
#    z 0.000000 0.000000 3.382630 
# 
# 
# High freq. dielectric constant tensor:
#      x y z
#    x 1.662920 0.000000 0.000000 
#    y 0.000000 1.686420 0.000000 
#    z 0.000000 0.000000 1.668270 
# 
# From -- ./inp_files/4672.got.cif
#   From: 2010.03.12/outbox.cif.g09.slc.cpg/sg47_3_cif.got.tgz:4672.got - 2010.04.14 03:12:58.
