data_PCOD8194999
_publ_section_title
;
Structure prediction by ZEFSAII (Michael W. Deem and Ramdas Pophale) SiO2 
 PCOD8194999
Probable space group: P M M M
;
_chemical_formula_sum "Si O2"
_cell_formula_units_Z 64
_cell_length_a 31.284930
_cell_length_b 14.324748
_cell_length_c 9.213829
_cell_angle_alpha 90.000000
_cell_angle_beta 90.000000
_cell_angle_gamma 90.000000
_cell_volume 4129.165843
_symmetry_space_group_name_H-M "P M M M"
_symmetry_group_IT_number 47
_symmetry_cell_setting 'orthorhombic'
loop_
_space_group_symop_operation_xyz
x,y,z
-x,-y,z
x,-y,-z
-x,y,-z
-x,-y,-z
x,y,-z
-x,y,z
x,-y,z
loop_
_atom_site_type_symbol
_atom_site_label
_atom_site_fract_x
_atom_site_fract_y
_atom_site_fract_z
Si Si1 0.453231 0.110914 0.163752
Si Si2 0.872831 0.220794 0.827088
Si Si3 0.628480 0.892307 0.329185
Si Si4 0.712520 0.792865 0.327696
Si Si5 0.844653 0.394071 0.331892
Si Si6 0.952806 0.895698 0.172249
Si Si7 0.253087 0.398672 0.327684
Si Si8 0.799030 0.890812 0.330794
O O1 0.500000 0.146567 0.218457
O O2 0.415037 0.150732 0.262648
O O3 0.452837 0.000000 0.171067
O O4 0.445547 0.145353 0.000000
O O5 0.873134 0.326054 0.766503
O O6 0.916769 0.174523 0.769780
O O7 0.833593 0.162577 0.764035
O O8 0.869632 0.221760 0.000000
O O9 0.625004 0.880708 0.500000
O O10 0.668747 0.835504 0.264131
O O11 0.634788 0.000000 0.284892
O O12 0.709651 0.792300 0.500000
O O13 0.718340 0.686832 0.267301
O O14 0.752284 0.856808 0.279848
O O15 0.849556 0.366132 0.500000
O O16 0.860183 0.500000 0.306076
O O17 0.795741 0.382078 0.280746
O O18 0.000000 0.863135 0.225607
O O19 0.943169 0.000000 0.231410
O O20 0.951757 0.897767 0.000000
O O21 0.254911 0.400558 0.500000
O O22 0.269145 0.500000 0.267800
O O23 0.806439 0.867295 0.500000
O O24 0.802755 0.000000 0.299376
#
# Coordination Sequence:
#
# PCOD8194999 Si02
#       8
#     8   8   8   8   8   8   8   8
#     4   8  14  25  39  53  72 102 138 172 206 246
#     4  11  20  29  46  71  94 112 139 184 230 264
#     4   9  16  24  36  56  80 107 138 171 206 241
#     4   9  15  25  40  58  83 112 144 177 206 246
#     4   9  17  31  50  68  87 115 150 181 212 259
#     4   8  15  29  47  65  87 117 149 178 213 260
#     4   8  13  23  42  63  79 102 141 182 210 239
#     4  10  19  30  44  61  86 123 157 179 205 251
#
# _framework density 15.499498000000001
#
# number of rings (size 3 to 8) (size 9 to 14) (size 15 to 20)
#    0.000    3.000    1.250    2.625    0.000    2.750 
#    0.000    1.875    0.000    3.375    0.000    7.000 
#    0.000    0.500    0.000    6.250    0.000    1.250 
#
# Total GULP energy -793146.077204 kJ/mol
# GULP energy per Si atom -12392.907456 kJ/mol
# Density = 1.546422 g / cm^3
# Si number density = 15.499498 Si / 1000 Ang^3
#
#
#
# Elastic Constant Matrix: (Units=GPa)
#
#
# Indices 1 2 3 4 5 6 
#
# 1 129.4799 62.0840 33.8435 0.0000 0.0000 0.0000
# 2 62.0840 100.1212 29.4089 0.0000 0.0000 0.0000
# 3 33.8435 29.4089 31.8502 0.0000 0.0000 0.0000
# 4 0.0000 0.0000 0.0000 16.7330 0.0000 0.0000
# 5 0.0000 0.0000 0.0000 0.0000 19.6857 0.0000
# 6 0.0000 0.0000 0.0000 0.0000 0.0000 12.0131
#
#
#
# Elastic Compliance Matrix: (Units=1/GPa)
#
#
# Indices 1 2 3 4 5 6 
#
# 1 0.012424 -0.005250 -0.008354 0.000000 0.000000 0.000000
# 2 -0.005250 0.015924 -0.009124 0.000000 0.000000 0.000000
# 3 -0.008354 -0.009124 0.048699 0.000000 0.000000 0.000000
# 4 0.000000 0.000000 0.000000 0.059762 0.000000 0.000000
# 5 0.000000 0.000000 0.000000 0.000000 0.050798 0.000000
# 6 0.000000 0.000000 0.000000 0.000000 0.000000 0.083242
#
#
# Mechanical properties :
#
#
# Convention : Reuss Voigt Hill
#
# Bulk Modulus (GPa) = 31.65604 56.90269 44.27937
# Shear Modulus (GPa) = 15.29821 18.76070 17.02946
#
# Velocity S-wave (km/s) = 3.14509 3.48286 3.31828
# Velocity P-wave (km/s) = 5.80147 7.27778 6.58115
#
# Compressibility (1/GPa) = 0.03158954
#
# Stress axis : x y z
#
# Youngs Moduli (GPa) = 80.48816 62.79970 20.53451
#
# Poissons Ratio (x) = 0.32972 0.17154
# Poissons Ratio (y) = 0.42259 0.18736
# Poissons Ratio (z) = 0.67239 0.57300
#
# Static dielectric constant tensor:
#      x y z
#    x 3.222600 0.000000 0.000000 
#    y 0.000000 3.134260 0.000000 
#    z 0.000000 0.000000 2.667570 
# 
# 
# High freq. dielectric constant tensor:
#      x y z
#    x 1.587430 0.000000 0.000000 
#    y 0.000000 1.581200 0.000000 
#    z 0.000000 0.000000 1.560150 
# 
# From -- ./inp_files/14282.got.cif
#   From: 2010.03.12/outbox.cif.g09.slc.cpg/sg47_8_cif.got.tgz:14282.got - 2010.04.14 03:12:58.
