data_PCOD8194586
_publ_section_title
;
Structure prediction by ZEFSAII (Michael W. Deem and Ramdas Pophale) SiO2 
 PCOD8194586
Probable space group: P M M M
;
_chemical_formula_sum "Si O2"
_cell_formula_units_Z 48
_cell_length_a 13.658627
_cell_length_b 15.125527
_cell_length_c 12.342727
_cell_angle_alpha 90.000000
_cell_angle_beta 90.000000
_cell_angle_gamma 90.000000
_cell_volume 2549.932496
_symmetry_space_group_name_H-M "P M M M"
_symmetry_group_IT_number 47
_symmetry_cell_setting 'orthorhombic'
loop_
_space_group_symop_operation_xyz
x,y,z
-x,-y,z
x,-y,-z
-x,y,-z
-x,-y,-z
x,y,-z
-x,y,z
x,-y,z
loop_
_atom_site_type_symbol
_atom_site_label
_atom_site_fract_x
_atom_site_fract_y
_atom_site_fract_z
Si Si1 0.394075 0.848528 0.500000
Si Si2 0.113856 0.601517 0.185919
Si Si3 0.770923 0.768218 0.122599
Si Si4 0.240824 0.398920 0.381903
Si Si5 0.610936 0.271086 0.288387
Si Si6 0.115255 0.101614 0.273058
Si Si7 0.185522 0.097045 0.500000
O O1 0.500000 0.897961 0.500000
O O2 0.386318 0.791251 0.392045
O O3 0.303119 0.914677 0.500000
O O4 0.136529 0.500000 0.148919
O O5 0.178177 0.671233 0.118364
O O6 0.142009 0.614489 0.312293
O O7 0.000000 0.623225 0.170402
O O8 0.668074 0.770731 0.186456
O O9 0.842083 0.839758 0.176832
O O10 0.749764 0.797709 0.000000
O O11 0.224531 0.353867 0.500000
O O12 0.266213 0.500000 0.397863
O O13 0.334812 0.360892 0.320471
O O14 0.500000 0.291606 0.252360
O O15 0.149211 0.143868 0.389131
O O16 0.000000 0.106714 0.264150
O O17 0.152429 0.000000 0.262082
O O18 0.136989 0.000000 0.500000
#
# Coordination Sequence:
#
# PCOD8194586 Si02
#       7
#     4   8   8   8   8   8   4
#     4  10  18  32  56  82 106 136 172 219 275 326
#     4   9  19  35  53  76 108 145 184 225 269 318
#     4  11  23  38  57  79 106 144 189 231 272 321
#     4   9  17  29  48  76 109 141 174 216 268 328
#     4  10  20  35  54  77 106 138 176 222 274 329
#     4  10  21  37  58  85 115 146 180 221 270 325
#     4  10  19  35  58  84 114 144 175 216 271 331
#
# _framework density 18.824027999999998
#
# number of rings (size 3 to 8) (size 9 to 14) (size 15 to 20)
#    0.000    2.167    2.500    0.750    0.000    4.167 
#    0.000    4.167    0.000    0.500    0.000    5.833 
#    0.000    0.000    0.000    0.000    0.000    0.000 
#
# Total GULP energy -594917.453045 kJ/mol
# GULP energy per Si atom -12394.113605 kJ/mol
# Density = 1.878118 g / cm^3
# Si number density = 18.824028 Si / 1000 Ang^3
#
#
#
# Elastic Constant Matrix: (Units=GPa)
#
#
# Indices 1 2 3 4 5 6 
#
# 1 84.2798 9.0036 37.4990 0.0000 0.0000 0.0000
# 2 9.0036 43.5038 27.7422 0.0000 0.0000 0.0000
# 3 37.4990 27.7422 142.3840 0.0000 0.0000 0.0000
# 4 0.0000 0.0000 0.0000 15.0798 0.0000 0.0000
# 5 0.0000 0.0000 0.0000 0.0000 30.0991 0.0000
# 6 0.0000 0.0000 0.0000 0.0000 0.0000 23.4355
#
#
#
# Elastic Compliance Matrix: (Units=1/GPa)
#
#
# Indices 1 2 3 4 5 6 
#
# 1 0.013454 -0.000599 -0.003426 0.000000 0.000000 0.000000
# 2 -0.000599 0.026274 -0.004961 0.000000 0.000000 0.000000
# 3 -0.003426 -0.004961 0.008892 0.000000 0.000000 0.000000
# 4 0.000000 0.000000 0.000000 0.066314 0.000000 0.000000
# 5 0.000000 0.000000 0.000000 0.000000 0.033224 0.000000
# 6 0.000000 0.000000 0.000000 0.000000 0.000000 0.042670
#
#
# Mechanical properties :
#
#
# Convention : Reuss Voigt Hill
#
# Bulk Modulus (GPa) = 32.63069 46.51747 39.57408
# Shear Modulus (GPa) = 22.82913 26.78440 24.80677
#
# Velocity S-wave (km/s) = 3.48626 3.77621 3.63412
# Velocity P-wave (km/s) = 5.79461 6.61652 6.21916
#
# Compressibility (1/GPa) = 0.03064600
#
# Stress axis : x y z
#
# Youngs Moduli (GPa) = 74.32826 38.05979 112.45586
#
# Poissons Ratio (x) = 0.02281 0.38533
# Poissons Ratio (y) = 0.04455 0.55795
# Poissons Ratio (z) = 0.25469 0.18883
#
# Static dielectric constant tensor:
#      x y z
#    x 3.544840 0.000000 0.000000 
#    y 0.000000 3.397910 0.000000 
#    z 0.000000 0.000000 3.471840 
# 
# 
# High freq. dielectric constant tensor:
#      x y z
#    x 1.728350 0.000000 0.000000 
#    y 0.000000 1.720930 0.000000 
#    z 0.000000 0.000000 1.727320 
# 
# From -- ./inp_files/17569.got.cif
#   From: 2010.03.12/outbox.cif.g09.slc.cpg/sg47_9_cif.got.tgz:17569.got - 2010.04.14 03:12:58.
