data_PCOD8194160
_publ_section_title
;
Structure prediction by ZEFSAII (Michael W. Deem and Ramdas Pophale) SiO2 
 PCOD8194160
Probable space group: P M M M
;
_chemical_formula_sum "Si O2"
_cell_formula_units_Z 46
_cell_length_a 24.887213
_cell_length_b 12.019639
_cell_length_c 9.035609
_cell_angle_alpha 90.000000
_cell_angle_beta 90.000000
_cell_angle_gamma 90.000000
_cell_volume 2702.869753
_symmetry_space_group_name_H-M "P M M M"
_symmetry_group_IT_number 47
_symmetry_cell_setting 'orthorhombic'
loop_
_space_group_symop_operation_xyz
x,y,z
-x,-y,z
x,-y,-z
-x,y,-z
-x,-y,-z
x,y,-z
-x,y,z
x,-y,z
loop_
_atom_site_type_symbol
_atom_site_label
_atom_site_fract_x
_atom_site_fract_y
_atom_site_fract_z
Si Si1 0.287500 0.368816 0.828814
Si Si2 0.119750 0.500000 0.835209
Si Si3 0.500000 0.632746 0.832580
Si Si4 0.819170 0.307001 0.326340
Si Si5 0.000000 0.746921 0.331502
Si Si6 0.899188 0.123344 0.673816
Si Si7 0.000000 0.500000 0.763825
Si Si8 0.394676 0.632368 0.667036
O O1 0.279863 0.500000 0.807339
O O2 0.239024 0.308142 0.746967
O O3 0.342466 0.325986 0.755206
O O4 0.288465 0.335256 0.000000
O O5 0.139670 0.393173 0.746517
O O6 0.055165 0.500000 0.856906
O O7 0.145424 0.500000 0.000000
O O8 0.500000 0.500000 0.832421
O O9 0.447473 0.679096 0.748885
O O10 0.500000 0.678129 0.000000
O O11 0.814614 0.334900 0.500000
O O12 0.842683 0.184368 0.295940
O O13 0.947356 0.802238 0.255632
O O14 0.000000 0.783677 0.500000
O O15 0.000000 0.613127 0.330454
O O16 0.908336 0.112925 0.500000
O O17 0.898124 0.000000 0.745967
O O18 0.393115 0.679024 0.500000
O O19 0.396308 0.500000 0.665860
#
# Coordination Sequence:
#
# PCOD8194160 Si02
#       8
#     8   4   4   8   4   8   2   8
#     4  10  19  30  44  64  92 125 156 193 242 294
#     4  12  24  37  50  69  98 130 155 189 241 298
#     4   9  15  23  35  53  81 119 162 203 242 285
#     4  11  21  33  52  74  94 121 157 201 241 287
#     4  10  18  29  50  78 103 123 151 195 239 286
#     4   9  18  32  50  73  98 124 155 194 241 288
#     4  12  22  34  50  74  97 132 157 192 237 298
#     4   9  16  25  38  57  83 118 161 205 240 278
#
# _framework density 17.018948000000002
#
# number of rings (size 3 to 8) (size 9 to 14) (size 15 to 20)
#    0.000    2.000    2.609    2.609    0.000    5.565 
#    0.000    0.000    0.000    2.087    0.000    1.217 
#    0.000    0.000    0.000    0.783    0.000   16.261 
#
# Total GULP energy -570222.060749 kJ/mol
# GULP energy per Si atom -12396.131755 kJ/mol
# Density = 1.698021 g / cm^3
# Si number density = 17.018948 Si / 1000 Ang^3
#
#
#
# Elastic Constant Matrix: (Units=GPa)
#
#
# Indices 1 2 3 4 5 6 
#
# 1 164.4020 45.8674 67.3413 0.0000 0.0000 0.0000
# 2 45.8674 84.2704 27.6226 0.0000 0.0000 0.0000
# 3 67.3413 27.6226 116.1257 0.0000 0.0000 0.0000
# 4 0.0000 0.0000 0.0000 3.6272 0.0000 0.0000
# 5 0.0000 0.0000 0.0000 0.0000 23.8251 0.0000
# 6 0.0000 0.0000 0.0000 0.0000 0.0000 6.7768
#
#
#
# Elastic Compliance Matrix: (Units=1/GPa)
#
#
# Indices 1 2 3 4 5 6 
#
# 1 0.008781 -0.003373 -0.004290 0.000000 0.000000 0.000000
# 2 -0.003373 0.014166 -0.001413 0.000000 0.000000 0.000000
# 3 -0.004290 -0.001413 0.011435 0.000000 0.000000 0.000000
# 4 0.000000 0.000000 0.000000 0.275692 0.000000 0.000000
# 5 0.000000 0.000000 0.000000 0.000000 0.041972 0.000000
# 6 0.000000 0.000000 0.000000 0.000000 0.000000 0.147563
#
#
# Mechanical properties :
#
#
# Convention : Reuss Voigt Hill
#
# Bulk Modulus (GPa) = 61.61731 71.82896 66.72314
# Shear Modulus (GPa) = 9.55709 21.77694 15.66702
#
# Velocity S-wave (km/s) = 2.37229 3.58099 3.03737
# Velocity P-wave (km/s) = 6.61720 7.70681 7.18270
#
# Compressibility (1/GPa) = 0.01622920
#
# Stress axis : x y z
#
# Youngs Moduli (GPa) = 113.88395 70.59203 87.44973
#
# Poissons Ratio (x) = 0.23812 0.37513
# Poissons Ratio (y) = 0.38416 0.12361
# Poissons Ratio (z) = 0.48852 0.09978
#
# Static dielectric constant tensor:
#      x y z
#    x 3.362760 0.000000 0.000000 
#    y 0.000000 2.896450 0.000000 
#    z 0.000000 0.000000 3.116140 
# 
# 
# High freq. dielectric constant tensor:
#      x y z
#    x 1.670760 0.000000 0.000000 
#    y 0.000000 1.598050 0.000000 
#    z 0.000000 0.000000 1.649270 
# 
# From -- ./inp_files/12408.got.cif
#   From: 2010.03.12/outbox.cif.g09.slc.cpg/sg47_7_cif.got.tgz:12408.got - 2010.04.14 03:12:58.
