data_PCOD8194871
_publ_section_title
;
Structure prediction by ZEFSAII (Michael W. Deem and Ramdas Pophale) SiO2 
 PCOD8194871
Probable space group: P M M M
;
_chemical_formula_sum "Si O2"
_cell_formula_units_Z 52
_cell_length_a 27.992466
_cell_length_b 13.894951
_cell_length_c 8.183040
_cell_angle_alpha 90.000000
_cell_angle_beta 90.000000
_cell_angle_gamma 90.000000
_cell_volume 3182.825677
_symmetry_space_group_name_H-M "P M M M"
_symmetry_group_IT_number 47
_symmetry_cell_setting 'orthorhombic'
loop_
_space_group_symop_operation_xyz
x,y,z
-x,-y,z
x,-y,-z
-x,y,-z
-x,-y,-z
x,y,-z
-x,y,z
x,-y,z
loop_
_atom_site_type_symbol
_atom_site_label
_atom_site_fract_x
_atom_site_fract_y
_atom_site_fract_z
Si Si1 0.198260 0.892504 0.191170
Si Si2 0.052568 0.606290 0.691981
Si Si3 0.615671 0.886899 0.310690
Si Si4 0.446742 0.886252 0.000000
Si Si5 0.713067 0.217327 0.686649
Si Si6 0.857268 0.711224 0.191184
Si Si7 0.764573 0.605710 0.190849
O O1 0.246368 0.861602 0.281348
O O2 0.154330 0.822145 0.237023
O O3 0.183921 0.000000 0.245266
O O4 0.209535 0.885426 0.000000
O O5 0.049790 0.600300 0.500000
O O6 0.066425 0.500000 0.761104
O O7 0.091339 0.685402 0.738823
O O8 0.000000 0.636061 0.760218
O O9 0.599094 0.864400 0.500000
O O10 0.577970 0.853460 0.171347
O O11 0.662928 0.828532 0.262098
O O12 0.626584 0.000000 0.295247
O O13 0.500000 0.841790 0.000000
O O14 0.449136 0.000000 0.000000
O O15 0.712831 0.245949 0.500000
O O16 0.722106 0.318156 0.779226
O O17 0.814582 0.645446 0.266078
O O18 0.859300 0.695512 0.000000
O O19 0.753154 0.500000 0.266980
O O20 0.771261 0.595027 0.000000
#
# Coordination Sequence:
#
# PCOD8194871 Si02
#       7
#     8   8   8   4   8   8   8
#     4   9  18  31  46  63  86 118 150 181 217 259
#     4   9  18  31  45  62  84 109 138 173 215 265
#     4   9  18  30  44  66  96 126 157 197 236 273
#     4   9  18  30  46  68  91 125 167 197 233 282
#     4  10  19  29  43  66  93 120 152 187 224 266
#     4   9  17  29  45  65  86 109 141 179 218 260
#     4   9  18  31  45  63  90 122 151 180 217 265
#
# _framework density 16.337685
#
# number of rings (size 3 to 8) (size 9 to 14) (size 15 to 20)
#    0.000    2.846    0.000    2.769    2.154    5.231 
#    0.000    2.308    0.000    0.462    0.000    3.231 
#    0.000    1.231    0.000    3.385    0.000    0.154 
#
# Total GULP energy -644335.263039 kJ/mol
# GULP energy per Si atom -12391.062751 kJ/mol
# Density = 1.630050 g / cm^3
# Si number density = 16.337685 Si / 1000 Ang^3
#
#
#
# Elastic Constant Matrix: (Units=GPa)
#
#
# Indices 1 2 3 4 5 6 
#
# 1 121.4012 54.4040 41.4208 0.0000 0.0000 0.0000
# 2 54.4040 103.5667 24.7285 0.0000 0.0000 0.0000
# 3 41.4208 24.7285 46.1113 0.0000 0.0000 0.0000
# 4 0.0000 0.0000 0.0000 16.9249 0.0000 0.0000
# 5 0.0000 0.0000 0.0000 0.0000 21.6510 0.0000
# 6 0.0000 0.0000 0.0000 0.0000 0.0000 19.6129
#
#
#
# Elastic Compliance Matrix: (Units=1/GPa)
#
#
# Indices 1 2 3 4 5 6 
#
# 1 0.013752 -0.004902 -0.009724 0.000000 0.000000 0.000000
# 2 -0.004902 0.012821 -0.002472 0.000000 0.000000 0.000000
# 3 -0.009724 -0.002472 0.031747 0.000000 0.000000 0.000000
# 4 0.000000 0.000000 0.000000 0.059084 0.000000 0.000000
# 5 0.000000 0.000000 0.000000 0.000000 0.046187 0.000000
# 6 0.000000 0.000000 0.000000 0.000000 0.000000 0.050987
#
#
# Mechanical properties :
#
#
# Convention : Reuss Voigt Hill
#
# Bulk Modulus (GPa) = 41.45342 56.90954 49.18148
# Shear Modulus (GPa) = 19.46921 21.67283 20.57102
#
# Velocity S-wave (km/s) = 3.45581 3.64614 3.55225
# Velocity P-wave (km/s) = 6.43051 7.25498 6.85515
#
# Compressibility (1/GPa) = 0.02412346
#
# Stress axis : x y z
#
# Youngs Moduli (GPa) = 72.71874 77.99731 31.49879
#
# Poissons Ratio (x) = 0.38234 0.30629
# Poissons Ratio (y) = 0.35647 0.07787
# Poissons Ratio (z) = 0.70711 0.19283
#
# Static dielectric constant tensor:
#      x y z
#    x 3.317710 0.000000 0.000000 
#    y 0.000000 3.184100 0.000000 
#    z 0.000000 0.000000 3.080370 
# 
# 
# High freq. dielectric constant tensor:
#      x y z
#    x 1.607820 0.000000 0.000000 
#    y 0.000000 1.611790 0.000000 
#    z 0.000000 0.000000 1.629360 
# 
# From -- ./inp_files/12507.got.cif
#   From: 2010.03.12/outbox.cif.g09.slc.cpg/sg47_7_cif.got.tgz:12507.got - 2010.04.14 03:12:58.
