data_PCOD8194182
_publ_section_title
;
Structure prediction by ZEFSAII (Michael W. Deem and Ramdas Pophale) SiO2 
 PCOD8194182
Probable space group: P M M M
;
_chemical_formula_sum "Si O2"
_cell_formula_units_Z 64
_cell_length_a 9.315873
_cell_length_b 20.163627
_cell_length_c 20.073157
_cell_angle_alpha 90.000000
_cell_angle_beta 90.000000
_cell_angle_gamma 90.000000
_cell_volume 3770.577709
_symmetry_space_group_name_H-M "P M M M"
_symmetry_group_IT_number 47
_symmetry_cell_setting 'orthorhombic'
loop_
_space_group_symop_operation_xyz
x,y,z
-x,-y,z
x,-y,-z
-x,y,-z
-x,-y,-z
x,y,-z
-x,y,z
x,-y,z
loop_
_atom_site_type_symbol
_atom_site_label
_atom_site_fract_x
_atom_site_fract_y
_atom_site_fract_z
Si Si1 0.834719 0.425471 0.626614
Si Si2 0.167025 0.285411 0.073268
Si Si3 0.663118 0.751886 0.199610
Si Si4 0.337064 0.690511 0.574531
Si Si5 0.663964 0.397555 0.241918
Si Si6 0.162893 0.428468 0.117223
Si Si7 0.328944 0.808836 0.334513
Si Si8 0.329201 0.925983 0.574790
O O1 0.821816 0.500000 0.597893
O O2 0.759334 0.375309 0.575713
O O3 0.755819 0.421802 0.696675
O O4 0.000000 0.405098 0.635996
O O5 0.246676 0.244652 0.131364
O O6 0.202738 0.364416 0.072903
O O7 0.000000 0.272921 0.084787
O O8 0.214297 0.259201 0.000000
O O9 0.500000 0.767629 0.179302
O O10 0.676502 0.681200 0.234788
O O11 0.718763 0.803850 0.256458
O O12 0.334504 0.719858 0.500000
O O13 0.500000 0.671895 0.595737
O O14 0.271831 0.745566 0.624088
O O15 0.500000 0.420027 0.250919
O O16 0.727970 0.433208 0.177901
O O17 0.176266 0.500000 0.078741
O O18 0.000000 0.419549 0.143714
O O19 0.500000 0.808532 0.338373
O O20 0.266664 0.875172 0.369755
O O21 0.276822 0.906756 0.500000
O O22 0.500000 0.923919 0.576112
O O23 0.274907 0.000000 0.592924
#
# Coordination Sequence:
#
# PCOD8194182 Si02
#       8
#     8   8   8   8   8   8   8   8
#     4  11  23  35  46  60  82 112 145 189 245 293
#     4   9  18  31  45  62  86 115 146 184 230 278
#     4   9  17  29  46  66  89 116 148 186 227 268
#     4  10  20  34  51  68  86 113 151 192 232 274
#     4  10  18  30  46  64  84 108 143 186 230 276
#     4   9  17  28  42  61  84 109 139 175 222 281
#     4   9  15  27  45  67  95 125 156 189 224 263
#     4   8  13  21  37  66 103 138 164 184 215 264
#
# _framework density 16.973526
#
# number of rings (size 3 to 8) (size 9 to 14) (size 15 to 20)
#    0.000    2.625    1.250    1.875    0.000    5.750 
#    0.000    2.500    0.000    0.000    0.000    3.500 
#    0.000    2.500    0.000   13.125    0.000    7.250 
#
# Total GULP energy -793070.955415 kJ/mol
# GULP energy per Si atom -12391.733678 kJ/mol
# Density = 1.693489 g / cm^3
# Si number density = 16.973526 Si / 1000 Ang^3
#
#
#
# Elastic Constant Matrix: (Units=GPa)
#
#
# Indices 1 2 3 4 5 6 
#
# 1 59.2842 25.4254 36.0364 0.0000 0.0000 0.0000
# 2 25.4254 78.1942 53.6146 0.0000 0.0000 0.0000
# 3 36.0364 53.6146 122.9204 0.0000 0.0000 0.0000
# 4 0.0000 0.0000 0.0000 13.7887 0.0000 0.0000
# 5 0.0000 0.0000 0.0000 0.0000 19.7122 0.0000
# 6 0.0000 0.0000 0.0000 0.0000 0.0000 7.0912
#
#
#
# Elastic Compliance Matrix: (Units=1/GPa)
#
#
# Indices 1 2 3 4 5 6 
#
# 1 0.021276 -0.003768 -0.004594 0.000000 0.000000 0.000000
# 2 -0.003768 0.018913 -0.007144 0.000000 0.000000 0.000000
# 3 -0.004594 -0.007144 0.012598 0.000000 0.000000 0.000000
# 4 0.000000 0.000000 0.000000 0.072523 0.000000 0.000000
# 5 0.000000 0.000000 0.000000 0.000000 0.050730 0.000000
# 6 0.000000 0.000000 0.000000 0.000000 0.000000 0.141019
#
#
# Mechanical properties :
#
#
# Convention : Reuss Voigt Hill
#
# Bulk Modulus (GPa) = 45.92618 54.50573 50.21595
# Shear Modulus (GPa) = 14.07139 17.80660 15.93899
#
# Velocity S-wave (km/s) = 2.88239 3.24247 3.06772
# Velocity P-wave (km/s) = 6.18012 6.79706 6.49592
#
# Compressibility (1/GPa) = 0.02177407
#
# Stress axis : x y z
#
# Youngs Moduli (GPa) = 47.00021 52.87477 79.37537
#
# Poissons Ratio (x) = 0.19925 0.36465
# Poissons Ratio (y) = 0.17711 0.56709
# Poissons Ratio (z) = 0.21592 0.37776
#
# Static dielectric constant tensor:
#      x y z
#    x 3.002870 0.000000 0.000000 
#    y 0.000000 3.158700 0.000000 
#    z 0.000000 0.000000 3.219830 
# 
# 
# High freq. dielectric constant tensor:
#      x y z
#    x 1.628330 0.000000 0.000000 
#    y 0.000000 1.621350 0.000000 
#    z 0.000000 0.000000 1.650030 
# 
# From -- ./inp_files/11846.got.cif
#   From: 2010.03.12/outbox.cif.g09.slc.cpg/sg47_6_cif.got.tgz:11846.got - 2010.04.14 03:12:58.
