data_PCOD8194600
_publ_section_title
;
Structure prediction by ZEFSAII (Michael W. Deem and Ramdas Pophale) SiO2 
 PCOD8194600
Probable space group: P M M M
;
_chemical_formula_sum "Si O2"
_cell_formula_units_Z 48
_cell_length_a 9.423215
_cell_length_b 14.906423
_cell_length_c 17.354038
_cell_angle_alpha 90.000000
_cell_angle_beta 90.000000
_cell_angle_gamma 90.000000
_cell_volume 2437.659743
_symmetry_space_group_name_H-M "P M M M"
_symmetry_group_IT_number 47
_symmetry_cell_setting 'orthorhombic'
loop_
_space_group_symop_operation_xyz
x,y,z
-x,-y,z
x,-y,-z
-x,y,-z
-x,-y,-z
x,y,-z
-x,y,z
x,-y,z
loop_
_atom_site_type_symbol
_atom_site_label
_atom_site_fract_x
_atom_site_fract_y
_atom_site_fract_z
Si Si1 0.337512 0.599977 0.224639
Si Si2 0.157373 0.848746 0.138427
Si Si3 0.168257 0.398188 0.500000
Si Si4 0.830925 0.709166 0.350254
Si Si5 0.167583 0.098571 0.693103
Si Si6 0.649768 0.899486 0.000000
Si Si7 0.842107 0.648573 0.910865
O O1 0.500000 0.634069 0.219106
O O2 0.332047 0.500000 0.260431
O O3 0.247358 0.666890 0.277264
O O4 0.270881 0.592241 0.138506
O O5 0.218624 0.879950 0.220477
O O6 0.262451 0.883645 0.075623
O O7 0.150665 0.742658 0.132461
O O8 0.000000 0.889154 0.125049
O O9 0.229713 0.500000 0.500000
O O10 0.222046 0.343832 0.425577
O O11 0.000000 0.401931 0.500000
O O12 0.787498 0.815195 0.359159
O O13 0.000000 0.699608 0.337259
O O14 0.000000 0.091966 0.691274
O O15 0.229451 0.000000 0.666426
O O16 0.500000 0.843642 0.000000
O O17 0.602731 0.000000 0.000000
O O18 0.000000 0.604860 0.908685
O O19 0.791422 0.657582 0.000000
#
# Coordination Sequence:
#
# PCOD8194600 Si02
#       7
#     8   8   4   8   8   4   8
#     4  11  24  39  56  81 112 147 186 229 285 345
#     4  10  18  33  53  72  97 136 185 232 279 330
#     4   9  18  32  56  90 118 145 185 233 284 329
#     4  10  19  36  60  85 115 148 186 231 275 330
#     4   9  17  30  52  81 109 140 180 224 271 324
#     4  11  23  33  43  69 106 141 182 233 287 336
#     4  10  20  36  57  80 105 139 189 239 282 333
#
# _framework density 19.691015
#
# number of rings (size 3 to 8) (size 9 to 14) (size 15 to 20)
#    0.000    2.000    2.500    1.750    0.000    4.667 
#    0.000    2.500    0.000    4.500    0.000    0.000 
#    0.000    1.333    0.000    0.000    0.000    0.000 
#
# Total GULP energy -594698.109726 kJ/mol
# GULP energy per Si atom -12389.543953 kJ/mol
# Density = 1.964620 g / cm^3
# Si number density = 19.691015 Si / 1000 Ang^3
#
#
#
# Elastic Constant Matrix: (Units=GPa)
#
#
# Indices 1 2 3 4 5 6 
#
# 1 74.1453 26.7334 36.0476 0.0000 0.0000 0.0000
# 2 26.7334 140.6210 55.8133 0.0000 0.0000 0.0000
# 3 36.0476 55.8133 106.4624 0.0000 0.0000 0.0000
# 4 0.0000 0.0000 0.0000 43.0939 0.0000 0.0000
# 5 0.0000 0.0000 0.0000 0.0000 -14.2792 0.0000
# 6 0.0000 0.0000 0.0000 0.0000 0.0000 15.6575
#
#
#
# Elastic Compliance Matrix: (Units=1/GPa)
#
#
# Indices 1 2 3 4 5 6 
#
# 1 0.016290 -0.001146 -0.004915 0.000000 0.000000 0.000000
# 2 -0.001146 0.009060 -0.004362 0.000000 0.000000 0.000000
# 3 -0.004915 -0.004362 0.013344 0.000000 0.000000 0.000000
# 4 0.000000 0.000000 0.000000 0.023205 0.000000 0.000000
# 5 0.000000 0.000000 0.000000 0.000000 -0.070032 0.000000
# 6 0.000000 0.000000 0.000000 0.000000 0.000000 0.063867
#
#
# Mechanical properties :
#
#
# Convention : Reuss Voigt Hill
#
# Bulk Modulus (GPa) = 56.02730 62.04635 59.03683
# Shear Modulus (GPa) = 60.58449 22.40340 41.49395
#
# Velocity S-wave (km/s) = 5.55287 3.37671 4.59546
# Velocity P-wave (km/s) = 8.34431 6.83968 7.62918
#
# Compressibility (1/GPa) = 0.01784844
#
# Stress axis : x y z
#
# Youngs Moduli (GPa) = 61.38851 110.36957 74.94096
#
# Poissons Ratio (x) = 0.12650 0.36831
# Poissons Ratio (y) = 0.07036 0.32689
# Poissons Ratio (z) = 0.30171 0.48142
#
# Static dielectric constant tensor:
#      x y z
#    x 3.409140 0.000000 0.000000 
#    y 0.000000 3.973940 0.000000 
#    z 0.000000 0.000000 3.519720 
# 
# 
# High freq. dielectric constant tensor:
#      x y z
#    x 1.732440 0.000000 0.000000 
#    y 0.000000 1.778830 0.000000 
#    z 0.000000 0.000000 1.750970 
# 
# From -- ./inp_files/9180.got.cif
#   From: 2010.03.12/outbox.cif.g09.slc.cpg/sg47_5_cif.got.tgz:9180.got - 2010.04.14 03:12:58.
