data_PCOD8194448
_publ_section_title
;
Structure prediction by ZEFSAII (Michael W. Deem and Ramdas Pophale) SiO2 
 PCOD8194448
Probable space group: P M M M
;
_chemical_formula_sum "Si O2"
_cell_formula_units_Z 44
_cell_length_a 14.918071
_cell_length_b 7.714738
_cell_length_c 18.542624
_cell_angle_alpha 90.000000
_cell_angle_beta 90.000000
_cell_angle_gamma 90.000000
_cell_volume 2134.052225
_symmetry_space_group_name_H-M "P M M M"
_symmetry_group_IT_number 47
_symmetry_cell_setting 'orthorhombic'
loop_
_space_group_symop_operation_xyz
x,y,z
-x,-y,z
x,-y,-z
-x,y,-z
-x,-y,-z
x,y,-z
-x,y,z
x,-y,z
loop_
_atom_site_type_symbol
_atom_site_label
_atom_site_fract_x
_atom_site_fract_y
_atom_site_fract_z
Si Si1 0.098883 0.696625 0.914838
Si Si2 0.277748 0.808572 0.847810
Si Si3 0.100003 0.706015 0.580176
Si Si4 0.393722 0.500000 0.085627
Si Si5 0.400901 0.706104 0.579485
Si Si6 0.251841 0.706282 0.685533
O O1 0.111102 0.500000 0.887599
O O2 0.179429 0.807067 0.882990
O O3 0.000000 0.765107 0.890249
O O4 0.105290 0.705254 0.000000
O O5 0.347031 0.669540 0.880575
O O6 0.260810 0.785776 0.763704
O O7 0.318436 0.000000 0.862102
O O8 0.130048 0.770204 0.500000
O O9 0.102925 0.500000 0.580247
O O10 0.163978 0.776417 0.643594
O O11 0.000000 0.773503 0.596858
O O12 0.500000 0.500000 0.104108
O O13 0.377637 0.500000 0.000000
O O14 0.371656 0.771533 0.500000
O O15 0.500000 0.774664 0.597941
O O16 0.398809 0.500000 0.580022
O O17 0.335106 0.779232 0.639800
O O18 0.251376 0.500000 0.691755
#
# Coordination Sequence:
#
# PCOD8194448 Si02
#       6
#     8   8   8   4   8   8
#     4   9  18  36  64  94 124 160 200 244 298 362
#     4  12  25  41  63  96 133 167 206 255 313 375
#     4   8  14  25  45  76 113 158 215 268 306 349
#     4  11  26  50  75  95 120 157 205 259 315 380
#     4   8  14  25  45  75 105 137 186 245 300 354
#     4  10  18  31  51  79 114 159 201 246 305 364
#
# _framework density 20.618053
#
# number of rings (size 3 to 8) (size 9 to 14) (size 15 to 20)
#    0.000    2.455    1.818    2.727    0.000    5.818 
#    0.000    3.636    0.000    2.182    0.000    2.545 
#    0.000    0.000    0.000    0.000    0.000    0.000 
#
# Total GULP energy -545278.867728 kJ/mol
# GULP energy per Si atom -12392.701539 kJ/mol
# Density = 2.057113 g / cm^3
# Si number density = 20.618053 Si / 1000 Ang^3
#
#
#
# Elastic Constant Matrix: (Units=GPa)
#
#
# Indices 1 2 3 4 5 6 
#
# 1 148.5638 45.0241 73.7996 0.0000 0.0000 0.0000
# 2 45.0241 86.5045 38.5297 0.0000 0.0000 0.0000
# 3 73.7996 38.5297 117.8509 0.0000 0.0000 0.0000
# 4 0.0000 0.0000 0.0000 -22.9648 0.0000 0.0000
# 5 0.0000 0.0000 0.0000 0.0000 18.6368 0.0000
# 6 0.0000 0.0000 0.0000 0.0000 0.0000 4.7333
#
#
#
# Elastic Compliance Matrix: (Units=1/GPa)
#
#
# Indices 1 2 3 4 5 6 
#
# 1 0.010369 -0.002932 -0.005535 0.000000 0.000000 0.000000
# 2 -0.002932 0.014359 -0.002859 0.000000 0.000000 0.000000
# 3 -0.005535 -0.002859 0.012886 0.000000 0.000000 0.000000
# 4 0.000000 0.000000 0.000000 -0.043545 0.000000 0.000000
# 5 0.000000 0.000000 0.000000 0.000000 0.053657 0.000000
# 6 0.000000 0.000000 0.000000 0.000000 0.000000 0.211267
#
#
# Mechanical properties :
#
#
# Convention : Reuss Voigt Hill
#
# Bulk Modulus (GPa) = 66.82762 74.18067 70.50414
# Shear Modulus (GPa) = 17.44398 13.11879 15.28138
#
# Velocity S-wave (km/s) = 2.91186 2.52519 2.72539
# Velocity P-wave (km/s) = 6.61723 6.67523 6.64629
#
# Compressibility (1/GPa) = 0.01496387
#
# Stress axis : x y z
#
# Youngs Moduli (GPa) = 96.44153 69.64140 77.60475
#
# Poissons Ratio (x) = 0.20417 0.42952
# Poissons Ratio (y) = 0.28274 0.22185
# Poissons Ratio (z) = 0.53378 0.19908
#
# Static dielectric constant tensor:
#      x y z
#    x 3.308720 0.000000 0.000000 
#    y 0.000000 3.416480 0.000000 
#    z 0.000000 0.000000 3.784330 
# 
# 
# High freq. dielectric constant tensor:
#      x y z
#    x 1.813560 0.000000 0.000000 
#    y 0.000000 1.774320 0.000000 
#    z 0.000000 0.000000 1.805830 
# 
# From -- ./inp_files/27878.got.cif
#   From: 2010.03.12/outbox.cif.g09.slc.cpg/sg47_14_cif.got.tgz:27878.got - 2010.04.14 03:12:58.
