data_PCOD8194642
_publ_section_title
;
Structure prediction by ZEFSAII (Michael W. Deem and Ramdas Pophale) SiO2 
 PCOD8194642
Probable space group: P M M M
;
_chemical_formula_sum "Si O2"
_cell_formula_units_Z 64
_cell_length_a 18.060647
_cell_length_b 9.130702
_cell_length_c 26.797865
_cell_angle_alpha 90.000000
_cell_angle_beta 90.000000
_cell_angle_gamma 90.000000
_cell_volume 4419.139061
_symmetry_space_group_name_H-M "P M M M"
_symmetry_group_IT_number 47
_symmetry_cell_setting 'orthorhombic'
loop_
_space_group_symop_operation_xyz
x,y,z
-x,-y,z
x,-y,-z
-x,y,-z
-x,-y,-z
x,y,-z
-x,y,z
x,-y,z
loop_
_atom_site_type_symbol
_atom_site_label
_atom_site_fract_x
_atom_site_fract_y
_atom_site_fract_z
Si Si1 0.702499 0.161664 0.797145
Si Si2 0.154491 0.825909 0.255826
Si Si3 0.087798 0.836058 0.554900
Si Si4 0.676915 0.330905 0.944243
Si Si5 0.912786 0.669766 0.348661
Si Si6 0.417090 0.327378 0.149446
Si Si7 0.913818 0.332392 0.163299
Si Si8 0.199592 0.163948 0.895725
O O1 0.758427 0.213222 0.753250
O O2 0.632358 0.267595 0.804648
O O3 0.751281 0.160105 0.846534
O O4 0.671260 0.000000 0.785705
O O5 0.132366 0.765442 0.309405
O O6 0.102648 0.750989 0.214678
O O7 0.142068 0.000000 0.252832
O O8 0.117438 0.787565 0.500000
O O9 0.114911 0.722034 0.596795
O O10 0.000000 0.837181 0.553749
O O11 0.116500 0.000000 0.567546
O O12 0.696267 0.500000 0.934535
O O13 0.615633 0.277764 0.904256
O O14 0.752988 0.240520 0.939186
O O15 0.645022 0.306243 0.000000
O O16 0.893100 0.500000 0.342075
O O17 0.000000 0.697961 0.341274
O O18 0.500000 0.263240 0.153595
O O19 0.418115 0.500000 0.154231
O O20 0.886700 0.500000 0.168653
O O21 0.873745 0.257176 0.116102
O O22 0.000000 0.324130 0.151850
O O23 0.177468 0.000000 0.912515
#
# Coordination Sequence:
#
# PCOD8194642 Si02
#       8
#     8   8   8   8   8   8   8   8
#     4   8  16  29  42  57  76 101 131 158 187 225
#     4  10  19  29  41  57  78 104 134 166 199 237
#     4   8  14  25  39  52  68  96 135 175 213 251
#     4   9  17  29  45  63  83 107 130 153 185 222
#     4  10  19  27  36  54  79 105 135 173 215 252
#     4   9  17  28  43  64  86 106 129 155 182 217
#     4  10  19  29  42  60  80 100 124 157 197 239
#     4   9  17  29  44  60  78 101 129 158 187 225
#
# _framework density 14.48246
#
# number of rings (size 3 to 8) (size 9 to 14) (size 15 to 20)
#    0.000    2.875    0.000    3.000    0.000    7.750 
#    0.000    2.500    0.000    0.375    0.000    6.125 
#    0.000    0.000    0.000    0.000    0.000    0.625 
#
# Total GULP energy -793289.348111 kJ/mol
# GULP energy per Si atom -12395.146064 kJ/mol
# Density = 1.444950 g / cm^3
# Si number density = 14.482460 Si / 1000 Ang^3
#
#
#
# Elastic Constant Matrix: (Units=GPa)
#
#
# Indices 1 2 3 4 5 6 
#
# 1 75.0291 42.1393 36.6735 0.0000 0.0000 0.0000
# 2 42.1393 79.1011 31.3584 0.0000 0.0000 0.0000
# 3 36.6735 31.3584 57.4946 0.0000 0.0000 0.0000
# 4 0.0000 0.0000 0.0000 22.1710 0.0000 0.0000
# 5 0.0000 0.0000 0.0000 0.0000 11.4124 0.0000
# 6 0.0000 0.0000 0.0000 0.0000 0.0000 18.1706
#
#
#
# Elastic Compliance Matrix: (Units=1/GPa)
#
#
# Indices 1 2 3 4 5 6 
#
# 1 0.022866 -0.008165 -0.010132 0.000000 0.000000 0.000000
# 2 -0.008165 0.019045 -0.005179 0.000000 0.000000 0.000000
# 3 -0.010132 -0.005179 0.026681 0.000000 0.000000 0.000000
# 4 0.000000 0.000000 0.000000 0.045104 0.000000 0.000000
# 5 0.000000 0.000000 0.000000 0.000000 0.087624 0.000000
# 6 0.000000 0.000000 0.000000 0.000000 0.000000 0.055034
#
#
# Mechanical properties :
#
#
# Convention : Reuss Voigt Hill
#
# Bulk Modulus (GPa) = 46.21255 47.99636 47.10445
# Shear Modulus (GPa) = 16.10199 17.11438 16.60818
#
# Velocity S-wave (km/s) = 3.33802 3.44136 3.39009
# Velocity P-wave (km/s) = 6.84362 7.00026 6.92238
#
# Compressibility (1/GPa) = 0.02163914
#
# Stress axis : x y z
#
# Youngs Moduli (GPa) = 43.73234 52.50743 37.47996
#
# Poissons Ratio (x) = 0.42871 0.37976
# Poissons Ratio (y) = 0.35706 0.19413
# Poissons Ratio (z) = 0.44311 0.27196
#
# Static dielectric constant tensor:
#      x y z
#    x 2.733800 0.000000 0.000000 
#    y 0.000000 2.990430 0.000000 
#    z 0.000000 0.000000 2.830130 
# 
# 
# High freq. dielectric constant tensor:
#      x y z
#    x 1.519260 0.000000 0.000000 
#    y 0.000000 1.565040 0.000000 
#    z 0.000000 0.000000 1.529640 
# 
# From -- ./inp_files/10255.got.cif
#   From: 2010.03.12/outbox.cif.g09.slc.cpg/sg47_6_cif.got.tgz:10255.got - 2010.04.14 03:12:58.
