data_PCOD8194941
_publ_section_title
;
Structure prediction by ZEFSAII (Michael W. Deem and Ramdas Pophale) SiO2 
 PCOD8194941
Probable space group: P M M M
;
_chemical_formula_sum "Si O2"
_cell_formula_units_Z 56
_cell_length_a 20.226602
_cell_length_b 9.143499
_cell_length_c 15.508808
_cell_angle_alpha 90.000000
_cell_angle_beta 90.000000
_cell_angle_gamma 90.000000
_cell_volume 2868.228653
_symmetry_space_group_name_H-M "P M M M"
_symmetry_group_IT_number 47
_symmetry_cell_setting 'orthorhombic'
loop_
_space_group_symop_operation_xyz
x,y,z
-x,-y,z
x,-y,-z
-x,y,-z
-x,-y,-z
x,y,-z
-x,y,z
x,-y,z
loop_
_atom_site_type_symbol
_atom_site_label
_atom_site_fract_x
_atom_site_fract_y
_atom_site_fract_z
Si Si1 0.073026 0.825762 0.727169
Si Si2 0.399730 0.333301 0.905343
Si Si3 0.746530 0.336620 0.864222
Si Si4 0.301838 0.669374 0.673866
Si Si5 0.873503 0.827482 0.093726
Si Si6 0.815074 0.831601 0.402414
Si Si7 0.573827 0.831423 0.264247
O O1 0.086376 0.764300 0.824216
O O2 0.127987 0.765575 0.660379
O O3 0.000000 0.770784 0.699234
O O4 0.075117 0.000000 0.726611
O O5 0.416085 0.500000 0.877038
O O6 0.321355 0.313785 0.914480
O O7 0.429110 0.226187 0.833986
O O8 0.430316 0.299324 0.000000
O O9 0.774324 0.500000 0.878632
O O10 0.734621 0.306681 0.763917
O O11 0.797938 0.222253 0.901602
O O12 0.311893 0.500000 0.650519
O O13 0.253997 0.744637 0.604346
O O14 0.374424 0.743148 0.676422
O O15 0.874147 0.000000 0.099572
O O16 0.903259 0.778202 0.000000
O O17 0.841180 0.815933 0.500000
O O18 0.800998 0.000000 0.378659
O O19 0.500000 0.814066 0.303578
O O20 0.595789 0.000000 0.262292
#
# Coordination Sequence:
#
# PCOD8194941 Si02
#       7
#     8   8   8   8   8   8   8
#     4   9  18  33  52  77 113 150 182 224 274 323
#     4   9  18  31  46  68 101 142 188 235 282 333
#     4   9  17  30  48  70  98 135 178 224 273 319
#     4  10  20  35  57  81 107 142 181 223 273 329
#     4  10  19  29  46  73 103 140 185 228 271 318
#     4  10  20  35  59  88 113 140 177 222 275 333
#     4  10  21  35  52  76 107 144 184 228 279 332
#
# _framework density 19.524246999999999
#
# number of rings (size 3 to 8) (size 9 to 14) (size 15 to 20)
#    0.000    2.429    1.429    2.143    0.000    5.714 
#    0.000    4.286    0.000    2.143    0.000    5.000 
#    0.000    0.000    0.000    0.000    0.000    0.000 
#
# Total GULP energy -694111.257564 kJ/mol
# GULP energy per Si atom -12394.843885 kJ/mol
# Density = 1.947981 g / cm^3
# Si number density = 19.524247 Si / 1000 Ang^3
#
#
#
# Elastic Constant Matrix: (Units=GPa)
#
#
# Indices 1 2 3 4 5 6 
#
# 1 120.1263 39.2763 44.8417 0.0000 0.0000 0.0000
# 2 39.2763 62.9137 28.1064 0.0000 0.0000 0.0000
# 3 44.8417 28.1064 87.9753 0.0000 0.0000 0.0000
# 4 0.0000 0.0000 0.0000 18.5878 0.0000 0.0000
# 5 0.0000 0.0000 0.0000 0.0000 6.5652 0.0000
# 6 0.0000 0.0000 0.0000 0.0000 0.0000 5.4256
#
#
#
# Elastic Compliance Matrix: (Units=1/GPa)
#
#
# Indices 1 2 3 4 5 6 
#
# 1 0.011665 -0.005396 -0.004222 0.000000 0.000000 0.000000
# 2 -0.005396 0.021037 -0.003971 0.000000 0.000000 0.000000
# 3 -0.004222 -0.003971 0.014787 0.000000 0.000000 0.000000
# 4 0.000000 0.000000 0.000000 0.053799 0.000000 0.000000
# 5 0.000000 0.000000 0.000000 0.000000 0.152317 0.000000
# 6 0.000000 0.000000 0.000000 0.000000 0.000000 0.184312
#
#
# Mechanical properties :
#
#
# Convention : Reuss Voigt Hill
#
# Bulk Modulus (GPa) = 49.23071 55.05158 52.14115
# Shear Modulus (GPa) = 10.59625 16.70179 13.64902
#
# Velocity S-wave (km/s) = 2.33217 2.92796 2.64688
# Velocity P-wave (km/s) = 5.70280 6.29987 6.00875
#
# Compressibility (1/GPa) = 0.02031252
#
# Stress axis : x y z
#
# Youngs Moduli (GPa) = 85.72810 47.53436 67.62627
#
# Poissons Ratio (x) = 0.25650 0.28549
# Poissons Ratio (y) = 0.46261 0.26852
# Poissons Ratio (z) = 0.36191 0.18874
#
# Static dielectric constant tensor:
#      x y z
#    x 3.552700 0.000000 0.000000 
#    y 0.000000 3.355980 0.000000 
#    z 0.000000 0.000000 3.606660 
# 
# 
# High freq. dielectric constant tensor:
#      x y z
#    x 1.757160 0.000000 0.000000 
#    y 0.000000 1.736040 0.000000 
#    z 0.000000 0.000000 1.747110 
# 
# From -- ./inp_files/25155.got.cif
#   From: 2010.03.12/outbox.cif.g09.slc.cpg/sg47_13_cif.got.tgz:25155.got - 2010.04.14 03:12:58.
