data_PCOD8194939
_publ_section_title
;
Structure prediction by ZEFSAII (Michael W. Deem and Ramdas Pophale) SiO2 
 PCOD8194939
Probable space group: P M M M
;
_chemical_formula_sum "Si O2"
_cell_formula_units_Z 40
_cell_length_a 9.404796
_cell_length_b 29.412965
_cell_length_c 7.857707
_cell_angle_alpha 90.000000
_cell_angle_beta 90.000000
_cell_angle_gamma 90.000000
_cell_volume 2173.621977
_symmetry_space_group_name_H-M "P M M M"
_symmetry_group_IT_number 47
_symmetry_cell_setting 'orthorhombic'
loop_
_space_group_symop_operation_xyz
x,y,z
-x,-y,z
x,-y,-z
-x,y,-z
-x,-y,-z
x,y,-z
-x,y,z
x,-y,z
loop_
_atom_site_type_symbol
_atom_site_label
_atom_site_fract_x
_atom_site_fract_y
_atom_site_fract_z
Si Si1 0.158236 0.788928 0.699434
Si Si2 0.668978 0.449226 0.000000
Si Si3 0.663680 0.388364 0.689667
Si Si4 0.169526 0.948805 0.000000
Si Si5 0.164356 0.693971 0.193635
Si Si6 0.829888 0.888162 0.690535
O O1 0.154675 0.780753 0.500000
O O2 0.232294 0.744732 0.783814
O O3 0.231870 0.837846 0.738463
O O4 0.000000 0.791367 0.776298
O O5 0.723483 0.423731 0.170390
O O6 0.733922 0.500000 0.000000
O O7 0.500000 0.451900 0.000000
O O8 0.680211 0.409507 0.500000
O O9 0.500000 0.377013 0.730175
O O10 0.749786 0.341451 0.692778
O O11 0.227029 0.923902 0.829882
O O12 0.000000 0.948728 0.000000
O O13 0.229364 0.000000 0.000000
O O14 0.000000 0.694055 0.253631
O O15 0.179877 0.678388 0.000000
O O16 0.778879 0.902542 0.500000
O O17 0.000000 0.885756 0.691245
#
# Coordination Sequence:
#
# PCOD8194939 Si02
#       6
#     8   4   8   4   8   8
#     4   8  14  24  37  55  79 107 140 179 220 261
#     4   9  18  34  54  75  99 123 153 197 236 269
#     4  10  20  34  53  75  99 128 158 189 231 278
#     4   9  16  22  29  42  60  88 127 171 218 263
#     4  10  19  29  46  72  98 126 158 192 231 274
#     4   8  14  23  33  45  64  92 127 169 214 256
#
# _framework density 18.402464999999999
#
# number of rings (size 3 to 8) (size 9 to 14) (size 15 to 20)
#    0.000    3.000    1.000    1.800    1.400    2.000 
#    0.000    4.000    0.000    1.200    0.000    1.400 
#    0.000    0.000    0.000    0.000    0.000    2.000 
#
# Total GULP energy -495634.534543 kJ/mol
# GULP energy per Si atom -12390.863364 kJ/mol
# Density = 1.836058 g / cm^3
# Si number density = 18.402465 Si / 1000 Ang^3
#
#
#
# Elastic Constant Matrix: (Units=GPa)
#
#
# Indices 1 2 3 4 5 6 
#
# 1 17.4966 20.1441 15.8959 0.0000 0.0000 0.0000
# 2 20.1441 156.7420 79.5311 0.0000 0.0000 0.0000
# 3 15.8959 79.5311 123.2347 0.0000 0.0000 0.0000
# 4 0.0000 0.0000 0.0000 29.0552 0.0000 0.0000
# 5 0.0000 0.0000 0.0000 0.0000 10.9830 0.0000
# 6 0.0000 0.0000 0.0000 0.0000 0.0000 -0.7431
#
#
#
# Elastic Compliance Matrix: (Units=1/GPa)
#
#
# Indices 1 2 3 4 5 6 
#
# 1 0.068874 -0.006459 -0.004716 0.000000 0.000000 0.000000
# 2 -0.006459 0.010092 -0.005680 0.000000 0.000000 0.000000
# 3 -0.004716 -0.005680 0.012388 0.000000 0.000000 0.000000
# 4 0.000000 0.000000 0.000000 0.034417 0.000000 0.000000
# 5 0.000000 0.000000 0.000000 0.000000 0.091050 0.000000
# 6 0.000000 0.000000 0.000000 0.000000 0.000000 -1.345685
#
#
# Mechanical properties :
#
#
# Convention : Reuss Voigt Hill
#
# Bulk Modulus (GPa) = 17.34730 58.73507 38.04119
# Shear Modulus (GPa) = -4.64710 19.98584 7.66937
#
# Velocity S-wave (km/s) = -1.59083 3.29909 2.04368
# Velocity P-wave (km/s) = 2.46430 6.81896 5.12694
#
# Compressibility (1/GPa) = 0.05764587
#
# Stress axis : x y z
#
# Youngs Moduli (GPa) = 14.51921 99.08902 80.72036
#
# Poissons Ratio (x) = 0.63999 0.38066
# Poissons Ratio (y) = 0.09378 0.45848
# Poissons Ratio (z) = 0.06847 0.56281
#
# Static dielectric constant tensor:
#      x y z
#    x 2.667530 0.000000 0.000000 
#    y 0.000000 3.610300 0.000000 
#    z 0.000000 0.000000 3.517430 
# 
# 
# High freq. dielectric constant tensor:
#      x y z
#    x 1.623180 0.000000 0.000000 
#    y 0.000000 1.719580 0.000000 
#    z 0.000000 0.000000 1.726650 
# 
# From -- ./inp_files/1807.got.cif
#   From: 2010.03.12/outbox.cif.g09.slc.cpg/sg47_1_cif.got.tgz:1807.got - 2010.04.14 03:12:58.
