data_PCOD8194633
_publ_section_title
;
Structure prediction by ZEFSAII (Michael W. Deem and Ramdas Pophale) SiO2 
 PCOD8194633
Probable space group: P M M M
;
_chemical_formula_sum "Si O2"
_cell_formula_units_Z 64
_cell_length_a 23.835971
_cell_length_b 15.406788
_cell_length_c 9.049147
_cell_angle_alpha 90.000000
_cell_angle_beta 90.000000
_cell_angle_gamma 90.000000
_cell_volume 3323.170303
_symmetry_space_group_name_H-M "P M M M"
_symmetry_group_IT_number 47
_symmetry_cell_setting 'orthorhombic'
loop_
_space_group_symop_operation_xyz
x,y,z
-x,-y,z
x,-y,-z
-x,y,-z
-x,-y,-z
x,y,-z
-x,y,z
x,-y,z
loop_
_atom_site_type_symbol
_atom_site_label
_atom_site_fract_x
_atom_site_fract_y
_atom_site_fract_z
Si Si1 0.753756 0.645077 0.171415
Si Si2 0.865019 0.095460 0.824158
Si Si3 0.435382 0.748473 0.327274
Si Si4 0.063995 0.257298 0.175466
Si Si5 0.629389 0.402685 0.830749
Si Si6 0.253297 0.843082 0.825350
Si Si7 0.864180 0.401930 0.669220
Si Si8 0.627186 0.098267 0.173550
O O1 0.695618 0.596463 0.202035
O O2 0.746859 0.743671 0.224257
O O3 0.801545 0.600030 0.266923
O O4 0.771349 0.639879 0.000000
O O5 0.906963 0.169239 0.763904
O O6 0.802337 0.111177 0.760514
O O7 0.885585 0.000000 0.771979
O O8 0.863633 0.100450 0.000000
O O9 0.425402 0.758486 0.500000
O O10 0.500000 0.734261 0.286746
O O11 0.402050 0.664326 0.273425
O O12 0.415332 0.836821 0.251613
O O13 0.094326 0.340823 0.240533
O O14 0.000000 0.256245 0.229392
O O15 0.068630 0.262733 0.000000
O O16 0.606581 0.500000 0.801247
O O17 0.618809 0.374289 0.000000
O O18 0.309681 0.888013 0.763987
O O19 0.252864 0.852087 0.000000
O O20 0.862838 0.371147 0.500000
O O21 0.887000 0.500000 0.682814
O O22 0.608175 0.000000 0.207834
O O23 0.625620 0.118435 0.000000
#
# Coordination Sequence:
#
# PCOD8194633 Si02
#       8
#     8   8   8   8   8   8   8   8
#     4  10  18  34  61  88 116 147 180 224 279 338
#     4   9  16  28  51  84 117 144 173 217 273 329
#     4  11  25  42  58  79 113 157 199 239 285 340
#     4  10  21  37  57  82 110 144 191 240 283 330
#     4  10  21  38  62  90 116 146 187 236 290 345
#     4   9  15  28  54  86 116 143 174 220 278 334
#     4  11  24  39  56  81 113 149 188 230 280 338
#     4  10  20  36  61  90 116 145 188 241 291 340
#
# _framework density 19.258718999999999
#
# number of rings (size 3 to 8) (size 9 to 14) (size 15 to 20)
#    0.000    2.000    2.500    1.500    0.000    6.250 
#    0.000    5.000    0.000    0.375    0.000    0.875 
#    0.000    0.000    0.000    0.000    0.000    0.000 
#
# Total GULP energy -793615.346183 kJ/mol
# GULP energy per Si atom -12400.239784 kJ/mol
# Density = 1.921488 g / cm^3
# Si number density = 19.258719 Si / 1000 Ang^3
#
#
#
# Elastic Constant Matrix: (Units=GPa)
#
#
# Indices 1 2 3 4 5 6 
#
# 1 99.7282 50.5513 37.1755 0.0000 0.0000 0.0000
# 2 50.5513 128.0303 33.0702 0.0000 0.0000 0.0000
# 3 37.1755 33.0702 40.3349 0.0000 0.0000 0.0000
# 4 0.0000 0.0000 0.0000 13.3441 0.0000 0.0000
# 5 0.0000 0.0000 0.0000 0.0000 10.5902 0.0000
# 6 0.0000 0.0000 0.0000 0.0000 0.0000 -1.8639
#
#
#
# Elastic Compliance Matrix: (Units=1/GPa)
#
#
# Indices 1 2 3 4 5 6 
#
# 1 0.016267 -0.003235 -0.012341 0.000000 0.000000 0.000000
# 2 -0.003235 0.010553 -0.005670 0.000000 0.000000 0.000000
# 3 -0.012341 -0.005670 0.040815 0.000000 0.000000 0.000000
# 4 0.000000 0.000000 0.000000 0.074940 0.000000 0.000000
# 5 0.000000 0.000000 0.000000 0.000000 0.094427 0.000000
# 6 0.000000 0.000000 0.000000 0.000000 0.000000 -0.536508
#
#
# Mechanical properties :
#
#
# Convention : Reuss Voigt Hill
#
# Bulk Modulus (GPa) = 39.77206 56.63194 48.20200
# Shear Modulus (GPa) = -20.10995 14.23383 -2.93806
#
# Velocity S-wave (km/s) = -3.23491 2.72156 -1.23648
# Velocity P-wave (km/s) = 2.59681 6.27260 4.80047
#
# Compressibility (1/GPa) = 0.02514328
#
# Stress axis : x y z
#
# Youngs Moduli (GPa) = 61.47251 94.76241 24.50068
#
# Poissons Ratio (x) = 0.30660 0.30235
# Poissons Ratio (y) = 0.19889 0.13892
# Poissons Ratio (z) = 0.75860 0.53731
#
# Static dielectric constant tensor:
#      x y z
#    x 3.609480 0.000000 0.000000 
#    y 0.000000 3.666770 0.000000 
#    z 0.000000 0.000000 3.177740 
# 
# 
# High freq. dielectric constant tensor:
#      x y z
#    x 1.749920 0.000000 0.000000 
#    y 0.000000 1.766190 0.000000 
#    z 0.000000 0.000000 1.709830 
# 
# From -- ./inp_files/7818.got.cif
#   From: 2010.03.12/outbox.cif.g09.slc.cpg/sg47_4_cif.got.tgz:7818.got - 2010.04.14 03:12:58.
