data_PCOD8194913
_publ_section_title
;
Structure prediction by ZEFSAII (Michael W. Deem and Ramdas Pophale) SiO2 
 PCOD8194913
Probable space group: P M M M
;
_chemical_formula_sum "Si O2"
_cell_formula_units_Z 52
_cell_length_a 9.644273
_cell_length_b 14.351455
_cell_length_c 26.045103
_cell_angle_alpha 90.000000
_cell_angle_beta 90.000000
_cell_angle_gamma 90.000000
_cell_volume 3604.885776
_symmetry_space_group_name_H-M "P M M M"
_symmetry_group_IT_number 47
_symmetry_cell_setting 'orthorhombic'
loop_
_space_group_symop_operation_xyz
x,y,z
-x,-y,z
x,-y,-z
-x,y,-z
-x,-y,-z
x,y,-z
-x,y,z
x,-y,z
loop_
_atom_site_type_symbol
_atom_site_label
_atom_site_fract_x
_atom_site_fract_y
_atom_site_fract_z
Si Si1 0.655366 0.389945 0.000000
Si Si2 0.157979 0.604986 0.094272
Si Si3 0.834970 0.896036 0.241384
Si Si4 0.341002 0.108667 0.058454
Si Si5 0.344731 0.889228 0.443291
Si Si6 0.154282 0.888949 0.646378
Si Si7 0.840079 0.209282 0.857360
O O1 0.739239 0.358387 0.949887
O O2 0.644973 0.500000 0.000000
O O3 0.500000 0.345871 0.000000
O O4 0.195739 0.500000 0.112874
O O5 0.175023 0.678032 0.141086
O O6 0.000000 0.607030 0.073218
O O7 0.783331 0.861239 0.297560
O O8 0.780212 0.826583 0.197129
O O9 0.000000 0.898485 0.243608
O O10 0.778313 0.000000 0.229303
O O11 0.500000 0.127887 0.073814
O O12 0.241474 0.164673 0.095737
O O13 0.306565 0.000000 0.063376
O O14 0.314257 0.142423 0.000000
O O15 0.290876 0.859141 0.500000
O O16 0.500000 0.851386 0.434806
O O17 0.248230 0.845702 0.398916
O O18 0.344266 0.000000 0.439310
O O19 0.000000 0.847986 0.639020
O O20 0.149289 0.000000 0.643066
O O21 0.000000 0.178829 0.863111
#
# Coordination Sequence:
#
# PCOD8194913 Si02
#       7
#     4   8   8   8   8   8   8
#     4   9  17  29  45  61  74  93 120 145 175 222
#     4   9  18  31  44  60  83 103 119 148 189 228
#     4   8  14  25  39  55  74  93 119 159 195 216
#     4   9  19  34  46  57  78 103 121 147 193 235
#     4   8  13  20  29  43  65  91 118 149 181 209
#     4   8  13  21  33  47  64  88 116 148 185 216
#     4  10  19  29  45  63  76  97 130 159 186 225
#
# _framework density 14.424868
#
# number of rings (size 3 to 8) (size 9 to 14) (size 15 to 20)
#    0.000    3.308    0.000    2.538    1.077    3.077 
#    0.000    3.077    0.000    2.769    0.000    0.000 
#    0.000    0.000    0.000    0.000    0.000    0.769 
#
# Total GULP energy -644348.065592 kJ/mol
# GULP energy per Si atom -12391.308954 kJ/mol
# Density = 1.439204 g / cm^3
# Si number density = 14.424868 Si / 1000 Ang^3
#
#
#
# Elastic Constant Matrix: (Units=GPa)
#
#
# Indices 1 2 3 4 5 6 
#
# 1 55.5984 23.0716 48.5737 0.0000 0.0000 0.0000
# 2 23.0716 42.4817 46.3715 0.0000 0.0000 0.0000
# 3 48.5737 46.3715 126.7296 0.0000 0.0000 0.0000
# 4 0.0000 0.0000 0.0000 5.9700 0.0000 0.0000
# 5 0.0000 0.0000 0.0000 0.0000 10.8706 0.0000
# 6 0.0000 0.0000 0.0000 0.0000 0.0000 10.1420
#
#
#
# Elastic Compliance Matrix: (Units=1/GPa)
#
#
# Indices 1 2 3 4 5 6 
#
# 1 0.027870 -0.005787 -0.008565 0.000000 0.000000 0.000000
# 2 -0.005787 0.040396 -0.012563 0.000000 0.000000 0.000000
# 3 -0.008565 -0.012563 0.015770 0.000000 0.000000 0.000000
# 4 0.000000 0.000000 0.000000 0.167504 0.000000 0.000000
# 5 0.000000 0.000000 0.000000 0.000000 0.091991 0.000000
# 6 0.000000 0.000000 0.000000 0.000000 0.000000 0.098600
#
#
# Mechanical properties :
#
#
# Convention : Reuss Voigt Hill
#
# Bulk Modulus (GPa) = 33.10526 51.20482 42.15504
# Shear Modulus (GPa) = 9.88082 12.51604 11.19843
#
# Velocity S-wave (km/s) = 2.62006 2.94882 2.78929
# Velocity P-wave (km/s) = 5.67035 6.86795 6.29768
#
# Compressibility (1/GPa) = 0.03020668
#
# Stress axis : x y z
#
# Youngs Moduli (GPa) = 35.88058 24.75491 63.40958
#
# Poissons Ratio (x) = 0.14326 0.54308
# Poissons Ratio (y) = 0.20765 0.79662
# Poissons Ratio (z) = 0.30731 0.31100
#
# Static dielectric constant tensor:
#      x y z
#    x 2.876980 0.000000 0.000000 
#    y 0.000000 2.576580 0.000000 
#    z 0.000000 0.000000 3.023920 
# 
# 
# High freq. dielectric constant tensor:
#      x y z
#    x 1.543020 0.000000 0.000000 
#    y 0.000000 1.505790 0.000000 
#    z 0.000000 0.000000 1.543430 
# 
# From -- ./inp_files/33398.got.cif
#   From: 2010.03.12/outbox.cif.g09.slc.cpg/sg47_17_cif.got.tgz:33398.got - 2010.04.14 03:12:58.
