data_PCOD8194526
_publ_section_title
;
Structure prediction by ZEFSAII (Michael W. Deem and Ramdas Pophale) SiO2 
 PCOD8194526
Probable space group: P M M M
;
_chemical_formula_sum "Si O2"
_cell_formula_units_Z 40
_cell_length_a 11.906960
_cell_length_b 20.623892
_cell_length_c 9.073787
_cell_angle_alpha 90.000000
_cell_angle_beta 90.000000
_cell_angle_gamma 90.000000
_cell_volume 2228.230429
_symmetry_space_group_name_H-M "P M M M"
_symmetry_group_IT_number 47
_symmetry_cell_setting 'orthorhombic'
loop_
_space_group_symop_operation_xyz
x,y,z
-x,-y,z
x,-y,-z
-x,y,-z
-x,-y,-z
x,y,-z
-x,y,z
x,-y,z
loop_
_atom_site_type_symbol
_atom_site_label
_atom_site_fract_x
_atom_site_fract_y
_atom_site_fract_z
Si Si1 0.000000 0.736094 0.825258
Si Si2 0.239991 0.306046 0.175482
Si Si3 0.782387 0.927348 0.668437
Si Si4 0.373938 0.428413 0.824839
Si Si5 0.370849 0.191147 0.327990
Si Si6 0.000000 0.117510 0.174539
O O1 0.111347 0.699141 0.768425
O O2 0.000000 0.809122 0.762997
O O3 0.000000 0.738374 0.000000
O O4 0.289322 0.373948 0.236968
O O5 0.312366 0.247357 0.236538
O O6 0.246660 0.302693 0.000000
O O7 0.819509 0.915563 0.500000
O O8 0.685157 0.877367 0.714418
O O9 0.890457 0.919161 0.769989
O O10 0.734552 0.000000 0.690230
O O11 0.500000 0.413289 0.768020
O O12 0.336053 0.500000 0.769261
O O13 0.373219 0.427300 0.000000
O O14 0.357653 0.206718 0.500000
O O15 0.500000 0.187095 0.280369
O O16 0.000000 0.116458 0.000000
#
# Coordination Sequence:
#
# PCOD8194526 Si02
#       6
#     4   8   8   8   8   4
#     4   9  18  30  47  73 101 125 158 203 243 283
#     4  10  18  32  52  73  99 132 166 201 243 291
#     4  10  21  36  53  73  98 129 165 203 245 298
#     4   8  14  25  44  72 101 128 162 202 240 281
#     4  10  21  35  51  73  99 126 161 206 250 293
#     4  11  20  34  53  75 102 129 159 206 253 289
#
# _framework density 17.951464999999999
#
# number of rings (size 3 to 8) (size 9 to 14) (size 15 to 20)
#    0.000    2.400    2.000    1.800    0.000    3.200 
#    0.000    3.000    0.000    3.600    0.000    5.600 
#    0.000    1.600    0.000    0.000    0.000    0.000 
#
# Total GULP energy -495928.198624 kJ/mol
# GULP energy per Si atom -12398.204966 kJ/mol
# Density = 1.791061 g / cm^3
# Si number density = 17.951465 Si / 1000 Ang^3
#
#
#
# Elastic Constant Matrix: (Units=GPa)
#
#
# Indices 1 2 3 4 5 6 
#
# 1 149.6111 87.1607 29.6836 0.0000 0.0000 0.0000
# 2 87.1607 167.5315 26.9435 0.0000 0.0000 0.0000
# 3 29.6836 26.9435 28.2654 0.0000 0.0000 0.0000
# 4 0.0000 0.0000 0.0000 17.5837 0.0000 0.0000
# 5 0.0000 0.0000 0.0000 0.0000 16.8625 0.0000
# 6 0.0000 0.0000 0.0000 0.0000 0.0000 21.7274
#
#
#
# Elastic Compliance Matrix: (Units=1/GPa)
#
#
# Indices 1 2 3 4 5 6 
#
# 1 0.010637 -0.004414 -0.006963 0.000000 0.000000 0.000000
# 2 -0.004414 0.008882 -0.003831 0.000000 0.000000 0.000000
# 3 -0.006963 -0.003831 0.046343 0.000000 0.000000 0.000000
# 4 0.000000 0.000000 0.000000 0.056871 0.000000 0.000000
# 5 0.000000 0.000000 0.000000 0.000000 0.059303 0.000000
# 6 0.000000 0.000000 0.000000 0.000000 0.000000 0.046025
#
#
# Mechanical properties :
#
#
# Convention : Reuss Voigt Hill
#
# Bulk Modulus (GPa) = 28.21206 70.33150 49.27178
# Shear Modulus (GPa) = 18.49855 24.67607 21.58731
#
# Velocity S-wave (km/s) = 3.21359 3.71158 3.47152
# Velocity P-wave (km/s) = 5.43317 7.59154 6.60117
#
# Compressibility (1/GPa) = 0.03544583
#
# Stress axis : x y z
#
# Youngs Moduli (GPa) = 94.00976 112.59125 21.57839
#
# Poissons Ratio (x) = 0.49701 0.15025
# Poissons Ratio (y) = 0.41499 0.08266
# Poissons Ratio (z) = 0.65459 0.43128
#
# Static dielectric constant tensor:
#      x y z
#    x 3.554530 0.000000 0.000000 
#    y 0.000000 3.631570 0.000000 
#    z 0.000000 0.000000 2.984860 
# 
# 
# High freq. dielectric constant tensor:
#      x y z
#    x 1.696690 0.000000 0.000000 
#    y 0.000000 1.704620 0.000000 
#    z 0.000000 0.000000 1.658550 
# 
# From -- ./inp_files/4094.got.cif
#   From: 2010.03.12/outbox.cif.g09.slc.cpg/sg47_3_cif.got.tgz:4094.got - 2010.04.14 03:12:58.
