data_PCOD8194326
_publ_section_title
;
Structure prediction by ZEFSAII (Michael W. Deem and Ramdas Pophale) SiO2 
 PCOD8194326
Probable space group: P M M M
;
_chemical_formula_sum "Si O2"
_cell_formula_units_Z 64
_cell_length_a 14.176497
_cell_length_b 31.405513
_cell_length_c 9.200441
_cell_angle_alpha 90.000000
_cell_angle_beta 90.000000
_cell_angle_gamma 90.000000
_cell_volume 4096.221822
_symmetry_space_group_name_H-M "P M M M"
_symmetry_group_IT_number 47
_symmetry_cell_setting 'orthorhombic'
loop_
_space_group_symop_operation_xyz
x,y,z
-x,-y,z
x,-y,-z
-x,y,-z
-x,-y,-z
x,y,-z
-x,y,z
x,-y,z
loop_
_atom_site_type_symbol
_atom_site_label
_atom_site_fract_x
_atom_site_fract_y
_atom_site_fract_z
Si Si1 0.106698 0.420256 0.669762
Si Si2 0.106668 0.331847 0.167921
Si Si3 0.612507 0.125286 0.338954
Si Si4 0.609146 0.619033 0.668455
Si Si5 0.273043 0.703038 0.329065
Si Si6 0.387940 0.046393 0.837170
Si Si7 0.721692 0.452193 0.832571
Si Si8 0.395160 0.218090 0.326675
O O1 0.131825 0.416503 0.500000
O O2 0.121169 0.374533 0.741052
O O3 0.178439 0.452036 0.748135
O O4 0.000000 0.437050 0.692315
O O5 0.176025 0.297281 0.238565
O O6 0.000000 0.314842 0.183114
O O7 0.132299 0.340426 0.000000
O O8 0.654233 0.120748 0.500000
O O9 0.500000 0.122763 0.342626
O O10 0.656922 0.085954 0.249742
O O11 0.641148 0.171525 0.272307
O O12 0.623578 0.607495 0.500000
O O13 0.500000 0.626559 0.705693
O O14 0.664422 0.661887 0.709283
O O15 0.647098 0.579943 0.762821
O O16 0.251274 0.705525 0.500000
O O17 0.326563 0.744892 0.271604
O O18 0.500000 0.050371 0.836556
O O19 0.359135 0.000000 0.770707
O O20 0.348944 0.049449 0.000000
O O21 0.680714 0.500000 0.819939
O O22 0.738489 0.439520 0.000000
O O23 0.399714 0.217511 0.500000
O O24 0.500000 0.227344 0.265288
#
# Coordination Sequence:
#
# PCOD8194326 Si02
#       8
#     8   8   8   8   8   8   8   8
#     4  10  20  35  56  79  99 119 145 177 213 255
#     4  10  20  33  50  72  98 123 143 170 212 259
#     4   8  13  21  33  49  71 101 137 176 215 255
#     4  10  21  36  54  75  95 118 151 188 221 253
#     4  10  18  30  51  74  93 116 147 181 215 257
#     4   8  13  20  29  42  63  94 133 178 225 264
#     4  11  24  39  54  73  98 126 151 177 215 261
#     4   8  14  25  41  62  88 116 145 179 220 261
#
# _framework density 15.624155
#
# number of rings (size 3 to 8) (size 9 to 14) (size 15 to 20)
#    0.000    2.625    1.250    2.625    0.000    5.000 
#    0.000    4.375    0.000    1.875    0.000    0.000 
#    0.000    0.000    0.000    0.000    0.000    0.625 
#
# Total GULP energy -793281.602206 kJ/mol
# GULP energy per Si atom -12395.025034 kJ/mol
# Density = 1.558859 g / cm^3
# Si number density = 15.624155 Si / 1000 Ang^3
#
#
#
# Elastic Constant Matrix: (Units=GPa)
#
#
# Indices 1 2 3 4 5 6 
#
# 1 66.7008 40.5227 33.8049 0.0000 0.0000 0.0000
# 2 40.5227 124.5057 48.6757 0.0000 0.0000 0.0000
# 3 33.8049 48.6757 75.4179 0.0000 0.0000 0.0000
# 4 0.0000 0.0000 0.0000 10.8711 0.0000 0.0000
# 5 0.0000 0.0000 0.0000 0.0000 18.1167 0.0000
# 6 0.0000 0.0000 0.0000 0.0000 0.0000 7.6281
#
#
#
# Elastic Compliance Matrix: (Units=1/GPa)
#
#
# Indices 1 2 3 4 5 6 
#
# 1 0.020925 -0.004204 -0.006666 0.000000 0.000000 0.000000
# 2 -0.004204 0.011587 -0.005594 0.000000 0.000000 0.000000
# 3 -0.006666 -0.005594 0.019858 0.000000 0.000000 0.000000
# 4 0.000000 0.000000 0.000000 0.091987 0.000000 0.000000
# 5 0.000000 0.000000 0.000000 0.000000 0.055198 0.000000
# 6 0.000000 0.000000 0.000000 0.000000 0.000000 0.131094
#
#
# Mechanical properties :
#
#
# Convention : Reuss Voigt Hill
#
# Bulk Modulus (GPa) = 51.43605 56.95899 54.19752
# Shear Modulus (GPa) = 13.51145 16.89792 15.20469
#
# Velocity S-wave (km/s) = 2.94390 3.29222 3.12292
# Velocity P-wave (km/s) = 6.67441 7.14048 6.91138
#
# Compressibility (1/GPa) = 0.01944162
#
# Stress axis : x y z
#
# Youngs Moduli (GPa) = 47.78996 86.30276 50.35855
#
# Poissons Ratio (x) = 0.36286 0.33567
# Poissons Ratio (y) = 0.20093 0.28170
# Poissons Ratio (z) = 0.31855 0.48277
#
# Static dielectric constant tensor:
#      x y z
#    x 2.819290 0.000000 0.000000 
#    y 0.000000 3.157980 0.000000 
#    z 0.000000 0.000000 2.999160 
# 
# 
# High freq. dielectric constant tensor:
#      x y z
#    x 1.560890 0.000000 0.000000 
#    y 0.000000 1.594980 0.000000 
#    z 0.000000 0.000000 1.594530 
# 
# From -- ./inp_files/8267.got.cif
#   From: 2010.03.12/outbox.cif.g09.slc.cpg/sg47_5_cif.got.tgz:8267.got - 2010.04.14 03:12:58.
