data_PCOD8194355
_publ_section_title
;
Structure prediction by ZEFSAII (Michael W. Deem and Ramdas Pophale) SiO2 
 PCOD8194355
Probable space group: P M M M
;
_chemical_formula_sum "Si O2"
_cell_formula_units_Z 48
_cell_length_a 9.428570
_cell_length_b 17.763678
_cell_length_c 14.920486
_cell_angle_alpha 90.000000
_cell_angle_beta 90.000000
_cell_angle_gamma 90.000000
_cell_volume 2498.973734
_symmetry_space_group_name_H-M "P M M M"
_symmetry_group_IT_number 47
_symmetry_cell_setting 'orthorhombic'
loop_
_space_group_symop_operation_xyz
x,y,z
-x,-y,z
x,-y,-z
-x,y,-z
-x,-y,-z
x,y,-z
-x,y,z
x,-y,z
loop_
_atom_site_type_symbol
_atom_site_label
_atom_site_fract_x
_atom_site_fract_y
_atom_site_fract_z
Si Si1 0.839558 0.416570 0.169563
Si Si2 0.168341 0.862984 0.228147
Si Si3 0.664744 0.912068 0.398310
Si Si4 0.158219 0.590227 0.500000
Si Si5 0.835308 0.260230 0.904448
Si Si6 0.343818 0.412762 0.659172
Si Si7 0.167462 0.000000 0.897832
O O1 0.815584 0.500000 0.126660
O O2 0.812738 0.350397 0.099092
O O3 0.726420 0.400938 0.245691
O O4 0.000000 0.411837 0.208674
O O5 0.243008 0.867718 0.324826
O O6 0.223781 0.785463 0.181138
O O7 0.000000 0.865505 0.245239
O O8 0.217989 0.927824 0.159131
O O9 0.706057 0.887037 0.500000
O O10 0.500000 0.894942 0.380874
O O11 0.696803 0.000000 0.386855
O O12 0.150856 0.500000 0.500000
O O13 0.241419 0.623696 0.414747
O O14 0.000000 0.623819 0.500000
O O15 0.000000 0.239957 0.907581
O O16 0.767315 0.234501 0.000000
O O17 0.500000 0.374771 0.657702
O O18 0.360317 0.500000 0.636119
O O19 0.000000 0.000000 0.906426
O O20 0.231199 0.000000 0.000000
#
# Coordination Sequence:
#
# PCOD8194355 Si02
#       7
#     8   8   8   4   8   8   4
#     4   9  17  30  49  71  95 127 170 216 262 313
#     4  10  18  30  51  79 107 137 175 216 255 298
#     4   9  18  33  53  77 107 143 177 209 252 305
#     4   9  15  23  39  65  95 123 153 192 241 300
#     4   9  18  32  51  76 105 135 170 217 269 314
#     4   9  16  26  42  65  92 121 154 196 247 301
#     4   9  16  26  44  73 106 138 171 205 244 295
#
# _framework density 19.207885000000001
#
# number of rings (size 3 to 8) (size 9 to 14) (size 15 to 20)
#    0.000    2.833    0.833    1.750    0.000    5.667 
#    0.000    3.333    1.833    4.000    0.000    2.333 
#    0.000    0.000    0.000    0.000    0.000    0.000 
#
# Total GULP energy -594689.992788 kJ/mol
# GULP energy per Si atom -12389.374850 kJ/mol
# Density = 1.916417 g / cm^3
# Si number density = 19.207885 Si / 1000 Ang^3
#
#
#
# Elastic Constant Matrix: (Units=GPa)
#
#
# Indices 1 2 3 4 5 6 
#
# 1 84.9548 20.9509 53.8662 0.0000 0.0000 0.0000
# 2 20.9509 85.7054 53.0338 0.0000 0.0000 0.0000
# 3 53.8662 53.0338 150.8675 0.0000 0.0000 0.0000
# 4 0.0000 0.0000 0.0000 10.9932 0.0000 0.0000
# 5 0.0000 0.0000 0.0000 0.0000 15.3625 0.0000
# 6 0.0000 0.0000 0.0000 0.0000 0.0000 11.1349
#
#
#
# Elastic Compliance Matrix: (Units=1/GPa)
#
#
# Indices 1 2 3 4 5 6 
#
# 1 0.015230 -0.000458 -0.005277 0.000000 0.000000 0.000000
# 2 -0.000458 0.014925 -0.005083 0.000000 0.000000 0.000000
# 3 -0.005277 -0.005083 0.010299 0.000000 0.000000 0.000000
# 4 0.000000 0.000000 0.000000 0.090965 0.000000 0.000000
# 5 0.000000 0.000000 0.000000 0.000000 0.065094 0.000000
# 6 0.000000 0.000000 0.000000 0.000000 0.000000 0.089808
#
#
# Mechanical properties :
#
#
# Convention : Reuss Voigt Hill
#
# Bulk Modulus (GPa) = 53.13840 64.13662 58.63751
# Shear Modulus (GPa) = 15.91196 20.40989 18.16092
#
# Velocity S-wave (km/s) = 2.88133 3.26326 3.07822
# Velocity P-wave (km/s) = 6.22851 6.90375 6.57480
#
# Compressibility (1/GPa) = 0.01881878
#
# Stress axis : x y z
#
# Youngs Moduli (GPa) = 65.66165 67.00080 97.09474
#
# Poissons Ratio (x) = 0.03067 0.51234
# Poissons Ratio (y) = 0.03005 0.49355
# Poissons Ratio (z) = 0.34648 0.34058
#
# Static dielectric constant tensor:
#      x y z
#    x 3.332710 0.000000 0.000000 
#    y 0.000000 3.336320 0.000000 
#    z 0.000000 0.000000 3.565570 
# 
# 
# High freq. dielectric constant tensor:
#      x y z
#    x 1.715080 0.000000 0.000000 
#    y 0.000000 1.719600 0.000000 
#    z 0.000000 0.000000 1.752090 
# 
# From -- ./inp_files/21122.got.cif
#   From: 2010.03.12/outbox.cif.g09.slc.cpg/sg47_11_cif.got.tgz:21122.got - 2010.04.14 03:12:58.
