data_PCOD8194942
_publ_section_title
;
Structure prediction by ZEFSAII (Michael W. Deem and Ramdas Pophale) SiO2 
 PCOD8194942
Probable space group: P M M M
;
_chemical_formula_sum "Si O2"
_cell_formula_units_Z 44
_cell_length_a 13.512204
_cell_length_b 9.116238
_cell_length_c 21.047141
_cell_angle_alpha 90.000000
_cell_angle_beta 90.000000
_cell_angle_gamma 90.000000
_cell_volume 2592.596669
_symmetry_space_group_name_H-M "P M M M"
_symmetry_group_IT_number 47
_symmetry_cell_setting 'orthorhombic'
loop_
_space_group_symop_operation_xyz
x,y,z
-x,-y,z
x,-y,-z
-x,y,-z
-x,-y,-z
x,y,-z
-x,y,z
x,-y,z
loop_
_atom_site_type_symbol
_atom_site_label
_atom_site_fract_x
_atom_site_fract_y
_atom_site_fract_z
Si Si1 0.610854 0.831557 0.197156
Si Si2 0.889581 0.333276 0.762963
Si Si3 0.299906 0.669852 0.312856
Si Si4 0.386734 0.828877 0.572023
Si Si5 0.885102 0.325981 0.000000
Si Si6 0.197830 0.828353 0.877641
O O1 0.500000 0.801853 0.171293
O O2 0.627638 0.736773 0.260060
O O3 0.688451 0.791724 0.141457
O O4 0.625210 0.000000 0.217519
O O5 0.874253 0.500000 0.787993
O O6 0.813972 0.299772 0.706000
O O7 0.873453 0.222199 0.820888
O O8 0.000000 0.310319 0.736154
O O9 0.325104 0.500000 0.317765
O O10 0.315346 0.741165 0.381322
O O11 0.357474 0.788119 0.500000
O O12 0.500000 0.784051 0.585260
O O13 0.372006 0.000000 0.584287
O O14 0.828949 0.262427 0.060472
O O15 0.875527 0.500000 0.000000
O O16 0.000000 0.277318 0.000000
O O17 0.181631 0.000000 0.890686
#
# Coordination Sequence:
#
# PCOD8194942 Si02
#       6
#     8   8   8   8   4   8
#     4   9  18  33  51  70  96 129 158 185 226 280
#     4   9  18  33  50  68  95 128 156 186 232 285
#     4  10  19  29  46  73  98 121 155 197 234 270
#     4   9  18  32  48  66  92 127 160 188 227 281
#     4  11  23  37  52  69  94 128 157 185 234 293
#     4  10  20  33  51  75  97 119 155 199 233 266
#
# _framework density 16.971401
#
# number of rings (size 3 to 8) (size 9 to 14) (size 15 to 20)
#    0.000    2.455    0.000    3.000    0.000    8.000 
#    0.000    1.364    0.000    3.273    0.000    3.818 
#    0.000    0.000    0.000    0.000    0.000    0.000 
#
# Total GULP energy -545628.245459 kJ/mol
# GULP energy per Si atom -12400.641942 kJ/mol
# Density = 1.693277 g / cm^3
# Si number density = 16.971401 Si / 1000 Ang^3
#
#
#
# Elastic Constant Matrix: (Units=GPa)
#
#
# Indices 1 2 3 4 5 6 
#
# 1 122.3481 47.6389 65.4820 0.0000 0.0000 0.0000
# 2 47.6389 76.7380 61.6231 0.0000 0.0000 0.0000
# 3 65.4820 61.6231 125.8889 0.0000 0.0000 0.0000
# 4 0.0000 0.0000 0.0000 27.5280 0.0000 0.0000
# 5 0.0000 0.0000 0.0000 0.0000 18.3792 0.0000
# 6 0.0000 0.0000 0.0000 0.0000 0.0000 25.1540
#
#
#
# Elastic Compliance Matrix: (Units=1/GPa)
#
#
# Indices 1 2 3 4 5 6 
#
# 1 0.012038 -0.004028 -0.004290 0.000000 0.000000 0.000000
# 2 -0.004028 0.022820 -0.009075 0.000000 0.000000 0.000000
# 3 -0.004290 -0.009075 0.014617 0.000000 0.000000 0.000000
# 4 0.000000 0.000000 0.000000 0.036327 0.000000 0.000000
# 5 0.000000 0.000000 0.000000 0.000000 0.054409 0.000000
# 6 0.000000 0.000000 0.000000 0.000000 0.000000 0.039755
#
#
# Mechanical properties :
#
#
# Convention : Reuss Voigt Hill
#
# Bulk Modulus (GPa) = 68.08001 74.94032 71.51017
# Shear Modulus (GPa) = 22.76374 24.22763 23.49569
#
# Velocity S-wave (km/s) = 3.66635 3.78240 3.72483
# Velocity P-wave (km/s) = 7.62394 7.95790 7.79271
#
# Compressibility (1/GPa) = 0.01468860
#
# Stress axis : x y z
#
# Youngs Moduli (GPa) = 83.07176 43.82203 68.41351
#
# Poissons Ratio (x) = 0.17653 0.29347
# Poissons Ratio (y) = 0.33464 0.62085
# Poissons Ratio (z) = 0.35635 0.39768
#
# Static dielectric constant tensor:
#      x y z
#    x 3.266040 0.000000 0.000000 
#    y 0.000000 3.249760 0.000000 
#    z 0.000000 0.000000 3.072450 
# 
# 
# High freq. dielectric constant tensor:
#      x y z
#    x 1.652990 0.000000 0.000000 
#    y 0.000000 1.663070 0.000000 
#    z 0.000000 0.000000 1.639540 
# 
# From -- ./inp_files/24319.got.cif
#   From: 2010.03.12/outbox.cif.g09.slc.cpg/sg47_13_cif.got.tgz:24319.got - 2010.04.14 03:12:58.
