data_PCOD8194212
_publ_section_title
;
Structure prediction by ZEFSAII (Michael W. Deem and Ramdas Pophale) SiO2 
 PCOD8194212
Probable space group: P M M M
;
_chemical_formula_sum "Si O2"
_cell_formula_units_Z 40
_cell_length_a 19.534574
_cell_length_b 12.559015
_cell_length_c 9.289833
_cell_angle_alpha 90.000000
_cell_angle_beta 90.000000
_cell_angle_gamma 90.000000
_cell_volume 2279.121252
_symmetry_space_group_name_H-M "P M M M"
_symmetry_group_IT_number 47
_symmetry_cell_setting 'orthorhombic'
loop_
_space_group_symop_operation_xyz
x,y,z
-x,-y,z
x,-y,-z
-x,y,-z
-x,-y,-z
x,y,-z
-x,y,z
x,-y,z
loop_
_atom_site_type_symbol
_atom_site_label
_atom_site_fract_x
_atom_site_fract_y
_atom_site_fract_z
Si Si1 0.804832 0.880277 0.671139
Si Si2 0.576538 0.000000 0.671224
Si Si3 0.577707 0.623308 0.833107
Si Si4 0.080810 0.500000 0.343510
Si Si5 0.923231 0.271106 0.327415
Si Si6 0.340682 0.796564 0.670531
O O1 0.806953 0.886811 0.500000
O O2 0.871021 0.817644 0.731570
O O3 0.737154 0.817174 0.720161
O O4 0.805002 0.000000 0.734974
O O5 0.614600 0.895288 0.728285
O O6 0.500000 0.000000 0.733687
O O7 0.577117 0.000000 0.500000
O O8 0.500000 0.651684 0.786309
O O9 0.592501 0.500000 0.802604
O O10 0.632017 0.689010 0.740945
O O11 0.588077 0.650063 0.000000
O O12 0.117018 0.500000 0.500000
O O13 0.099898 0.611895 0.264697
O O14 0.000000 0.500000 0.365796
O O15 0.921557 0.277178 0.500000
O O16 0.000000 0.241260 0.275256
O O17 0.346393 0.784668 0.500000
#
# Coordination Sequence:
#
# PCOD8194212 Si02
#       6
#     8   4   8   4   8   8
#     4   9  16  26  38  55  86 123 154 188 231 273
#     4   9  16  26  43  65  88 120 156 185 223 273
#     4   9  19  36  54  70  92 122 153 190 237 282
#     4   7  10  18  30  44  66  98 138 183 224 260
#     4   8  13  21  34  52  76 112 155 190 223 270
#     4  10  18  30  47  69  97 126 155 191 232 276
#
# _framework density 17.550623000000002
#
# number of rings (size 3 to 8) (size 9 to 14) (size 15 to 20)
#    0.000    3.200    1.000    2.400    0.000    2.000 
#    1.800    3.500    0.000    1.800    0.000    0.000 
#    0.000    0.800    0.000    4.000    0.000    3.600 
#
# Total GULP energy -495662.776384 kJ/mol
# GULP energy per Si atom -12391.569410 kJ/mol
# Density = 1.751068 g / cm^3
# Si number density = 17.550623 Si / 1000 Ang^3
#
#
#
# Elastic Constant Matrix: (Units=GPa)
#
#
# Indices 1 2 3 4 5 6 
#
# 1 143.3272 87.1797 21.8921 0.0000 0.0000 0.0000
# 2 87.1797 137.7403 27.8809 0.0000 0.0000 0.0000
# 3 21.8921 27.8809 16.0427 0.0000 0.0000 0.0000
# 4 0.0000 0.0000 0.0000 9.6112 0.0000 0.0000
# 5 0.0000 0.0000 0.0000 0.0000 7.2335 0.0000
# 6 0.0000 0.0000 0.0000 0.0000 0.0000 34.3557
#
#
#
# Elastic Compliance Matrix: (Units=1/GPa)
#
#
# Indices 1 2 3 4 5 6 
#
# 1 0.011572 -0.006368 -0.004724 0.000000 0.000000 0.000000
# 2 -0.006368 0.014704 -0.016865 0.000000 0.000000 0.000000
# 3 -0.004724 -0.016865 0.098090 0.000000 0.000000 0.000000
# 4 0.000000 0.000000 0.000000 0.104045 0.000000 0.000000
# 5 0.000000 0.000000 0.000000 0.000000 0.138245 0.000000
# 6 0.000000 0.000000 0.000000 0.000000 0.000000 0.029107
#
#
# Mechanical properties :
#
#
# Convention : Reuss Voigt Hill
#
# Bulk Modulus (GPa) = 14.60877 63.44618 39.02747
# Shear Modulus (GPa) = 10.53751 20.91727 15.72739
#
# Velocity S-wave (km/s) = 2.45298 3.45603 2.99677
# Velocity P-wave (km/s) = 4.04533 7.22180 5.85316
#
# Compressibility (1/GPa) = 0.06845204
#
# Stress axis : x y z
#
# Youngs Moduli (GPa) = 86.41545 68.00769 10.19470
#
# Poissons Ratio (x) = 0.43307 0.04816
# Poissons Ratio (y) = 0.55029 0.17193
# Poissons Ratio (z) = 0.40826 1.14694
#
# Static dielectric constant tensor:
#      x y z
#    x 3.342520 0.000000 0.000000 
#    y 0.000000 3.567830 0.000000 
#    z 0.000000 0.000000 2.544170 
# 
# 
# High freq. dielectric constant tensor:
#      x y z
#    x 1.676660 0.000000 0.000000 
#    y 0.000000 1.694200 0.000000 
#    z 0.000000 0.000000 1.599650 
# 
# From -- ./inp_files/10696.got.cif
#   From: 2010.03.12/outbox.cif.g09.slc.cpg/sg47_6_cif.got.tgz:10696.got - 2010.04.14 03:12:58.
