data_PCOD8194186
_publ_section_title
;
Structure prediction by ZEFSAII (Michael W. Deem and Ramdas Pophale) SiO2 
 PCOD8194186
Probable space group: P M M M
;
_chemical_formula_sum "Si O2"
_cell_formula_units_Z 60
_cell_length_a 15.812764
_cell_length_b 14.475703
_cell_length_c 13.688580
_cell_angle_alpha 90.000000
_cell_angle_beta 90.000000
_cell_angle_gamma 90.000000
_cell_volume 3133.327943
_symmetry_space_group_name_H-M "P M M M"
_symmetry_group_IT_number 47
_symmetry_cell_setting 'orthorhombic'
loop_
_space_group_symop_operation_xyz
x,y,z
-x,-y,z
x,-y,-z
-x,y,-z
-x,-y,-z
x,y,-z
-x,y,z
x,-y,z
loop_
_atom_site_type_symbol
_atom_site_label
_atom_site_fract_x
_atom_site_fract_y
_atom_site_fract_z
Si Si1 0.639413 0.897091 0.184516
Si Si2 0.408864 0.292226 0.887414
Si Si3 0.098565 0.000000 0.391410
Si Si4 0.902617 0.277127 0.794956
Si Si5 0.244001 0.393836 0.884481
Si Si6 0.174021 0.896832 0.886322
Si Si7 0.329667 0.895980 0.394915
Si Si8 0.157998 0.809360 0.610110
O O1 0.593684 0.818935 0.122210
O O2 0.740250 0.884712 0.175414
O O3 0.612439 0.882816 0.298904
O O4 0.612234 0.000000 0.148485
O O5 0.500000 0.325865 0.843200
O O6 0.326939 0.341592 0.839237
O O7 0.408192 0.318933 0.000000
O O8 0.126992 0.094453 0.339307
O O9 0.140013 0.000000 0.500000
O O10 0.000000 0.000000 0.398919
O O11 0.842720 0.354126 0.841885
O O12 0.892304 0.179448 0.850452
O O13 0.876388 0.270749 0.680565
O O14 0.000000 0.308746 0.804254
O O15 0.251501 0.500000 0.853981
O O16 0.240462 0.380133 0.000000
O O17 0.136035 0.000000 0.871159
O O18 0.195911 0.879940 0.000000
O O19 0.378833 0.886864 0.500000
O O20 0.259109 0.815785 0.393452
O O21 0.289348 0.000000 0.388506
O O22 0.121373 0.794238 0.500000
#
# Coordination Sequence:
#
# PCOD8194186 Si02
#       8
#     8   8   4   8   8   8   8   8
#     4  10  18  30  50  76 112 154 185 215 261 316
#     4  10  20  35  58  87 114 139 173 218 270 330
#     4   9  16  24  36  58  93 137 178 217 261 305
#     4  12  24  35  53  79 108 145 189 232 272 324
#     4  10  22  42  64  83 106 135 173 228 289 342
#     4  10  20  33  48  68 102 149 191 223 259 308
#     4   9  15  25  44  68  97 140 193 236 267 304
#     4  10  18  30  46  69 105 144 184 232 278 316
#
# _framework density 19.148968
#
# number of rings (size 3 to 8) (size 9 to 14) (size 15 to 20)
#    0.000    1.933    3.333    1.200    0.933    3.733 
#    0.000    3.333    0.000    0.800    0.000    2.800 
#    0.000    0.000    0.000    5.600    0.000    0.267 
#
# Total GULP energy -743456.570266 kJ/mol
# GULP energy per Si atom -12390.942838 kJ/mol
# Density = 1.910538 g / cm^3
# Si number density = 19.148968 Si / 1000 Ang^3
#
#
#
# Elastic Constant Matrix: (Units=GPa)
#
#
# Indices 1 2 3 4 5 6 
#
# 1 92.5210 43.7857 11.2588 0.0000 0.0000 0.0000
# 2 43.7857 93.5696 24.3144 0.0000 0.0000 0.0000
# 3 11.2588 24.3144 61.1478 0.0000 0.0000 0.0000
# 4 0.0000 0.0000 0.0000 21.4137 0.0000 0.0000
# 5 0.0000 0.0000 0.0000 0.0000 9.9126 0.0000
# 6 0.0000 0.0000 0.0000 0.0000 0.0000 8.6185
#
#
#
# Elastic Compliance Matrix: (Units=1/GPa)
#
#
# Indices 1 2 3 4 5 6 
#
# 1 0.013883 -0.006504 0.000030 0.000000 0.000000 0.000000
# 2 -0.006504 0.014966 -0.004753 0.000000 0.000000 0.000000
# 3 0.000030 -0.004753 0.018238 0.000000 0.000000 0.000000
# 4 0.000000 0.000000 0.000000 0.046699 0.000000 0.000000
# 5 0.000000 0.000000 0.000000 0.000000 0.100881 0.000000
# 6 0.000000 0.000000 0.000000 0.000000 0.000000 0.116030
#
#
# Mechanical properties :
#
#
# Convention : Reuss Voigt Hill
#
# Bulk Modulus (GPa) = 40.59724 45.10625 42.85174
# Shear Modulus (GPa) = 14.64714 19.18092 16.91403
#
# Velocity S-wave (km/s) = 2.76869 3.16835 2.97524
# Velocity P-wave (km/s) = 5.60960 6.08204 5.85059
#
# Compressibility (1/GPa) = 0.02463221
#
# Stress axis : x y z
#
# Youngs Moduli (GPa) = 72.03138 66.81779 54.82943
#
# Poissons Ratio (x) = 0.43460 -0.00165
# Poissons Ratio (y) = 0.46851 0.26063
# Poissons Ratio (z) = -0.00217 0.31761
#
# Static dielectric constant tensor:
#      x y z
#    x 3.322740 0.000000 0.000000 
#    y 0.000000 3.232200 0.000000 
#    z 0.000000 0.000000 3.676420 
# 
# 
# High freq. dielectric constant tensor:
#      x y z
#    x 1.725240 0.000000 0.000000 
#    y 0.000000 1.700590 0.000000 
#    z 0.000000 0.000000 1.741950 
# 
# From -- ./inp_files/23941.got.cif
#   From: 2010.03.12/outbox.cif.g09.slc.cpg/sg47_12_cif.got.tgz:23941.got - 2010.04.14 03:12:58.
