data_PCOD8194929
_publ_section_title
;
Structure prediction by ZEFSAII (Michael W. Deem and Ramdas Pophale) SiO2 
 PCOD8194929
Probable space group: P M M M
;
_chemical_formula_sum "Si O2"
_cell_formula_units_Z 64
_cell_length_a 14.349774
_cell_length_b 17.420728
_cell_length_c 13.991817
_cell_angle_alpha 90.000000
_cell_angle_beta 90.000000
_cell_angle_gamma 90.000000
_cell_volume 3497.723521
_symmetry_space_group_name_H-M "P M M M"
_symmetry_group_IT_number 47
_symmetry_cell_setting 'orthorhombic'
loop_
_space_group_symop_operation_xyz
x,y,z
-x,-y,z
x,-y,-z
-x,y,-z
-x,-y,-z
x,y,-z
-x,y,z
x,-y,z
loop_
_atom_site_type_symbol
_atom_site_label
_atom_site_fract_x
_atom_site_fract_y
_atom_site_fract_z
Si Si1 0.605231 0.683668 0.388347
Si Si2 0.766814 0.201755 0.387984
Si Si3 0.280365 0.410778 0.256808
Si Si4 0.859272 0.784067 0.893846
Si Si5 0.775730 0.913028 0.221795
Si Si6 0.661139 0.705148 0.103783
Si Si7 0.102782 0.313137 0.278653
Si Si8 0.602262 0.865221 0.110495
O O1 0.599610 0.672619 0.500000
O O2 0.500000 0.692473 0.346551
O O3 0.668047 0.757948 0.361813
O O4 0.659326 0.607996 0.350898
O O5 0.774989 0.182644 0.500000
O O6 0.772766 0.123831 0.327575
O O7 0.851696 0.257129 0.357400
O O8 0.281595 0.500000 0.233692
O O9 0.337009 0.366276 0.174454
O O10 0.172253 0.385143 0.264589
O O11 0.847952 0.868666 0.847584
O O12 0.759970 0.745717 0.902018
O O13 0.916909 0.730810 0.821458
O O14 0.905679 0.789586 0.000000
O O15 0.672602 0.911943 0.176862
O O16 0.810581 0.000000 0.232403
O O17 0.594757 0.774422 0.138617
O O18 0.630796 0.673338 0.000000
O O19 0.000000 0.340988 0.313950
O O20 0.500000 0.901491 0.124681
O O21 0.635133 0.872149 0.000000
#
# Coordination Sequence:
#
# PCOD8194929 Si02
#       8
#     8   8   8   8   8   8   8   8
#     4   9  18  34  55  73  90 120 163 207 245 281
#     4   9  19  35  53  73  95 123 165 209 243 283
#     4  10  20  31  46  73 105 131 155 190 241 297
#     4   8  15  29  48  69  93 123 161 200 232 270
#     4  10  19  29  45  71 101 131 160 194 244 301
#     4   8  15  29  46  62  86 126 170 202 228 264
#     4   9  18  33  53  75  97 124 161 201 239 286
#     4   9  17  29  46  68  95 130 171 210 244 282
#
# _framework density 18.297616000000001
#
# number of rings (size 3 to 8) (size 9 to 14) (size 15 to 20)
#    0.000    3.000    0.000    3.375    0.000    5.000 
#    0.000    1.250    0.000    6.000    0.000   19.250 
#    0.000    0.000    0.000    0.000    0.000    0.000 
#
# Total GULP energy -792998.488978 kJ/mol
# GULP energy per Si atom -12390.601390 kJ/mol
# Density = 1.825597 g / cm^3
# Si number density = 18.297616 Si / 1000 Ang^3
#
#
#
# Elastic Constant Matrix: (Units=GPa)
#
#
# Indices 1 2 3 4 5 6 
#
# 1 76.3972 4.1070 16.7099 0.0000 0.0000 0.0000
# 2 4.1070 101.1486 30.2986 0.0000 0.0000 0.0000
# 3 16.7099 30.2986 79.8616 0.0000 0.0000 0.0000
# 4 0.0000 0.0000 0.0000 11.6430 0.0000 0.0000
# 5 0.0000 0.0000 0.0000 0.0000 32.4203 0.0000
# 6 0.0000 0.0000 0.0000 0.0000 0.0000 7.7012
#
#
#
# Elastic Compliance Matrix: (Units=1/GPa)
#
#
# Indices 1 2 3 4 5 6 
#
# 1 0.013728 0.000342 -0.003002 0.000000 0.000000 0.000000
# 2 0.000342 0.011163 -0.004306 0.000000 0.000000 0.000000
# 3 -0.003002 -0.004306 0.014784 0.000000 0.000000 0.000000
# 4 0.000000 0.000000 0.000000 0.085888 0.000000 0.000000
# 5 0.000000 0.000000 0.000000 0.000000 0.030845 0.000000
# 6 0.000000 0.000000 0.000000 0.000000 0.000000 0.129850
#
#
# Mechanical properties :
#
#
# Convention : Reuss Voigt Hill
#
# Bulk Modulus (GPa) = 38.84913 39.95982 39.40447
# Shear Modulus (GPa) = 16.19324 24.10569 20.14947
#
# Velocity S-wave (km/s) = 2.97811 3.63357 3.32204
# Velocity P-wave (km/s) = 5.75356 6.28411 6.02467
#
# Compressibility (1/GPa) = 0.02574060
#
# Stress axis : x y z
#
# Youngs Moduli (GPa) = 72.84531 89.58523 67.64240
#
# Poissons Ratio (x) = -0.03063 0.20306
# Poissons Ratio (y) = -0.02490 0.29130
# Poissons Ratio (z) = 0.21868 0.38580
#
# Static dielectric constant tensor:
#      x y z
#    x 3.522540 0.000000 0.000000 
#    y 0.000000 3.068650 0.000000 
#    z 0.000000 0.000000 3.669240 
# 
# 
# High freq. dielectric constant tensor:
#      x y z
#    x 1.702250 0.000000 0.000000 
#    y 0.000000 1.675790 0.000000 
#    z 0.000000 0.000000 1.712210 
# 
# From -- ./inp_files/24110.got.cif
#   From: 2010.03.12/outbox.cif.g09.slc.cpg/sg47_13_cif.got.tgz:24110.got - 2010.04.14 03:12:58.
