data_PCOD8194488
_publ_section_title
;
Structure prediction by ZEFSAII (Michael W. Deem and Ramdas Pophale) SiO2 
 PCOD8194488
Probable space group: P M M M
;
_chemical_formula_sum "Si O2"
_cell_formula_units_Z 52
_cell_length_a 8.731360
_cell_length_b 27.129577
_cell_length_c 12.281826
_cell_angle_alpha 90.000000
_cell_angle_beta 90.000000
_cell_angle_gamma 90.000000
_cell_volume 2909.295650
_symmetry_space_group_name_H-M "P M M M"
_symmetry_group_IT_number 47
_symmetry_cell_setting 'orthorhombic'
loop_
_space_group_symop_operation_xyz
x,y,z
-x,-y,z
x,-y,-z
-x,y,-z
-x,-y,-z
x,y,-z
-x,y,z
x,-y,z
loop_
_atom_site_type_symbol
_atom_site_label
_atom_site_fract_x
_atom_site_fract_y
_atom_site_fract_z
Si Si1 0.181882 0.908498 0.265242
Si Si2 0.680494 0.176052 0.123655
Si Si3 0.180720 0.557597 0.000000
Si Si4 0.318490 0.378962 0.809639
Si Si5 0.174710 0.279516 0.873595
Si Si6 0.681700 0.446118 0.619720
Si Si7 0.817880 0.056056 0.500000
Si Si8 0.182162 0.000000 0.123377
O O1 0.245268 0.858463 0.214648
O O2 0.240200 0.916238 0.390089
O O3 0.242994 0.952533 0.188517
O O4 0.000000 0.906771 0.263791
O O5 0.500000 0.171051 0.130537
O O6 0.728684 0.231149 0.154694
O O7 0.737383 0.163246 0.000000
O O8 0.253355 0.583735 0.102810
O O9 0.224353 0.500000 0.000000
O O10 0.000000 0.566027 0.000000
O O11 0.500000 0.374558 0.824129
O O12 0.246171 0.324984 0.809582
O O13 0.263282 0.402180 0.696250
O O14 0.000000 0.270749 0.837598
O O15 0.186181 0.292816 0.000000
O O16 0.747843 0.435177 0.500000
O O17 0.500000 0.447425 0.617207
O O18 0.740835 0.500000 0.660034
O O19 0.000000 0.054401 0.500000
O O20 0.754839 0.000000 0.500000
O O21 0.000000 0.000000 0.120075
O O22 0.248360 0.000000 0.000000
#
# Coordination Sequence:
#
# PCOD8194488 Si02
#       8
#     8   8   4   8   8   8   4   4
#     4  10  18  31  53  79 108 141 179 219 261 310
#     4  10  21  36  54  77 106 136 173 219 267 314
#     4  11  23  35  47  71 111 151 181 214 261 314
#     4  11  20  31  53  80 106 136 174 218 264 315
#     4  10  20  35  55  77 104 138 174 211 261 321
#     4   8  15  29  49  74 103 134 169 209 254 305
#     4   9  16  30  53  81 109 143 183 221 258 307
#     4   9  16  25  44  76 109 139 174 213 252 306
#
# _framework density 17.873743000000001
#
# number of rings (size 3 to 8) (size 9 to 14) (size 15 to 20)
#    0.000    2.231    1.538    3.000    0.000    3.385 
#    0.000    0.769    1.692    3.692    0.000    5.385 
#    0.000    0.000    0.000    0.000    0.000    0.000 
#
# Total GULP energy -644636.440455 kJ/mol
# GULP energy per Si atom -12396.854624 kJ/mol
# Density = 1.783306 g / cm^3
# Si number density = 17.873743 Si / 1000 Ang^3
#
#
#
# Elastic Constant Matrix: (Units=GPa)
#
#
# Indices 1 2 3 4 5 6 
#
# 1 26.7150 11.7426 21.9815 0.0000 0.0000 0.0000
# 2 11.7426 122.1065 77.7789 0.0000 0.0000 0.0000
# 3 21.9815 77.7789 135.6508 0.0000 0.0000 0.0000
# 4 0.0000 0.0000 0.0000 34.2096 0.0000 0.0000
# 5 0.0000 0.0000 0.0000 0.0000 -2.3796 0.0000
# 6 0.0000 0.0000 0.0000 0.0000 0.0000 16.8901
#
#
#
# Elastic Compliance Matrix: (Units=1/GPa)
#
#
# Indices 1 2 3 4 5 6 
#
# 1 0.043209 0.000480 -0.007277 0.000000 0.000000 0.000000
# 2 0.000480 0.012907 -0.007478 0.000000 0.000000 0.000000
# 3 -0.007277 -0.007478 0.012839 0.000000 0.000000 0.000000
# 4 0.000000 0.000000 0.000000 0.029232 0.000000 0.000000
# 5 0.000000 0.000000 0.000000 0.000000 -0.420230 0.000000
# 6 0.000000 0.000000 0.000000 0.000000 0.000000 0.059206
#
#
# Mechanical properties :
#
#
# Convention : Reuss Voigt Hill
#
# Bulk Modulus (GPa) = 24.74994 56.38648 40.56821
# Shear Modulus (GPa) = -22.64299 21.27529 -0.68385
#
# Velocity S-wave (km/s) = -3.56312 3.45383 -0.61922
# Velocity P-wave (km/s) = 1.74659 6.89354 4.71541
#
# Compressibility (1/GPa) = 0.04040414
#
# Stress axis : x y z
#
# Youngs Moduli (GPa) = 23.14341 77.47797 77.88810
#
# Poissons Ratio (x) = -0.03719 0.56679
# Poissons Ratio (y) = -0.01111 0.58247
# Poissons Ratio (z) = 0.16841 0.57940
#
# Static dielectric constant tensor:
#      x y z
#    x 3.076280 0.000000 0.000000 
#    y 0.000000 3.386060 0.000000 
#    z 0.000000 0.000000 4.054760 
# 
# 
# High freq. dielectric constant tensor:
#      x y z
#    x 1.669520 0.000000 0.000000 
#    y 0.000000 1.697600 0.000000 
#    z 0.000000 0.000000 1.686090 
# 
# From -- ./inp_files/15497.got.cif
#   From: 2010.03.12/outbox.cif.g09.slc.cpg/sg47_8_cif.got.tgz:15497.got - 2010.04.14 03:12:58.
