data_PCOD8194739
_publ_section_title
;
Structure prediction by ZEFSAII (Michael W. Deem and Ramdas Pophale) SiO2 
 PCOD8194739
Probable space group: P M M M
;
_chemical_formula_sum "Si O2"
_cell_formula_units_Z 52
_cell_length_a 8.865767
_cell_length_b 27.062283
_cell_length_c 13.657708
_cell_angle_alpha 90.000000
_cell_angle_beta 90.000000
_cell_angle_gamma 90.000000
_cell_volume 3276.865139
_symmetry_space_group_name_H-M "P M M M"
_symmetry_group_IT_number 47
_symmetry_cell_setting 'orthorhombic'
loop_
_space_group_symop_operation_xyz
x,y,z
-x,-y,z
x,-y,-z
-x,y,-z
-x,-y,-z
x,y,-z
-x,y,z
x,-y,z
loop_
_atom_site_type_symbol
_atom_site_label
_atom_site_fract_x
_atom_site_fract_y
_atom_site_fract_z
Si Si1 0.169138 0.552251 0.616230
Si Si2 0.175207 0.847303 0.612225
Si Si3 0.677995 0.804497 0.106606
Si Si4 0.320504 0.000000 0.111144
Si Si5 0.321427 0.753065 0.298404
Si Si6 0.678700 0.098687 0.216657
Si Si7 0.179509 0.658818 0.612481
O O1 0.162807 0.554499 0.500000
O O2 0.251132 0.500000 0.648889
O O3 0.241538 0.604665 0.649771
O O4 0.000000 0.550169 0.657824
O O5 0.201858 0.862568 0.500000
O O6 0.253150 0.794464 0.630550
O O7 0.245357 0.890972 0.678264
O O8 0.000000 0.841397 0.636950
O O9 0.500000 0.804206 0.096911
O O10 0.728654 0.764037 0.186403
O O11 0.729788 0.858565 0.141879
O O12 0.750978 0.793051 0.000000
O O13 0.261995 0.047614 0.170640
O O14 0.500000 0.000000 0.105969
O O15 0.256098 0.000000 0.000000
O O16 0.500000 0.754614 0.311407
O O17 0.259606 0.699192 0.321489
O O18 0.500000 0.098273 0.232706
O O19 0.225020 0.668183 0.500000
O O20 0.000000 0.661716 0.624783
#
# Coordination Sequence:
#
# PCOD8194739 Si02
#       7
#     8   8   8   4   8   8   8
#     4   7  10  18  33  52  73 101 140 177 201 229
#     4  10  20  33  47  61  82 115 148 175 206 244
#     4   8  14  26  43  61  81 105 133 164 200 244
#     4   9  16  28  50  77  98 114 137 171 210 253
#     4  10  19  28  42  64  85 107 137 173 210 248
#     4   9  17  29  48  72  91 109 136 170 206 244
#     4   9  16  25  38  57  83 114 142 169 204 243
#
# _framework density 15.868824999999999
#
# number of rings (size 3 to 8) (size 9 to 14) (size 15 to 20)
#    0.000    3.154    0.000    4.154    0.000    5.231 
#    0.000    0.769    0.000   18.923    0.000    2.154 
#    0.000    0.615    0.000    7.692    0.000    0.308 
#
# Total GULP energy -644187.383360 kJ/mol
# GULP energy per Si atom -12388.218911 kJ/mol
# Density = 1.583271 g / cm^3
# Si number density = 15.868825 Si / 1000 Ang^3
#
#
#
# Elastic Constant Matrix: (Units=GPa)
#
#
# Indices 1 2 3 4 5 6 
#
# 1 37.8110 34.1865 30.7371 0.0000 0.0000 0.0000
# 2 34.1865 164.0584 70.9316 0.0000 0.0000 0.0000
# 3 30.7371 70.9316 105.9881 0.0000 0.0000 0.0000
# 4 0.0000 0.0000 0.0000 18.5803 0.0000 0.0000
# 5 0.0000 0.0000 0.0000 0.0000 4.1648 0.0000
# 6 0.0000 0.0000 0.0000 0.0000 0.0000 18.8961
#
#
#
# Elastic Compliance Matrix: (Units=1/GPa)
#
#
# Indices 1 2 3 4 5 6 
#
# 1 0.036621 -0.004277 -0.007758 0.000000 0.000000 0.000000
# 2 -0.004277 0.009077 -0.004834 0.000000 0.000000 0.000000
# 3 -0.007758 -0.004834 0.014920 0.000000 0.000000 0.000000
# 4 0.000000 0.000000 0.000000 0.053820 0.000000 0.000000
# 5 0.000000 0.000000 0.000000 0.000000 0.240110 0.000000
# 6 0.000000 0.000000 0.000000 0.000000 0.000000 0.052921
#
#
# Mechanical properties :
#
#
# Convention : Reuss Voigt Hill
#
# Bulk Modulus (GPa) = 37.20299 64.39643 50.79971
# Shear Modulus (GPa) = 11.10699 19.79505 15.45102
#
# Velocity S-wave (km/s) = 2.64848 3.53571 3.12376
# Velocity P-wave (km/s) = 5.73128 7.57211 6.71507
#
# Compressibility (1/GPa) = 0.02687956
#
# Stress axis : x y z
#
# Youngs Moduli (GPa) = 27.30694 110.17232 67.02366
#
# Poissons Ratio (x) = 0.47119 0.51997
# Poissons Ratio (y) = 0.11679 0.32401
# Poissons Ratio (z) = 0.21185 0.53259
#
# Static dielectric constant tensor:
#      x y z
#    x 2.718400 0.000000 0.000000 
#    y 0.000000 3.370390 0.000000 
#    z 0.000000 0.000000 3.042070 
# 
# 
# High freq. dielectric constant tensor:
#      x y z
#    x 1.577940 0.000000 0.000000 
#    y 0.000000 1.614830 0.000000 
#    z 0.000000 0.000000 1.584460 
# 
# From -- ./inp_files/22010.got.cif
#   From: 2010.03.12/outbox.cif.g09.slc.cpg/sg47_12_cif.got.tgz:22010.got - 2010.04.14 03:12:58.
