data_PCOD8194914
_publ_section_title
;
Structure prediction by ZEFSAII (Michael W. Deem and Ramdas Pophale) SiO2 
 PCOD8194914
Probable space group: P M M M
;
_chemical_formula_sum "Si O2"
_cell_formula_units_Z 52
_cell_length_a 18.601458
_cell_length_b 8.936141
_cell_length_c 19.093999
_cell_angle_alpha 90.000000
_cell_angle_beta 90.000000
_cell_angle_gamma 90.000000
_cell_volume 3173.904786
_symmetry_space_group_name_H-M "P M M M"
_symmetry_group_IT_number 47
_symmetry_cell_setting 'orthorhombic'
loop_
_space_group_symop_operation_xyz
x,y,z
-x,-y,z
x,-y,-z
-x,y,-z
-x,-y,-z
x,y,-z
-x,y,z
x,-y,z
loop_
_atom_site_type_symbol
_atom_site_label
_atom_site_fract_x
_atom_site_fract_y
_atom_site_fract_z
Si Si1 0.500000 0.161899 0.917672
Si Si2 0.286748 0.824636 0.219221
Si Si3 0.796335 0.676972 0.335611
Si Si4 0.083116 0.173943 0.579327
Si Si5 0.418509 0.325549 0.290440
Si Si6 0.338076 0.674799 0.576453
Si Si7 0.654195 0.178024 0.922706
O O1 0.575478 0.247149 0.899802
O O2 0.500000 0.000000 0.879410
O O3 0.500000 0.136519 0.000000
O O4 0.221389 0.740750 0.258162
O O5 0.364895 0.776409 0.246774
O O6 0.286308 0.781375 0.136198
O O7 0.276582 0.000000 0.231092
O O8 0.797455 0.500000 0.329846
O O9 0.872516 0.733029 0.363795
O O10 0.734580 0.737954 0.387864
O O11 0.102507 0.224344 0.500000
O O12 0.000000 0.207037 0.594462
O O13 0.100450 0.000000 0.588804
O O14 0.500000 0.282732 0.270830
O O15 0.402140 0.500000 0.275131
O O16 0.405888 0.292582 0.373271
O O17 0.349793 0.750560 0.500000
O O18 0.327292 0.500000 0.566073
O O19 0.643901 0.000000 0.926049
O O20 0.678275 0.237494 0.000000
#
# Coordination Sequence:
#
# PCOD8194914 Si02
#       7
#     4   8   8   8   8   8   8
#     4   7  10  18  32  52  79 105 130 171 228 279
#     4  10  19  29  45  65  85 113 150 189 232 278
#     4  10  19  31  46  65  93 124 155 185 216 262
#     4   9  18  32  50  74 103 129 151 182 225 264
#     4   9  18  30  41  56  81 110 140 182 235 282
#     4   8  14  25  41  59  76 100 140 184 220 252
#     4   8  14  24  39  61  86 109 140 187 237 282
#
# _framework density 16.383604999999999
#
# number of rings (size 3 to 8) (size 9 to 14) (size 15 to 20)
#    0.000    3.154    0.000    3.692    1.077    1.846 
#    0.000    2.308    0.000    6.000    0.000    5.385 
#    0.000    0.615    0.000    7.077    0.000    2.000 
#
# Total GULP energy -644206.735180 kJ/mol
# GULP energy per Si atom -12388.591061 kJ/mol
# Density = 1.634632 g / cm^3
# Si number density = 16.383605 Si / 1000 Ang^3
#
#
#
# Elastic Constant Matrix: (Units=GPa)
#
#
# Indices 1 2 3 4 5 6 
#
# 1 70.7375 29.8262 40.9538 0.0000 0.0000 0.0000
# 2 29.8262 45.2344 30.8825 0.0000 0.0000 0.0000
# 3 40.9538 30.8825 109.0227 0.0000 0.0000 0.0000
# 4 0.0000 0.0000 0.0000 10.4684 0.0000 0.0000
# 5 0.0000 0.0000 0.0000 0.0000 24.6575 0.0000
# 6 0.0000 0.0000 0.0000 0.0000 0.0000 21.9515
#
#
#
# Elastic Compliance Matrix: (Units=1/GPa)
#
#
# Indices 1 2 3 4 5 6 
#
# 1 0.021622 -0.010800 -0.005063 0.000000 0.000000 0.000000
# 2 -0.010800 0.032802 -0.005235 0.000000 0.000000 0.000000
# 3 -0.005063 -0.005235 0.012557 0.000000 0.000000 0.000000
# 4 0.000000 0.000000 0.000000 0.095526 0.000000 0.000000
# 5 0.000000 0.000000 0.000000 0.000000 0.040556 0.000000
# 6 0.000000 0.000000 0.000000 0.000000 0.000000 0.045555
#
#
# Mechanical properties :
#
#
# Convention : Reuss Voigt Hill
#
# Bulk Modulus (GPa) = 40.34604 47.59107 43.96856
# Shear Modulus (GPa) = 16.71821 19.63761 18.17791
#
# Velocity S-wave (km/s) = 3.19787 3.46586 3.33456
# Velocity P-wave (km/s) = 6.18987 6.71768 6.45917
#
# Compressibility (1/GPa) = 0.02478558
#
# Stress axis : x y z
#
# Youngs Moduli (GPa) = 46.24960 30.48559 79.63669
#
# Poissons Ratio (x) = 0.32925 0.40318
# Poissons Ratio (y) = 0.49951 0.41688
# Poissons Ratio (z) = 0.23415 0.15958
#
# Static dielectric constant tensor:
#      x y z
#    x 2.924020 0.000000 0.000000 
#    y 0.000000 2.776320 0.000000 
#    z 0.000000 0.000000 3.339950 
# 
# 
# High freq. dielectric constant tensor:
#      x y z
#    x 1.597540 0.000000 0.000000 
#    y 0.000000 1.601230 0.000000 
#    z 0.000000 0.000000 1.630030 
# 
# From -- ./inp_files/31292.got.cif
#   From: 2010.03.12/outbox.cif.g09.slc.cpg/sg47_16_cif.got.tgz:31292.got - 2010.04.14 03:12:58.
