data_PCOD8194682
_publ_section_title
;
Structure prediction by ZEFSAII (Michael W. Deem and Ramdas Pophale) SiO2 
 PCOD8194682
Probable space group: P M M M
;
_chemical_formula_sum "Si O2"
_cell_formula_units_Z 64
_cell_length_a 18.523686
_cell_length_b 25.981488
_cell_length_c 9.327446
_cell_angle_alpha 90.000000
_cell_angle_beta 90.000000
_cell_angle_gamma 90.000000
_cell_volume 4489.047224
_symmetry_space_group_name_H-M "P M M M"
_symmetry_group_IT_number 47
_symmetry_cell_setting 'orthorhombic'
loop_
_space_group_symop_operation_xyz
x,y,z
-x,-y,z
x,-y,-z
-x,y,-z
-x,-y,-z
x,y,-z
-x,y,z
x,-y,z
loop_
_atom_site_type_symbol
_atom_site_label
_atom_site_fract_x
_atom_site_fract_y
_atom_site_fract_z
Si Si1 0.843804 0.144731 0.338000
Si Si2 0.580327 0.736441 0.664240
Si Si3 0.081909 0.747550 0.332053
Si Si4 0.918563 0.058033 0.831266
Si Si5 0.718806 0.211281 0.338484
Si Si6 0.417331 0.440416 0.334676
Si Si7 0.342767 0.354037 0.832356
Si Si8 0.204025 0.703850 0.834225
O O1 0.863911 0.129624 0.500000
O O2 0.887589 0.195985 0.292442
O O3 0.862758 0.096992 0.239081
O O4 0.757205 0.155583 0.320890
O O5 0.580036 0.717241 0.500000
O O6 0.500000 0.752242 0.714110
O O7 0.631792 0.787286 0.680145
O O8 0.609168 0.689819 0.758953
O O9 0.086806 0.737302 0.500000
O O10 0.128874 0.702829 0.254001
O O11 0.000000 0.743818 0.276489
O O12 0.000000 0.070915 0.780842
O O13 0.898365 0.000000 0.784840
O O14 0.912388 0.064050 0.000000
O O15 0.739094 0.231624 0.500000
O O16 0.750534 0.247329 0.216488
O O17 0.399326 0.428988 0.500000
O O18 0.500000 0.424745 0.301704
O O19 0.405029 0.500000 0.298955
O O20 0.363088 0.408774 0.234648
O O21 0.256521 0.345232 0.807382
O O22 0.361145 0.353598 0.000000
O O23 0.184343 0.709903 0.000000
#
# Coordination Sequence:
#
# PCOD8194682 Si02
#       8
#     8   8   8   8   8   8   8   8
#     4   9  16  26  40  56  75 100 127 155 189 226
#     4   9  16  26  41  58  76 103 136 162 187 226
#     4   9  17  28  41  58  80 104 130 160 193 228
#     4   9  18  30  40  52  73  99 126 157 190 222
#     4   8  15  27  39  53  76 102 127 158 193 226
#     4   9  18  31  44  58  77 102 134 169 199 229
#     4  10  19  28  39  57  81 107 133 162 196 230
#     4   9  17  27  38  55  78 103 132 161 188 224
#
# _framework density 14.256924
#
# number of rings (size 3 to 8) (size 9 to 14) (size 15 to 20)
#    0.000    3.000    0.000    3.000    0.000    7.000 
#    0.000    1.250    0.000    0.000    0.000    0.000 
#    0.000    1.000    0.000   11.750    0.000    5.000 
#
# Total GULP energy -792995.261681 kJ/mol
# GULP energy per Si atom -12390.550964 kJ/mol
# Density = 1.422447 g / cm^3
# Si number density = 14.256924 Si / 1000 Ang^3
#
#
#
# Elastic Constant Matrix: (Units=GPa)
#
#
# Indices 1 2 3 4 5 6 
#
# 1 112.4622 49.3745 42.3331 0.0000 0.0000 0.0000
# 2 49.3745 66.0711 37.9766 0.0000 0.0000 0.0000
# 3 42.3331 37.9766 57.9782 0.0000 0.0000 0.0000
# 4 0.0000 0.0000 0.0000 20.0566 0.0000 0.0000
# 5 0.0000 0.0000 0.0000 0.0000 20.6008 0.0000
# 6 0.0000 0.0000 0.0000 0.0000 0.0000 23.9498
#
#
#
# Elastic Compliance Matrix: (Units=1/GPa)
#
#
# Indices 1 2 3 4 5 6 
#
# 1 0.014249 -0.007487 -0.005500 0.000000 0.000000 0.000000
# 2 -0.007487 0.028208 -0.013010 0.000000 0.000000 0.000000
# 3 -0.005500 -0.013010 0.029786 0.000000 0.000000 0.000000
# 4 0.000000 0.000000 0.000000 0.049859 0.000000 0.000000
# 5 0.000000 0.000000 0.000000 0.000000 0.048542 0.000000
# 6 0.000000 0.000000 0.000000 0.000000 0.000000 0.041754
#
#
# Mechanical properties :
#
#
# Convention : Reuss Voigt Hill
#
# Bulk Modulus (GPa) = 49.38598 55.09776 52.24187
# Shear Modulus (GPa) = 18.44056 20.04327 19.24192
#
# Velocity S-wave (km/s) = 3.60035 3.75355 3.67775
# Velocity P-wave (km/s) = 7.21100 7.58391 7.39981
#
# Compressibility (1/GPa) = 0.02024866
#
# Stress axis : x y z
#
# Youngs Moduli (GPa) = 70.17900 35.45067 33.57335
#
# Poissons Ratio (x) = 0.26542 0.18466
# Poissons Ratio (y) = 0.52543 0.43679
# Poissons Ratio (z) = 0.38599 0.46122
#
# Static dielectric constant tensor:
#      x y z
#    x 3.061180 0.000000 0.000000 
#    y 0.000000 2.566520 0.000000 
#    z 0.000000 0.000000 2.797050 
# 
# 
# High freq. dielectric constant tensor:
#      x y z
#    x 1.540220 0.000000 0.000000 
#    y 0.000000 1.503880 0.000000 
#    z 0.000000 0.000000 1.550590 
# 
# From -- ./inp_files/11930.got.cif
#   From: 2010.03.12/outbox.cif.g09.slc.cpg/sg47_6_cif.got.tgz:11930.got - 2010.04.14 03:12:58.
