data_PCOD8194202
_publ_section_title
;
Structure prediction by ZEFSAII (Michael W. Deem and Ramdas Pophale) SiO2 
 PCOD8194202
Probable space group: P M M M
;
_chemical_formula_sum "Si O2"
_cell_formula_units_Z 52
_cell_length_a 18.627328
_cell_length_b 14.942339
_cell_length_c 10.252538
_cell_angle_alpha 90.000000
_cell_angle_beta 90.000000
_cell_angle_gamma 90.000000
_cell_volume 2853.648875
_symmetry_space_group_name_H-M "P M M M"
_symmetry_group_IT_number 47
_symmetry_cell_setting 'orthorhombic'
loop_
_space_group_symop_operation_xyz
x,y,z
-x,-y,z
x,-y,-z
-x,y,-z
-x,-y,-z
x,y,-z
-x,y,z
x,-y,z
loop_
_atom_site_type_symbol
_atom_site_label
_atom_site_fract_x
_atom_site_fract_y
_atom_site_fract_z
Si Si1 0.420908 0.756224 0.353535
Si Si2 0.338843 0.396948 0.746289
Si Si3 0.185086 0.600628 0.150274
Si Si4 0.847362 0.895037 0.349304
Si Si5 0.580066 0.606249 0.000000
Si Si6 0.083235 0.236968 0.850802
Si Si7 0.685160 0.901310 0.344777
O O1 0.433620 0.788316 0.500000
O O2 0.500000 0.745849 0.286589
O O3 0.375427 0.663964 0.363530
O O4 0.372154 0.832066 0.282536
O O5 0.356994 0.500000 0.716666
O O6 0.253756 0.382053 0.757689
O O7 0.377415 0.359268 0.875237
O O8 0.155411 0.500000 0.175366
O O9 0.124521 0.671916 0.187318
O O10 0.209803 0.609486 0.000000
O O11 0.861213 0.865906 0.500000
O O12 0.898154 0.841375 0.250440
O O13 0.765934 0.873680 0.305276
O O14 0.864157 0.000000 0.334260
O O15 0.579262 0.500000 0.000000
O O16 0.500000 0.645953 0.000000
O O17 0.000000 0.259814 0.837349
O O18 0.101684 0.207722 0.000000
O O19 0.681907 0.901995 0.500000
O O20 0.666921 0.000000 0.290094
#
# Coordination Sequence:
#
# PCOD8194202 Si02
#       7
#     8   8   8   8   4   8   8
#     4  10  20  30  42  66  98 129 159 192 238 294
#     4  10  18  30  47  66  90 122 158 197 235 276
#     4   9  17  32  53  74  96 126 167 209 248 295
#     4   9  18  34  56  78 100 132 172 208 246 298
#     4   9  16  26  42  64  86 110 146 191 232 266
#     4  10  21  34  50  77 109 135 161 202 255 304
#     4   8  15  30  51  71  91 119 159 205 242 275
#
# _framework density 18.222283999999998
#
# number of rings (size 3 to 8) (size 9 to 14) (size 15 to 20)
#    0.000    2.692    0.769    2.308    0.000    2.769 
#    0.000    5.385    0.000    1.385    0.000    1.077 
#    0.000    1.846    0.000    0.000    0.000    0.000 
#
# Total GULP energy -644445.338863 kJ/mol
# GULP energy per Si atom -12393.179594 kJ/mol
# Density = 1.818081 g / cm^3
# Si number density = 18.222284 Si / 1000 Ang^3
#
#
#
# Elastic Constant Matrix: (Units=GPa)
#
#
# Indices 1 2 3 4 5 6 
#
# 1 114.7494 62.4379 28.5323 0.0000 0.0000 0.0000
# 2 62.4379 97.9744 28.4523 0.0000 0.0000 0.0000
# 3 28.5323 28.4523 43.5054 0.0000 0.0000 0.0000
# 4 0.0000 0.0000 0.0000 22.3727 0.0000 0.0000
# 5 0.0000 0.0000 0.0000 0.0000 21.8047 0.0000
# 6 0.0000 0.0000 0.0000 0.0000 0.0000 27.0633
#
#
#
# Elastic Compliance Matrix: (Units=1/GPa)
#
#
# Indices 1 2 3 4 5 6 
#
# 1 0.013910 -0.007673 -0.004105 0.000000 0.000000 0.000000
# 2 -0.007673 0.016832 -0.005976 0.000000 0.000000 0.000000
# 3 -0.004105 -0.005976 0.029586 0.000000 0.000000 0.000000
# 4 0.000000 0.000000 0.000000 0.044697 0.000000 0.000000
# 5 0.000000 0.000000 0.000000 0.000000 0.045862 0.000000
# 6 0.000000 0.000000 0.000000 0.000000 0.000000 0.036950
#
#
# Mechanical properties :
#
#
# Convention : Reuss Voigt Hill
#
# Bulk Modulus (GPa) = 40.28837 55.00825 47.64831
# Shear Modulus (GPa) = 21.58721 23.36857 22.47789
#
# Velocity S-wave (km/s) = 3.44562 3.58497 3.51599
# Velocity P-wave (km/s) = 6.16337 6.88396 6.53361
#
# Compressibility (1/GPa) = 0.02482106
#
# Stress axis : x y z
#
# Youngs Moduli (GPa) = 71.88948 59.41080 33.79971
#
# Poissons Ratio (x) = 0.45584 0.13874
# Poissons Ratio (y) = 0.55159 0.20199
# Poissons Ratio (z) = 0.29510 0.35504
#
# Static dielectric constant tensor:
#      x y z
#    x 3.498310 0.000000 0.000000 
#    y 0.000000 3.356750 0.000000 
#    z 0.000000 0.000000 3.115150 
# 
# 
# High freq. dielectric constant tensor:
#      x y z
#    x 1.711270 0.000000 0.000000 
#    y 0.000000 1.702970 0.000000 
#    z 0.000000 0.000000 1.668360 
# 
# From -- ./inp_files/17670.got.cif
#   From: 2010.03.12/outbox.cif.g09.slc.cpg/sg47_9_cif.got.tgz:17670.got - 2010.04.14 03:12:58.
