data_PCOD8194747
_publ_section_title
;
Structure prediction by ZEFSAII (Michael W. Deem and Ramdas Pophale) SiO2 
 PCOD8194747
Probable space group: P M M M
;
_chemical_formula_sum "Si O2"
_cell_formula_units_Z 60
_cell_length_a 18.739807
_cell_length_b 21.178273
_cell_length_c 9.051244
_cell_angle_alpha 90.000000
_cell_angle_beta 90.000000
_cell_angle_gamma 90.000000
_cell_volume 3592.228290
_symmetry_space_group_name_H-M "P M M M"
_symmetry_group_IT_number 47
_symmetry_cell_setting 'orthorhombic'
loop_
_space_group_symop_operation_xyz
x,y,z
-x,-y,z
x,-y,-z
-x,y,-z
-x,-y,-z
x,y,-z
-x,y,z
x,-y,z
loop_
_atom_site_type_symbol
_atom_site_label
_atom_site_fract_x
_atom_site_fract_y
_atom_site_fract_z
Si Si1 0.212458 0.930467 0.175036
Si Si2 0.583015 0.500000 0.675146
Si Si3 0.581649 0.741358 0.331036
Si Si4 0.079720 0.853301 0.169719
Si Si5 0.079386 0.721506 0.326798
Si Si6 0.786321 0.689997 0.831070
Si Si7 0.697403 0.813421 0.172322
Si Si8 0.643064 0.623150 0.174549
O O1 0.134362 0.906691 0.225944
O O2 0.272490 0.880789 0.227245
O O3 0.226879 0.000000 0.244000
O O4 0.214274 0.934771 0.000000
O O5 0.500000 0.500000 0.720666
O O6 0.591962 0.500000 0.500000
O O7 0.622170 0.439930 0.742068
O O8 0.603600 0.726858 0.500000
O O9 0.500000 0.762230 0.319835
O O10 0.627373 0.799558 0.268187
O O11 0.593354 0.679200 0.233247
O O12 0.090087 0.791406 0.265957
O O13 0.000000 0.880940 0.186775
O O14 0.096247 0.834523 0.000000
O O15 0.089022 0.723782 0.500000
O O16 0.141571 0.676743 0.261477
O O17 0.000000 0.696091 0.284010
O O18 0.756946 0.760135 0.797696
O O19 0.725714 0.638898 0.789332
O O20 0.808137 0.682871 0.000000
O O21 0.676414 0.813587 0.000000
O O22 0.630461 0.615990 0.000000
#
# Coordination Sequence:
#
# PCOD8194747 Si02
#       8
#     8   4   8   8   8   8   8   8
#     4   9  16  27  44  66  91 118 154 200 244 289
#     4  11  23  37  53  77 112 147 174 197 225 270
#     4  10  20  33  50  73  98 123 155 196 241 287
#     4   9  16  27  43  62  88 122 157 194 238 287
#     4  10  19  28  42  67  96 126 160 199 244 291
#     4   9  17  31  49  70  95 124 162 204 243 284
#     4   9  17  30  47  68  92 119 154 196 244 293
#     4  10  21  35  53  77 104 135 169 201 234 276
#
# _framework density 16.702725000000001
#
# number of rings (size 3 to 8) (size 9 to 14) (size 15 to 20)
#    0.000    2.467    1.333    2.600    0.000    6.933 
#    0.000    1.333    0.000    2.000    0.000    5.133 
#    0.000    3.733    0.000    0.000    0.000    0.000 
#
# Total GULP energy -743844.496515 kJ/mol
# GULP energy per Si atom -12397.408275 kJ/mol
# Density = 1.666471 g / cm^3
# Si number density = 16.702725 Si / 1000 Ang^3
#
#
#
# Elastic Constant Matrix: (Units=GPa)
#
#
# Indices 1 2 3 4 5 6 
#
# 1 129.6512 63.7117 60.8539 0.0000 0.0000 0.0000
# 2 63.7117 96.2545 34.7162 0.0000 0.0000 0.0000
# 3 60.8539 34.7162 70.1954 0.0000 0.0000 0.0000
# 4 0.0000 0.0000 0.0000 9.8255 0.0000 0.0000
# 5 0.0000 0.0000 0.0000 0.0000 27.4372 0.0000
# 6 0.0000 0.0000 0.0000 0.0000 0.0000 21.4153
#
#
#
# Elastic Compliance Matrix: (Units=1/GPa)
#
#
# Indices 1 2 3 4 5 6 
#
# 1 0.015973 -0.006789 -0.010489 0.000000 0.000000 0.000000
# 2 -0.006789 0.015530 -0.001795 0.000000 0.000000 0.000000
# 3 -0.010489 -0.001795 0.024227 0.000000 0.000000 0.000000
# 4 0.000000 0.000000 0.000000 0.101776 0.000000 0.000000
# 5 0.000000 0.000000 0.000000 0.000000 0.036447 0.000000
# 6 0.000000 0.000000 0.000000 0.000000 0.000000 0.046696
#
#
# Mechanical properties :
#
#
# Convention : Reuss Voigt Hill
#
# Bulk Modulus (GPa) = 56.87322 68.29608 62.58465
# Shear Modulus (GPa) = 17.56502 20.85687 19.21095
#
# Velocity S-wave (km/s) = 3.24640 3.53754 3.39509
# Velocity P-wave (km/s) = 6.94092 7.59365 7.27461
#
# Compressibility (1/GPa) = 0.01758297
#
# Stress axis : x y z
#
# Youngs Moduli (GPa) = 62.60723 64.38982 41.27603
#
# Poissons Ratio (x) = 0.43716 0.43296
# Poissons Ratio (y) = 0.42505 0.07409
# Poissons Ratio (z) = 0.65671 0.11559
#
# Static dielectric constant tensor:
#      x y z
#    x 3.329820 0.000000 0.000000 
#    y 0.000000 3.111660 0.000000 
#    z 0.000000 0.000000 3.100710 
# 
# 
# High freq. dielectric constant tensor:
#      x y z
#    x 1.650190 0.000000 0.000000 
#    y 0.000000 1.610580 0.000000 
#    z 0.000000 0.000000 1.637070 
# 
# From -- ./inp_files/10012.got.cif
#   From: 2010.03.12/outbox.cif.g09.slc.cpg/sg47_6_cif.got.tgz:10012.got - 2010.04.14 03:12:58.
