data_PCOD8194845
_publ_section_title
;
Structure prediction by ZEFSAII (Michael W. Deem and Ramdas Pophale) SiO2 
 PCOD8194845
Probable space group: P M M M
;
_chemical_formula_sum "Si O2"
_cell_formula_units_Z 56
_cell_length_a 13.543143
_cell_length_b 29.122385
_cell_length_c 9.549436
_cell_angle_alpha 90.000000
_cell_angle_beta 90.000000
_cell_angle_gamma 90.000000
_cell_volume 3766.379918
_symmetry_space_group_name_H-M "P M M M"
_symmetry_group_IT_number 47
_symmetry_cell_setting 'orthorhombic'
loop_
_space_group_symop_operation_xyz
x,y,z
-x,-y,z
x,-y,-z
-x,y,-z
-x,-y,-z
x,y,-z
-x,y,z
x,-y,z
loop_
_atom_site_type_symbol
_atom_site_label
_atom_site_fract_x
_atom_site_fract_y
_atom_site_fract_z
Si Si1 0.614666 0.233977 0.164201
Si Si2 0.798248 0.551931 0.162461
Si Si3 0.617332 0.949525 0.656492
Si Si4 0.889283 0.370753 0.340088
Si Si5 0.383065 0.869097 0.154196
Si Si6 0.701139 0.686182 0.334975
Si Si7 0.389589 0.608496 0.158859
O O1 0.500000 0.244572 0.196273
O O2 0.642059 0.181946 0.208623
O O3 0.684514 0.265331 0.259739
O O4 0.636157 0.242033 0.000000
O O5 0.810442 0.500000 0.216560
O O6 0.872461 0.584410 0.246231
O O7 0.685206 0.566988 0.189804
O O8 0.826039 0.555777 0.000000
O O9 0.658881 0.943883 0.500000
O O10 0.500000 0.945255 0.654825
O O11 0.664265 0.908561 0.748284
O O12 0.647426 0.000000 0.715721
O O13 0.873809 0.386261 0.500000
O O14 0.813315 0.329906 0.303143
O O15 0.000000 0.352207 0.313662
O O16 0.500000 0.874587 0.147093
O O17 0.337953 0.876153 0.000000
O O18 0.679717 0.690494 0.500000
O O19 0.626280 0.649721 0.267377
O O20 0.500000 0.589176 0.179072
O O21 0.374391 0.627201 0.000000
#
# Coordination Sequence:
#
# PCOD8194845 Si02
#       7
#     8   8   8   8   8   8   8
#     4   9  17  28  40  55  79 108 132 157 194 236
#     4   9  18  31  46  66  88 105 126 158 189 218
#     4   8  13  20  29  42  62  89 122 162 204 235
#     4   9  19  35  50  62  79 103 128 155 190 233
#     4   8  14  23  33  46  65  92 127 161 190 224
#     4  10  19  29  43  62  79  97 127 163 194 227
#     4   9  17  29  44  60  81 110 135 153 181 222
#
# _framework density 14.868387999999999
#
# number of rings (size 3 to 8) (size 9 to 14) (size 15 to 20)
#    0.000    3.143    0.000    2.143    0.000    4.857 
#    0.000    5.714    0.000    0.000    0.000    4.000 
#    0.000    0.000    0.000    0.000    0.000    0.714 
#
# Total GULP energy -694112.340051 kJ/mol
# GULP energy per Si atom -12394.863215 kJ/mol
# Density = 1.483455 g / cm^3
# Si number density = 14.868388 Si / 1000 Ang^3
#
#
#
# Elastic Constant Matrix: (Units=GPa)
#
#
# Indices 1 2 3 4 5 6 
#
# 1 58.1912 31.0667 27.5036 0.0000 0.0000 0.0000
# 2 31.0667 122.8519 62.4495 0.0000 0.0000 0.0000
# 3 27.5036 62.4495 72.1354 0.0000 0.0000 0.0000
# 4 0.0000 0.0000 0.0000 24.8318 0.0000 0.0000
# 5 0.0000 0.0000 0.0000 0.0000 15.5701 0.0000
# 6 0.0000 0.0000 0.0000 0.0000 0.0000 9.5448
#
#
#
# Elastic Compliance Matrix: (Units=1/GPa)
#
#
# Indices 1 2 3 4 5 6 
#
# 1 0.021304 -0.002247 -0.006177 0.000000 0.000000 0.000000
# 2 -0.002247 0.014775 -0.011934 0.000000 0.000000 0.000000
# 3 -0.006177 -0.011934 0.026550 0.000000 0.000000 0.000000
# 4 0.000000 0.000000 0.000000 0.040271 0.000000 0.000000
# 5 0.000000 0.000000 0.000000 0.000000 0.064226 0.000000
# 6 0.000000 0.000000 0.000000 0.000000 0.000000 0.104769
#
#
# Mechanical properties :
#
#
# Convention : Reuss Voigt Hill
#
# Bulk Modulus (GPa) = 45.63837 55.02423 50.33130
# Shear Modulus (GPa) = 15.62918 18.79992 17.21455
#
# Velocity S-wave (km/s) = 3.24569 3.55973 3.40633
# Velocity P-wave (km/s) = 6.69384 7.34734 7.02819
#
# Compressibility (1/GPa) = 0.02191139
#
# Stress axis : x y z
#
# Youngs Moduli (GPa) = 46.93932 67.68395 37.66541
#
# Poissons Ratio (x) = 0.15210 0.23267
# Poissons Ratio (y) = 0.10549 0.44949
# Poissons Ratio (z) = 0.28996 0.80773
#
# Static dielectric constant tensor:
#      x y z
#    x 2.563360 0.000000 0.000000 
#    y 0.000000 2.968680 0.000000 
#    z 0.000000 0.000000 3.034440 
# 
# 
# High freq. dielectric constant tensor:
#      x y z
#    x 1.519680 0.000000 0.000000 
#    y 0.000000 1.566290 0.000000 
#    z 0.000000 0.000000 1.574290 
# 
# From -- ./inp_files/8166.got.cif
#   From: 2010.03.12/outbox.cif.g09.slc.cpg/sg47_5_cif.got.tgz:8166.got - 2010.04.14 03:12:58.
