data_PCOD8194657
_publ_section_title
;
Structure prediction by ZEFSAII (Michael W. Deem and Ramdas Pophale) SiO2 
 PCOD8194657
Probable space group: P M M M
;
_chemical_formula_sum "Si O2"
_cell_formula_units_Z 52
_cell_length_a 9.395282
_cell_length_b 15.392492
_cell_length_c 22.307803
_cell_angle_alpha 90.000000
_cell_angle_beta 90.000000
_cell_angle_gamma 90.000000
_cell_volume 3226.083152
_symmetry_space_group_name_H-M "P M M M"
_symmetry_group_IT_number 47
_symmetry_cell_setting 'orthorhombic'
loop_
_space_group_symop_operation_xyz
x,y,z
-x,-y,z
x,-y,-z
-x,y,-z
-x,-y,-z
x,y,-z
-x,y,z
x,-y,z
loop_
_atom_site_type_symbol
_atom_site_label
_atom_site_fract_x
_atom_site_fract_y
_atom_site_fract_z
Si Si1 0.154841 0.897577 0.500000
Si Si2 0.840591 0.595024 0.846906
Si Si3 0.334785 0.756124 0.846819
Si Si4 0.830852 0.899171 0.630063
Si Si5 0.666785 0.238856 0.706610
Si Si6 0.330881 0.096238 0.933060
Si Si7 0.839751 0.596246 0.295475
O O1 0.229075 0.872423 0.436744
O O2 0.000000 0.852900 0.500000
O O3 0.132979 0.000000 0.500000
O O4 0.789845 0.500000 0.869889
O O5 0.737733 0.668982 0.872257
O O6 0.836761 0.595600 0.775618
O O7 0.000000 0.613848 0.869635
O O8 0.500000 0.744726 0.859659
O O9 0.303599 0.771212 0.777079
O O10 0.269753 0.836742 0.884082
O O11 0.744331 0.842755 0.677220
O O12 0.000000 0.881494 0.634750
O O13 0.798408 0.000000 0.643598
O O14 0.500000 0.237886 0.691517
O O15 0.732561 0.329144 0.681080
O O16 0.500000 0.094491 0.929572
O O17 0.271638 0.000000 0.917991
O O18 0.282311 0.123907 0.000000
O O19 0.792763 0.500000 0.318890
O O20 0.000000 0.617000 0.318072
#
# Coordination Sequence:
#
# PCOD8194657 Si02
#       7
#     4   8   8   8   8   8   8
#     4   7  12  26  47  65  78 101 144 189 215 232
#     4   8  14  25  41  60  82 109 138 167 203 248
#     4   9  17  27  41  63  87 110 137 172 212 250
#     4   9  17  30  47  64  84 113 148 181 209 242
#     4  10  19  27  38  63  96 120 136 164 213 266
#     4   8  14  26  44  62  78 102 141 183 215 244
#     4   8  14  26  43  60  80 110 147 181 208 240
#
# _framework density 16.118617
#
# number of rings (size 3 to 8) (size 9 to 14) (size 15 to 20)
#    0.000    3.462    0.000    2.769    0.000    2.154 
#    0.000    5.000    0.000    2.769    0.000    4.846 
#    0.000    4.308    0.000    0.000    0.000    0.000 
#
# Total GULP energy -644204.303604 kJ/mol
# GULP energy per Si atom -12388.544300 kJ/mol
# Density = 1.608193 g / cm^3
# Si number density = 16.118617 Si / 1000 Ang^3
#
#
#
# Elastic Constant Matrix: (Units=GPa)
#
#
# Indices 1 2 3 4 5 6 
#
# 1 62.2930 62.7541 34.2782 0.0000 0.0000 0.0000
# 2 62.7541 140.4783 56.6529 0.0000 0.0000 0.0000
# 3 34.2782 56.6529 52.8535 0.0000 0.0000 0.0000
# 4 0.0000 0.0000 0.0000 2.7679 0.0000 0.0000
# 5 0.0000 0.0000 0.0000 0.0000 11.3207 0.0000
# 6 0.0000 0.0000 0.0000 0.0000 0.0000 27.7407
#
#
#
# Elastic Compliance Matrix: (Units=1/GPa)
#
#
# Indices 1 2 3 4 5 6 
#
# 1 0.031668 -0.010329 -0.009467 0.000000 0.000000 0.000000
# 2 -0.010329 0.015907 -0.010352 0.000000 0.000000 0.000000
# 3 -0.009467 -0.010352 0.036157 0.000000 0.000000 0.000000
# 4 0.000000 0.000000 0.000000 0.361281 0.000000 0.000000
# 5 0.000000 0.000000 0.000000 0.000000 0.088333 0.000000
# 6 0.000000 0.000000 0.000000 0.000000 0.000000 0.036048
#
#
# Mechanical properties :
#
#
# Convention : Reuss Voigt Hill
#
# Bulk Modulus (GPa) = 42.66977 62.55503 52.61240
# Shear Modulus (GPa) = 7.84311 15.16184 11.50248
#
# Velocity S-wave (km/s) = 2.20826 3.07032 2.67425
# Velocity P-wave (km/s) = 5.74732 7.17374 6.49978
#
# Compressibility (1/GPa) = 0.02343580
#
# Stress axis : x y z
#
# Youngs Moduli (GPa) = 31.57793 62.86349 27.65743
#
# Poissons Ratio (x) = 0.64929 0.26183
# Poissons Ratio (y) = 0.32616 0.28632
# Poissons Ratio (z) = 0.29895 0.65079
#
# Static dielectric constant tensor:
#      x y z
#    x 2.890030 0.000000 0.000000 
#    y 0.000000 3.390270 0.000000 
#    z 0.000000 0.000000 2.926520 
# 
# 
# High freq. dielectric constant tensor:
#      x y z
#    x 1.595650 0.000000 0.000000 
#    y 0.000000 1.624730 0.000000 
#    z 0.000000 0.000000 1.584460 
# 
# From -- ./inp_files/12530.got.cif
#   From: 2010.03.12/outbox.cif.g09.slc.cpg/sg47_7_cif.got.tgz:12530.got - 2010.04.14 03:12:58.
