data_PCOD8194390
_publ_section_title
;
Structure prediction by ZEFSAII (Michael W. Deem and Ramdas Pophale) SiO2 
 PCOD8194390
Probable space group: P M M M
;
_chemical_formula_sum "Si O2"
_cell_formula_units_Z 64
_cell_length_a 9.016065
_cell_length_b 20.341040
_cell_length_c 20.249585
_cell_angle_alpha 90.000000
_cell_angle_beta 90.000000
_cell_angle_gamma 90.000000
_cell_volume 3713.695701
_symmetry_space_group_name_H-M "P M M M"
_symmetry_group_IT_number 47
_symmetry_cell_setting 'orthorhombic'
loop_
_space_group_symop_operation_xyz
x,y,z
-x,-y,z
x,-y,-z
-x,y,-z
-x,-y,-z
x,y,-z
-x,y,z
x,-y,z
loop_
_atom_site_type_symbol
_atom_site_label
_atom_site_fract_x
_atom_site_fract_y
_atom_site_fract_z
Si Si1 0.668195 0.073669 0.691703
Si Si2 0.322239 0.836012 0.809884
Si Si3 0.169407 0.872780 0.426593
Si Si4 0.333300 0.293831 0.751565
Si Si5 0.323563 0.073738 0.926165
Si Si6 0.828107 0.610597 0.426819
Si Si7 0.674115 0.428195 0.298156
Si Si8 0.668067 0.259214 0.601634
O O1 0.500000 0.094225 0.673237
O O2 0.733663 0.121487 0.747727
O O3 0.768540 0.075677 0.626322
O O4 0.672319 0.000000 0.720331
O O5 0.500000 0.835264 0.810421
O O6 0.261037 0.760131 0.802109
O O7 0.259548 0.870927 0.876119
O O8 0.180949 0.903763 0.500000
O O9 0.269165 0.808356 0.424653
O O10 0.000000 0.855036 0.409286
O O11 0.500000 0.305313 0.775991
O O12 0.258749 0.367476 0.746199
O O13 0.326427 0.259465 0.680692
O O14 0.500000 0.074318 0.923156
O O15 0.268146 0.000000 0.907241
O O16 0.268959 0.091747 0.000000
O O17 0.804608 0.579360 0.500000
O O18 0.743357 0.569120 0.371139
O O19 0.769073 0.684456 0.428985
O O20 0.000000 0.611034 0.407653
O O21 0.500000 0.414435 0.308064
O O22 0.702493 0.500000 0.264727
O O23 0.500000 0.268513 0.576740
#
# Coordination Sequence:
#
# PCOD8194390 Si02
#       8
#     8   8   8   8   8   8   8   8
#     4  10  20  33  49  67  84 108 147 191 232 274
#     4   9  14  24  43  65  88 115 149 187 223 262
#     4  11  23  35  46  61  84 113 144 185 240 291
#     4   8  14  25  43  63  81 103 137 182 225 260
#     4   8  13  20  32  57  96 134 156 173 212 271
#     4  10  20  31  43  62  87 112 140 175 222 283
#     4   9  18  31  45  61  82 109 144 188 233 275
#     4  10  18  31  49  67  85 108 143 187 230 272
#
# _framework density 17.233506999999999
#
# number of rings (size 3 to 8) (size 9 to 14) (size 15 to 20)
#    0.000    2.625    1.250    3.000    0.000    6.000 
#    0.000    2.500    0.000    0.000    0.000    0.000 
#    0.000    1.000    0.000    9.625    0.000    3.500 
#
# Total GULP energy -792897.056455 kJ/mol
# GULP energy per Si atom -12389.016507 kJ/mol
# Density = 1.719428 g / cm^3
# Si number density = 17.233507 Si / 1000 Ang^3
#
#
#
# Elastic Constant Matrix: (Units=GPa)
#
#
# Indices 1 2 3 4 5 6 
#
# 1 33.4405 16.6856 16.3052 0.0000 0.0000 0.0000
# 2 16.6856 130.4507 59.5921 0.0000 0.0000 0.0000
# 3 16.3052 59.5921 85.0382 0.0000 0.0000 0.0000
# 4 0.0000 0.0000 0.0000 15.4772 0.0000 0.0000
# 5 0.0000 0.0000 0.0000 0.0000 1.4496 0.0000
# 6 0.0000 0.0000 0.0000 0.0000 0.0000 10.4916
#
#
#
# Elastic Compliance Matrix: (Units=1/GPa)
#
#
# Indices 1 2 3 4 5 6 
#
# 1 0.033331 -0.001977 -0.005006 0.000000 0.000000 0.000000
# 2 -0.001977 0.011392 -0.007604 0.000000 0.000000 0.000000
# 3 -0.005006 -0.007604 0.018048 0.000000 0.000000 0.000000
# 4 0.000000 0.000000 0.000000 0.064611 0.000000 0.000000
# 5 0.000000 0.000000 0.000000 0.000000 0.689863 0.000000
# 6 0.000000 0.000000 0.000000 0.000000 0.000000 0.095315
#
#
# Mechanical properties :
#
#
# Convention : Reuss Voigt Hill
#
# Bulk Modulus (GPa) = 29.76375 48.23282 38.99828
# Shear Modulus (GPa) = 5.24695 15.90675 10.57685
#
# Velocity S-wave (km/s) = 1.74678 3.04141 2.48006
# Velocity P-wave (km/s) = 4.62349 6.35469 5.55692
#
# Compressibility (1/GPa) = 0.03359792
#
# Stress axis : x y z
#
# Youngs Moduli (GPa) = 30.00222 87.77789 55.40720
#
# Poissons Ratio (x) = 0.17350 0.27736
# Poissons Ratio (y) = 0.05930 0.42134
# Poissons Ratio (z) = 0.15018 0.66750
#
# Static dielectric constant tensor:
#      x y z
#    x 2.917980 0.000000 0.000000 
#    y 0.000000 3.439700 0.000000 
#    z 0.000000 0.000000 3.154500 
# 
# 
# High freq. dielectric constant tensor:
#      x y z
#    x 1.627830 0.000000 0.000000 
#    y 0.000000 1.671210 0.000000 
#    z 0.000000 0.000000 1.626080 
# 
# From -- ./inp_files/30147.got.cif
#   From: 2010.03.12/outbox.cif.g09.slc.cpg/sg47_16_cif.got.tgz:30147.got - 2010.04.14 03:12:58.
