data_PCOD8194073
_publ_section_title
;
Structure prediction by ZEFSAII (Michael W. Deem and Ramdas Pophale) SiO2 
 PCOD8194073
Probable space group: P M M M
;
_chemical_formula_sum "Si O2"
_cell_formula_units_Z 56
_cell_length_a 19.064886
_cell_length_b 8.933560
_cell_length_c 18.640374
_cell_angle_alpha 90.000000
_cell_angle_beta 90.000000
_cell_angle_gamma 90.000000
_cell_volume 3174.778226
_symmetry_space_group_name_H-M "P M M M"
_symmetry_group_IT_number 47
_symmetry_cell_setting 'orthorhombic'
loop_
_space_group_symop_operation_xyz
x,y,z
-x,-y,z
x,-y,-z
-x,y,-z
-x,-y,-z
x,y,-z
-x,y,z
x,-y,z
loop_
_atom_site_type_symbol
_atom_site_label
_atom_site_fract_x
_atom_site_fract_y
_atom_site_fract_z
Si Si1 0.212736 0.677716 0.707725
Si Si2 0.576697 0.332161 0.414934
Si Si3 0.712263 0.177278 0.836873
Si Si4 0.923304 0.675655 0.212646
Si Si5 0.285197 0.825685 0.416949
Si Si6 0.167081 0.326781 0.081328
Si Si7 0.422347 0.177624 0.919758
O O1 0.217502 0.500000 0.709604
O O2 0.270971 0.743166 0.761653
O O3 0.135324 0.735128 0.731478
O O4 0.226413 0.737623 0.627802
O O5 0.574089 0.330766 0.500000
O O6 0.500000 0.280335 0.385570
O O7 0.593680 0.500000 0.387656
O O8 0.637543 0.221022 0.388370
O O9 0.767348 0.223956 0.898035
O O10 0.635914 0.234431 0.863402
O O11 0.714877 0.000000 0.825585
O O12 0.930454 0.500000 0.222757
O O13 0.898906 0.713908 0.131737
O O14 0.000000 0.750257 0.226516
O O15 0.274918 0.781780 0.500000
O O16 0.275714 0.000000 0.403895
O O17 0.188741 0.500000 0.092940
O O18 0.144508 0.293807 0.000000
O O19 0.500000 0.231296 0.894747
O O20 0.419671 0.000000 0.922885
O O21 0.406648 0.239921 0.000000
#
# Coordination Sequence:
#
# PCOD8194073 Si02
#       7
#     8   8   8   8   8   8   8
#     4  10  20  34  52  72  95 124 156 193 240 291
#     4   8  14  26  45  69  97 127 156 187 227 274
#     4  10  18  29  47  68  92 124 161 200 242 287
#     4   8  15  29  49  72  95 121 157 198 237 279
#     4  10  20  33  51  75 100 126 159 199 239 283
#     4   9  17  28  44  69  99 128 157 192 235 282
#     4   8  14  25  42  65  91 120 159 205 245 276
#
# _framework density 17.639026000000001
#
# number of rings (size 3 to 8) (size 9 to 14) (size 15 to 20)
#    0.000    3.000    0.000    3.429    0.000    2.286 
#    0.000    3.571    0.000   15.429    0.000   12.000 
#    0.000    0.000    0.000    0.000    0.000    0.000 
#
# Total GULP energy -694036.558470 kJ/mol
# GULP energy per Si atom -12393.509973 kJ/mol
# Density = 1.759888 g / cm^3
# Si number density = 17.639026 Si / 1000 Ang^3
#
#
#
# Elastic Constant Matrix: (Units=GPa)
#
#
# Indices 1 2 3 4 5 6 
#
# 1 141.2742 34.1734 65.4741 0.0000 0.0000 0.0000
# 2 34.1734 53.0925 34.4789 0.0000 0.0000 0.0000
# 3 65.4741 34.4789 90.4780 0.0000 0.0000 0.0000
# 4 0.0000 0.0000 0.0000 24.9131 0.0000 0.0000
# 5 0.0000 0.0000 0.0000 0.0000 20.1550 0.0000
# 6 0.0000 0.0000 0.0000 0.0000 0.0000 16.7372
#
#
#
# Elastic Compliance Matrix: (Units=1/GPa)
#
#
# Indices 1 2 3 4 5 6 
#
# 1 0.010897 -0.002516 -0.006927 0.000000 0.000000 0.000000
# 2 -0.002516 0.025610 -0.007939 0.000000 0.000000 0.000000
# 3 -0.006927 -0.007939 0.019091 0.000000 0.000000 0.000000
# 4 0.000000 0.000000 0.000000 0.040140 0.000000 0.000000
# 5 0.000000 0.000000 0.000000 0.000000 0.049615 0.000000
# 6 0.000000 0.000000 0.000000 0.000000 0.000000 0.059747
#
#
# Mechanical properties :
#
#
# Convention : Reuss Voigt Hill
#
# Bulk Modulus (GPa) = 47.99749 61.45528 54.72639
# Shear Modulus (GPa) = 20.25864 22.40894 21.33379
#
# Velocity S-wave (km/s) = 3.39265 3.56816 3.48151
# Velocity P-wave (km/s) = 6.52815 7.20360 6.87418
#
# Compressibility (1/GPa) = 0.02083442
#
# Stress axis : x y z
#
# Youngs Moduli (GPa) = 91.76517 39.04755 52.38182
#
# Poissons Ratio (x) = 0.09823 0.36286
# Poissons Ratio (y) = 0.23084 0.41585
# Poissons Ratio (z) = 0.63568 0.30999
#
# Static dielectric constant tensor:
#      x y z
#    x 3.663680 0.000000 0.000000 
#    y 0.000000 3.050960 0.000000 
#    z 0.000000 0.000000 3.152180 
# 
# 
# High freq. dielectric constant tensor:
#      x y z
#    x 1.679720 0.000000 0.000000 
#    y 0.000000 1.658690 0.000000 
#    z 0.000000 0.000000 1.662940 
# 
# From -- ./inp_files/28741.got.cif
#   From: 2010.03.12/outbox.cif.g09.slc.cpg/sg47_15_cif.got.tgz:28741.got - 2010.04.14 03:12:58.
