data_PCOD8194820
_publ_section_title
;
Structure prediction by ZEFSAII (Michael W. Deem and Ramdas Pophale) SiO2 
 PCOD8194820
Probable space group: P M M M
;
_chemical_formula_sum "Si O2"
_cell_formula_units_Z 40
_cell_length_a 24.591478
_cell_length_b 14.131756
_cell_length_c 7.886166
_cell_angle_alpha 90.000000
_cell_angle_beta 90.000000
_cell_angle_gamma 90.000000
_cell_volume 2740.606455
_symmetry_space_group_name_H-M "P M M M"
_symmetry_group_IT_number 47
_symmetry_cell_setting 'orthorhombic'
loop_
_space_group_symop_operation_xyz
x,y,z
-x,-y,z
x,-y,-z
-x,y,-z
-x,-y,-z
x,y,-z
-x,y,z
x,-y,z
loop_
_atom_site_type_symbol
_atom_site_label
_atom_site_fract_x
_atom_site_fract_y
_atom_site_fract_z
Si Si1 0.253237 0.387747 0.690163
Si Si2 0.561339 0.387081 0.500000
Si Si3 0.064528 0.894427 0.000000
Si Si4 0.136986 0.392250 0.805741
Si Si5 0.631992 0.387388 0.187204
Si Si6 0.937368 0.232388 0.310620
O O1 0.251454 0.347399 0.500000
O O2 0.256675 0.500000 0.688799
O O3 0.198859 0.354820 0.786932
O O4 0.307034 0.347645 0.782260
O O5 0.561864 0.500000 0.500000
O O6 0.500000 0.347888 0.500000
O O7 0.591452 0.347844 0.331582
O O8 0.084943 0.841149 0.170013
O O9 0.000000 0.900591 0.000000
O O10 0.089561 0.000000 0.000000
O O11 0.132567 0.500000 0.738786
O O12 0.096373 0.329245 0.695884
O O13 0.119170 0.385161 0.000000
O O14 0.632612 0.500000 0.197407
O O15 0.612442 0.354147 0.000000
O O16 0.930948 0.188738 0.500000
O O17 0.000000 0.257267 0.272634
#
# Coordination Sequence:
#
# PCOD8194820 Si02
#       6
#     8   4   4   8   8   8
#     4   9  15  24  37  52  71  95 127 164 197 233
#     4   9  16  24  32  44  62  84 113 153 202 245
#     4   9  18  34  53  69  85 105 132 168 210 253
#     4  10  19  29  42  61  85 113 143 171 203 248
#     4   9  15  23  34  46  62  85 115 153 195 237
#     4  10  20  33  48  66  88 111 136 168 207 251
#
# _framework density 14.595309
#
# number of rings (size 3 to 8) (size 9 to 14) (size 15 to 20)
#    0.000    2.600    2.000    1.200    0.000    4.800 
#    0.000    6.000    0.000    0.000    0.000    0.000 
#    0.000    0.000    0.000    0.000    0.000    0.000 
#
# Total GULP energy -495805.734750 kJ/mol
# GULP energy per Si atom -12395.143369 kJ/mol
# Density = 1.456209 g / cm^3
# Si number density = 14.595309 Si / 1000 Ang^3
#
#
#
# Elastic Constant Matrix: (Units=GPa)
#
#
# Indices 1 2 3 4 5 6 
#
# 1 82.0408 26.4895 40.4103 0.0000 0.0000 0.0000
# 2 26.4895 40.5273 27.8400 0.0000 0.0000 0.0000
# 3 40.4103 27.8400 116.7281 0.0000 0.0000 0.0000
# 4 0.0000 0.0000 0.0000 8.7357 0.0000 0.0000
# 5 0.0000 0.0000 0.0000 0.0000 21.3298 0.0000
# 6 0.0000 0.0000 0.0000 0.0000 0.0000 0.5106
#
#
#
# Elastic Compliance Matrix: (Units=1/GPa)
#
#
# Indices 1 2 3 4 5 6 
#
# 1 0.016759 -0.008334 -0.003814 0.000000 0.000000 0.000000
# 2 -0.008334 0.033654 -0.005141 0.000000 0.000000 0.000000
# 3 -0.003814 -0.005141 0.011114 0.000000 0.000000 0.000000
# 4 0.000000 0.000000 0.000000 0.114473 0.000000 0.000000
# 5 0.000000 0.000000 0.000000 0.000000 0.046883 0.000000
# 6 0.000000 0.000000 0.000000 0.000000 0.000000 1.958305
#
#
# Mechanical properties :
#
#
# Convention : Reuss Voigt Hill
#
# Bulk Modulus (GPa) = 37.10933 47.64176 42.37554
# Shear Modulus (GPa) = 2.24745 15.75231 8.99988
#
# Velocity S-wave (km/s) = 1.24225 3.28879 2.48589
# Velocity P-wave (km/s) = 5.24769 6.86544 6.11034
#
# Compressibility (1/GPa) = 0.02694740
#
# Stress axis : x y z
#
# Youngs Moduli (GPa) = 59.67115 29.71439 89.98009
#
# Poissons Ratio (x) = 0.24763 0.34319
# Poissons Ratio (y) = 0.49728 0.46263
# Poissons Ratio (z) = 0.22759 0.15278
#
# Static dielectric constant tensor:
#      x y z
#    x 2.894470 0.000000 0.000000 
#    y 0.000000 2.310320 0.000000 
#    z 0.000000 0.000000 3.084510 
# 
# 
# High freq. dielectric constant tensor:
#      x y z
#    x 1.551160 0.000000 0.000000 
#    y 0.000000 1.471130 0.000000 
#    z 0.000000 0.000000 1.581540 
# 
# From -- ./inp_files/10832.got.cif
#   From: 2010.03.12/outbox.cif.g09.slc.cpg/sg47_6_cif.got.tgz:10832.got - 2010.04.14 03:12:58.
