data_PCOD8194276
_publ_section_title
;
Structure prediction by ZEFSAII (Michael W. Deem and Ramdas Pophale) SiO2 
 PCOD8194276
Probable space group: P M M M
;
_chemical_formula_sum "Si O2"
_cell_formula_units_Z 48
_cell_length_a 12.922770
_cell_length_b 13.675782
_cell_length_c 15.147422
_cell_angle_alpha 90.000000
_cell_angle_beta 90.000000
_cell_angle_gamma 90.000000
_cell_volume 2676.988521
_symmetry_space_group_name_H-M "P M M M"
_symmetry_group_IT_number 47
_symmetry_cell_setting 'orthorhombic'
loop_
_space_group_symop_operation_xyz
x,y,z
-x,-y,z
x,-y,-z
-x,y,-z
-x,-y,-z
x,y,-z
-x,y,z
x,-y,z
loop_
_atom_site_type_symbol
_atom_site_label
_atom_site_fract_x
_atom_site_fract_y
_atom_site_fract_z
Si Si1 0.228681 0.112686 0.600699
Si Si2 0.805292 0.269107 0.099909
Si Si3 0.000000 0.392273 0.104487
Si Si4 0.618482 0.615490 0.838864
Si Si5 0.117958 0.112483 0.773324
Si Si6 0.381123 0.268628 0.659749
Si Si7 0.376576 0.606573 0.500000
O O1 0.204555 0.149481 0.500000
O O2 0.132497 0.129797 0.667586
O O3 0.323051 0.166380 0.649751
O O4 0.260528 0.000000 0.596578
O O5 0.896907 0.337657 0.136463
O O6 0.698711 0.331698 0.095695
O O7 0.803709 0.176466 0.166159
O O8 0.826877 0.232471 0.000000
O O9 0.000000 0.500000 0.147442
O O10 0.000000 0.400404 0.000000
O O11 0.500000 0.629609 0.872063
O O12 0.642649 0.500000 0.829285
O O13 0.637452 0.671935 0.748327
O O14 0.000000 0.139552 0.797102
O O15 0.141981 0.000000 0.796530
O O16 0.500000 0.243390 0.644571
O O17 0.334916 0.338789 0.585368
O O18 0.326322 0.500000 0.500000
O O19 0.500000 0.600157 0.500000
#
# Coordination Sequence:
#
# PCOD8194276 Si02
#       7
#     8   8   4   8   8   8   4
#     4  10  20  34  54  80 107 137 175 217 267 328
#     4  11  21  35  57  83 111 143 182 229 277 327
#     4   9  18  32  51  79 110 137 171 221 277 326
#     4  10  21  36  54  78 111 151 191 227 267 321
#     4  10  21  38  59  82 108 138 176 224 278 332
#     4  10  18  30  49  74 105 141 179 223 269 315
#     4   9  16  26  43  69 100 133 171 215 261 308
#
# _framework density 17.930596999999999
#
# number of rings (size 3 to 8) (size 9 to 14) (size 15 to 20)
#    0.000    2.000    3.333    1.000    0.000    4.333 
#    0.000    4.167    0.000    0.500    0.000    1.167 
#    0.000    2.667    0.000    0.000    0.000    0.000 
#
# Total GULP energy -594869.596322 kJ/mol
# GULP energy per Si atom -12393.116590 kJ/mol
# Density = 1.788979 g / cm^3
# Si number density = 17.930597 Si / 1000 Ang^3
#
#
#
# Elastic Constant Matrix: (Units=GPa)
#
#
# Indices 1 2 3 4 5 6 
#
# 1 78.7587 43.8699 26.9762 0.0000 0.0000 0.0000
# 2 43.8699 93.1394 38.7299 0.0000 0.0000 0.0000
# 3 26.9762 38.7299 83.3099 0.0000 0.0000 0.0000
# 4 0.0000 0.0000 0.0000 12.9116 0.0000 0.0000
# 5 0.0000 0.0000 0.0000 0.0000 20.7868 0.0000
# 6 0.0000 0.0000 0.0000 0.0000 0.0000 27.9654
#
#
#
# Elastic Compliance Matrix: (Units=1/GPa)
#
#
# Indices 1 2 3 4 5 6 
#
# 1 0.017556 -0.007320 -0.002282 0.000000 0.000000 0.000000
# 2 -0.007320 0.016362 -0.005236 0.000000 0.000000 0.000000
# 3 -0.002282 -0.005236 0.015176 0.000000 0.000000 0.000000
# 4 0.000000 0.000000 0.000000 0.077450 0.000000 0.000000
# 5 0.000000 0.000000 0.000000 0.000000 0.048108 0.000000
# 6 0.000000 0.000000 0.000000 0.000000 0.000000 0.035758
#
#
# Mechanical properties :
#
#
# Convention : Reuss Voigt Hill
#
# Bulk Modulus (GPa) = 51.49807 52.70667 52.10237
# Shear Modulus (GPa) = 20.27914 22.04156 21.16035
#
# Velocity S-wave (km/s) = 3.36665 3.50990 3.43902
# Velocity P-wave (km/s) = 6.62537 6.77381 6.70000
#
# Compressibility (1/GPa) = 0.01941821
#
# Stress axis : x y z
#
# Youngs Moduli (GPa) = 56.96040 61.11749 65.89190
#
# Poissons Ratio (x) = 0.44740 0.15034
# Poissons Ratio (y) = 0.41697 0.34502
# Poissons Ratio (z) = 0.12996 0.32002
#
# Static dielectric constant tensor:
#      x y z
#    x 3.204410 0.000000 0.000000 
#    y 0.000000 3.411630 0.000000 
#    z 0.000000 0.000000 3.337410 
# 
# 
# High freq. dielectric constant tensor:
#      x y z
#    x 1.676330 0.000000 0.000000 
#    y 0.000000 1.697920 0.000000 
#    z 0.000000 0.000000 1.692400 
# 
# From -- ./inp_files/17539.got.cif
#   From: 2010.03.12/outbox.cif.g09.slc.cpg/sg47_9_cif.got.tgz:17539.got - 2010.04.14 03:12:58.
