data_PCOD8194221
_publ_section_title
;
Structure prediction by ZEFSAII (Michael W. Deem and Ramdas Pophale) SiO2 
 PCOD8194221
Probable space group: P M M M
;
_chemical_formula_sum "Si O2"
_cell_formula_units_Z 64
_cell_length_a 9.319916
_cell_length_b 14.323485
_cell_length_c 31.307007
_cell_angle_alpha 90.000000
_cell_angle_beta 90.000000
_cell_angle_gamma 90.000000
_cell_volume 4179.287481
_symmetry_space_group_name_H-M "P M M M"
_symmetry_group_IT_number 47
_symmetry_cell_setting 'orthorhombic'
loop_
_space_group_symop_operation_xyz
x,y,z
-x,-y,z
x,-y,-z
-x,y,-z
-x,-y,-z
x,y,-z
-x,y,z
x,-y,z
loop_
_atom_site_type_symbol
_atom_site_label
_atom_site_fract_x
_atom_site_fract_y
_atom_site_fract_z
Si Si1 0.168801 0.785949 0.453278
Si Si2 0.833559 0.107592 0.208273
Si Si3 0.163791 0.395979 0.593670
Si Si4 0.161133 0.888977 0.952835
Si Si5 0.830964 0.224729 0.291004
Si Si6 0.829037 0.104767 0.371902
Si Si7 0.661183 0.888735 0.873698
Si Si8 0.667511 0.605941 0.679911
O O1 0.235817 0.809627 0.500000
O O2 0.203639 0.677805 0.442968
O O3 0.232594 0.852479 0.416219
O O4 0.000000 0.802064 0.455342
O O5 0.788346 0.166156 0.249469
O O6 0.745103 0.146548 0.168048
O O7 0.000000 0.119605 0.197096
O O8 0.796768 0.000000 0.218071
O O9 0.182176 0.500000 0.574579
O O10 0.268650 0.379678 0.633008
O O11 0.000000 0.379432 0.609690
O O12 0.264562 0.847291 0.916365
O O13 0.000000 0.852136 0.944676
O O14 0.161502 0.000000 0.950442
O O15 0.214431 0.856893 0.000000
O O16 0.776375 0.167432 0.332359
O O17 0.747876 0.323168 0.288220
O O18 0.000000 0.243804 0.293138
O O19 0.000000 0.103647 0.372410
O O20 0.768531 0.000000 0.366761
O O21 0.500000 0.849855 0.871864
O O22 0.663853 0.000000 0.875148
O O23 0.500000 0.629612 0.678470
O O24 0.694390 0.500000 0.695886
#
# Coordination Sequence:
#
# PCOD8194221 Si02
#       8
#     8   8   8   8   8   8   8   8
#     4   9  16  25  39  63  90 111 133 163 202 245
#     4   9  17  28  42  60  82 109 141 176 213 252
#     4   9  16  28  46  65  85 108 133 163 199 240
#     4   8  13  21  33  48  67  96 137 183 226 263
#     4  10  18  30  48  67  84 106 138 172 206 245
#     4   9  16  26  41  62  87 110 134 169 207 240
#     4   9  16  24  34  50  75 106 139 177 219 259
#     4  10  20  32  47  67  88 108 130 160 201 247
#
# _framework density 15.313615
#
# number of rings (size 3 to 8) (size 9 to 14) (size 15 to 20)
#    0.000    2.875    1.250    1.500    0.000    5.000 
#    0.000    3.750    0.000    1.500    0.000    1.750 
#    0.000    1.000    0.000    0.000    0.000    0.625 
#
# Total GULP energy -793301.558661 kJ/mol
# GULP energy per Si atom -12395.336854 kJ/mol
# Density = 1.527876 g / cm^3
# Si number density = 15.313615 Si / 1000 Ang^3
#
#
#
# Elastic Constant Matrix: (Units=GPa)
#
#
# Indices 1 2 3 4 5 6 
#
# 1 59.6620 30.6971 52.4175 0.0000 0.0000 0.0000
# 2 30.6971 72.4859 44.8921 0.0000 0.0000 0.0000
# 3 52.4175 44.8921 133.0121 0.0000 0.0000 0.0000
# 4 0.0000 0.0000 0.0000 7.0364 0.0000 0.0000
# 5 0.0000 0.0000 0.0000 0.0000 8.5232 0.0000
# 6 0.0000 0.0000 0.0000 0.0000 0.0000 12.5161
#
#
#
# Elastic Compliance Matrix: (Units=1/GPa)
#
#
# Indices 1 2 3 4 5 6 
#
# 1 0.027735 -0.006292 -0.008807 0.000000 0.000000 0.000000
# 2 -0.006292 0.018869 -0.003889 0.000000 0.000000 0.000000
# 3 -0.008807 -0.003889 0.012301 0.000000 0.000000 0.000000
# 4 0.000000 0.000000 0.000000 0.142119 0.000000 0.000000
# 5 0.000000 0.000000 0.000000 0.000000 0.117327 0.000000
# 6 0.000000 0.000000 0.000000 0.000000 0.000000 0.079897
#
#
# Mechanical properties :
#
#
# Convention : Reuss Voigt Hill
#
# Bulk Modulus (GPa) = 47.77556 57.90815 52.84185
# Shear Modulus (GPa) = 11.28161 14.75868 13.02015
#
# Velocity S-wave (km/s) = 2.71718 3.10782 2.91904
# Velocity P-wave (km/s) = 6.41170 7.12566 6.77808
#
# Compressibility (1/GPa) = 0.02093120
#
# Stress axis : x y z
#
# Youngs Moduli (GPa) = 36.05491 52.99784 81.29339
#
# Poissons Ratio (x) = 0.33344 0.71592
# Poissons Ratio (y) = 0.22684 0.31614
# Poissons Ratio (z) = 0.31752 0.20610
#
# Static dielectric constant tensor:
#      x y z
#    x 2.797880 0.000000 0.000000 
#    y 0.000000 2.833240 0.000000 
#    z 0.000000 0.000000 3.048890 
# 
# 
# High freq. dielectric constant tensor:
#      x y z
#    x 1.564170 0.000000 0.000000 
#    y 0.000000 1.552240 0.000000 
#    z 0.000000 0.000000 1.581760 
# 
# From -- ./inp_files/8209.got.cif
#   From: 2010.03.12/outbox.cif.g09.slc.cpg/sg47_5_cif.got.tgz:8209.got - 2010.04.14 03:12:58.
