data_PCOD8194533
_publ_section_title
;
Structure prediction by ZEFSAII (Michael W. Deem and Ramdas Pophale) SiO2 
 PCOD8194533
Probable space group: P M M M
;
_chemical_formula_sum "Si O2"
_cell_formula_units_Z 52
_cell_length_a 26.837761
_cell_length_b 8.773626
_cell_length_c 12.133539
_cell_angle_alpha 90.000000
_cell_angle_beta 90.000000
_cell_angle_gamma 90.000000
_cell_volume 2857.017423
_symmetry_space_group_name_H-M "P M M M"
_symmetry_group_IT_number 47
_symmetry_cell_setting 'orthorhombic'
loop_
_space_group_symop_operation_xyz
x,y,z
-x,-y,z
x,-y,-z
-x,y,-z
-x,-y,-z
x,y,-z
-x,y,z
x,-y,z
loop_
_atom_site_type_symbol
_atom_site_label
_atom_site_fract_x
_atom_site_fract_y
_atom_site_fract_z
Si Si1 0.557959 0.823891 0.625473
Si Si2 0.675090 0.321042 0.000000
Si Si3 0.862835 0.820612 0.833898
Si Si4 0.788041 0.318725 0.000000
Si Si5 0.273206 0.826168 0.625788
Si Si6 0.640624 0.321047 0.763868
Si Si7 0.945015 0.179863 0.000000
Si Si8 0.830498 0.322010 0.375819
O O1 0.571064 0.774951 0.500000
O O2 0.500000 0.797339 0.648522
O O3 0.587062 0.721175 0.713748
O O4 0.572421 0.000000 0.642608
O O5 0.731432 0.254099 0.000000
O O6 0.644025 0.270339 0.891982
O O7 0.681438 0.500000 0.000000
O O8 0.914111 0.768091 0.892284
O O9 0.866546 0.768687 0.707083
O O10 0.855503 0.000000 0.844550
O O11 0.815340 0.741670 0.890652
O O12 0.789752 0.500000 0.000000
O O13 0.290740 0.809865 0.500000
O O14 0.318258 0.773815 0.700091
O O15 0.226348 0.719464 0.650661
O O16 0.258431 0.000000 0.653418
O O17 0.650471 0.500000 0.749389
O O18 0.000000 0.256638 0.000000
O O19 0.951170 0.000000 0.000000
O O20 0.844560 0.272173 0.500000
O O21 0.838062 0.500000 0.358046
#
# Coordination Sequence:
#
# PCOD8194533 Si02
#       8
#     8   4   8   4   8   8   4   8
#     4   9  19  37  58  77  98 123 153 197 253 304
#     4   9  21  36  47  66  99 138 169 194 233 282
#     4  10  19  31  51  78 104 132 170 215 261 305
#     4  10  18  32  53  72  99 139 177 211 247 294
#     4  10  20  33  50  74 104 134 165 205 251 296
#     4  11  21  34  52  73 100 132 167 204 243 293
#     4   8  16  32  53  77 103 130 165 214 264 305
#     4  10  20  33  49  71 102 139 175 208 247 301
#
# _framework density 18.200797999999999
#
# number of rings (size 3 to 8) (size 9 to 14) (size 15 to 20)
#    0.000    2.231    0.000    4.385    0.000    5.538 
#    0.000    5.000    0.000   11.077    0.000    3.231 
#    0.000    0.000    0.000    0.000    0.000    0.000 
#
# Total GULP energy -644801.303348 kJ/mol
# GULP energy per Si atom -12400.025064 kJ/mol
# Density = 1.815937 g / cm^3
# Si number density = 18.200798 Si / 1000 Ang^3
#
#
#
# Elastic Constant Matrix: (Units=GPa)
#
#
# Indices 1 2 3 4 5 6 
#
# 1 96.1158 23.3367 68.1563 0.0000 0.0000 0.0000
# 2 23.3367 54.1609 37.8069 0.0000 0.0000 0.0000
# 3 68.1563 37.8069 138.1226 0.0000 0.0000 0.0000
# 4 0.0000 0.0000 0.0000 29.9012 0.0000 0.0000
# 5 0.0000 0.0000 0.0000 0.0000 19.5566 0.0000
# 6 0.0000 0.0000 0.0000 0.0000 0.0000 12.4837
#
#
#
# Elastic Compliance Matrix: (Units=1/GPa)
#
#
# Indices 1 2 3 4 5 6 
#
# 1 0.016133 -0.001724 -0.007489 0.000000 0.000000 0.000000
# 2 -0.001724 0.023009 -0.005447 0.000000 0.000000 0.000000
# 3 -0.007489 -0.005447 0.012426 0.000000 0.000000 0.000000
# 4 0.000000 0.000000 0.000000 0.033443 0.000000 0.000000
# 5 0.000000 0.000000 0.000000 0.000000 0.051134 0.000000
# 6 0.000000 0.000000 0.000000 0.000000 0.000000 0.080104
#
#
# Mechanical properties :
#
#
# Convention : Reuss Voigt Hill
#
# Bulk Modulus (GPa) = 44.94775 60.77770 52.86272
# Shear Modulus (GPa) = 19.76394 22.99493 21.37944
#
# Velocity S-wave (km/s) = 3.29885 3.55829 3.43102
# Velocity P-wave (km/s) = 6.26570 7.09558 6.69351
#
# Compressibility (1/GPa) = 0.02224806
#
# Stress axis : x y z
#
# Youngs Moduli (GPa) = 61.98406 43.46177 80.47337
#
# Poissons Ratio (x) = 0.07491 0.60267
# Poissons Ratio (y) = 0.10684 0.43837
# Poissons Ratio (z) = 0.46420 0.23675
#
# Static dielectric constant tensor:
#      x y z
#    x 3.314970 0.000000 0.000000 
#    y 0.000000 3.304290 0.000000 
#    z 0.000000 0.000000 3.697260 
# 
# 
# High freq. dielectric constant tensor:
#      x y z
#    x 1.683130 0.000000 0.000000 
#    y 0.000000 1.701280 0.000000 
#    z 0.000000 0.000000 1.712200 
# 
# From -- ./inp_files/19898.got.cif
#   From: 2010.03.12/outbox.cif.g09.slc.cpg/sg47_10_cif.got.tgz:19898.got - 2010.04.14 03:12:58.
