data_PCOD8194056
_publ_section_title
;
Structure prediction by ZEFSAII (Michael W. Deem and Ramdas Pophale) SiO2 
 PCOD8194056
Probable space group: P M M M
;
_chemical_formula_sum "Si O2"
_cell_formula_units_Z 64
_cell_length_a 9.285346
_cell_length_b 23.297905
_cell_length_c 18.746347
_cell_angle_alpha 90.000000
_cell_angle_beta 90.000000
_cell_angle_gamma 90.000000
_cell_volume 4055.380544
_symmetry_space_group_name_H-M "P M M M"
_symmetry_group_IT_number 47
_symmetry_cell_setting 'orthorhombic'
loop_
_space_group_symop_operation_xyz
x,y,z
-x,-y,z
x,-y,-z
-x,y,-z
-x,-y,-z
x,y,-z
-x,y,z
x,-y,z
loop_
_atom_site_type_symbol
_atom_site_label
_atom_site_fract_x
_atom_site_fract_y
_atom_site_fract_z
Si Si1 0.331868 0.218122 0.287503
Si Si2 0.666655 0.331474 0.198654
Si Si3 0.167941 0.272439 0.080844
Si Si4 0.833669 0.386876 0.580467
Si Si5 0.166934 0.745273 0.581019
Si Si6 0.666994 0.435512 0.707664
Si Si7 0.335567 0.933351 0.081951
Si Si8 0.830810 0.158994 0.833476
O O1 0.500000 0.203031 0.290984
O O2 0.302746 0.280656 0.254363
O O3 0.265395 0.216731 0.366790
O O4 0.250978 0.170207 0.240756
O O5 0.500000 0.335264 0.178405
O O6 0.752335 0.321607 0.125610
O O7 0.724305 0.390648 0.233284
O O8 0.204911 0.209872 0.111431
O O9 0.000000 0.285339 0.085652
O O10 0.224287 0.274816 0.000000
O O11 0.803880 0.407716 0.500000
O O12 0.786656 0.320871 0.588808
O O13 0.744323 0.427284 0.632420
O O14 0.000000 0.393706 0.600069
O O15 0.193565 0.766129 0.500000
O O16 0.000000 0.753003 0.601884
O O17 0.500000 0.423497 0.693808
O O18 0.695259 0.500000 0.735651
O O19 0.500000 0.913752 0.095801
O O20 0.227439 0.899497 0.132888
O O21 0.317524 0.000000 0.100170
O O22 0.293550 0.921551 0.000000
O O23 0.000000 0.153372 0.818461
#
# Coordination Sequence:
#
# PCOD8194056 Si02
#       8
#     8   8   8   8   8   8   8   8
#     4  10  18  29  46  67  91 119 153 191 231 275
#     4   9  18  31  45  64  86 110 142 179 223 273
#     4   9  18  31  47  68  91 114 141 179 226 271
#     4   9  18  31  46  64  87 115 147 182 219 265
#     4   9  17  29  45  65  90 120 151 184 226 274
#     4  10  20  33  47  63  85 112 145 186 226 268
#     4   9  18  32  48  67  96 134 170 201 232 266
#     4  10  19  30  46  69  97 126 157 194 231 270
#
# _framework density 15.781504
#
# number of rings (size 3 to 8) (size 9 to 14) (size 15 to 20)
#    0.000    2.625    1.250    2.250    0.000    3.750 
#    0.000    3.125    0.000    0.375    0.000    2.625 
#    0.000    0.500    0.000    5.250    0.000    2.250 
#
# Total GULP energy -793669.487318 kJ/mol
# GULP energy per Si atom -12401.085739 kJ/mol
# Density = 1.574558 g / cm^3
# Si number density = 15.781504 Si / 1000 Ang^3
#
#
#
# Elastic Constant Matrix: (Units=GPa)
#
#
# Indices 1 2 3 4 5 6 
#
# 1 68.1953 36.5857 49.7043 0.0000 0.0000 0.0000
# 2 36.5857 66.5392 40.1713 0.0000 0.0000 0.0000
# 3 49.7043 40.1713 99.8764 0.0000 0.0000 0.0000
# 4 0.0000 0.0000 0.0000 26.6641 0.0000 0.0000
# 5 0.0000 0.0000 0.0000 0.0000 31.3166 0.0000
# 6 0.0000 0.0000 0.0000 0.0000 0.0000 22.9833
#
#
#
# Elastic Compliance Matrix: (Units=1/GPa)
#
#
# Indices 1 2 3 4 5 6 
#
# 1 0.026320 -0.008669 -0.009612 0.000000 0.000000 0.000000
# 2 -0.008669 0.022704 -0.004818 0.000000 0.000000 0.000000
# 3 -0.009612 -0.004818 0.016733 0.000000 0.000000 0.000000
# 4 0.000000 0.000000 0.000000 0.037504 0.000000 0.000000
# 5 0.000000 0.000000 0.000000 0.000000 0.031932 0.000000
# 6 0.000000 0.000000 0.000000 0.000000 0.000000 0.043510
#
#
# Mechanical properties :
#
#
# Convention : Reuss Voigt Hill
#
# Bulk Modulus (GPa) = 51.12241 54.17039 52.64640
# Shear Modulus (GPa) = 21.60587 23.40277 22.50432
#
# Velocity S-wave (km/s) = 3.70410 3.85505 3.78033
# Velocity P-wave (km/s) = 7.12446 7.36308 7.24476
#
# Compressibility (1/GPa) = 0.01956089
#
# Stress axis : x y z
#
# Youngs Moduli (GPa) = 37.99403 44.04579 59.76101
#
# Poissons Ratio (x) = 0.38183 0.57440
# Poissons Ratio (y) = 0.32937 0.28790
# Poissons Ratio (z) = 0.36518 0.21219
#
# Static dielectric constant tensor:
#      x y z
#    x 2.969380 0.000000 0.000000 
#    y 0.000000 2.776670 0.000000 
#    z 0.000000 0.000000 2.988590 
# 
# 
# High freq. dielectric constant tensor:
#      x y z
#    x 1.610160 0.000000 0.000000 
#    y 0.000000 1.574650 0.000000 
#    z 0.000000 0.000000 1.600130 
# 
# From -- ./inp_files/10000.got.cif
#   From: 2010.03.12/outbox.cif.g09.slc.cpg/sg47_5_cif.got.tgz:10000.got - 2010.04.14 03:12:58.
