data_PCOD8194698
_publ_section_title
;
Structure prediction by ZEFSAII (Michael W. Deem and Ramdas Pophale) SiO2 
 PCOD8194698
Probable space group: P M M M
;
_chemical_formula_sum "Si O2"
_cell_formula_units_Z 52
_cell_length_a 26.668171
_cell_length_b 9.166661
_cell_length_c 13.721548
_cell_angle_alpha 90.000000
_cell_angle_beta 90.000000
_cell_angle_gamma 90.000000
_cell_volume 3354.343321
_symmetry_space_group_name_H-M "P M M M"
_symmetry_group_IT_number 47
_symmetry_cell_setting 'orthorhombic'
loop_
_space_group_symop_operation_xyz
x,y,z
-x,-y,z
x,-y,-z
-x,y,-z
-x,-y,-z
x,y,-z
-x,y,z
x,-y,z
loop_
_atom_site_type_symbol
_atom_site_label
_atom_site_fract_x
_atom_site_fract_y
_atom_site_fract_z
Si Si1 0.605489 0.829410 0.890357
Si Si2 0.107226 0.163339 0.883937
Si Si3 0.795147 0.670554 0.113773
Si Si4 0.653415 0.671190 0.388380
Si Si5 0.000000 0.826895 0.893382
Si Si6 0.705971 0.828423 0.779379
Si Si7 0.444317 0.331058 0.276410
O O1 0.660871 0.790929 0.852537
O O2 0.563737 0.752951 0.824668
O O3 0.595339 0.000000 0.885475
O O4 0.600718 0.769847 0.000000
O O5 0.150187 0.275413 0.851079
O O6 0.052762 0.216343 0.840175
O O7 0.120724 0.000000 0.846732
O O8 0.102118 0.160721 0.000000
O O9 0.790474 0.500000 0.134921
O O10 0.755299 0.756591 0.177492
O O11 0.786593 0.706708 0.000000
O O12 0.660268 0.717136 0.500000
O O13 0.662643 0.500000 0.372644
O O14 0.694073 0.760053 0.326126
O O15 0.596845 0.715611 0.356558
O O16 0.000000 0.000000 0.904970
O O17 0.000000 0.752594 0.000000
O O18 0.714481 0.000000 0.767586
O O19 0.500000 0.294541 0.316861
O O20 0.438860 0.500000 0.251647
#
# Coordination Sequence:
#
# PCOD8194698 Si02
#       7
#     8   8   8   8   4   8   8
#     4   9  18  31  45  61  82 110 142 172 204 243
#     4   8  13  22  36  53  75 107 147 185 217 249
#     4  10  19  28  39  59  87 116 146 180 217 255
#     4   9  18  33  51  68  86 108 133 164 207 256
#     4   7  10  18  33  51  71 101 144 187 218 245
#     4  10  19  31  47  64  83 108 140 177 213 252
#     4   9  18  31  46  66  89 110 135 166 199 240
#
# _framework density 15.502288999999999
#
# number of rings (size 3 to 8) (size 9 to 14) (size 15 to 20)
#    0.000    3.000    0.000    2.308    0.000    3.692 
#    0.000    3.462    0.000    2.308    0.000    4.308 
#    0.000    0.000    0.000    0.692    0.000   13.462 
#
# Total GULP energy -644502.239799 kJ/mol
# GULP energy per Si atom -12394.273842 kJ/mol
# Density = 1.546700 g / cm^3
# Si number density = 15.502289 Si / 1000 Ang^3
#
#
#
# Elastic Constant Matrix: (Units=GPa)
#
#
# Indices 1 2 3 4 5 6 
#
# 1 117.9953 44.9984 41.2689 0.0000 0.0000 0.0000
# 2 44.9984 54.8158 36.2302 0.0000 0.0000 0.0000
# 3 41.2689 36.2302 78.6291 0.0000 0.0000 0.0000
# 4 0.0000 0.0000 0.0000 19.1680 0.0000 0.0000
# 5 0.0000 0.0000 0.0000 0.0000 10.8130 0.0000
# 6 0.0000 0.0000 0.0000 0.0000 0.0000 23.3412
#
#
#
# Elastic Compliance Matrix: (Units=1/GPa)
#
#
# Indices 1 2 3 4 5 6 
#
# 1 0.012718 -0.008669 -0.002681 0.000000 0.000000 0.000000
# 2 -0.008669 0.032140 -0.010259 0.000000 0.000000 0.000000
# 3 -0.002681 -0.010259 0.018852 0.000000 0.000000 0.000000
# 4 0.000000 0.000000 0.000000 0.052170 0.000000 0.000000
# 5 0.000000 0.000000 0.000000 0.000000 0.092481 0.000000
# 6 0.000000 0.000000 0.000000 0.000000 0.000000 0.042843
#
#
# Mechanical properties :
#
#
# Convention : Reuss Voigt Hill
#
# Bulk Modulus (GPa) = 48.79830 55.15945 51.97888
# Shear Modulus (GPa) = 16.59730 19.26062 17.92896
#
# Velocity S-wave (km/s) = 3.27561 3.52865 3.40448
# Velocity P-wave (km/s) = 6.77145 7.22914 7.00404
#
# Compressibility (1/GPa) = 0.02049252
#
# Stress axis : x y z
#
# Youngs Moduli (GPa) = 78.62596 31.11402 53.04362
#
# Poissons Ratio (x) = 0.26971 0.14222
# Poissons Ratio (y) = 0.68157 0.54420
# Poissons Ratio (z) = 0.21081 0.31921
#
# Static dielectric constant tensor:
#      x y z
#    x 3.218560 0.000000 0.000000 
#    y 0.000000 2.925110 0.000000 
#    z 0.000000 0.000000 2.711850 
# 
# 
# High freq. dielectric constant tensor:
#      x y z
#    x 1.600070 0.000000 0.000000 
#    y 0.000000 1.591660 0.000000 
#    z 0.000000 0.000000 1.548370 
# 
# From -- ./inp_files/7610.got.cif
#   From: 2010.03.12/outbox.cif.g09.slc.cpg/sg47_4_cif.got.tgz:7610.got - 2010.04.14 03:12:58.
