data_PCOD8194596
_publ_section_title
;
Structure prediction by ZEFSAII (Michael W. Deem and Ramdas Pophale) SiO2 
 PCOD8194596
Probable space group: P M M M
;
_chemical_formula_sum "Si O2"
_cell_formula_units_Z 52
_cell_length_a 11.809503
_cell_length_b 25.176162
_cell_length_c 9.142218
_cell_angle_alpha 90.000000
_cell_angle_beta 90.000000
_cell_angle_gamma 90.000000
_cell_volume 2718.145612
_symmetry_space_group_name_H-M "P M M M"
_symmetry_group_IT_number 47
_symmetry_cell_setting 'orthorhombic'
loop_
_space_group_symop_operation_xyz
x,y,z
-x,-y,z
x,-y,-z
-x,y,-z
-x,-y,-z
x,y,-z
-x,y,z
x,-y,z
loop_
_atom_site_type_symbol
_atom_site_label
_atom_site_fract_x
_atom_site_fract_y
_atom_site_fract_z
Si Si1 0.368494 0.351010 0.670239
Si Si2 0.223417 0.062092 0.829536
Si Si3 0.368076 0.856785 0.670024
Si Si4 0.764641 0.439547 0.172607
Si Si5 0.000000 0.936883 0.335040
Si Si6 0.755710 0.247020 0.328818
Si Si7 0.000000 0.280342 0.669430
Si Si8 0.000000 0.608712 0.827227
O O1 0.341128 0.358832 0.500000
O O2 0.500000 0.340780 0.698686
O O3 0.330931 0.403980 0.752714
O O4 0.300433 0.300532 0.736426
O O5 0.331157 0.091849 0.761890
O O6 0.110858 0.083662 0.749162
O O7 0.242099 0.000000 0.800872
O O8 0.211265 0.074673 0.000000
O O9 0.339185 0.866627 0.500000
O O10 0.500000 0.846882 0.694041
O O11 0.302128 0.805736 0.735990
O O12 0.743030 0.500000 0.220348
O O13 0.889393 0.422683 0.227543
O O14 0.754415 0.432517 0.000000
O O15 0.000000 0.913765 0.500000
O O16 0.000000 0.000000 0.336893
O O17 0.730266 0.247306 0.500000
O O18 0.889360 0.245534 0.292457
O O19 0.000000 0.332949 0.763074
O O20 0.000000 0.297243 0.500000
O O21 0.000000 0.613745 0.000000
#
# Coordination Sequence:
#
# PCOD8194596 Si02
#       8
#     8   8   8   8   4   8   4   4
#     4  10  20  35  56  79 106 142 182 225 272 324
#     4  10  21  37  57  83 118 155 188 230 287 341
#     4  10  21  37  57  81 111 149 194 239 278 327
#     4  10  21  36  54  77 107 143 181 223 272 326
#     4   9  17  32  57  86 113 144 186 231 273 326
#     4   9  18  34  56  82 110 139 176 226 282 333
#     4  10  18  32  58  85 108 137 174 219 273 334
#     4  10  19  34  55  79 107 138 176 220 270 326
#
# _framework density 19.130690999999999
#
# number of rings (size 3 to 8) (size 9 to 14) (size 15 to 20)
#    0.000    2.231    1.538    1.385    0.000    6.769 
#    0.000    6.154    0.000    3.231    0.000    0.000 
#    0.000    0.000    0.000    0.000    0.000    0.000 
#
# Total GULP energy -644926.972147 kJ/mol
# GULP energy per Si atom -12402.441772 kJ/mol
# Density = 1.908715 g / cm^3
# Si number density = 19.130691 Si / 1000 Ang^3
#
#
#
# Elastic Constant Matrix: (Units=GPa)
#
#
# Indices 1 2 3 4 5 6 
#
# 1 114.8709 53.4893 30.3537 0.0000 0.0000 0.0000
# 2 53.4893 102.1119 35.9806 0.0000 0.0000 0.0000
# 3 30.3537 35.9806 45.6457 0.0000 0.0000 0.0000
# 4 0.0000 0.0000 0.0000 24.0542 0.0000 0.0000
# 5 0.0000 0.0000 0.0000 0.0000 27.0146 0.0000
# 6 0.0000 0.0000 0.0000 0.0000 0.0000 34.9743
#
#
#
# Elastic Compliance Matrix: (Units=1/GPa)
#
#
# Indices 1 2 3 4 5 6 
#
# 1 0.012072 -0.004839 -0.004213 0.000000 0.000000 0.000000
# 2 -0.004839 0.015499 -0.008999 0.000000 0.000000 0.000000
# 3 -0.004213 -0.008999 0.031803 0.000000 0.000000 0.000000
# 4 0.000000 0.000000 0.000000 0.041573 0.000000 0.000000
# 5 0.000000 0.000000 0.000000 0.000000 0.037017 0.000000
# 6 0.000000 0.000000 0.000000 0.000000 0.000000 0.028592
#
#
# Mechanical properties :
#
#
# Convention : Reuss Voigt Hill
#
# Bulk Modulus (GPa) = 42.97171 55.80841 49.39006
# Shear Modulus (GPa) = 23.76229 26.72894 25.24562
#
# Velocity S-wave (km/s) = 3.52817 3.74194 3.63663
# Velocity P-wave (km/s) = 6.25366 6.92134 6.59596
#
# Compressibility (1/GPa) = 0.02327113
#
# Stress axis : x y z
#
# Youngs Moduli (GPa) = 82.83586 64.51988 31.44313
#
# Poissons Ratio (x) = 0.31222 0.13248
# Poissons Ratio (y) = 0.40085 0.28297
# Poissons Ratio (z) = 0.34901 0.58064
#
# Static dielectric constant tensor:
#      x y z
#    x 3.601520 0.000000 0.000000 
#    y 0.000000 3.531210 0.000000 
#    z 0.000000 0.000000 3.288340 
# 
# 
# High freq. dielectric constant tensor:
#      x y z
#    x 1.754550 0.000000 0.000000 
#    y 0.000000 1.743080 0.000000 
#    z 0.000000 0.000000 1.719450 
# 
# From -- ./inp_files/4682.got.cif
#   From: 2010.03.12/outbox.cif.g09.slc.cpg/sg47_3_cif.got.tgz:4682.got - 2010.04.14 03:12:58.
