data_PCOD8194643
_publ_section_title
;
Structure prediction by ZEFSAII (Michael W. Deem and Ramdas Pophale) SiO2 
 PCOD8194643
Probable space group: P M M M
;
_chemical_formula_sum "Si O2"
_cell_formula_units_Z 52
_cell_length_a 9.278848
_cell_length_b 26.543609
_cell_length_c 13.826121
_cell_angle_alpha 90.000000
_cell_angle_beta 90.000000
_cell_angle_gamma 90.000000
_cell_volume 3405.292212
_symmetry_space_group_name_H-M "P M M M"
_symmetry_group_IT_number 47
_symmetry_cell_setting 'orthorhombic'
loop_
_space_group_symop_operation_xyz
x,y,z
-x,-y,z
x,-y,-z
-x,y,-z
-x,-y,-z
x,y,-z
-x,y,z
x,-y,z
loop_
_atom_site_type_symbol
_atom_site_label
_atom_site_fract_x
_atom_site_fract_y
_atom_site_fract_z
Si Si1 0.172072 0.000000 0.610162
Si Si2 0.829264 0.798171 0.393784
Si Si3 0.830396 0.256581 0.204812
Si Si4 0.829077 0.846480 0.893646
Si Si5 0.668391 0.348606 0.887070
Si Si6 0.171850 0.898378 0.294721
Si Si7 0.161659 0.555424 0.885219
O O1 0.234098 0.048949 0.665751
O O2 0.228417 0.000000 0.500000
O O3 0.000000 0.000000 0.611278
O O4 0.766840 0.784314 0.500000
O O5 0.786192 0.755696 0.315812
O O6 0.770115 0.853043 0.362095
O O7 0.000000 0.801994 0.397153
O O8 0.783048 0.209530 0.138456
O O9 0.742426 0.304841 0.173137
O O10 0.000000 0.267519 0.194496
O O11 0.774383 0.887856 0.815565
O O12 0.000000 0.848529 0.897450
O O13 0.763486 0.858243 0.000000
O O14 0.500000 0.347816 0.866636
O O15 0.729742 0.401764 0.847522
O O16 0.704258 0.341135 0.000000
O O17 0.000000 0.899529 0.297210
O O18 0.209724 0.500000 0.846658
O O19 0.000000 0.567740 0.848675
O O20 0.163890 0.554525 0.000000
#
# Coordination Sequence:
#
# PCOD8194643 Si02
#       7
#     4   8   8   8   8   8   8
#     4   9  14  18  25  37  57  87 119 150 188 236
#     4   8  13  22  36  53  71  90 118 159 200 233
#     4   9  16  25  39  56  72  96 130 163 193 229
#     4   8  13  21  32  45  62  86 119 156 187 219
#     4  10  19  27  36  54  81 109 133 161 196 228
#     4   8  13  19  27  42  63  88 119 152 187 228
#     4   8  14  25  40  56  75 103 138 169 193 221
#
# _framework density 15.270349
#
# number of rings (size 3 to 8) (size 9 to 14) (size 15 to 20)
#    0.000    3.462    0.000    3.692    0.000    3.692 
#    0.000    1.923    0.000    2.769    0.000    0.000 
#    0.000    0.615    0.000   18.154    0.000   96.462 
#
# Total GULP energy -644300.615941 kJ/mol
# GULP energy per Si atom -12390.396460 kJ/mol
# Density = 1.523559 g / cm^3
# Si number density = 15.270349 Si / 1000 Ang^3
#
#
#
# Elastic Constant Matrix: (Units=GPa)
#
#
# Indices 1 2 3 4 5 6 
#
# 1 33.8695 41.9420 24.5739 0.0000 0.0000 0.0000
# 2 41.9420 139.6022 67.0044 0.0000 0.0000 0.0000
# 3 24.5739 67.0044 119.6700 0.0000 0.0000 0.0000
# 4 0.0000 0.0000 0.0000 18.1004 0.0000 0.0000
# 5 0.0000 0.0000 0.0000 0.0000 6.2970 0.0000
# 6 0.0000 0.0000 0.0000 0.0000 0.0000 -0.4729
#
#
#
# Elastic Compliance Matrix: (Units=1/GPa)
#
#
# Indices 1 2 3 4 5 6 
#
# 1 0.047522 -0.013119 -0.002413 0.000000 0.000000 0.000000
# 2 -0.013119 0.013418 -0.004819 0.000000 0.000000 0.000000
# 3 -0.002413 -0.004819 0.011550 0.000000 0.000000 0.000000
# 4 0.000000 0.000000 0.000000 0.055247 0.000000 0.000000
# 5 0.000000 0.000000 0.000000 0.000000 0.158807 0.000000
# 6 0.000000 0.000000 0.000000 0.000000 0.000000 -2.114507
#
#
# Mechanical properties :
#
#
# Convention : Reuss Voigt Hill
#
# Bulk Modulus (GPa) = 31.45875 62.24248 46.85062
# Shear Modulus (GPa) = -2.81426 15.42632 6.30603
#
# Velocity S-wave (km/s) = -1.35903 3.18183 2.03434
# Velocity P-wave (km/s) = 4.26419 7.37208 6.02208
#
# Compressibility (1/GPa) = 0.03178766
#
# Stress axis : x y z
#
# Youngs Moduli (GPa) = 21.04289 74.52911 86.58194
#
# Poissons Ratio (x) = 0.97778 0.20891
# Poissons Ratio (y) = 0.27607 0.41720
# Poissons Ratio (z) = 0.05077 0.35913
#
# Static dielectric constant tensor:
#      x y z
#    x 2.462610 0.000000 0.000000 
#    y 0.000000 3.102480 0.000000 
#    z 0.000000 0.000000 3.217380 
# 
# 
# High freq. dielectric constant tensor:
#      x y z
#    x 1.531490 0.000000 0.000000 
#    y 0.000000 1.584360 0.000000 
#    z 0.000000 0.000000 1.567150 
# 
# From -- ./inp_files/21977.got.cif
#   From: 2010.03.12/outbox.cif.g09.slc.cpg/sg47_11_cif.got.tgz:21977.got - 2010.04.14 03:12:58.
