data_PCOD8194318
_publ_section_title
;
Structure prediction by ZEFSAII (Michael W. Deem and Ramdas Pophale) SiO2 
 PCOD8194318
Probable space group: P M M M
;
_chemical_formula_sum "Si O2"
_cell_formula_units_Z 44
_cell_length_a 13.001898
_cell_length_b 21.115739
_cell_length_c 8.404985
_cell_angle_alpha 90.000000
_cell_angle_beta 90.000000
_cell_angle_gamma 90.000000
_cell_volume 2307.543957
_symmetry_space_group_name_H-M "P M M M"
_symmetry_group_IT_number 47
_symmetry_cell_setting 'orthorhombic'
loop_
_space_group_symop_operation_xyz
x,y,z
-x,-y,z
x,-y,-z
-x,y,-z
-x,-y,-z
x,y,-z
-x,y,z
x,-y,z
loop_
_atom_site_type_symbol
_atom_site_label
_atom_site_fract_x
_atom_site_fract_y
_atom_site_fract_z
Si Si1 0.386234 0.150761 0.689209
Si Si2 0.116461 0.500000 0.310120
Si Si3 0.191862 0.633326 0.689108
Si Si4 0.803109 0.071044 0.688746
Si Si5 0.000000 0.282119 0.688321
Si Si6 0.613669 0.293017 0.310644
Si Si7 0.000000 0.142488 0.185411
O O1 0.381521 0.150773 0.500000
O O2 0.500000 0.128570 0.745692
O O3 0.300068 0.103678 0.759175
O O4 0.364362 0.221918 0.751511
O O5 0.114992 0.500000 0.500000
O O6 0.174330 0.437596 0.244371
O O7 0.000000 0.500000 0.245889
O O8 0.194659 0.631286 0.500000
O O9 0.099653 0.678802 0.743561
O O10 0.299460 0.659985 0.759043
O O11 0.797811 0.069048 0.500000
O O12 0.900395 0.111492 0.738155
O O13 0.810920 0.000000 0.758296
O O14 0.000000 0.269180 0.500000
O O15 0.000000 0.216651 0.781055
O O16 0.618488 0.293146 0.500000
O O17 0.500000 0.315378 0.253871
O O18 0.000000 0.128850 0.000000
#
# Coordination Sequence:
#
# PCOD8194318 Si02
#       7
#     8   4   8   8   4   8   4
#     4   8  14  26  46  73 101 124 152 197 246 285
#     4   9  14  22  33  55  91 121 150 190 234 274
#     4   9  15  23  39  63  89 117 150 191 234 274
#     4  10  20  34  53  75  98 126 162 200 237 286
#     4  10  18  30  51  72  88 112 154 203 244 283
#     4   8  13  21  33  52  83 121 153 180 220 275
#     4  12  25  37  49  68  97 131 164 201 246 292
#
# _framework density 19.067892000000001
#
# number of rings (size 3 to 8) (size 9 to 14) (size 15 to 20)
#    0.000    2.818    0.909    3.273    0.000    4.727 
#    0.000    2.273    0.000    3.273    0.000    2.545 
#    0.000    0.000    0.000    0.000    0.000   10.182 
#
# Total GULP energy -545378.275979 kJ/mol
# GULP energy per Si atom -12394.960818 kJ/mol
# Density = 1.902449 g / cm^3
# Si number density = 19.067892 Si / 1000 Ang^3
#
#
#
# Elastic Constant Matrix: (Units=GPa)
#
#
# Indices 1 2 3 4 5 6 
#
# 1 183.4595 101.5396 3.2872 0.0000 0.0000 0.0000
# 2 101.5396 162.0511 2.4001 0.0000 0.0000 0.0000
# 3 3.2872 2.4001 5.4421 0.0000 0.0000 0.0000
# 4 0.0000 0.0000 0.0000 1.7191 0.0000 0.0000
# 5 0.0000 0.0000 0.0000 0.0000 -4.4693 0.0000
# 6 0.0000 0.0000 0.0000 0.0000 0.0000 88.9399
#
#
#
# Elastic Compliance Matrix: (Units=1/GPa)
#
#
# Indices 1 2 3 4 5 6 
#
# 1 0.008386 -0.005214 -0.002766 0.000000 0.000000 0.000000
# 2 -0.005214 0.009453 -0.001020 0.000000 0.000000 0.000000
# 3 -0.002766 -0.001020 0.185874 0.000000 0.000000 0.000000
# 4 0.000000 0.000000 0.000000 0.581704 0.000000 0.000000
# 5 0.000000 0.000000 0.000000 0.000000 -0.223746 0.000000
# 6 0.000000 0.000000 0.000000 0.000000 0.000000 0.011244
#
#
# Mechanical properties :
#
#
# Convention : Reuss Voigt Hill
#
# Bulk Modulus (GPa) = 5.38463 62.82293 34.10378
# Shear Modulus (GPa) = 7.65911 33.48632 20.57272
#
# Velocity S-wave (km/s) = 2.00636 4.19521 3.28825
# Velocity P-wave (km/s) = 2.86310 7.51564 5.68692
#
# Compressibility (1/GPa) = 0.18571386
#
# Stress axis : x y z
#
# Youngs Moduli (GPa) = 119.24770 105.78929 5.37999
#
# Poissons Ratio (x) = 0.55154 0.01488
# Poissons Ratio (y) = 0.62170 0.00549
# Poissons Ratio (z) = 0.32985 0.10787
#
# Static dielectric constant tensor:
#      x y z
#    x 3.907500 0.000000 0.000000 
#    y 0.000000 3.798360 0.000000 
#    z 0.000000 0.000000 2.745130 
# 
# 
# High freq. dielectric constant tensor:
#      x y z
#    x 1.756180 0.000000 0.000000 
#    y 0.000000 1.745900 0.000000 
#    z 0.000000 0.000000 1.668040 
# 
# From -- ./inp_files/6300.got.cif
#   From: 2010.03.12/outbox.cif.g09.slc.cpg/sg47_4_cif.got.tgz:6300.got - 2010.04.14 03:12:58.
