data_PCOD8194917
_publ_section_title
;
Structure prediction by ZEFSAII (Michael W. Deem and Ramdas Pophale) SiO2 
 PCOD8194917
Probable space group: P M M M
;
_chemical_formula_sum "Si O2"
_cell_formula_units_Z 52
_cell_length_a 13.968949
_cell_length_b 28.067553
_cell_length_c 8.225970
_cell_angle_alpha 90.000000
_cell_angle_beta 90.000000
_cell_angle_gamma 90.000000
_cell_volume 3225.190742
_symmetry_space_group_name_H-M "P M M M"
_symmetry_group_IT_number 47
_symmetry_cell_setting 'orthorhombic'
loop_
_space_group_symop_operation_xyz
x,y,z
-x,-y,z
x,-y,-z
-x,y,-z
-x,-y,-z
x,y,-z
-x,y,z
x,-y,z
loop_
_atom_site_type_symbol
_atom_site_label
_atom_site_fract_x
_atom_site_fract_y
_atom_site_fract_z
Si Si1 0.113961 0.054365 0.000000
Si Si2 0.892373 0.217621 0.311719
Si Si3 0.221600 0.696655 0.188002
Si Si4 0.606398 0.641324 0.688655
Si Si5 0.894906 0.607439 0.806776
Si Si6 0.113352 0.108968 0.318676
Si Si7 0.715241 0.552213 0.191239
O O1 0.154830 0.078138 0.832813
O O2 0.000000 0.058833 0.000000
O O3 0.148396 0.000000 0.000000
O O4 0.892549 0.230925 0.500000
O O5 0.815016 0.250246 0.221526
O O6 0.858349 0.163537 0.284455
O O7 0.000000 0.224932 0.240506
O O8 0.322671 0.685219 0.273363
O O9 0.140733 0.659718 0.249234
O O10 0.241657 0.689293 0.000000
O O11 0.606431 0.631432 0.500000
O O12 0.500000 0.655005 0.750595
O O13 0.635794 0.591389 0.769735
O O14 0.819152 0.568707 0.739999
O O15 0.000000 0.597947 0.730891
O O16 0.900865 0.605321 0.000000
O O17 0.152261 0.093283 0.500000
O O18 0.000000 0.103822 0.324087
O O19 0.689965 0.500000 0.265379
O O20 0.722757 0.548021 0.000000
#
# Coordination Sequence:
#
# PCOD8194917 Si02
#       7
#     4   8   8   8   8   8   8
#     4   9  16  24  36  54  76 110 157 203 240 271
#     4   9  17  28  42  62  90 121 149 181 221 261
#     4  10  19  29  45  68  88 109 140 176 216 263
#     4  10  21  36  51  64  81 107 138 174 215 262
#     4   8  14  25  40  61  88 111 133 162 197 242
#     4   8  15  26  37  53  80 113 150 193 236 272
#     4   9  18  31  47  68  89 108 134 169 209 252
#
# _framework density 16.123076999999999
#
# number of rings (size 3 to 8) (size 9 to 14) (size 15 to 20)
#    0.000    3.000    0.000    3.231    1.077    3.385 
#    0.000    4.615    0.000    4.154    0.000    4.308 
#    0.000    0.000    0.000    0.000    0.000    1.538 
#
# Total GULP energy -644357.626005 kJ/mol
# GULP energy per Si atom -12391.492808 kJ/mol
# Density = 1.608638 g / cm^3
# Si number density = 16.123077 Si / 1000 Ang^3
#
#
#
# Elastic Constant Matrix: (Units=GPa)
#
#
# Indices 1 2 3 4 5 6 
#
# 1 80.8757 30.6395 18.8644 0.0000 0.0000 0.0000
# 2 30.6395 96.4325 38.4458 0.0000 0.0000 0.0000
# 3 18.8644 38.4458 57.4064 0.0000 0.0000 0.0000
# 4 0.0000 0.0000 0.0000 19.3242 0.0000 0.0000
# 5 0.0000 0.0000 0.0000 0.0000 14.6589 0.0000
# 6 0.0000 0.0000 0.0000 0.0000 0.0000 10.0352
#
#
#
# Elastic Compliance Matrix: (Units=1/GPa)
#
#
# Indices 1 2 3 4 5 6 
#
# 1 0.014267 -0.003634 -0.002254 0.000000 0.000000 0.000000
# 2 -0.003634 0.015073 -0.008900 0.000000 0.000000 0.000000
# 3 -0.002254 -0.008900 0.024121 0.000000 0.000000 0.000000
# 4 0.000000 0.000000 0.000000 0.051748 0.000000 0.000000
# 5 0.000000 0.000000 0.000000 0.000000 0.068218 0.000000
# 6 0.000000 0.000000 0.000000 0.000000 0.000000 0.099650
#
#
# Mechanical properties :
#
#
# Convention : Reuss Voigt Hill
#
# Bulk Modulus (GPa) = 41.87021 45.62378 43.74700
# Shear Modulus (GPa) = 16.09700 18.58800 17.34250
#
# Velocity S-wave (km/s) = 3.16315 3.39909 3.28324
# Velocity P-wave (km/s) = 6.27425 6.61542 6.44709
#
# Compressibility (1/GPa) = 0.02388333
#
# Stress axis : x y z
#
# Youngs Moduli (GPa) = 70.09004 66.34344 41.45741
#
# Poissons Ratio (x) = 0.24112 0.09346
# Poissons Ratio (y) = 0.25473 0.36898
# Poissons Ratio (z) = 0.15801 0.59048
#
# Static dielectric constant tensor:
#      x y z
#    x 2.922870 0.000000 0.000000 
#    y 0.000000 3.066550 0.000000 
#    z 0.000000 0.000000 3.106340 
# 
# 
# High freq. dielectric constant tensor:
#      x y z
#    x 1.576120 0.000000 0.000000 
#    y 0.000000 1.606480 0.000000 
#    z 0.000000 0.000000 1.619160 
# 
# From -- ./inp_files/8039.got.cif
#   From: 2010.03.12/outbox.cif.g09.slc.cpg/sg47_5_cif.got.tgz:8039.got - 2010.04.14 03:12:58.
