data_PCOD8194284
_publ_section_title
;
Structure prediction by ZEFSAII (Michael W. Deem and Ramdas Pophale) SiO2 
 PCOD8194284
Probable space group: P M M M
;
_chemical_formula_sum "Si O2"
_cell_formula_units_Z 36
_cell_length_a 20.786741
_cell_length_b 9.223782
_cell_length_c 11.725193
_cell_angle_alpha 90.000000
_cell_angle_beta 90.000000
_cell_angle_gamma 90.000000
_cell_volume 2248.099013
_symmetry_space_group_name_H-M "P M M M"
_symmetry_group_IT_number 47
_symmetry_cell_setting 'orthorhombic'
loop_
_space_group_symop_operation_xyz
x,y,z
-x,-y,z
x,-y,-z
-x,y,-z
-x,-y,-z
x,y,-z
-x,y,z
x,-y,z
loop_
_atom_site_type_symbol
_atom_site_label
_atom_site_fract_x
_atom_site_fract_y
_atom_site_fract_z
Si Si1 0.619224 0.172405 0.723337
Si Si2 0.879415 0.160998 0.135466
Si Si3 0.500000 0.171287 0.873926
Si Si4 0.738165 0.827604 0.872972
Si Si5 0.424839 0.327809 0.500000
Si Si6 0.000000 0.337914 0.863735
O O1 0.562883 0.223367 0.807518
O O2 0.685624 0.223962 0.781554
O O3 0.611215 0.259360 0.607290
O O4 0.617206 0.000000 0.699880
O O5 0.809001 0.224993 0.168346
O O6 0.936023 0.261078 0.185270
O O7 0.888632 0.000000 0.186772
O O8 0.884148 0.153051 0.000000
O O9 0.500000 0.000000 0.884927
O O10 0.500000 0.241432 0.000000
O O11 0.738481 0.000000 0.880874
O O12 0.722209 0.766172 0.000000
O O13 0.416373 0.500000 0.500000
O O14 0.500000 0.283358 0.500000
O O15 0.000000 0.500000 0.816186
O O16 0.000000 0.334655 0.000000
#
# Coordination Sequence:
#
# PCOD8194284 Si02
#       6
#     8   8   4   8   4   4
#     4  10  18  30  50  71  89 111 146 186 222 265
#     4   8  13  22  36  54  80 115 147 172 207 257
#     4   9  16  25  43  72  96 111 134 175 222 263
#     4   8  14  25  43  68  94 116 141 179 225 269
#     4  11  23  37  49  61  85 118 151 188 229 265
#     4   9  15  21  31  51  79 112 151 188 211 233
#
# _framework density 16.013529999999999
#
# number of rings (size 3 to 8) (size 9 to 14) (size 15 to 20)
#    0.000    3.000    1.111    2.667    0.000    4.444 
#    0.000    1.111    0.000    4.667    0.000    0.000 
#    0.000    0.889    0.000   10.222    0.000    6.667 
#
# Total GULP energy -446182.828003 kJ/mol
# GULP energy per Si atom -12393.967445 kJ/mol
# Density = 1.597708 g / cm^3
# Si number density = 16.013530 Si / 1000 Ang^3
#
#
#
# Elastic Constant Matrix: (Units=GPa)
#
#
# Indices 1 2 3 4 5 6 
#
# 1 166.7416 50.7746 61.5172 0.0000 0.0000 0.0000
# 2 50.7746 57.0511 31.6158 0.0000 0.0000 0.0000
# 3 61.5172 31.6158 90.8116 0.0000 0.0000 0.0000
# 4 0.0000 0.0000 0.0000 6.3170 0.0000 0.0000
# 5 0.0000 0.0000 0.0000 0.0000 21.9633 0.0000
# 6 0.0000 0.0000 0.0000 0.0000 0.0000 12.1502
#
#
#
# Elastic Compliance Matrix: (Units=1/GPa)
#
#
# Indices 1 2 3 4 5 6 
#
# 1 0.009403 -0.005995 -0.004282 0.000000 0.000000 0.000000
# 2 -0.005995 0.025541 -0.004831 0.000000 0.000000 0.000000
# 3 -0.004282 -0.004831 0.015595 0.000000 0.000000 0.000000
# 4 0.000000 0.000000 0.000000 0.158303 0.000000 0.000000
# 5 0.000000 0.000000 0.000000 0.000000 0.045531 0.000000
# 6 0.000000 0.000000 0.000000 0.000000 0.000000 0.082303
#
#
# Mechanical properties :
#
#
# Convention : Reuss Voigt Hill
#
# Bulk Modulus (GPa) = 49.20881 66.93550 58.07215
# Shear Modulus (GPa) = 13.38096 19.46588 16.42342
#
# Velocity S-wave (km/s) = 2.89382 3.49031 3.20597
# Velocity P-wave (km/s) = 6.47779 7.62451 7.07442
#
# Compressibility (1/GPa) = 0.02032156
#
# Stress axis : x y z
#
# Youngs Moduli (GPa) = 106.35056 39.15303 64.12488
#
# Poissons Ratio (x) = 0.23473 0.27461
# Poissons Ratio (y) = 0.63760 0.30977
# Poissons Ratio (z) = 0.45544 0.18914
#
# Static dielectric constant tensor:
#      x y z
#    x 3.447490 0.000000 0.000000 
#    y 0.000000 2.796430 0.000000 
#    z 0.000000 0.000000 2.797780 
# 
# 
# High freq. dielectric constant tensor:
#      x y z
#    x 1.630530 0.000000 0.000000 
#    y 0.000000 1.582200 0.000000 
#    z 0.000000 0.000000 1.568190 
# 
# From -- ./inp_files/18874.got.cif
#   From: 2010.03.12/outbox.cif.g09.slc.cpg/sg47_10_cif.got.tgz:18874.got - 2010.04.14 03:12:58.
