data_PCOD8194856
_publ_section_title
;
Structure prediction by ZEFSAII (Michael W. Deem and Ramdas Pophale) SiO2 
 PCOD8194856
Probable space group: P M M M
;
_chemical_formula_sum "Si O2"
_cell_formula_units_Z 64
_cell_length_a 15.044864
_cell_length_b 9.299036
_cell_length_c 25.290443
_cell_angle_alpha 90.000000
_cell_angle_beta 90.000000
_cell_angle_gamma 90.000000
_cell_volume 3538.202068
_symmetry_space_group_name_H-M "P M M M"
_symmetry_group_IT_number 47
_symmetry_cell_setting 'orthorhombic'
loop_
_space_group_symop_operation_xyz
x,y,z
-x,-y,z
x,-y,-z
-x,y,-z
-x,-y,-z
x,y,-z
-x,y,z
x,-y,z
loop_
_atom_site_type_symbol
_atom_site_label
_atom_site_fract_x
_atom_site_fract_y
_atom_site_fract_z
Si Si1 0.095246 0.337301 0.901370
Si Si2 0.664261 0.835112 0.841109
Si Si3 0.862271 0.835396 0.197449
Si Si4 0.098937 0.333463 0.302971
Si Si5 0.400860 0.336914 0.748284
Si Si6 0.717776 0.669732 0.347059
Si Si7 0.716754 0.667479 0.059027
Si Si8 0.400029 0.328876 0.558778
O O1 0.109724 0.500000 0.881088
O O2 0.086476 0.235793 0.850839
O O3 0.177887 0.294228 0.938463
O O4 0.000000 0.323835 0.931963
O O5 0.758293 0.818170 0.812682
O O6 0.596755 0.755996 0.801925
O O7 0.662354 0.760822 0.898714
O O8 0.635985 0.000000 0.848871
O O9 0.890908 0.758719 0.250738
O O10 0.891615 0.000000 0.201639
O O11 0.111258 0.500000 0.287528
O O12 0.177198 0.288883 0.344366
O O13 0.000000 0.307033 0.327573
O O14 0.500000 0.333274 0.723966
O O15 0.372896 0.500000 0.762835
O O16 0.333130 0.270954 0.704948
O O17 0.703920 0.500000 0.348596
O O18 0.671726 0.736016 0.399616
O O19 0.700042 0.500000 0.070952
O O20 0.684066 0.707281 0.000000
O O21 0.375349 0.272368 0.500000
O O22 0.500000 0.278312 0.573946
O O23 0.396558 0.500000 0.559163
#
# Coordination Sequence:
#
# PCOD8194856 Si02
#       8
#     8   8   8   8   8   8   8   8
#     4   9  17  28  43  64  90 119 152 193 242 292
#     4  10  20  33  49  69  96 127 155 189 238 293
#     4  10  19  30  44  63  89 123 162 199 236 280
#     4  10  19  29  43  63  90 128 168 201 238 284
#     4  10  19  31  51  76  98 124 157 192 237 291
#     4   9  16  27  43  65  97 131 162 201 240 280
#     4   9  18  32  50  69  89 119 159 200 240 284
#     4   8  13  22  39  65  96 129 164 201 244 293
#
# _framework density 18.088283000000001
#
# number of rings (size 3 to 8) (size 9 to 14) (size 15 to 20)
#    0.000    2.625    1.250    1.875    0.000    5.250 
#    0.000    1.250    0.000    0.750    0.000    8.750 
#    0.000    2.000    0.000    8.000    0.000    7.500 
#
# Total GULP energy -793154.250235 kJ/mol
# GULP energy per Si atom -12393.035160 kJ/mol
# Density = 1.804711 g / cm^3
# Si number density = 18.088283 Si / 1000 Ang^3
#
#
#
# Elastic Constant Matrix: (Units=GPa)
#
#
# Indices 1 2 3 4 5 6 
#
# 1 88.8255 23.7136 51.6586 0.0000 0.0000 0.0000
# 2 23.7136 57.5095 37.3482 0.0000 0.0000 0.0000
# 3 51.6586 37.3482 119.9683 0.0000 0.0000 0.0000
# 4 0.0000 0.0000 0.0000 0.1507 0.0000 0.0000
# 5 0.0000 0.0000 0.0000 0.0000 13.5477 0.0000
# 6 0.0000 0.0000 0.0000 0.0000 0.0000 11.9400
#
#
#
# Elastic Compliance Matrix: (Units=1/GPa)
#
#
# Indices 1 2 3 4 5 6 
#
# 1 0.015311 -0.002547 -0.005800 0.000000 0.000000 0.000000
# 2 -0.002547 0.022218 -0.005820 0.000000 0.000000 0.000000
# 3 -0.005800 -0.005820 0.012645 0.000000 0.000000 0.000000
# 4 0.000000 0.000000 0.000000 6.635726 0.000000 0.000000
# 5 0.000000 0.000000 0.000000 0.000000 0.073813 0.000000
# 6 0.000000 0.000000 0.000000 0.000000 0.000000 0.083752
#
#
# Mechanical properties :
#
#
# Convention : Reuss Voigt Hill
#
# Bulk Modulus (GPa) = 45.78705 54.63822 50.21264
# Shear Modulus (GPa) = 0.72684 15.36655 8.04669
#
# Velocity S-wave (km/s) = 0.63459 2.91783 2.11145
# Velocity P-wave (km/s) = 5.08969 6.45164 5.81071
#
# Compressibility (1/GPa) = 0.02184024
#
# Stress axis : x y z
#
# Youngs Moduli (GPa) = 65.31192 45.00766 79.08203
#
# Poissons Ratio (x) = 0.11462 0.45869
# Poissons Ratio (y) = 0.16633 0.46029
# Poissons Ratio (z) = 0.37882 0.26196
#
# Static dielectric constant tensor:
#      x y z
#    x 3.459210 0.000000 0.000000 
#    y 0.000000 3.079570 0.000000 
#    z 0.000000 0.000000 3.318090 
# 
# 
# High freq. dielectric constant tensor:
#      x y z
#    x 1.699770 0.000000 0.000000 
#    y 0.000000 1.667240 0.000000 
#    z 0.000000 0.000000 1.677140 
# 
# From -- ./inp_files/34688.got.cif
#   From: 2010.03.12/outbox.cif.g09.slc.cpg/sg47_18_cif.got.tgz:34688.got - 2010.04.14 03:12:58.
