data_PCOD8194621
_publ_section_title
;
Structure prediction by ZEFSAII (Michael W. Deem and Ramdas Pophale) SiO2 
 PCOD8194621
Probable space group: P M M M
;
_chemical_formula_sum "Si O2"
_cell_formula_units_Z 64
_cell_length_a 23.914988
_cell_length_b 8.911352
_cell_length_c 15.424137
_cell_angle_alpha 90.000000
_cell_angle_beta 90.000000
_cell_angle_gamma 90.000000
_cell_volume 3287.113046
_symmetry_space_group_name_H-M "P M M M"
_symmetry_group_IT_number 47
_symmetry_cell_setting 'orthorhombic'
loop_
_space_group_symop_operation_xyz
x,y,z
-x,-y,z
x,-y,-z
-x,y,-z
-x,-y,-z
x,y,-z
-x,y,z
x,-y,z
loop_
_atom_site_type_symbol
_atom_site_label
_atom_site_fract_x
_atom_site_fract_y
_atom_site_fract_z
Si Si1 0.144237 0.327285 0.097745
Si Si2 0.254009 0.672335 0.331498
Si Si3 0.742666 0.176810 0.850015
Si Si4 0.373380 0.671514 0.402297
Si Si5 0.062549 0.321391 0.247378
Si Si6 0.564484 0.824622 0.752406
Si Si7 0.632312 0.328000 0.097075
Si Si8 0.136322 0.321856 0.404538
O O1 0.158765 0.500000 0.119111
O O2 0.199666 0.231104 0.108946
O O3 0.096490 0.267227 0.162734
O O4 0.121436 0.309350 0.000000
O O5 0.246517 0.500000 0.300817
O O6 0.263517 0.776482 0.249254
O O7 0.306676 0.690662 0.394510
O O8 0.199046 0.729247 0.381360
O O9 0.691912 0.247020 0.903329
O O10 0.739186 0.000000 0.858204
O O11 0.390492 0.716826 0.500000
O O12 0.390407 0.500000 0.382657
O O13 0.405318 0.777632 0.335921
O O14 0.060278 0.500000 0.250069
O O15 0.092953 0.257766 0.333577
O O16 0.000000 0.254324 0.243272
O O17 0.500000 0.779998 0.744551
O O18 0.589282 0.743439 0.835978
O O19 0.573441 0.000000 0.765826
O O20 0.641601 0.500000 0.124366
O O21 0.607181 0.314770 0.000000
O O22 0.120836 0.258388 0.500000
O O23 0.133177 0.500000 0.405545
#
# Coordination Sequence:
#
# PCOD8194621 Si02
#       8
#     8   8   8   8   8   8   8   8
#     4  10  20  35  55  78 107 146 188 229 279 337
#     4  10  18  33  57  83 115 150 186 231 284 342
#     4  12  23  35  57  87 118 149 183 228 286 347
#     4  10  21  37  61  91 119 153 199 247 292 342
#     4   9  17  29  47  76 111 143 182 233 283 331
#     4  11  25  43  62  87 121 160 199 241 290 341
#     4  11  24  42  65  91 118 151 192 238 289 347
#     4   9  16  27  48  78 111 145 179 222 279 337
#
# _framework density 19.469971999999999
#
# number of rings (size 3 to 8) (size 9 to 14) (size 15 to 20)
#    0.000    1.750    2.500    2.625    0.000    6.500 
#    0.000    5.000    0.000    1.500    0.000    0.875 
#    0.000    1.000    0.000    0.000    0.000    0.000 
#
# Total GULP energy -793706.309316 kJ/mol
# GULP energy per Si atom -12401.661083 kJ/mol
# Density = 1.942566 g / cm^3
# Si number density = 19.469972 Si / 1000 Ang^3
#
#
#
# Elastic Constant Matrix: (Units=GPa)
#
#
# Indices 1 2 3 4 5 6 
#
# 1 130.6252 45.5191 57.8267 0.0000 0.0000 0.0000
# 2 45.5191 76.2117 38.4054 0.0000 0.0000 0.0000
# 3 57.8267 38.4054 145.7784 0.0000 0.0000 0.0000
# 4 0.0000 0.0000 0.0000 5.3533 0.0000 0.0000
# 5 0.0000 0.0000 0.0000 0.0000 2.8079 0.0000
# 6 0.0000 0.0000 0.0000 0.0000 0.0000 -2.3148
#
#
#
# Elastic Compliance Matrix: (Units=1/GPa)
#
#
# Indices 1 2 3 4 5 6 
#
# 1 0.010660 -0.004884 -0.002942 0.000000 0.000000 0.000000
# 2 -0.004884 0.017368 -0.002638 0.000000 0.000000 0.000000
# 3 -0.002942 -0.002638 0.008722 0.000000 0.000000 0.000000
# 4 0.000000 0.000000 0.000000 0.186801 0.000000 0.000000
# 5 0.000000 0.000000 0.000000 0.000000 0.356133 0.000000
# 6 0.000000 0.000000 0.000000 0.000000 0.000000 -0.431995
#
#
# Mechanical properties :
#
#
# Convention : Reuss Voigt Hill
#
# Bulk Modulus (GPa) = 63.20658 70.67975 66.94316
# Shear Modulus (GPa) = 28.75353 15.22688 21.99020
#
# Velocity S-wave (km/s) = 3.84710 2.79959 3.36436
# Velocity P-wave (km/s) = 7.22964 6.84332 7.03913
#
# Compressibility (1/GPa) = 0.01582114
#
# Stress axis : x y z
#
# Youngs Moduli (GPa) = 93.81021 57.57685 114.65737
#
# Poissons Ratio (x) = 0.28123 0.33729
# Poissons Ratio (y) = 0.45821 0.30248
# Poissons Ratio (z) = 0.27596 0.15189
#
# Static dielectric constant tensor:
#      x y z
#    x 3.659870 0.000000 0.000000 
#    y 0.000000 3.249860 0.000000 
#    z 0.000000 0.000000 3.755970 
# 
# 
# High freq. dielectric constant tensor:
#      x y z
#    x 1.757430 0.000000 0.000000 
#    y 0.000000 1.723220 0.000000 
#    z 0.000000 0.000000 1.774280 
# 
# From -- ./inp_files/7949.got.cif
#   From: 2010.03.12/outbox.cif.g09.slc.cpg/sg47_4_cif.got.tgz:7949.got - 2010.04.14 03:12:58.
