data_PCOD8194848
_publ_section_title
;
Structure prediction by ZEFSAII (Michael W. Deem and Ramdas Pophale) SiO2 
 PCOD8194848
Probable space group: P M M M
;
_chemical_formula_sum "Si O2"
_cell_formula_units_Z 52
_cell_length_a 8.862296
_cell_length_b 13.637452
_cell_length_c 27.069495
_cell_angle_alpha 90.000000
_cell_angle_beta 90.000000
_cell_angle_gamma 90.000000
_cell_volume 3271.595786
_symmetry_space_group_name_H-M "P M M M"
_symmetry_group_IT_number 47
_symmetry_cell_setting 'orthorhombic'
loop_
_space_group_symop_operation_xyz
x,y,z
-x,-y,z
x,-y,-z
-x,y,-z
-x,-y,-z
x,y,-z
-x,y,z
x,-y,z
loop_
_atom_site_type_symbol
_atom_site_label
_atom_site_fract_x
_atom_site_fract_y
_atom_site_fract_z
Si Si1 0.179307 0.200018 0.101959
Si Si2 0.179358 0.889186 0.000000
Si Si3 0.326184 0.887373 0.804419
Si Si4 0.178331 0.607507 0.153194
Si Si5 0.319926 0.612118 0.341151
Si Si6 0.178568 0.282089 0.749687
Si Si7 0.331313 0.616311 0.552230
O O1 0.238683 0.168526 0.048110
O O2 0.252401 0.128640 0.142040
O O3 0.229757 0.312871 0.112181
O O4 0.000000 0.188810 0.106660
O O5 0.000000 0.891625 0.000000
O O6 0.243377 0.000000 0.000000
O O7 0.500000 0.855472 0.807057
O O8 0.242434 0.825080 0.762273
O O9 0.307711 0.000000 0.789313
O O10 0.249799 0.500000 0.142020
O O11 0.231087 0.643215 0.207247
O O12 0.000000 0.598988 0.152556
O O13 0.500000 0.620969 0.339205
O O14 0.270214 0.500000 0.330643
O O15 0.245148 0.683170 0.301849
O O16 0.257648 0.648593 0.395378
O O17 0.000000 0.275772 0.745968
O O18 0.248973 0.648800 0.500000
O O19 0.500000 0.659200 0.550298
O O20 0.339804 0.500000 0.554215
#
# Coordination Sequence:
#
# PCOD8194848 Si02
#       7
#     8   4   8   8   8   8   8
#     4   9  17  29  46  66  86 112 143 170 203 252
#     4   9  16  26  42  64  88 111 139 177 214 251
#     4  10  20  33  48  65  85 107 133 172 220 263
#     4   8  14  25  40  58  81 108 138 171 203 236
#     4   9  16  25  39  61  89 119 150 185 220 250
#     4  10  19  29  43  62  85 114 145 176 211 259
#     4   7  10  18  33  53  78 111 150 185 214 246
#
# _framework density 15.894384000000001
#
# number of rings (size 3 to 8) (size 9 to 14) (size 15 to 20)
#    0.000    3.154    0.000    4.154    0.000    2.769 
#    0.000    0.769    0.000    8.308    0.000    2.154 
#    0.000    5.538    0.000    7.077    0.000    2.308 
#
# Total GULP energy -644203.991877 kJ/mol
# GULP energy per Si atom -12388.538305 kJ/mol
# Density = 1.585821 g / cm^3
# Si number density = 15.894384 Si / 1000 Ang^3
#
#
#
# Elastic Constant Matrix: (Units=GPa)
#
#
# Indices 1 2 3 4 5 6 
#
# 1 33.6864 21.7102 31.7510 0.0000 0.0000 0.0000
# 2 21.7102 94.7385 66.0476 0.0000 0.0000 0.0000
# 3 31.7510 66.0476 165.0081 0.0000 0.0000 0.0000
# 4 0.0000 0.0000 0.0000 18.9832 0.0000 0.0000
# 5 0.0000 0.0000 0.0000 0.0000 17.0997 0.0000
# 6 0.0000 0.0000 0.0000 0.0000 0.0000 14.9811
#
#
#
# Elastic Compliance Matrix: (Units=1/GPa)
#
#
# Indices 1 2 3 4 5 6 
#
# 1 0.037892 -0.004994 -0.005292 0.000000 0.000000 0.000000
# 2 -0.004994 0.015299 -0.005163 0.000000 0.000000 0.000000
# 3 -0.005292 -0.005163 0.009145 0.000000 0.000000 0.000000
# 4 0.000000 0.000000 0.000000 0.052678 0.000000 0.000000
# 5 0.000000 0.000000 0.000000 0.000000 0.058481 0.000000
# 6 0.000000 0.000000 0.000000 0.000000 0.000000 0.066751
#
#
# Mechanical properties :
#
#
# Convention : Reuss Voigt Hill
#
# Bulk Modulus (GPa) = 31.80808 59.16117 45.48463
# Shear Modulus (GPa) = 17.75419 21.80775 19.78097
#
# Velocity S-wave (km/s) = 3.34580 3.70813 3.53161
# Velocity P-wave (km/s) = 5.91451 7.45894 6.73117
#
# Compressibility (1/GPa) = 0.03143855
#
# Stress axis : x y z
#
# Youngs Moduli (GPa) = 26.39063 65.36368 109.34700
#
# Poissons Ratio (x) = 0.32641 0.57871
# Poissons Ratio (y) = 0.13179 0.56454
# Poissons Ratio (z) = 0.13967 0.33746
#
# Static dielectric constant tensor:
#      x y z
#    x 2.732620 0.000000 0.000000 
#    y 0.000000 3.015920 0.000000 
#    z 0.000000 0.000000 3.405030 
# 
# 
# High freq. dielectric constant tensor:
#      x y z
#    x 1.579370 0.000000 0.000000 
#    y 0.000000 1.585910 0.000000 
#    z 0.000000 0.000000 1.615000 
# 
# From -- ./inp_files/33377.got.cif
#   From: 2010.03.12/outbox.cif.g09.slc.cpg/sg47_17_cif.got.tgz:33377.got - 2010.04.14 03:12:58.
