data_PCOD8194301
_publ_section_title
;
Structure prediction by ZEFSAII (Michael W. Deem and Ramdas Pophale) SiO2 
 PCOD8194301
Probable space group: P M M M
;
_chemical_formula_sum "Si O2"
_cell_formula_units_Z 64
_cell_length_a 15.351069
_cell_length_b 24.907324
_cell_length_c 9.082768
_cell_angle_alpha 90.000000
_cell_angle_beta 90.000000
_cell_angle_gamma 90.000000
_cell_volume 3472.833124
_symmetry_space_group_name_H-M "P M M M"
_symmetry_group_IT_number 47
_symmetry_cell_setting 'orthorhombic'
loop_
_space_group_symop_operation_xyz
x,y,z
-x,-y,z
x,-y,-z
-x,y,-z
-x,-y,-z
x,y,-z
-x,y,z
x,-y,z
loop_
_atom_site_type_symbol
_atom_site_label
_atom_site_fract_x
_atom_site_fract_y
_atom_site_fract_z
Si Si1 0.094056 0.890191 0.332458
Si Si2 0.903382 0.671239 0.829947
Si Si3 0.598357 0.857025 0.830661
Si Si4 0.730692 0.648232 0.325781
Si Si5 0.146247 0.208934 0.170485
Si Si6 0.597254 0.560122 0.324974
Si Si7 0.725273 0.060972 0.328235
Si Si8 0.317606 0.766716 0.673489
O O1 0.107836 0.870172 0.500000
O O2 0.085691 0.839149 0.224298
O O3 0.173519 0.928771 0.286264
O O4 0.000000 0.920302 0.318359
O O5 0.827788 0.641362 0.738993
O O6 0.901569 0.734841 0.801456
O O7 0.000000 0.650868 0.781796
O O8 0.886747 0.658065 0.000000
O O9 0.500000 0.878046 0.812514
O O10 0.662199 0.900553 0.761354
O O11 0.603989 0.798677 0.751188
O O12 0.623885 0.849254 0.000000
O O13 0.739880 0.644848 0.500000
O O14 0.668582 0.601460 0.261297
O O15 0.686337 0.704379 0.277477
O O16 0.231253 0.203498 0.271740
O O17 0.171568 0.202328 0.000000
O O18 0.597899 0.562926 0.500000
O O19 0.500000 0.575369 0.268601
O O20 0.621495 0.500000 0.271992
O O21 0.708751 0.071331 0.500000
O O22 0.703361 0.000000 0.284701
O O23 0.327498 0.772147 0.500000
#
# Coordination Sequence:
#
# PCOD8194301 Si02
#       8
#     8   8   8   8   8   8   8   8
#     4  10  20  33  52  79 108 137 169 206 251 305
#     4   9  18  31  46  68 102 143 180 211 251 304
#     4  11  24  40  58  80 105 136 173 213 260 312
#     4   9  18  30  49  79 108 135 173 218 259 303
#     4  10  18  30  50  74 102 136 173 210 251 302
#     4   8  14  27  49  76 105 136 171 214 264 315
#     4  10  22  40  60  80 104 136 173 214 260 311
#     4  10  19  32  51  77 109 139 168 206 258 311
#
# _framework density 18.428757999999998
#
# number of rings (size 3 to 8) (size 9 to 14) (size 15 to 20)
#    0.000    2.375    1.250    1.875    0.000    4.250 
#    0.000    3.750    0.000    1.125    0.000    5.250 
#    0.000    0.000    0.000    0.000    0.000    0.000 
#
# Total GULP energy -793338.461126 kJ/mol
# GULP energy per Si atom -12395.913455 kJ/mol
# Density = 1.838681 g / cm^3
# Si number density = 18.428758 Si / 1000 Ang^3
#
#
#
# Elastic Constant Matrix: (Units=GPa)
#
#
# Indices 1 2 3 4 5 6 
#
# 1 133.5229 67.7191 45.3197 0.0000 0.0000 0.0000
# 2 67.7191 95.6449 39.6260 0.0000 0.0000 0.0000
# 3 45.3197 39.6260 57.8978 0.0000 0.0000 0.0000
# 4 0.0000 0.0000 0.0000 13.6495 0.0000 0.0000
# 5 0.0000 0.0000 0.0000 0.0000 23.4998 0.0000
# 6 0.0000 0.0000 0.0000 0.0000 0.0000 21.5268
#
#
#
# Elastic Compliance Matrix: (Units=1/GPa)
#
#
# Indices 1 2 3 4 5 6 
#
# 1 0.012757 -0.006832 -0.005309 0.000000 0.000000 0.000000
# 2 -0.006832 0.018253 -0.007144 0.000000 0.000000 0.000000
# 3 -0.005309 -0.007144 0.026317 0.000000 0.000000 0.000000
# 4 0.000000 0.000000 0.000000 0.073263 0.000000 0.000000
# 5 0.000000 0.000000 0.000000 0.000000 0.042553 0.000000
# 6 0.000000 0.000000 0.000000 0.000000 0.000000 0.046454
#
#
# Mechanical properties :
#
#
# Convention : Reuss Voigt Hill
#
# Bulk Modulus (GPa) = 53.31936 65.82167 59.57052
# Shear Modulus (GPa) = 18.90934 20.69528 19.80231
#
# Velocity S-wave (km/s) = 3.20672 3.35474 3.28156
# Velocity P-wave (km/s) = 6.53500 7.12742 6.83763
#
# Compressibility (1/GPa) = 0.01875491
#
# Stress axis : x y z
#
# Youngs Moduli (GPa) = 78.39128 54.78607 37.99800
#
# Poissons Ratio (x) = 0.37432 0.20173
# Poissons Ratio (y) = 0.53560 0.27147
# Poissons Ratio (z) = 0.41618 0.39141
#
# Static dielectric constant tensor:
#      x y z
#    x 3.554810 0.000000 0.000000 
#    y 0.000000 3.357610 0.000000 
#    z 0.000000 0.000000 3.233510 
# 
# 
# High freq. dielectric constant tensor:
#      x y z
#    x 1.721080 0.000000 0.000000 
#    y 0.000000 1.692470 0.000000 
#    z 0.000000 0.000000 1.699720 
# 
# From -- ./inp_files/7956.got.cif
#   From: 2010.03.12/outbox.cif.g09.slc.cpg/sg47_4_cif.got.tgz:7956.got - 2010.04.14 03:12:58.
