data_PCOD8194677
_publ_section_title
;
Structure prediction by ZEFSAII (Michael W. Deem and Ramdas Pophale) SiO2 
 PCOD8194677
Probable space group: P M M M
;
_chemical_formula_sum "Si O2"
_cell_formula_units_Z 64
_cell_length_a 8.887892
_cell_length_b 22.155231
_cell_length_c 18.661956
_cell_angle_alpha 90.000000
_cell_angle_beta 90.000000
_cell_angle_gamma 90.000000
_cell_volume 3674.787347
_symmetry_space_group_name_H-M "P M M M"
_symmetry_group_IT_number 47
_symmetry_cell_setting 'orthorhombic'
loop_
_space_group_symop_operation_xyz
x,y,z
-x,-y,z
x,-y,-z
-x,y,-z
-x,-y,-z
x,y,-z
-x,y,z
x,-y,z
loop_
_atom_site_type_symbol
_atom_site_label
_atom_site_fract_x
_atom_site_fract_y
_atom_site_fract_z
Si Si1 0.828103 0.566689 0.148573
Si Si2 0.667295 0.256470 0.578846
Si Si3 0.174592 0.827022 0.319544
Si Si4 0.324845 0.740625 0.216480
Si Si5 0.172998 0.619350 0.577473
Si Si6 0.821127 0.932094 0.580393
Si Si7 0.175908 0.310829 0.079594
Si Si8 0.674487 0.387561 0.715745
O O1 0.803799 0.500000 0.114553
O O2 0.787045 0.618114 0.090988
O O3 0.720051 0.572795 0.216535
O O4 0.000000 0.575125 0.174421
O O5 0.658248 0.227984 0.500000
O O6 0.500000 0.251264 0.615565
O O7 0.798915 0.223122 0.620553
O O8 0.713104 0.325342 0.573902
O O9 0.260938 0.803708 0.248566
O O10 0.240201 0.888825 0.355504
O O11 0.000000 0.833104 0.300381
O O12 0.500000 0.748014 0.205255
O O13 0.256131 0.730774 0.137993
O O14 0.287109 0.683634 0.268793
O O15 0.187919 0.584564 0.500000
O O16 0.231197 0.584730 0.648267
O O17 0.000000 0.638871 0.588453
O O18 0.762666 0.914346 0.500000
O O19 0.000000 0.927468 0.579728
O O20 0.768230 0.000000 0.598613
O O21 0.000000 0.298693 0.086752
O O22 0.233335 0.293612 0.000000
O O23 0.500000 0.396800 0.700360
#
# Coordination Sequence:
#
# PCOD8194677 Si02
#       8
#     8   8   8   8   8   8   8   8
#     4   9  18  32  51  74  98 125 157 192 230 275
#     4  10  19  28  38  57  88 121 151 188 236 285
#     4  11  19  27  45  68  91 122 163 208 246 283
#     4  10  20  32  46  67  96 128 159 192 236 289
#     4  10  19  29  43  63  86 114 150 192 237 286
#     4   8  15  28  44  64  93 129 170 214 255 291
#     4   9  18  33  53  76 102 129 156 189 229 278
#     4  10  19  31  47  65  91 125 156 193 240 286
#
# _framework density 17.415973999999999
#
# number of rings (size 3 to 8) (size 9 to 14) (size 15 to 20)
#    0.000    2.375    1.250    2.625    0.000    3.750 
#    0.000    1.250    0.000    1.875    0.000   10.500 
#    0.000    0.500    0.000    5.750    0.000    1.625 
#
# Total GULP energy -792893.260896 kJ/mol
# GULP energy per Si atom -12388.957201 kJ/mol
# Density = 1.737633 g / cm^3
# Si number density = 17.415974 Si / 1000 Ang^3
#
#
#
# Elastic Constant Matrix: (Units=GPa)
#
#
# Indices 1 2 3 4 5 6 
#
# 1 61.3936 15.1307 45.9496 0.0000 0.0000 0.0000
# 2 15.1307 71.3016 36.0905 0.0000 0.0000 0.0000
# 3 45.9496 36.0905 128.5488 0.0000 0.0000 0.0000
# 4 0.0000 0.0000 0.0000 19.0094 0.0000 0.0000
# 5 0.0000 0.0000 0.0000 0.0000 19.5223 0.0000
# 6 0.0000 0.0000 0.0000 0.0000 0.0000 10.7158
#
#
#
# Elastic Compliance Matrix: (Units=1/GPa)
#
#
# Indices 1 2 3 4 5 6 
#
# 1 0.022278 -0.000812 -0.007735 0.000000 0.000000 0.000000
# 2 -0.000812 0.016378 -0.004308 0.000000 0.000000 0.000000
# 3 -0.007735 -0.004308 0.011753 0.000000 0.000000 0.000000
# 4 0.000000 0.000000 0.000000 0.052605 0.000000 0.000000
# 5 0.000000 0.000000 0.000000 0.000000 0.051223 0.000000
# 6 0.000000 0.000000 0.000000 0.000000 0.000000 0.093320
#
#
# Mechanical properties :
#
#
# Convention : Reuss Voigt Hill
#
# Bulk Modulus (GPa) = 40.48789 50.62061 45.55425
# Shear Modulus (GPa) = 17.76189 20.78772 19.27481
#
# Velocity S-wave (km/s) = 3.19699 3.45860 3.33037
# Velocity P-wave (km/s) = 6.07665 6.71401 6.40327
#
# Compressibility (1/GPa) = 0.02469875
#
# Stress axis : x y z
#
# Youngs Moduli (GPa) = 44.88768 61.05850 85.08120
#
# Poissons Ratio (x) = 0.04959 0.65811
# Poissons Ratio (y) = 0.03646 0.36651
# Poissons Ratio (z) = 0.34721 0.26303
#
# Static dielectric constant tensor:
#      x y z
#    x 3.143540 0.000000 0.000000 
#    y 0.000000 3.089720 0.000000 
#    z 0.000000 0.000000 3.433990 
# 
# 
# High freq. dielectric constant tensor:
#      x y z
#    x 1.669650 0.000000 0.000000 
#    y 0.000000 1.628690 0.000000 
#    z 0.000000 0.000000 1.664410 
# 
# From -- ./inp_files/12861.got.cif
#   From: 2010.03.12/outbox.cif.g09.slc.cpg/sg47_7_cif.got.tgz:12861.got - 2010.04.14 03:12:58.
