data_PCOD8194864
_publ_section_title
;
Structure prediction by ZEFSAII (Michael W. Deem and Ramdas Pophale) SiO2 
 PCOD8194864
Probable space group: P M M M
;
_chemical_formula_sum "Si O2"
_cell_formula_units_Z 48
_cell_length_a 24.088283
_cell_length_b 13.770831
_cell_length_c 8.901256
_cell_angle_alpha 90.000000
_cell_angle_beta 90.000000
_cell_angle_gamma 90.000000
_cell_volume 2952.686136
_symmetry_space_group_name_H-M "P M M M"
_symmetry_group_IT_number 47
_symmetry_cell_setting 'orthorhombic'
loop_
_space_group_symop_operation_xyz
x,y,z
-x,-y,z
x,-y,-z
-x,y,-z
-x,-y,-z
x,y,-z
-x,y,z
x,-y,z
loop_
_atom_site_type_symbol
_atom_site_label
_atom_site_fract_x
_atom_site_fract_y
_atom_site_fract_z
Si Si1 0.560801 0.115093 0.668392
Si Si2 0.829438 0.390007 0.178075
Si Si3 0.060566 0.290668 0.176220
Si Si4 0.128844 0.109142 0.826062
Si Si5 0.227700 0.786137 0.677239
Si Si6 0.670558 0.886551 0.174564
O O1 0.573807 0.152910 0.500000
O O2 0.500000 0.154295 0.721029
O O3 0.608805 0.150070 0.781609
O O4 0.559006 0.000000 0.667523
O O5 0.816114 0.500000 0.225359
O O6 0.891589 0.362900 0.236875
O O7 0.784498 0.319918 0.253656
O O8 0.826320 0.374911 0.000000
O O9 0.077813 0.179857 0.214037
O O10 0.000000 0.311838 0.250756
O O11 0.054860 0.305651 0.000000
O O12 0.182440 0.135371 0.728846
O O13 0.109784 0.000000 0.789016
O O14 0.146065 0.121239 0.000000
O O15 0.226986 0.777100 0.500000
O O16 0.287398 0.822011 0.730359
O O17 0.678849 0.000000 0.214536
O O18 0.680462 0.867258 0.000000
#
# Coordination Sequence:
#
# PCOD8194864 Si02
#       6
#     8   8   8   8   8   8
#     4   8  14  25  40  59  87 123 159 191 221 254
#     4   9  18  33  51  68  87 111 138 174 223 273
#     4   8  14  25  43  69  94 111 135 174 217 262
#     4   9  17  29  44  62  87 118 149 181 217 257
#     4  11  21  31  45  64  87 114 147 186 224 267
#     4  10  19  29  43  64  91 123 157 191 224 259
#
# _framework density 16.256385000000002
#
# number of rings (size 3 to 8) (size 9 to 14) (size 15 to 20)
#    0.000    2.833    0.000    4.000    0.000    4.667 
#    0.000    5.000    0.000    8.000    0.000    9.333 
#    0.000    0.667    0.000    7.000    0.000    3.333 
#
# Total GULP energy -594937.515370 kJ/mol
# GULP energy per Si atom -12394.531570 kJ/mol
# Density = 1.621938 g / cm^3
# Si number density = 16.256385 Si / 1000 Ang^3
#
#
#
# Elastic Constant Matrix: (Units=GPa)
#
#
# Indices 1 2 3 4 5 6 
#
# 1 106.7265 35.9222 35.5268 0.0000 0.0000 0.0000
# 2 35.9222 86.8513 33.6655 0.0000 0.0000 0.0000
# 3 35.5268 33.6655 60.6255 0.0000 0.0000 0.0000
# 4 0.0000 0.0000 0.0000 13.2317 0.0000 0.0000
# 5 0.0000 0.0000 0.0000 0.0000 10.5891 0.0000
# 6 0.0000 0.0000 0.0000 0.0000 0.0000 15.4446
#
#
#
# Elastic Compliance Matrix: (Units=1/GPa)
#
#
# Indices 1 2 3 4 5 6 
#
# 1 0.012186 -0.002895 -0.005533 0.000000 0.000000 0.000000
# 2 -0.002895 0.015360 -0.006833 0.000000 0.000000 0.000000
# 3 -0.005533 -0.006833 0.023531 0.000000 0.000000 0.000000
# 4 0.000000 0.000000 0.000000 0.075576 0.000000 0.000000
# 5 0.000000 0.000000 0.000000 0.000000 0.094437 0.000000
# 6 0.000000 0.000000 0.000000 0.000000 0.000000 0.064747
#
#
# Mechanical properties :
#
#
# Convention : Reuss Voigt Hill
#
# Bulk Modulus (GPa) = 48.65058 51.60360 50.12709
# Shear Modulus (GPa) = 15.46970 17.79234 16.63102
#
# Velocity S-wave (km/s) = 3.08816 3.31189 3.20198
# Velocity P-wave (km/s) = 6.53511 6.81449 6.67626
#
# Compressibility (1/GPa) = 0.02055474
#
# Stress axis : x y z
#
# Youngs Moduli (GPa) = 82.05992 65.10407 42.49623
#
# Poissons Ratio (x) = 0.18850 0.23515
# Poissons Ratio (y) = 0.23760 0.29037
# Poissons Ratio (z) = 0.45407 0.44484
#
# Static dielectric constant tensor:
#      x y z
#    x 3.341440 0.000000 0.000000 
#    y 0.000000 2.909500 0.000000 
#    z 0.000000 0.000000 2.912240 
# 
# 
# High freq. dielectric constant tensor:
#      x y z
#    x 1.625650 0.000000 0.000000 
#    y 0.000000 1.592620 0.000000 
#    z 0.000000 0.000000 1.608010 
# 
# From -- ./inp_files/7475.got.cif
#   From: 2010.03.12/outbox.cif.g09.slc.cpg/sg47_4_cif.got.tgz:7475.got - 2010.04.14 03:12:58.
