data_PCOD8194204
_publ_section_title
;
Structure prediction by ZEFSAII (Michael W. Deem and Ramdas Pophale) SiO2 
 PCOD8194204
Probable space group: P M M M
;
_chemical_formula_sum "Si O2"
_cell_formula_units_Z 52
_cell_length_a 14.715914
_cell_length_b 12.944376
_cell_length_c 16.009502
_cell_angle_alpha 90.000000
_cell_angle_beta 90.000000
_cell_angle_gamma 90.000000
_cell_volume 3049.623204
_symmetry_space_group_name_H-M "P M M M"
_symmetry_group_IT_number 47
_symmetry_cell_setting 'orthorhombic'
loop_
_space_group_symop_operation_xyz
x,y,z
-x,-y,z
x,-y,-z
-x,y,-z
-x,-y,-z
x,y,-z
-x,y,z
x,-y,z
loop_
_atom_site_type_symbol
_atom_site_label
_atom_site_fract_x
_atom_site_fract_y
_atom_site_fract_z
Si Si1 0.103250 0.242275 0.594153
Si Si2 0.394115 0.500000 0.403189
Si Si3 0.602915 0.709497 0.672141
Si Si4 0.401129 0.382702 0.846613
Si Si5 0.723885 0.116563 0.595835
Si Si6 0.210041 0.620739 0.909951
Si Si7 0.105308 0.381451 0.249806
O O1 0.113697 0.289182 0.500000
O O2 0.169942 0.145330 0.605548
O O3 0.130591 0.327315 0.662987
O O4 0.000000 0.203726 0.608429
O O5 0.500000 0.500000 0.378858
O O6 0.374858 0.500000 0.500000
O O7 0.351431 0.605861 0.366875
O O8 0.500000 0.724954 0.638522
O O9 0.604244 0.697960 0.771315
O O10 0.661069 0.809318 0.650100
O O11 0.500000 0.370140 0.891593
O O12 0.392094 0.500000 0.811231
O O13 0.318486 0.358794 0.908660
O O14 0.693037 0.126367 0.500000
O O15 0.711387 0.000000 0.628574
O O16 0.187778 0.500000 0.908598
O O17 0.160063 0.669426 0.828764
O O18 0.175944 0.666096 0.000000
O O19 0.133444 0.500000 0.262080
O O20 0.000000 0.368959 0.228008
#
# Coordination Sequence:
#
# PCOD8194204 Si02
#       7
#     8   4   8   8   8   8   8
#     4   9  18  33  51  69  90 119 157 198 238 280
#     4   9  16  26  42  64  88 116 154 195 230 272
#     4  10  18  30  47  66  91 123 157 195 238 281
#     4   9  16  27  43  63  88 119 153 190 233 276
#     4  10  21  34  46  64  91 123 161 201 240 284
#     4   9  17  27  40  61  90 127 164 191 221 270
#     4   9  17  29  46  68  95 125 153 188 234 281
#
# _framework density 17.051286999999999
#
# number of rings (size 3 to 8) (size 9 to 14) (size 15 to 20)
#    0.000    2.692    0.769    1.385    0.000    2.462 
#    1.385    6.923    0.000    0.000    0.000    0.000 
#    0.000    9.846    0.000   27.077    0.000    1.538 
#
# Total GULP energy -644412.631217 kJ/mol
# GULP energy per Si atom -12392.550600 kJ/mol
# Density = 1.701248 g / cm^3
# Si number density = 17.051287 Si / 1000 Ang^3
#
#
#
# Elastic Constant Matrix: (Units=GPa)
#
#
# Indices 1 2 3 4 5 6 
#
# 1 67.5960 31.9627 34.8605 0.0000 0.0000 0.0000
# 2 31.9627 76.7703 35.7434 0.0000 0.0000 0.0000
# 3 34.8605 35.7434 93.9281 0.0000 0.0000 0.0000
# 4 0.0000 0.0000 0.0000 7.6312 0.0000 0.0000
# 5 0.0000 0.0000 0.0000 0.0000 17.1725 0.0000
# 6 0.0000 0.0000 0.0000 0.0000 0.0000 19.9344
#
#
#
# Elastic Compliance Matrix: (Units=1/GPa)
#
#
# Indices 1 2 3 4 5 6 
#
# 1 0.020357 -0.006025 -0.005262 0.000000 0.000000 0.000000
# 2 -0.006025 0.017614 -0.004467 0.000000 0.000000 0.000000
# 3 -0.005262 -0.004467 0.014299 0.000000 0.000000 0.000000
# 4 0.000000 0.000000 0.000000 0.131040 0.000000 0.000000
# 5 0.000000 0.000000 0.000000 0.000000 0.058233 0.000000
# 6 0.000000 0.000000 0.000000 0.000000 0.000000 0.050165
#
#
# Mechanical properties :
#
#
# Convention : Reuss Voigt Hill
#
# Bulk Modulus (GPa) = 48.16603 49.26974 48.71788
# Shear Modulus (GPa) = 15.14526 17.99616 16.57071
#
# Velocity S-wave (km/s) = 2.98353 3.25224 3.12078
# Velocity P-wave (km/s) = 6.33859 6.56205 6.45129
#
# Compressibility (1/GPa) = 0.02076152
#
# Stress axis : x y z
#
# Youngs Moduli (GPa) = 49.12396 56.77286 69.93375
#
# Poissons Ratio (x) = 0.34207 0.36801
# Poissons Ratio (y) = 0.29598 0.31237
# Poissons Ratio (z) = 0.25851 0.25358
#
# Static dielectric constant tensor:
#      x y z
#    x 3.303370 0.000000 0.000000 
#    y 0.000000 2.800120 0.000000 
#    z 0.000000 0.000000 3.212830 
# 
# 
# High freq. dielectric constant tensor:
#      x y z
#    x 1.666960 0.000000 0.000000 
#    y 0.000000 1.601040 0.000000 
#    z 0.000000 0.000000 1.652690 
# 
# From -- ./inp_files/22807.got.cif
#   From: 2010.03.12/outbox.cif.g09.slc.cpg/sg47_12_cif.got.tgz:22807.got - 2010.04.14 03:12:58.
