data_PCOD8194675
_publ_section_title
;
Structure prediction by ZEFSAII (Michael W. Deem and Ramdas Pophale) SiO2 
 PCOD8194675
Probable space group: P M M M
;
_chemical_formula_sum "Si O2"
_cell_formula_units_Z 40
_cell_length_a 7.980858
_cell_length_b 16.960821
_cell_length_c 19.583529
_cell_angle_alpha 90.000000
_cell_angle_beta 90.000000
_cell_angle_gamma 90.000000
_cell_volume 2650.863772
_symmetry_space_group_name_H-M "P M M M"
_symmetry_group_IT_number 47
_symmetry_cell_setting 'orthorhombic'
loop_
_space_group_symop_operation_xyz
x,y,z
-x,-y,z
x,-y,-z
-x,y,-z
-x,-y,-z
x,y,-z
-x,y,z
x,-y,z
loop_
_atom_site_type_symbol
_atom_site_label
_atom_site_fract_x
_atom_site_fract_y
_atom_site_fract_z
Si Si1 0.191392 0.589853 0.716346
Si Si2 0.691190 0.593259 0.426475
Si Si3 0.500000 0.912146 0.919159
Si Si4 0.699294 0.500000 0.923443
Si Si5 0.811315 0.192587 0.079081
Si Si6 0.692102 0.655997 0.849886
O O1 0.261964 0.500000 0.719296
O O2 0.208527 0.625060 0.639451
O O3 0.294109 0.645050 0.768233
O O4 0.000000 0.591916 0.738754
O O5 0.759744 0.626203 0.500000
O O6 0.500000 0.619435 0.417584
O O7 0.708287 0.500000 0.428614
O O8 0.670297 0.868696 0.894510
O O9 0.500000 0.000000 0.887374
O O10 0.500000 0.917536 0.000000
O O11 0.500000 0.500000 0.922535
O O12 0.766261 0.577409 0.885067
O O13 0.770560 0.500000 0.000000
O O14 0.800702 0.271047 0.124201
O O15 0.000000 0.157400 0.088004
O O16 0.777375 0.214201 0.000000
O O17 0.500000 0.671113 0.870718
#
# Coordination Sequence:
#
# PCOD8194675 Si02
#       6
#     8   8   4   4   8   8
#     4  10  19  28  38  55  81 109 144 187 226 265
#     4   8  14  25  40  55  71  95 133 180 225 267
#     4   9  18  34  54  73  91 111 138 174 219 273
#     4   9  18  28  41  59  76 106 152 193 226 260
#     4  10  20  33  49  69  92 116 144 182 225 269
#     4  11  19  30  45  59  83 116 151 190 226 262
#
# _framework density 15.089421
#
# number of rings (size 3 to 8) (size 9 to 14) (size 15 to 20)
#    0.000    2.400    2.000    2.400    0.000    2.400 
#    0.000    4.000    0.000    2.400    0.000    0.000 
#    0.000    0.000    0.000    0.000    0.000    2.000 
#
# Total GULP energy -495785.365420 kJ/mol
# GULP energy per Si atom -12394.634136 kJ/mol
# Density = 1.505508 g / cm^3
# Si number density = 15.089421 Si / 1000 Ang^3
#
#
#
# Elastic Constant Matrix: (Units=GPa)
#
#
# Indices 1 2 3 4 5 6 
#
# 1 71.1203 30.8083 19.4818 0.0000 0.0000 0.0000
# 2 30.8083 73.4121 27.9020 0.0000 0.0000 0.0000
# 3 19.4818 27.9020 91.6305 0.0000 0.0000 0.0000
# 4 0.0000 0.0000 0.0000 5.3994 0.0000 0.0000
# 5 0.0000 0.0000 0.0000 0.0000 18.0900 0.0000
# 6 0.0000 0.0000 0.0000 0.0000 0.0000 12.2983
#
#
#
# Elastic Compliance Matrix: (Units=1/GPa)
#
#
# Indices 1 2 3 4 5 6 
#
# 1 0.017408 -0.006671 -0.001670 0.000000 0.000000 0.000000
# 2 -0.006671 0.017961 -0.004051 0.000000 0.000000 0.000000
# 3 -0.001670 -0.004051 0.012502 0.000000 0.000000 0.000000
# 4 0.000000 0.000000 0.000000 0.185206 0.000000 0.000000
# 5 0.000000 0.000000 0.000000 0.000000 0.055279 0.000000
# 6 0.000000 0.000000 0.000000 0.000000 0.000000 0.081312
#
#
# Mechanical properties :
#
#
# Convention : Reuss Voigt Hill
#
# Bulk Modulus (GPa) = 43.31324 43.61634 43.46479
# Shear Modulus (GPa) = 12.43328 17.68892 15.06110
#
# Velocity S-wave (km/s) = 2.87361 3.42756 3.16274
# Velocity P-wave (km/s) = 6.30689 6.68074 6.49650
#
# Compressibility (1/GPa) = 0.02308763
#
# Stress axis : x y z
#
# Youngs Moduli (GPa) = 57.44564 55.67679 79.98756
#
# Poissons Ratio (x) = 0.37140 0.13357
# Poissons Ratio (y) = 0.38320 0.32402
# Poissons Ratio (z) = 0.09593 0.22554
#
# Static dielectric constant tensor:
#      x y z
#    x 2.900040 0.000000 0.000000 
#    y 0.000000 2.572270 0.000000 
#    z 0.000000 0.000000 2.640320 
# 
# 
# High freq. dielectric constant tensor:
#      x y z
#    x 1.584660 0.000000 0.000000 
#    y 0.000000 1.514250 0.000000 
#    z 0.000000 0.000000 1.570660 
# 
# From -- ./inp_files/24861.got.cif
#   From: 2010.03.12/outbox.cif.g09.slc.cpg/sg47_13_cif.got.tgz:24861.got - 2010.04.14 03:12:58.
