data_PCOD8194508
_publ_section_title
;
Structure prediction by ZEFSAII (Michael W. Deem and Ramdas Pophale) SiO2 
 PCOD8194508
Probable space group: P M M M
;
_chemical_formula_sum "Si O2"
_cell_formula_units_Z 48
_cell_length_a 7.800419
_cell_length_b 18.901080
_cell_length_c 15.479864
_cell_angle_alpha 90.000000
_cell_angle_beta 90.000000
_cell_angle_gamma 90.000000
_cell_volume 2282.294547
_symmetry_space_group_name_H-M "P M M M"
_symmetry_group_IT_number 47
_symmetry_cell_setting 'orthorhombic'
loop_
_space_group_symop_operation_xyz
x,y,z
-x,-y,z
x,-y,-z
-x,y,-z
-x,-y,-z
x,y,-z
-x,y,z
x,-y,z
loop_
_atom_site_type_symbol
_atom_site_label
_atom_site_fract_x
_atom_site_fract_y
_atom_site_fract_z
Si Si1 0.696171 0.178511 0.850276
Si Si2 0.196119 0.577789 0.256093
Si Si3 0.300626 0.666005 0.903112
Si Si4 0.801287 0.677633 0.403834
Si Si5 0.000000 0.921092 0.646638
Si Si6 0.689729 0.826148 0.647978
Si Si7 0.000000 0.920727 0.852132
O O1 0.500000 0.157433 0.874779
O O2 0.751655 0.252162 0.893486
O O3 0.718449 0.188747 0.748601
O O4 0.827439 0.118805 0.884791
O O5 0.284515 0.500000 0.251160
O O6 0.203564 0.616271 0.163908
O O7 0.281037 0.624229 0.333065
O O8 0.000000 0.567309 0.281279
O O9 0.500000 0.657483 0.883472
O O10 0.253259 0.641310 0.000000
O O11 0.777870 0.645339 0.500000
O O12 0.704255 0.752021 0.400898
O O13 0.000000 0.692176 0.382245
O O14 0.830071 0.881314 0.612486
O O15 0.000000 0.924011 0.749381
O O16 0.000000 0.000000 0.607725
O O17 0.500000 0.857831 0.630883
O O18 0.000000 0.000000 0.890901
#
# Coordination Sequence:
#
# PCOD8194508 Si02
#       7
#     8   8   8   8   4   8   4
#     4   9  18  32  53  80 112 152 196 242 290 342
#     4  10  22  38  58  86 119 152 188 237 294 349
#     4  10  21  37  58  83 111 151 200 242 288 346
#     4  10  20  35  58  84 114 155 197 238 289 348
#     4   9  18  32  51  81 119 153 189 238 295 350
#     4  10  18  31  55  82 111 151 197 242 289 343
#     4   9  18  30  51  83 115 151 193 238 293 352
#
# _framework density 21.031465000000001
#
# number of rings (size 3 to 8) (size 9 to 14) (size 15 to 20)
#    0.000    2.333    2.500    0.000    1.167    2.333 
#    0.000    6.667    0.000    2.000    0.000    5.833 
#    0.000    0.000    0.000    0.000    0.000    0.000 
#
# Total GULP energy -595117.492565 kJ/mol
# GULP energy per Si atom -12398.281095 kJ/mol
# Density = 2.098360 g / cm^3
# Si number density = 21.031465 Si / 1000 Ang^3
#
#
#
# Elastic Constant Matrix: (Units=GPa)
#
#
# Indices 1 2 3 4 5 6 
#
# 1 98.3155 55.0965 22.3327 0.0000 0.0000 0.0000
# 2 55.0965 161.1392 48.2736 0.0000 0.0000 0.0000
# 3 22.3327 48.2736 89.5963 0.0000 0.0000 0.0000
# 4 0.0000 0.0000 0.0000 4.5539 0.0000 0.0000
# 5 0.0000 0.0000 0.0000 0.0000 12.8158 0.0000
# 6 0.0000 0.0000 0.0000 0.0000 0.0000 14.5836
#
#
#
# Elastic Compliance Matrix: (Units=1/GPa)
#
#
# Indices 1 2 3 4 5 6 
#
# 1 0.012654 -0.004033 -0.000981 0.000000 0.000000 0.000000
# 2 -0.004033 0.008685 -0.003674 0.000000 0.000000 0.000000
# 3 -0.000981 -0.003674 0.013386 0.000000 0.000000 0.000000
# 4 0.000000 0.000000 0.000000 0.219591 0.000000 0.000000
# 5 0.000000 0.000000 0.000000 0.000000 0.078029 0.000000
# 6 0.000000 0.000000 0.000000 0.000000 0.000000 0.068570
#
#
# Mechanical properties :
#
#
# Convention : Reuss Voigt Hill
#
# Bulk Modulus (GPa) = 57.64316 66.71742 62.18029
# Shear Modulus (GPa) = 11.79037 21.28055 16.53546
#
# Velocity S-wave (km/s) = 2.37028 3.18440 2.80701
# Velocity P-wave (km/s) = 5.91257 6.73142 6.33524
#
# Compressibility (1/GPa) = 0.01734811
#
# Stress axis : x y z
#
# Youngs Moduli (GPa) = 79.02512 115.13509 74.70743
#
# Poissons Ratio (x) = 0.46431 0.07332
# Poissons Ratio (y) = 0.31868 0.27451
# Poissons Ratio (z) = 0.07756 0.42306
#
# Static dielectric constant tensor:
#      x y z
#    x 3.790040 0.000000 0.000000 
#    y 0.000000 3.906940 0.000000 
#    z 0.000000 0.000000 3.578160 
# 
# 
# High freq. dielectric constant tensor:
#      x y z
#    x 1.817290 0.000000 0.000000 
#    y 0.000000 1.811250 0.000000 
#    z 0.000000 0.000000 1.810610 
# 
# From -- ./inp_files/21096.got.cif
#   From: 2010.03.12/outbox.cif.g09.slc.cpg/sg47_11_cif.got.tgz:21096.got - 2010.04.14 03:12:58.
