data_PCOD8194786
_publ_section_title
;
Structure prediction by ZEFSAII (Michael W. Deem and Ramdas Pophale) SiO2 
 PCOD8194786
Probable space group: P M M M
;
_chemical_formula_sum "Si O2"
_cell_formula_units_Z 56
_cell_length_a 9.266255
_cell_length_b 13.687525
_cell_length_c 29.378732
_cell_angle_alpha 90.000000
_cell_angle_beta 90.000000
_cell_angle_gamma 90.000000
_cell_volume 3726.166186
_symmetry_space_group_name_H-M "P M M M"
_symmetry_group_IT_number 47
_symmetry_cell_setting 'orthorhombic'
loop_
_space_group_symop_operation_xyz
x,y,z
-x,-y,z
x,-y,-z
-x,y,-z
-x,-y,-z
x,y,-z
-x,y,z
x,-y,z
loop_
_atom_site_type_symbol
_atom_site_label
_atom_site_fract_x
_atom_site_fract_y
_atom_site_fract_z
Si Si1 0.828732 0.109244 0.449737
Si Si2 0.831239 0.224768 0.363778
Si Si3 0.828990 0.390832 0.951922
Si Si4 0.330664 0.721620 0.226429
Si Si5 0.167931 0.887566 0.272615
Si Si6 0.668226 0.611002 0.682042
Si Si7 0.167785 0.615950 0.853186
O O1 0.783461 0.147924 0.500000
O O2 0.767633 0.180187 0.410631
O O3 0.000000 0.104928 0.445468
O O4 0.766968 0.000000 0.442426
O O5 0.796582 0.148690 0.323509
O O6 0.752428 0.327294 0.355762
O O7 0.000000 0.246398 0.367349
O O8 0.765810 0.500000 0.953463
O O9 0.782177 0.344012 0.903532
O O10 0.000000 0.396562 0.950645
O O11 0.779950 0.337647 0.000000
O O12 0.500000 0.736682 0.219863
O O13 0.259111 0.826803 0.235795
O O14 0.293774 0.649014 0.267731
O O15 0.266105 0.674488 0.181449
O O16 0.000000 0.873151 0.261481
O O17 0.214593 0.000000 0.268915
O O18 0.500000 0.621199 0.671911
O O19 0.721388 0.500000 0.678560
O O20 0.195480 0.500000 0.849200
O O21 0.000000 0.639186 0.843656
#
# Coordination Sequence:
#
# PCOD8194786 Si02
#       7
#     8   8   8   8   8   8   8
#     4   8  13  22  39  64  90 110 126 150 191 242
#     4   9  16  26  43  66  85 102 130 165 197 231
#     4   7  10  18  33  53  76 102 133 167 200 233
#     4  10  19  29  41  58  81 108 137 168 202 241
#     4   9  17  29  44  61  82 106 131 163 201 238
#     4   9  18  31  43  55  76 108 141 169 199 235
#     4   9  16  25  39  59  82 109 140 172 203 235
#
# _framework density 15.028852000000001
#
# number of rings (size 3 to 8) (size 9 to 14) (size 15 to 20)
#    0.000    3.286    0.000    3.000    0.000    3.714 
#    0.000    0.000    0.000    2.571    0.000    6.000 
#    0.000    0.571    0.000    6.571    0.000    2.143 
#
# Total GULP energy -693852.692016 kJ/mol
# GULP energy per Si atom -12390.226643 kJ/mol
# Density = 1.499465 g / cm^3
# Si number density = 15.028852 Si / 1000 Ang^3
#
#
#
# Elastic Constant Matrix: (Units=GPa)
#
#
# Indices 1 2 3 4 5 6 
#
# 1 38.0285 37.5174 40.1414 0.0000 0.0000 0.0000
# 2 37.5174 101.1842 61.2491 0.0000 0.0000 0.0000
# 3 40.1414 61.2491 132.4388 0.0000 0.0000 0.0000
# 4 0.0000 0.0000 0.0000 18.7500 0.0000 0.0000
# 5 0.0000 0.0000 0.0000 0.0000 11.4433 0.0000
# 6 0.0000 0.0000 0.0000 0.0000 0.0000 16.5129
#
#
#
# Elastic Compliance Matrix: (Units=1/GPa)
#
#
# Indices 1 2 3 4 5 6 
#
# 1 0.047775 -0.012428 -0.008733 0.000000 0.000000 0.000000
# 2 -0.012428 0.016958 -0.004076 0.000000 0.000000 0.000000
# 3 -0.008733 -0.004076 0.012082 0.000000 0.000000 0.000000
# 4 0.000000 0.000000 0.000000 0.053333 0.000000 0.000000
# 5 0.000000 0.000000 0.000000 0.000000 0.087387 0.000000
# 6 0.000000 0.000000 0.000000 0.000000 0.000000 0.060559
#
#
# Mechanical properties :
#
#
# Convention : Reuss Voigt Hill
#
# Bulk Modulus (GPa) = 37.96147 61.05195 49.50671
# Shear Modulus (GPa) = 14.82144 18.19082 16.50613
#
# Velocity S-wave (km/s) = 3.14379 3.48284 3.31765
# Velocity P-wave (km/s) = 6.20417 7.54221 6.90568
#
# Compressibility (1/GPa) = 0.02634250
#
# Stress axis : x y z
#
# Youngs Moduli (GPa) = 20.93147 58.96827 82.76466
#
# Poissons Ratio (x) = 0.73286 0.72276
# Poissons Ratio (y) = 0.26014 0.33734
# Poissons Ratio (z) = 0.18279 0.24035
#
# Static dielectric constant tensor:
#      x y z
#    x 2.643980 0.000000 0.000000 
#    y 0.000000 2.766560 0.000000 
#    z 0.000000 0.000000 3.218090 
# 
# 
# High freq. dielectric constant tensor:
#      x y z
#    x 1.550200 0.000000 0.000000 
#    y 0.000000 1.545930 0.000000 
#    z 0.000000 0.000000 1.580200 
# 
# From -- ./inp_files/34377.got.cif
#   From: 2010.03.12/outbox.cif.g09.slc.cpg/sg47_18_cif.got.tgz:34377.got - 2010.04.14 03:12:58.
