data_PCOD8194679
_publ_section_title
;
Structure prediction by ZEFSAII (Michael W. Deem and Ramdas Pophale) SiO2 
 PCOD8194679
Probable space group: P M M M
;
_chemical_formula_sum "Si O2"
_cell_formula_units_Z 48
_cell_length_a 20.691283
_cell_length_b 13.217891
_cell_length_c 11.839059
_cell_angle_alpha 90.000000
_cell_angle_beta 90.000000
_cell_angle_gamma 90.000000
_cell_volume 3237.924901
_symmetry_space_group_name_H-M "P M M M"
_symmetry_group_IT_number 47
_symmetry_cell_setting 'orthorhombic'
loop_
_space_group_symop_operation_xyz
x,y,z
-x,-y,z
x,-y,-z
-x,y,-z
-x,-y,-z
x,y,-z
-x,y,z
x,-y,z
loop_
_atom_site_type_symbol
_atom_site_label
_atom_site_fract_x
_atom_site_fract_y
_atom_site_fract_z
Si Si1 0.925605 0.304976 0.239893
Si Si2 0.813198 0.615618 0.623428
Si Si3 0.885620 0.378631 0.000000
Si Si4 0.693041 0.378795 0.238074
Si Si5 0.264354 0.619433 0.000000
Si Si6 0.923622 0.111389 0.626580
Si Si7 0.571358 0.620267 0.373040
O O1 0.880126 0.381634 0.307822
O O2 0.901719 0.192799 0.278818
O O3 0.000000 0.323289 0.275204
O O4 0.918392 0.324922 0.107140
O O5 0.820178 0.667568 0.500000
O O6 0.794846 0.500000 0.606370
O O7 0.753657 0.665857 0.691403
O O8 0.810585 0.350550 0.000000
O O9 0.897988 0.500000 0.000000
O O10 0.694201 0.500000 0.238340
O O11 0.626198 0.335934 0.289808
O O12 0.699988 0.336763 0.110610
O O13 0.269503 0.500000 0.000000
O O14 0.899721 0.142261 0.500000
O O15 0.000000 0.105455 0.625698
O O16 0.895732 0.000000 0.658613
O O17 0.585211 0.659129 0.500000
O O18 0.500000 0.656830 0.333196
O O19 0.573901 0.500000 0.372091
#
# Coordination Sequence:
#
# PCOD8194679 Si02
#       7
#     8   8   4   8   4   8   8
#     4  11  21  31  44  61  79 103 139 177 211 253
#     4  10  19  28  39  56  78 104 134 171 212 250
#     4  11  21  34  44  55  80 116 150 178 209 247
#     4   9  15  25  38  51  69  97 133 167 199 239
#     4   9  16  27  41  50  65 101 141 171 197 231
#     4   8  15  30  50  67  82 100 123 160 216 272
#     4   8  13  21  34  52  72  93 120 160 208 248
#
# _framework density 14.824309
#
# number of rings (size 3 to 8) (size 9 to 14) (size 15 to 20)
#    0.000    2.667    1.667    2.750    0.000    4.667 
#    0.000    1.667    0.000    4.500    0.000    0.000 
#    0.000    0.000    0.000    0.000    0.000    0.833 
#
# Total GULP energy -594728.986205 kJ/mol
# GULP energy per Si atom -12390.187213 kJ/mol
# Density = 1.479057 g / cm^3
# Si number density = 14.824309 Si / 1000 Ang^3
#
#
#
# Elastic Constant Matrix: (Units=GPa)
#
#
# Indices 1 2 3 4 5 6 
#
# 1 106.8826 6.7962 56.8375 0.0000 0.0000 0.0000
# 2 6.7962 39.8010 22.6052 0.0000 0.0000 0.0000
# 3 56.8375 22.6052 124.2399 0.0000 0.0000 0.0000
# 4 0.0000 0.0000 0.0000 16.5723 0.0000 0.0000
# 5 0.0000 0.0000 0.0000 0.0000 26.2495 0.0000
# 6 0.0000 0.0000 0.0000 0.0000 0.0000 1.2213
#
#
#
# Elastic Compliance Matrix: (Units=1/GPa)
#
#
# Indices 1 2 3 4 5 6 
#
# 1 0.012418 0.001234 -0.005905 0.000000 0.000000 0.000000
# 2 0.001234 0.028143 -0.005685 0.000000 0.000000 0.000000
# 3 -0.005905 -0.005685 0.011785 0.000000 0.000000 0.000000
# 4 0.000000 0.000000 0.000000 0.060342 0.000000 0.000000
# 5 0.000000 0.000000 0.000000 0.000000 0.038096 0.000000
# 6 0.000000 0.000000 0.000000 0.000000 0.000000 0.818769
#
#
# Mechanical properties :
#
#
# Convention : Reuss Voigt Hill
#
# Bulk Modulus (GPa) = 31.61302 49.26680 40.43991
# Shear Modulus (GPa) = 4.99595 21.12094 13.05845
#
# Velocity S-wave (km/s) = 1.83778 3.77868 2.97118
# Velocity P-wave (km/s) = 5.08671 7.23491 6.25374
#
# Compressibility (1/GPa) = 0.03163254
#
# Stress axis : x y z
#
# Youngs Moduli (GPa) = 80.52824 35.53259 84.85392
#
# Poissons Ratio (x) = -0.04383 0.50110
# Poissons Ratio (y) = -0.09934 0.48239
# Poissons Ratio (z) = 0.47556 0.20200
#
# Static dielectric constant tensor:
#      x y z
#    x 2.931470 0.000000 0.000000 
#    y 0.000000 2.551220 0.000000 
#    z 0.000000 0.000000 3.184230 
# 
# 
# High freq. dielectric constant tensor:
#      x y z
#    x 1.558760 0.000000 0.000000 
#    y 0.000000 1.496680 0.000000 
#    z 0.000000 0.000000 1.578810 
# 
# From -- ./inp_files/19107.got.cif
#   From: 2010.03.12/outbox.cif.g09.slc.cpg/sg47_10_cif.got.tgz:19107.got - 2010.04.14 03:12:58.
