data_PCOD8194766
_publ_section_title
;
Structure prediction by ZEFSAII (Michael W. Deem and Ramdas Pophale) SiO2 
 PCOD8194766
Probable space group: P M M M
;
_chemical_formula_sum "Si O2"
_cell_formula_units_Z 48
_cell_length_a 22.122119
_cell_length_b 19.718996
_cell_length_c 8.212280
_cell_angle_alpha 90.000000
_cell_angle_beta 90.000000
_cell_angle_gamma 90.000000
_cell_volume 3582.409859
_symmetry_space_group_name_H-M "P M M M"
_symmetry_group_IT_number 47
_symmetry_cell_setting 'orthorhombic'
loop_
_space_group_symop_operation_xyz
x,y,z
-x,-y,z
x,-y,-z
-x,y,-z
-x,-y,-z
x,y,-z
-x,y,z
x,-y,z
loop_
_atom_site_type_symbol
_atom_site_label
_atom_site_fract_x
_atom_site_fract_y
_atom_site_fract_z
Si Si1 0.000000 0.073957 0.812287
Si Si2 0.767383 0.921900 0.690015
Si Si3 0.928393 0.426684 0.685225
Si Si4 0.430820 0.080679 0.500000
Si Si5 0.069196 0.713378 0.812758
Si Si6 0.885735 0.847303 0.687510
Si Si7 0.361246 0.919761 0.818309
O O1 0.058909 0.116696 0.773434
O O2 0.000000 0.000000 0.722994
O O3 0.000000 0.059723 0.000000
O O4 0.753592 0.910017 0.500000
O O5 0.822338 0.875670 0.755517
O O6 0.708449 0.899736 0.790349
O O7 0.784447 0.000000 0.723093
O O8 0.907639 0.416384 0.500000
O O9 0.903483 0.500000 0.750051
O O10 0.903974 0.362573 0.787791
O O11 0.000000 0.428650 0.698626
O O12 0.500000 0.104086 0.500000
O O13 0.400833 0.110122 0.332575
O O14 0.423771 0.000000 0.500000
O O15 0.110271 0.766487 0.714523
O O16 0.000000 0.717133 0.748381
O O17 0.072262 0.733296 0.000000
O O18 0.889905 0.865820 0.500000
O O19 0.368620 0.000000 0.815534
O O20 0.380943 0.892857 0.000000
#
# Coordination Sequence:
#
# PCOD8194766 Si02
#       7
#     4   8   8   4   8   8   8
#     4  11  23  35  43  53  72  91 114 157 205 247
#     4   9  17  30  44  56  71  92 124 164 199 234
#     4   8  14  25  41  58  73  90 114 140 169 216
#     4   9  16  26  40  58  82 103 119 147 182 222
#     4  10  19  29  40  54  76  97 114 145 189 234
#     4  11  21  31  45  58  70  94 125 157 196 240
#     4   9  16  26  41  58  76  99 124 151 186 226
#
# _framework density 13.398802999999999
#
# number of rings (size 3 to 8) (size 9 to 14) (size 15 to 20)
#    0.000    2.500    1.667    2.250    0.000    4.000 
#    0.000    5.000    0.000    0.000    0.000    0.000 
#    0.000    0.000    0.000    0.000    0.000    0.000 
#
# Total GULP energy -594840.432548 kJ/mol
# GULP energy per Si atom -12392.509011 kJ/mol
# Density = 1.336831 g / cm^3
# Si number density = 13.398803 Si / 1000 Ang^3
#
#
#
# Elastic Constant Matrix: (Units=GPa)
#
#
# Indices 1 2 3 4 5 6 
#
# 1 65.7581 24.2999 37.5250 0.0000 0.0000 0.0000
# 2 24.2999 68.5403 15.6822 0.0000 0.0000 0.0000
# 3 37.5250 15.6822 66.7634 0.0000 0.0000 0.0000
# 4 0.0000 0.0000 0.0000 14.6410 0.0000 0.0000
# 5 0.0000 0.0000 0.0000 0.0000 8.8496 0.0000
# 6 0.0000 0.0000 0.0000 0.0000 0.0000 1.7040
#
#
#
# Elastic Compliance Matrix: (Units=1/GPa)
#
#
# Indices 1 2 3 4 5 6 
#
# 1 0.024408 -0.005828 -0.012350 0.000000 0.000000 0.000000
# 2 -0.005828 0.016810 -0.000673 0.000000 0.000000 0.000000
# 3 -0.012350 -0.000673 0.022078 0.000000 0.000000 0.000000
# 4 0.000000 0.000000 0.000000 0.068301 0.000000 0.000000
# 5 0.000000 0.000000 0.000000 0.000000 0.112999 0.000000
# 6 0.000000 0.000000 0.000000 0.000000 0.000000 0.586844
#
#
# Mechanical properties :
#
#
# Convention : Reuss Voigt Hill
#
# Bulk Modulus (GPa) = 39.07081 39.56400 39.31740
# Shear Modulus (GPa) = 5.69687 13.27591 9.48639
#
# Velocity S-wave (km/s) = 2.06422 3.15116 2.66372
# Velocity P-wave (km/s) = 5.90801 6.54460 6.23444
#
# Compressibility (1/GPa) = 0.02559456
#
# Stress axis : x y z
#
# Youngs Moduli (GPa) = 40.96945 59.48792 45.29443
#
# Poissons Ratio (x) = 0.34669 0.55939
# Poissons Ratio (y) = 0.23877 0.03048
# Poissons Ratio (z) = 0.50597 0.04003
#
# Static dielectric constant tensor:
#      x y z
#    x 2.487310 0.000000 0.000000 
#    y 0.000000 2.911360 0.000000 
#    z 0.000000 0.000000 2.817730 
# 
# 
# High freq. dielectric constant tensor:
#      x y z
#    x 1.467980 0.000000 0.000000 
#    y 0.000000 1.478040 0.000000 
#    z 0.000000 0.000000 1.522670 
# 
# From -- ./inp_files/11687.got.cif
#   From: 2010.03.12/outbox.cif.g09.slc.cpg/sg47_6_cif.got.tgz:11687.got - 2010.04.14 03:12:58.
