data_PCOD8194403
_publ_section_title
;
Structure prediction by ZEFSAII (Michael W. Deem and Ramdas Pophale) SiO2 
 PCOD8194403
Probable space group: P M M M
;
_chemical_formula_sum "Si O2"
_cell_formula_units_Z 52
_cell_length_a 11.995489
_cell_length_b 7.980365
_cell_length_c 29.725779
_cell_angle_alpha 90.000000
_cell_angle_beta 90.000000
_cell_angle_gamma 90.000000
_cell_volume 2845.600685
_symmetry_space_group_name_H-M "P M M M"
_symmetry_group_IT_number 47
_symmetry_cell_setting 'orthorhombic'
loop_
_space_group_symop_operation_xyz
x,y,z
-x,-y,z
x,-y,-z
-x,y,-z
-x,-y,-z
x,y,-z
-x,y,z
x,-y,z
loop_
_atom_site_type_symbol
_atom_site_label
_atom_site_fract_x
_atom_site_fract_y
_atom_site_fract_z
Si Si1 0.258982 0.196290 0.133148
Si Si2 0.279711 0.694265 0.706960
Si Si3 0.369690 0.308524 0.388567
Si Si4 0.500000 0.300193 0.249316
Si Si5 0.500000 0.302881 0.851456
Si Si6 0.125553 0.199340 0.950735
Si Si7 0.631407 0.000000 0.450114
Si Si8 0.124407 0.195155 0.218571
O O1 0.388678 0.235067 0.125574
O O2 0.198963 0.276659 0.089564
O O3 0.205469 0.272679 0.179480
O O4 0.239506 0.000000 0.134057
O O5 0.274999 0.500000 0.718501
O O6 0.287078 0.724338 0.653457
O O7 0.390795 0.776824 0.727618
O O8 0.172878 0.775392 0.731171
O O9 0.500000 0.284611 0.374615
O O10 0.353120 0.500000 0.406531
O O11 0.331670 0.171630 0.425310
O O12 0.500000 0.500000 0.254306
O O13 0.500000 0.234588 0.198936
O O14 0.500000 0.500000 0.853257
O O15 0.000000 0.263092 0.943459
O O16 0.129272 0.000000 0.949043
O O17 0.169076 0.260013 0.000000
O O18 0.500000 0.000000 0.454219
O O19 0.685295 0.000000 0.500000
O O20 0.000000 0.275266 0.215643
O O21 0.113665 0.000000 0.210158
#
# Coordination Sequence:
#
# PCOD8194403 Si02
#       8
#     8   8   8   4   4   8   4   8
#     4  10  19  32  50  72  97 123 157 201 243 291
#     4  10  18  31  49  69  94 127 168 206 240 287
#     4   9  17  29  46  69  98 132 170 213 257 300
#     4   9  16  29  47  66  90 122 162 204 237 272
#     4  11  21  33  48  68  95 128 163 198 238 285
#     4   8  14  27  50  76  96 118 154 201 250 295
#     4   9  18  30  44  68 101 137 177 213 251 305
#     4  10  21  33  45  67  99 130 156 192 246 298
#
# _framework density 18.273823
#
# number of rings (size 3 to 8) (size 9 to 14) (size 15 to 20)
#    0.000    2.538    2.308    1.154    1.077    2.462 
#    0.000    2.308    0.000    4.154    0.000    1.077 
#    0.000    1.231    0.000    3.385    0.000    0.154 
#
# Total GULP energy -644381.902838 kJ/mol
# GULP energy per Si atom -12391.959670 kJ/mol
# Density = 1.823223 g / cm^3
# Si number density = 18.273823 Si / 1000 Ang^3
#
#
#
# Elastic Constant Matrix: (Units=GPa)
#
#
# Indices 1 2 3 4 5 6 
#
# 1 111.3867 17.6904 58.5371 0.0000 0.0000 0.0000
# 2 17.6904 48.7969 41.7519 0.0000 0.0000 0.0000
# 3 58.5371 41.7519 134.9488 0.0000 0.0000 0.0000
# 4 0.0000 0.0000 0.0000 12.7259 0.0000 0.0000
# 5 0.0000 0.0000 0.0000 0.0000 18.9017 0.0000
# 6 0.0000 0.0000 0.0000 0.0000 0.0000 10.2536
#
#
#
# Elastic Compliance Matrix: (Units=1/GPa)
#
#
# Indices 1 2 3 4 5 6 
#
# 1 0.011629 0.000136 -0.005087 0.000000 0.000000 0.000000
# 2 0.000136 0.027873 -0.008683 0.000000 0.000000 0.000000
# 3 -0.005087 -0.008683 0.012303 0.000000 0.000000 0.000000
# 4 0.000000 0.000000 0.000000 0.078580 0.000000 0.000000
# 5 0.000000 0.000000 0.000000 0.000000 0.052905 0.000000
# 6 0.000000 0.000000 0.000000 0.000000 0.000000 0.097527
#
#
# Mechanical properties :
#
#
# Convention : Reuss Voigt Hill
#
# Bulk Modulus (GPa) = 40.75147 59.01014 49.88080
# Shear Modulus (GPa) = 15.80961 20.18642 17.99802
#
# Velocity S-wave (km/s) = 2.94454 3.32725 3.14173
# Velocity P-wave (km/s) = 5.82317 6.86463 6.36523
#
# Compressibility (1/GPa) = 0.02453899
#
# Stress axis : x y z
#
# Youngs Moduli (GPa) = 85.99005 35.87719 81.28097
#
# Poissons Ratio (x) = -0.00489 0.41344
# Poissons Ratio (y) = -0.01172 0.70574
# Poissons Ratio (z) = 0.43740 0.31151
#
# Static dielectric constant tensor:
#      x y z
#    x 3.249460 0.000000 0.000000 
#    y 0.000000 3.095460 0.000000 
#    z 0.000000 0.000000 3.545710 
# 
# 
# High freq. dielectric constant tensor:
#      x y z
#    x 1.680330 0.000000 0.000000 
#    y 0.000000 1.688690 0.000000 
#    z 0.000000 0.000000 1.699760 
# 
# From -- ./inp_files/33660.got.cif
#   From: 2010.03.12/outbox.cif.g09.slc.cpg/sg47_17_cif.got.tgz:33660.got - 2010.04.14 03:12:58.
