data_PCOD8194156
_publ_section_title
;
Structure prediction by ZEFSAII (Michael W. Deem and Ramdas Pophale) SiO2 
 PCOD8194156
Probable space group: P M M M
;
_chemical_formula_sum "Si O2"
_cell_formula_units_Z 40
_cell_length_a 12.847823
_cell_length_b 8.779091
_cell_length_c 19.844766
_cell_angle_alpha 90.000000
_cell_angle_beta 90.000000
_cell_angle_gamma 90.000000
_cell_volume 2238.334960
_symmetry_space_group_name_H-M "P M M M"
_symmetry_group_IT_number 47
_symmetry_cell_setting 'orthorhombic'
loop_
_space_group_symop_operation_xyz
x,y,z
-x,-y,z
x,-y,-z
-x,y,-z
-x,-y,-z
x,y,-z
-x,y,z
x,-y,z
loop_
_atom_site_type_symbol
_atom_site_label
_atom_site_fract_x
_atom_site_fract_y
_atom_site_fract_z
Si Si1 0.384050 0.819035 0.924794
Si Si2 0.213907 0.818983 0.820206
Si Si3 0.000000 0.668612 0.824560
Si Si4 0.380020 0.174927 0.422481
Si Si5 0.221589 0.319265 0.323996
Si Si6 0.000000 0.665763 0.665005
O O1 0.500000 0.762186 0.904660
O O2 0.300658 0.755130 0.871686
O O3 0.381546 0.000000 0.923883
O O4 0.356007 0.760503 0.000000
O O5 0.246534 0.757978 0.746989
O O6 0.102914 0.759369 0.846989
O O7 0.210432 0.000000 0.817427
O O8 0.000000 0.651693 0.745029
O O9 0.000000 0.500000 0.857578
O O10 0.356511 0.213362 0.500000
O O11 0.500000 0.207351 0.405746
O O12 0.311690 0.284460 0.376609
O O13 0.352406 0.000000 0.406871
O O14 0.211657 0.500000 0.312846
O O15 0.110188 0.253571 0.353714
O O16 0.000000 0.500000 0.630310
#
# Coordination Sequence:
#
# PCOD8194156 Si02
#       6
#     8   8   4   8   8   4
#     4   8  15  29  48  70  97 128 162 203 250 295
#     4  10  18  29  50  77 100 126 164 206 245 290
#     4   9  17  31  48  67  98 134 163 198 246 294
#     4   9  19  36  54  71  96 130 166 207 252 291
#     4  10  19  32  51  74 101 131 162 199 244 297
#     4   7  14  29  46  65  92 126 157 187 230 279
#
# _framework density 17.870425999999998
#
# number of rings (size 3 to 8) (size 9 to 14) (size 15 to 20)
#    0.000    3.000    0.000    3.900    0.000    1.600 
#    0.000    5.500    0.000   10.200    0.000    5.600 
#    0.000    0.000    0.000    0.000    0.000    0.000 
#
# Total GULP energy -495671.371853 kJ/mol
# GULP energy per Si atom -12391.784296 kJ/mol
# Density = 1.782975 g / cm^3
# Si number density = 17.870426 Si / 1000 Ang^3
#
#
#
# Elastic Constant Matrix: (Units=GPa)
#
#
# Indices 1 2 3 4 5 6 
#
# 1 149.4941 40.0383 78.3278 0.0000 0.0000 0.0000
# 2 40.0383 60.6818 29.6431 0.0000 0.0000 0.0000
# 3 78.3278 29.6431 81.6280 0.0000 0.0000 0.0000
# 4 0.0000 0.0000 0.0000 6.4908 0.0000 0.0000
# 5 0.0000 0.0000 0.0000 0.0000 6.4064 0.0000
# 6 0.0000 0.0000 0.0000 0.0000 0.0000 23.0488
#
#
#
# Elastic Compliance Matrix: (Units=1/GPa)
#
#
# Indices 1 2 3 4 5 6 
#
# 1 0.013959 -0.003242 -0.012217 0.000000 0.000000 0.000000
# 2 -0.003242 0.020786 -0.004438 0.000000 0.000000 0.000000
# 3 -0.012217 -0.004438 0.025585 0.000000 0.000000 0.000000
# 4 0.000000 0.000000 0.000000 0.154064 0.000000 0.000000
# 5 0.000000 0.000000 0.000000 0.000000 0.156094 0.000000
# 6 0.000000 0.000000 0.000000 0.000000 0.000000 0.043386
#
#
# Mechanical properties :
#
#
# Convention : Reuss Voigt Hill
#
# Bulk Modulus (GPa) = 48.69248 65.31359 57.00304
# Shear Modulus (GPa) = 10.85747 16.77551 13.81649
#
# Velocity S-wave (km/s) = 2.46756 3.06719 2.78357
# Velocity P-wave (km/s) = 5.95190 7.01223 6.50371
#
# Compressibility (1/GPa) = 0.02053705
#
# Stress axis : x y z
#
# Youngs Moduli (GPa) = 71.64035 48.10869 39.08504
#
# Poissons Ratio (x) = 0.15597 0.47750
# Poissons Ratio (y) = 0.23226 0.17344
# Poissons Ratio (z) = 0.87523 0.21349
#
# Static dielectric constant tensor:
#      x y z
#    x 3.774110 0.000000 0.000000 
#    y 0.000000 3.085050 0.000000 
#    z 0.000000 0.000000 3.131820 
# 
# 
# High freq. dielectric constant tensor:
#      x y z
#    x 1.709100 0.000000 0.000000 
#    y 0.000000 1.669840 0.000000 
#    z 0.000000 0.000000 1.666130 
# 
# From -- ./inp_files/30337.got.cif
#   From: 2010.03.12/outbox.cif.g09.slc.cpg/sg47_16_cif.got.tgz:30337.got - 2010.04.14 03:12:58.
