data_PCOD8194555
_publ_section_title
;
Structure prediction by ZEFSAII (Michael W. Deem and Ramdas Pophale) SiO2 
 PCOD8194555
Probable space group: P M M M
;
_chemical_formula_sum "Si O2"
_cell_formula_units_Z 52
_cell_length_a 17.093444
_cell_length_b 9.301406
_cell_length_c 17.431194
_cell_angle_alpha 90.000000
_cell_angle_beta 90.000000
_cell_angle_gamma 90.000000
_cell_volume 2771.438919
_symmetry_space_group_name_H-M "P M M M"
_symmetry_group_IT_number 47
_symmetry_cell_setting 'orthorhombic'
loop_
_space_group_symop_operation_xyz
x,y,z
-x,-y,z
x,-y,-z
-x,y,-z
-x,-y,-z
x,y,-z
-x,y,z
x,-y,z
loop_
_atom_site_type_symbol
_atom_site_label
_atom_site_fract_x
_atom_site_fract_y
_atom_site_fract_z
Si Si1 0.312516 0.331204 0.353586
Si Si2 0.914349 0.166988 0.169689
Si Si3 0.500000 0.328992 0.087865
Si Si4 0.153693 0.170683 0.327640
Si Si5 0.351694 0.668115 0.182820
Si Si6 0.411752 0.329493 0.500000
Si Si7 0.232279 0.833089 0.084989
Si Si8 0.000000 0.829413 0.584631
O O1 0.294862 0.500000 0.360722
O O2 0.230835 0.248066 0.358895
O O3 0.357737 0.297550 0.273527
O O4 0.366963 0.276441 0.423390
O O5 0.864827 0.224933 0.241803
O O6 0.861077 0.193420 0.094715
O O7 0.000000 0.241573 0.160562
O O8 0.928980 0.000000 0.184535
O O9 0.500000 0.500000 0.086189
O O10 0.574236 0.271078 0.135568
O O11 0.500000 0.269164 0.000000
O O12 0.078977 0.224846 0.375469
O O13 0.167354 0.000000 0.333503
O O14 0.342860 0.500000 0.168381
O O15 0.275758 0.743772 0.149439
O O16 0.416122 0.500000 0.500000
O O17 0.500000 0.265747 0.500000
O O18 0.252408 0.000000 0.097136
O O19 0.256304 0.781544 0.000000
O O20 0.000000 0.764425 0.500000
O O21 0.000000 0.000000 0.585199
#
# Coordination Sequence:
#
# PCOD8194555 Si02
#       8
#     8   8   4   8   8   4   8   4
#     4  10  21  35  54  81 107 134 173 217 261 312
#     4   9  16  29  49  72 100 136 176 214 251 296
#     4   9  18  32  51  76 102 128 165 213 257 301
#     4  10  18  32  54  76 102 138 175 212 257 306
#     4  10  20  34  55  78 102 135 174 214 258 311
#     4   9  20  38  59  80 107 140 172 213 263 313
#     4  10  20  33  51  77 107 137 172 217 266 312
#     4   9  18  30  49  79 106 132 173 218 257 308
#
# _framework density 18.762816999999998
#
# number of rings (size 3 to 8) (size 9 to 14) (size 15 to 20)
#    0.000    2.385    2.308    0.462    2.154    1.231 
#    0.000    2.308    0.000    4.154    0.000    1.077 
#    0.000    0.000    0.000    0.000    0.000    0.000 
#
# Total GULP energy -644536.130209 kJ/mol
# GULP energy per Si atom -12394.925581 kJ/mol
# Density = 1.872011 g / cm^3
# Si number density = 18.762817 Si / 1000 Ang^3
#
#
#
# Elastic Constant Matrix: (Units=GPa)
#
#
# Indices 1 2 3 4 5 6 
#
# 1 149.3179 31.0940 70.0737 0.0000 0.0000 0.0000
# 2 31.0940 24.5718 29.7553 0.0000 0.0000 0.0000
# 3 70.0737 29.7553 144.7035 0.0000 0.0000 0.0000
# 4 0.0000 0.0000 0.0000 18.6330 0.0000 0.0000
# 5 0.0000 0.0000 0.0000 0.0000 29.2743 0.0000
# 6 0.0000 0.0000 0.0000 0.0000 0.0000 22.9405
#
#
#
# Elastic Compliance Matrix: (Units=1/GPa)
#
#
# Indices 1 2 3 4 5 6 
#
# 1 0.009970 -0.009015 -0.002974 0.000000 0.000000 0.000000
# 2 -0.009015 0.062342 -0.008454 0.000000 0.000000 0.000000
# 3 -0.002974 -0.008454 0.010089 0.000000 0.000000 0.000000
# 4 0.000000 0.000000 0.000000 0.053668 0.000000 0.000000
# 5 0.000000 0.000000 0.000000 0.000000 0.034160 0.000000
# 6 0.000000 0.000000 0.000000 0.000000 0.000000 0.043591
#
#
# Mechanical properties :
#
#
# Convention : Reuss Voigt Hill
#
# Bulk Modulus (GPa) = 24.08748 64.49326 44.29037
# Shear Modulus (GPa) = 18.61884 26.68089 22.64987
#
# Velocity S-wave (km/s) = 3.15354 3.77504 3.47820
# Velocity P-wave (km/s) = 5.11131 7.31087 6.30771
#
# Compressibility (1/GPa) = 0.04151535
#
# Stress axis : x y z
#
# Youngs Moduli (GPa) = 100.29833 16.04061 99.11352
#
# Poissons Ratio (x) = 0.14460 0.29481
# Poissons Ratio (y) = 0.90417 0.83789
# Poissons Ratio (z) = 0.29833 0.13560
#
# Static dielectric constant tensor:
#      x y z
#    x 3.580580 0.000000 0.000000 
#    y 0.000000 2.941920 0.000000 
#    z 0.000000 0.000000 3.668150 
# 
# 
# High freq. dielectric constant tensor:
#      x y z
#    x 1.740120 0.000000 0.000000 
#    y 0.000000 1.673500 0.000000 
#    z 0.000000 0.000000 1.741040 
# 
# From -- ./inp_files/28586.got.cif
#   From: 2010.03.12/outbox.cif.g09.slc.cpg/sg47_15_cif.got.tgz:28586.got - 2010.04.14 03:12:58.
