data_PCOD8194599
_publ_section_title
;
Structure prediction by ZEFSAII (Michael W. Deem and Ramdas Pophale) SiO2 
 PCOD8194599
Probable space group: P M M M
;
_chemical_formula_sum "Si O2"
_cell_formula_units_Z 48
_cell_length_a 13.527700
_cell_length_b 15.906459
_cell_length_c 11.991273
_cell_angle_alpha 90.000000
_cell_angle_beta 90.000000
_cell_angle_gamma 90.000000
_cell_volume 2580.255808
_symmetry_space_group_name_H-M "P M M M"
_symmetry_group_IT_number 47
_symmetry_cell_setting 'orthorhombic'
loop_
_space_group_symop_operation_xyz
x,y,z
-x,-y,z
x,-y,-z
-x,y,-z
-x,-y,-z
x,y,-z
-x,y,z
x,-y,z
loop_
_atom_site_type_symbol
_atom_site_label
_atom_site_fract_x
_atom_site_fract_y
_atom_site_fract_z
Si Si1 0.785262 0.903041 0.131552
Si Si2 0.692566 0.408579 0.000000
Si Si3 0.382567 0.906008 0.500000
Si Si4 0.309729 0.661817 0.242956
Si Si5 0.897847 0.360788 0.000000
Si Si6 0.615099 0.500000 0.368006
Si Si7 0.611985 0.836126 0.730694
Si Si8 0.890176 0.253457 0.782776
O O1 0.674983 0.878041 0.170451
O O2 0.862597 0.844639 0.199002
O O3 0.808357 0.000000 0.160138
O O4 0.792572 0.886487 0.000000
O O5 0.669673 0.357430 0.112065
O O6 0.809994 0.427293 0.000000
O O7 0.639039 0.500000 0.000000
O O8 0.500000 0.901419 0.500000
O O9 0.341869 0.862093 0.388707
O O10 0.341946 0.000000 0.500000
O O11 0.331396 0.581234 0.317869
O O12 0.387435 0.735125 0.267485
O O13 0.199664 0.695885 0.277633
O O14 0.895089 0.296860 0.100043
O O15 0.000000 0.413557 0.000000
O O16 0.500000 0.500000 0.334752
O O17 0.629542 0.500000 0.500000
O O18 0.500000 0.868552 0.744968
O O19 0.000000 0.259154 0.723924
#
# Coordination Sequence:
#
# PCOD8194599 Si02
#       8
#     8   4   4   8   4   4   8   8
#     4  10  20  32  48  76 114 149 183 226 280 345
#     4  10  18  33  52  73 110 145 179 230 274 328
#     4   9  18  34  56  79 100 128 179 241 286 326
#     4  10  21  37  57  82 114 147 188 230 281 335
#     4   8  14  25  45  72  99 132 172 217 271 317
#     4  11  24  41  62  86 115 147 187 235 281 328
#     4  10  21  35  54  76 105 144 190 236 285 340
#     4   9  17  32  54  77 106 144 184 226 273 327
#
# _framework density 18.602806000000001
#
# number of rings (size 3 to 8) (size 9 to 14) (size 15 to 20)
#    0.000    2.333    1.667    1.000    4.667    1.833 
#    0.000    3.750    0.000    1.000    0.000    0.000 
#    0.000    6.333    0.000    0.000    0.000    0.000 
#
# Total GULP energy -594651.244631 kJ/mol
# GULP energy per Si atom -12388.567596 kJ/mol
# Density = 1.856047 g / cm^3
# Si number density = 18.602806 Si / 1000 Ang^3
#
#
#
# Elastic Constant Matrix: (Units=GPa)
#
#
# Indices 1 2 3 4 5 6 
#
# 1 93.1986 32.5438 24.7069 0.0000 0.0000 0.0000
# 2 32.5438 136.9690 45.7579 0.0000 0.0000 0.0000
# 3 24.7069 45.7579 65.8282 0.0000 0.0000 0.0000
# 4 0.0000 0.0000 0.0000 27.3158 0.0000 0.0000
# 5 0.0000 0.0000 0.0000 0.0000 13.0194 0.0000
# 6 0.0000 0.0000 0.0000 0.0000 0.0000 15.0352
#
#
#
# Elastic Compliance Matrix: (Units=1/GPa)
#
#
# Indices 1 2 3 4 5 6 
#
# 1 0.012243 -0.001789 -0.003351 0.000000 0.000000 0.000000
# 2 -0.001789 0.009771 -0.006120 0.000000 0.000000 0.000000
# 3 -0.003351 -0.006120 0.020703 0.000000 0.000000 0.000000
# 4 0.000000 0.000000 0.000000 0.036609 0.000000 0.000000
# 5 0.000000 0.000000 0.000000 0.000000 0.076808 0.000000
# 6 0.000000 0.000000 0.000000 0.000000 0.000000 0.066510
#
#
# Mechanical properties :
#
#
# Convention : Reuss Voigt Hill
#
# Bulk Modulus (GPa) = 49.51674 55.77923 52.64798
# Shear Modulus (GPa) = 19.84936 23.93993 21.89464
#
# Velocity S-wave (km/s) = 3.27005 3.59123 3.43440
# Velocity P-wave (km/s) = 6.39792 6.87352 6.63998
#
# Compressibility (1/GPa) = 0.02019519
#
# Stress axis : x y z
#
# Youngs Moduli (GPa) = 81.67921 102.34749 48.30214
#
# Poissons Ratio (x) = 0.18314 0.16188
# Poissons Ratio (y) = 0.14615 0.29561
# Poissons Ratio (z) = 0.27373 0.62638
#
# Static dielectric constant tensor:
#      x y z
#    x 3.769200 0.000000 0.000000 
#    y 0.000000 3.466770 0.000000 
#    z 0.000000 0.000000 3.285730 
# 
# 
# High freq. dielectric constant tensor:
#      x y z
#    x 1.712760 0.000000 0.000000 
#    y 0.000000 1.734450 0.000000 
#    z 0.000000 0.000000 1.696420 
# 
# From -- ./inp_files/17621.got.cif
#   From: 2010.03.12/outbox.cif.g09.slc.cpg/sg47_9_cif.got.tgz:17621.got - 2010.04.14 03:12:58.
