data_PCOD8194524
_publ_section_title
;
Structure prediction by ZEFSAII (Michael W. Deem and Ramdas Pophale) SiO2 
 PCOD8194524
Probable space group: P M M M
;
_chemical_formula_sum "Si O2"
_cell_formula_units_Z 56
_cell_length_a 8.983078
_cell_length_b 13.869906
_cell_length_c 23.661072
_cell_angle_alpha 90.000000
_cell_angle_beta 90.000000
_cell_angle_gamma 90.000000
_cell_volume 2948.038192
_symmetry_space_group_name_H-M "P M M M"
_symmetry_group_IT_number 47
_symmetry_cell_setting 'orthorhombic'
loop_
_space_group_symop_operation_xyz
x,y,z
-x,-y,z
x,-y,-z
-x,y,-z
-x,-y,-z
x,y,-z
-x,y,z
x,-y,z
loop_
_atom_site_type_symbol
_atom_site_label
_atom_site_fract_x
_atom_site_fract_y
_atom_site_fract_z
Si Si1 0.330241 0.796008 0.104043
Si Si2 0.323814 0.895580 0.437429
Si Si3 0.327395 0.109954 0.776773
Si Si4 0.672242 0.609653 0.169280
Si Si5 0.324132 0.295529 0.385195
Si Si6 0.676429 0.608073 0.500000
Si Si7 0.824085 0.291730 0.728421
Si Si8 0.824586 0.890918 0.000000
O O1 0.500000 0.804388 0.083369
O O2 0.301706 0.863504 0.157970
O O3 0.290598 0.684338 0.118689
O O4 0.224862 0.832371 0.054817
O O5 0.260020 0.870886 0.500000
O O6 0.500000 0.896724 0.442630
O O7 0.278211 0.816748 0.391358
O O8 0.264209 0.000000 0.417136
O O9 0.500000 0.121902 0.760468
O O10 0.235069 0.183042 0.737870
O O11 0.273953 0.000000 0.766679
O O12 0.500000 0.622980 0.186884
O O13 0.705652 0.500000 0.149449
O O14 0.771142 0.634992 0.223328
O O15 0.500000 0.312664 0.377127
O O16 0.263144 0.345110 0.442275
O O17 0.238505 0.334530 0.330415
O O18 0.733576 0.500000 0.500000
O O19 0.500000 0.618362 0.500000
O O20 0.000000 0.289915 0.727079
O O21 0.000000 0.895910 0.000000
O O22 0.758268 0.000000 0.000000
#
# Coordination Sequence:
#
# PCOD8194524 Si02
#       8
#     8   8   8   8   8   4   8   4
#     4   9  18  34  57  84 110 140 182 231 277 317
#     4   8  13  23  43  70  93 116 154 205 255 298
#     4   9  18  35  58  81 106 141 187 233 272 312
#     4   9  19  39  64  84 103 134 181 236 285 326
#     4  10  18  32  52  73  98 130 169 216 262 311
#     4   9  18  32  52  76  96 119 159 212 264 309
#     4  11  23  35  50  78 113 145 175 213 267 332
#     4  11  23  35  50  79 120 162 195 219 252 309
#
# _framework density 18.995681999999999
#
# number of rings (size 3 to 8) (size 9 to 14) (size 15 to 20)
#    0.000    2.571    0.714    3.214    0.000    5.143 
#    0.000    3.571    0.000    2.571    0.000    1.000 
#    0.000    0.000    0.000    0.000    0.000    0.000 
#
# Total GULP energy -694168.860567 kJ/mol
# GULP energy per Si atom -12395.872510 kJ/mol
# Density = 1.895245 g / cm^3
# Si number density = 18.995682 Si / 1000 Ang^3
#
#
#
# Elastic Constant Matrix: (Units=GPa)
#
#
# Indices 1 2 3 4 5 6 
#
# 1 71.9397 37.5264 47.8585 0.0000 0.0000 0.0000
# 2 37.5264 125.1562 49.5299 0.0000 0.0000 0.0000
# 3 47.8585 49.5299 110.4990 0.0000 0.0000 0.0000
# 4 0.0000 0.0000 0.0000 15.9753 0.0000 0.0000
# 5 0.0000 0.0000 0.0000 0.0000 3.7453 0.0000
# 6 0.0000 0.0000 0.0000 0.0000 0.0000 16.1565
#
#
#
# Elastic Compliance Matrix: (Units=1/GPa)
#
#
# Indices 1 2 3 4 5 6 
#
# 1 0.020533 -0.003206 -0.007456 0.000000 0.000000 0.000000
# 2 -0.003206 0.010214 -0.003190 0.000000 0.000000 0.000000
# 3 -0.007456 -0.003190 0.013709 0.000000 0.000000 0.000000
# 4 0.000000 0.000000 0.000000 0.062597 0.000000 0.000000
# 5 0.000000 0.000000 0.000000 0.000000 0.267000 0.000000
# 6 0.000000 0.000000 0.000000 0.000000 0.000000 0.061895
#
#
# Mechanical properties :
#
#
# Convention : Reuss Voigt Hill
#
# Bulk Modulus (GPa) = 59.69323 64.15829 61.92576
# Shear Modulus (GPa) = 10.65565 18.68742 14.67154
#
# Velocity S-wave (km/s) = 2.37101 3.13992 2.78215
# Velocity P-wave (km/s) = 6.24407 6.85521 6.55677
#
# Compressibility (1/GPa) = 0.01675232
#
# Stress axis : x y z
#
# Youngs Moduli (GPa) = 48.70190 97.90949 72.94532
#
# Poissons Ratio (x) = 0.31388 0.54389
# Poissons Ratio (y) = 0.15613 0.23267
# Poissons Ratio (z) = 0.36313 0.31229
#
# Static dielectric constant tensor:
#      x y z
#    x 3.072480 0.000000 0.000000 
#    y 0.000000 3.799900 0.000000 
#    z 0.000000 0.000000 3.391900 
# 
# 
# High freq. dielectric constant tensor:
#      x y z
#    x 1.697370 0.000000 0.000000 
#    y 0.000000 1.745590 0.000000 
#    z 0.000000 0.000000 1.732680 
# 
# From -- ./inp_files/29797.got.cif
#   From: 2010.03.12/outbox.cif.g09.slc.cpg/sg47_15_cif.got.tgz:29797.got - 2010.04.14 03:12:58.
