data_PCOD8194227
_publ_section_title
;
Structure prediction by ZEFSAII (Michael W. Deem and Ramdas Pophale) SiO2 
 PCOD8194227
Probable space group: P M M M
;
_chemical_formula_sum "Si O2"
_cell_formula_units_Z 44
_cell_length_a 7.897555
_cell_length_b 13.741570
_cell_length_c 22.999015
_cell_angle_alpha 90.000000
_cell_angle_beta 90.000000
_cell_angle_gamma 90.000000
_cell_volume 2495.963615
_symmetry_space_group_name_H-M "P M M M"
_symmetry_group_IT_number 47
_symmetry_cell_setting 'orthorhombic'
loop_
_space_group_symop_operation_xyz
x,y,z
-x,-y,z
x,-y,-z
-x,y,-z
-x,-y,-z
x,y,-z
-x,y,z
x,-y,z
loop_
_atom_site_type_symbol
_atom_site_label
_atom_site_fract_x
_atom_site_fract_y
_atom_site_fract_z
Si Si1 0.695836 0.791197 0.436734
Si Si2 0.195195 0.708982 0.256509
Si Si3 0.000000 0.615264 0.935242
Si Si4 0.310143 0.387662 0.856793
Si Si5 0.799392 0.609128 0.374073
Si Si6 0.701311 0.890038 0.321560
O O1 0.779046 0.815285 0.500000
O O2 0.500000 0.816315 0.440713
O O3 0.720420 0.676827 0.423783
O O4 0.775914 0.855231 0.384386
O O5 0.302334 0.677626 0.200830
O O6 0.261715 0.646198 0.311017
O O7 0.222626 0.823182 0.270446
O O8 0.000000 0.687256 0.243066
O O9 0.170722 0.650728 0.902701
O O10 0.000000 0.500000 0.939506
O O11 0.000000 0.660794 0.000000
O O12 0.500000 0.376826 0.883166
O O13 0.272278 0.500000 0.840499
O O14 0.732529 0.500000 0.383832
O O15 0.000000 0.615069 0.378056
O O16 0.500000 0.880365 0.321287
O O17 0.761149 0.000000 0.310077
#
# Coordination Sequence:
#
# PCOD8194227 Si02
#       6
#     8   8   4   8   8   8
#     4   9  18  31  45  62  84 112 149 191 237 292
#     4  10  18  30  48  68  94 123 156 200 246 296
#     4   9  18  32  48  70 105 145 180 211 239 271
#     4  10  19  30  48  74 103 138 176 209 243 284
#     4   9  18  30  44  62  85 116 150 188 236 286
#     4   9  18  32  48  66  89 116 149 195 249 302
#
# _framework density 17.628461999999999
#
# number of rings (size 3 to 8) (size 9 to 14) (size 15 to 20)
#    0.000    2.636    0.909    1.091    0.000    3.636 
#    0.000    5.455    0.000    0.000    0.000    5.091 
#    0.000    1.455    0.000    3.818    0.000    0.182 
#
# Total GULP energy -545466.515604 kJ/mol
# GULP energy per Si atom -12396.966264 kJ/mol
# Density = 1.758834 g / cm^3
# Si number density = 17.628462 Si / 1000 Ang^3
#
#
#
# Elastic Constant Matrix: (Units=GPa)
#
#
# Indices 1 2 3 4 5 6 
#
# 1 62.6643 12.7250 34.4543 0.0000 0.0000 0.0000
# 2 12.7250 82.9194 28.1078 0.0000 0.0000 0.0000
# 3 34.4543 28.1078 108.4066 0.0000 0.0000 0.0000
# 4 0.0000 0.0000 0.0000 13.6794 0.0000 0.0000
# 5 0.0000 0.0000 0.0000 0.0000 19.5818 0.0000
# 6 0.0000 0.0000 0.0000 0.0000 0.0000 19.4450
#
#
#
# Elastic Compliance Matrix: (Units=1/GPa)
#
#
# Indices 1 2 3 4 5 6 
#
# 1 0.019409 -0.000973 -0.005916 0.000000 0.000000 0.000000
# 2 -0.000973 0.013271 -0.003132 0.000000 0.000000 0.000000
# 3 -0.005916 -0.003132 0.011917 0.000000 0.000000 0.000000
# 4 0.000000 0.000000 0.000000 0.073103 0.000000 0.000000
# 5 0.000000 0.000000 0.000000 0.000000 0.051068 0.000000
# 6 0.000000 0.000000 0.000000 0.000000 0.000000 0.051427
#
#
# Mechanical properties :
#
#
# Convention : Reuss Voigt Hill
#
# Bulk Modulus (GPa) = 40.72589 44.95162 42.83875
# Shear Modulus (GPa) = 20.12720 22.45479 21.29099
#
# Velocity S-wave (km/s) = 3.38264 3.57288 3.47906
# Velocity P-wave (km/s) = 6.19748 6.52498 6.36334
#
# Compressibility (1/GPa) = 0.02455441
#
# Stress axis : x y z
#
# Youngs Moduli (GPa) = 51.52373 75.35353 83.91492
#
# Poissons Ratio (x) = 0.07332 0.49646
# Poissons Ratio (y) = 0.05013 0.26279
# Poissons Ratio (z) = 0.30483 0.23598
#
# Static dielectric constant tensor:
#      x y z
#    x 3.206920 0.000000 0.000000 
#    y 0.000000 3.168940 0.000000 
#    z 0.000000 0.000000 3.260800 
# 
# 
# High freq. dielectric constant tensor:
#      x y z
#    x 1.681580 0.000000 0.000000 
#    y 0.000000 1.654730 0.000000 
#    z 0.000000 0.000000 1.659080 
# 
# From -- ./inp_files/15279.got.cif
#   From: 2010.03.12/outbox.cif.g09.slc.cpg/sg47_8_cif.got.tgz:15279.got - 2010.04.14 03:12:58.
