data_PCOD8194587
_publ_section_title
;
Structure prediction by ZEFSAII (Michael W. Deem and Ramdas Pophale) SiO2 
 PCOD8194587
Probable space group: P M M M
;
_chemical_formula_sum "Si O2"
_cell_formula_units_Z 48
_cell_length_a 13.438965
_cell_length_b 10.569804
_cell_length_c 18.353463
_cell_angle_alpha 90.000000
_cell_angle_beta 90.000000
_cell_angle_gamma 90.000000
_cell_volume 2607.058507
_symmetry_space_group_name_H-M "P M M M"
_symmetry_group_IT_number 47
_symmetry_cell_setting 'orthorhombic'
loop_
_space_group_symop_operation_xyz
x,y,z
-x,-y,z
x,-y,-z
-x,y,-z
-x,-y,-z
x,y,-z
-x,y,z
x,-y,z
loop_
_atom_site_type_symbol
_atom_site_label
_atom_site_fract_x
_atom_site_fract_y
_atom_site_fract_z
Si Si1 0.116080 0.235878 0.416920
Si Si2 0.703026 0.354406 0.082336
Si Si3 0.803693 0.860516 0.275635
Si Si4 0.612903 0.500000 0.694455
Si Si5 0.387887 0.246724 0.218090
Si Si6 0.887660 0.641864 0.178378
Si Si7 0.211379 0.500000 0.417378
O O1 0.142818 0.198280 0.500000
O O2 0.181084 0.149240 0.362745
O O3 0.142163 0.380864 0.400440
O O4 0.000000 0.214232 0.401435
O O5 0.667980 0.500000 0.086441
O O6 0.632238 0.266744 0.132059
O O7 0.816762 0.339370 0.108981
O O8 0.695972 0.303510 0.000000
O O9 0.687078 0.852729 0.254652
O O10 0.865999 0.747912 0.238805
O O11 0.840649 0.000000 0.250621
O O12 0.500000 0.500000 0.664346
O O13 0.633903 0.380297 0.744621
O O14 0.687089 0.500000 0.627416
O O15 0.500000 0.197764 0.229856
O O16 0.871400 0.500000 0.211863
O O17 0.000000 0.658010 0.150416
O O18 0.248465 0.500000 0.500000
#
# Coordination Sequence:
#
# PCOD8194587 Si02
#       7
#     8   8   8   4   8   8   4
#     4  10  21  35  53  79 111 146 180 217 265 320
#     4   9  17  29  49  81 117 144 172 218 272 324
#     4  11  23  37  56  80 107 140 181 230 274 319
#     4  10  18  32  56  82 106 138 180 228 270 312
#     4  10  20  35  55  78 107 141 178 220 273 328
#     4   9  19  34  54  79 108 145 183 220 265 317
#     4  10  19  33  54  82 114 145 180 220 265 320
#
# _framework density 18.411555
#
# number of rings (size 3 to 8) (size 9 to 14) (size 15 to 20)
#    0.000    2.167    2.500    0.750    2.333    3.833 
#    0.000    3.333    0.000    8.500    0.000   10.500 
#    0.000    0.000    0.000    0.000    0.000    0.000 
#
# Total GULP energy -595105.969296 kJ/mol
# GULP energy per Si atom -12398.041027 kJ/mol
# Density = 1.836965 g / cm^3
# Si number density = 18.411555 Si / 1000 Ang^3
#
#
#
# Elastic Constant Matrix: (Units=GPa)
#
#
# Indices 1 2 3 4 5 6 
#
# 1 84.1354 24.0549 43.8908 0.0000 0.0000 0.0000
# 2 24.0549 82.4233 37.2032 0.0000 0.0000 0.0000
# 3 43.8908 37.2032 114.9440 0.0000 0.0000 0.0000
# 4 0.0000 0.0000 0.0000 -1.0618 0.0000 0.0000
# 5 0.0000 0.0000 0.0000 0.0000 22.0147 0.0000
# 6 0.0000 0.0000 0.0000 0.0000 0.0000 33.1148
#
#
#
# Elastic Compliance Matrix: (Units=1/GPa)
#
#
# Indices 1 2 3 4 5 6 
#
# 1 0.015152 -0.002120 -0.005099 0.000000 0.000000 0.000000
# 2 -0.002120 0.014505 -0.003885 0.000000 0.000000 0.000000
# 3 -0.005099 -0.003885 0.011905 0.000000 0.000000 0.000000
# 4 0.000000 0.000000 0.000000 -0.941784 0.000000 0.000000
# 5 0.000000 0.000000 0.000000 0.000000 0.045424 0.000000
# 6 0.000000 0.000000 0.000000 0.000000 0.000000 0.030198
#
#
# Mechanical properties :
#
#
# Convention : Reuss Voigt Hill
#
# Bulk Modulus (GPa) = 51.67486 54.64450 53.15968
# Shear Modulus (GPa) = -6.28188 22.57045 8.14429
#
# Velocity S-wave (km/s) = -1.84914 3.50506 2.10549
# Velocity P-wave (km/s) = 4.85473 6.79150 5.90309
#
# Compressibility (1/GPa) = 0.01935177
#
# Stress axis : x y z
#
# Youngs Moduli (GPa) = 65.99771 68.94226 84.00149
#
# Poissons Ratio (x) = 0.14618 0.42836
# Poissons Ratio (y) = 0.13994 0.32635
# Poissons Ratio (z) = 0.33655 0.26785
#
# Static dielectric constant tensor:
#      x y z
#    x 3.446360 0.000000 0.000000 
#    y 0.000000 3.192350 0.000000 
#    z 0.000000 0.000000 3.389510 
# 
# 
# High freq. dielectric constant tensor:
#      x y z
#    x 1.715170 0.000000 0.000000 
#    y 0.000000 1.692040 0.000000 
#    z 0.000000 0.000000 1.708470 
# 
# From -- ./inp_files/28051.got.cif
#   From: 2010.03.12/outbox.cif.g09.slc.cpg/sg47_15_cif.got.tgz:28051.got - 2010.04.14 03:12:58.
