data_PCOD8194795
_publ_section_title
;
Structure prediction by ZEFSAII (Michael W. Deem and Ramdas Pophale) SiO2 
 PCOD8194795
Probable space group: P M M M
;
_chemical_formula_sum "Si O2"
_cell_formula_units_Z 52
_cell_length_a 13.788825
_cell_length_b 8.882675
_cell_length_c 26.906992
_cell_angle_alpha 90.000000
_cell_angle_beta 90.000000
_cell_angle_gamma 90.000000
_cell_volume 3295.612806
_symmetry_space_group_name_H-M "P M M M"
_symmetry_group_IT_number 47
_symmetry_cell_setting 'orthorhombic'
loop_
_space_group_symop_operation_xyz
x,y,z
-x,-y,z
x,-y,-z
-x,y,-z
-x,-y,-z
x,y,-z
-x,y,z
x,-y,z
loop_
_atom_site_type_symbol
_atom_site_label
_atom_site_fract_x
_atom_site_fract_y
_atom_site_fract_z
Si Si1 0.115414 0.331627 0.893885
Si Si2 0.890963 0.174405 0.384338
Si Si3 0.887241 0.175294 0.794827
Si Si4 0.106301 0.321031 0.000000
Si Si5 0.785552 0.677520 0.704087
Si Si6 0.390194 0.178504 0.347549
Si Si7 0.289946 0.176657 0.445754
O O1 0.152830 0.500000 0.880989
O O2 0.147299 0.218428 0.850363
O O3 0.000000 0.334520 0.899345
O O4 0.159047 0.275405 0.947689
O O5 0.864381 0.271193 0.336274
O O6 0.820555 0.214869 0.430088
O O7 0.000000 0.212017 0.401207
O O8 0.878971 0.000000 0.369103
O O9 0.820797 0.268844 0.757610
O O10 0.000000 0.218241 0.786738
O O11 0.869587 0.000000 0.786001
O O12 0.095879 0.500000 0.000000
O O13 0.000000 0.245386 0.000000
O O14 0.776402 0.500000 0.703561
O O15 0.679762 0.746713 0.692888
O O16 0.500000 0.226749 0.335861
O O17 0.362471 0.237446 0.403097
O O18 0.375781 0.000000 0.344831
O O19 0.310835 0.251268 0.500000
O O20 0.304613 0.000000 0.450843
#
# Coordination Sequence:
#
# PCOD8194795 Si02
#       7
#     8   8   8   4   8   8   8
#     4   8  13  22  36  54  77 108 147 184 215 248
#     4   9  17  29  44  62  86 115 144 173 206 244
#     4  10  19  29  41  59  85 115 146 181 219 255
#     4   7  10  18  33  51  73 105 144 183 216 245
#     4  11  21  31  45  63  83 108 140 177 213 253
#     4   9  18  33  51  68  86 108 133 164 207 256
#     4   8  14  25  43  69  94 110 131 166 204 243
#
# _framework density 15.778553
#
# number of rings (size 3 to 8) (size 9 to 14) (size 15 to 20)
#    0.000    3.000    0.000    4.154    0.000    4.000 
#    0.000    3.462    0.000    9.692    0.000    8.615 
#    0.000    0.000    0.000    0.692    0.000   13.462 
#
# Total GULP energy -644350.451252 kJ/mol
# GULP energy per Si atom -12391.354832 kJ/mol
# Density = 1.574264 g / cm^3
# Si number density = 15.778553 Si / 1000 Ang^3
#
#
#
# Elastic Constant Matrix: (Units=GPa)
#
#
# Indices 1 2 3 4 5 6 
#
# 1 79.8460 29.5954 37.0443 0.0000 0.0000 0.0000
# 2 29.5954 51.8570 31.9982 0.0000 0.0000 0.0000
# 3 37.0443 31.9982 117.0732 0.0000 0.0000 0.0000
# 4 0.0000 0.0000 0.0000 15.5045 0.0000 0.0000
# 5 0.0000 0.0000 0.0000 0.0000 3440.0351 0.0000
# 6 0.0000 0.0000 0.0000 0.0000 0.0000 11.7190
#
#
#
# Elastic Compliance Matrix: (Units=1/GPa)
#
#
# Indices 1 2 3 4 5 6 
#
# 1 0.016855 -0.007612 -0.003253 0.000000 0.000000 0.000000
# 2 -0.007612 0.026634 -0.004871 0.000000 0.000000 0.000000
# 3 -0.003253 -0.004871 0.010902 0.000000 0.000000 0.000000
# 4 0.000000 0.000000 0.000000 0.064497 0.000000 0.000000
# 5 0.000000 0.000000 0.000000 0.000000 0.000291 0.000000
# 6 0.000000 0.000000 0.000000 0.000000 0.000000 0.085332
#
#
# Mechanical properties :
#
#
# Convention : Reuss Voigt Hill
#
# Bulk Modulus (GPa) = 43.63134 49.56132 46.59633
# Shear Modulus (GPa) = 20.52370 703.46095 361.99232
#
# Velocity S-wave (km/s) = 3.61048 21.13768 15.16306
# Velocity P-wave (km/s) = 6.71514 25.04424 18.33449
#
# Compressibility (1/GPa) = 0.02291931
#
# Stress axis : x y z
#
# Youngs Moduli (GPa) = 59.33095 37.54652 91.72511
#
# Poissons Ratio (x) = 0.28581 0.29835
# Poissons Ratio (y) = 0.45163 0.44678
# Poissons Ratio (z) = 0.19298 0.18288
#
# Static dielectric constant tensor:
#      x y z
#    x 2.770370 0.000000 0.000000 
#    y 0.000000 2.790740 0.000000 
#    z 0.000000 0.000000 3.330960 
# 
# 
# High freq. dielectric constant tensor:
#      x y z
#    x 1.561860 0.000000 0.000000 
#    y 0.000000 1.584500 0.000000 
#    z 0.000000 0.000000 1.611940 
# 
# From -- ./inp_files/33793.got.cif
#   From: 2010.03.12/outbox.cif.g09.slc.cpg/sg47_17_cif.got.tgz:33793.got - 2010.04.14 03:12:58.
