data_PCOD8194348
_publ_section_title
;
Structure prediction by ZEFSAII (Michael W. Deem and Ramdas Pophale) SiO2 
 PCOD8194348
Probable space group: P M M M
;
_chemical_formula_sum "Si O2"
_cell_formula_units_Z 52
_cell_length_a 27.208284
_cell_length_b 8.892940
_cell_length_c 12.000886
_cell_angle_alpha 90.000000
_cell_angle_beta 90.000000
_cell_angle_gamma 90.000000
_cell_volume 2903.754023
_symmetry_space_group_name_H-M "P M M M"
_symmetry_group_IT_number 47
_symmetry_cell_setting 'orthorhombic'
loop_
_space_group_symop_operation_xyz
x,y,z
-x,-y,z
x,-y,-z
-x,y,-z
-x,-y,-z
x,y,-z
-x,y,z
x,-y,z
loop_
_atom_site_type_symbol
_atom_site_label
_atom_site_fract_x
_atom_site_fract_y
_atom_site_fract_z
Si Si1 0.324373 0.823885 0.128634
Si Si2 0.944615 0.679634 0.000000
Si Si3 0.054620 0.170097 0.630702
Si Si4 0.119668 0.322825 0.202477
Si Si5 0.500000 0.823189 0.130278
Si Si6 0.223807 0.670543 0.870134
Si Si7 0.444649 0.322064 0.500000
Si Si8 0.410620 0.678440 0.740612
O O1 0.268892 0.779135 0.159311
O O2 0.358613 0.732261 0.212616
O O3 0.332022 0.000000 0.148161
O O4 0.336152 0.780662 0.000000
O O5 0.915853 0.743606 0.107088
O O6 0.945587 0.500000 0.000000
O O7 0.000000 0.744044 0.000000
O O8 0.060852 0.179276 0.500000
O O9 0.096888 0.274960 0.680375
O O10 0.000000 0.227102 0.665031
O O11 0.062001 0.000000 0.672563
O O12 0.121692 0.500000 0.191068
O O13 0.175697 0.264153 0.192459
O O14 0.547860 0.752191 0.184230
O O15 0.500000 0.000000 0.152157
O O16 0.500000 0.785420 0.000000
O O17 0.236743 0.500000 0.832823
O O18 0.211173 0.673364 0.000000
O O19 0.448166 0.500000 0.500000
O O20 0.500000 0.254689 0.500000
O O21 0.416343 0.268217 0.388301
O O22 0.415053 0.500000 0.750222
#
# Coordination Sequence:
#
# PCOD8194348 Si02
#       8
#     8   4   8   8   4   8   4   8
#     4  10  21  36  54  79 111 141 173 217 267 310
#     4   9  16  26  43  73 111 141 161 196 259 316
#     4   9  19  35  51  68  96 135 174 212 258 309
#     4  10  18  30  51  78 104 132 169 214 258 306
#     4  11  23  36  51  78 118 151 176 215 264 309
#     4   9  17  32  53  77 105 137 174 212 256 314
#     4   9  18  36  58  82 110 140 176 220 261 302
#     4  11  21  36  59  82 107 142 182 220 262 312
#
# _framework density 17.907854
#
# number of rings (size 3 to 8) (size 9 to 14) (size 15 to 20)
#    0.000    2.231    1.538    2.538    0.000    5.231 
#    0.000    3.077    1.692    1.385    0.000    0.000 
#    0.000    0.000    0.000    0.000    0.000    0.000 
#
# Total GULP energy -644756.263162 kJ/mol
# GULP energy per Si atom -12399.158907 kJ/mol
# Density = 1.786710 g / cm^3
# Si number density = 17.907854 Si / 1000 Ang^3
#
#
#
# Elastic Constant Matrix: (Units=GPa)
#
#
# Indices 1 2 3 4 5 6 
#
# 1 133.2558 34.7064 68.5382 0.0000 0.0000 0.0000
# 2 34.7064 44.6163 38.3066 0.0000 0.0000 0.0000
# 3 68.5382 38.3066 98.3682 0.0000 0.0000 0.0000
# 4 0.0000 0.0000 0.0000 20.2682 0.0000 0.0000
# 5 0.0000 0.0000 0.0000 0.0000 41.2594 0.0000
# 6 0.0000 0.0000 0.0000 0.0000 0.0000 24.1062
#
#
#
# Elastic Compliance Matrix: (Units=1/GPa)
#
#
# Indices 1 2 3 4 5 6 
#
# 1 0.011999 -0.003239 -0.007099 0.000000 0.000000 0.000000
# 2 -0.003239 0.034545 -0.011196 0.000000 0.000000 0.000000
# 3 -0.007099 -0.011196 0.019472 0.000000 0.000000 0.000000
# 4 0.000000 0.000000 0.000000 0.049338 0.000000 0.000000
# 5 0.000000 0.000000 0.000000 0.000000 0.024237 0.000000
# 6 0.000000 0.000000 0.000000 0.000000 0.000000 0.041483
#
#
# Mechanical properties :
#
#
# Convention : Reuss Voigt Hill
#
# Bulk Modulus (GPa) = 43.57533 62.14918 52.86225
# Shear Modulus (GPa) = 21.57093 26.10602 23.83848
#
# Velocity S-wave (km/s) = 3.47443 3.82225 3.65248
# Velocity P-wave (km/s) = 6.36250 7.36613 6.88263
#
# Compressibility (1/GPa) = 0.02294877
#
# Stress axis : x y z
#
# Youngs Moduli (GPa) = 83.33807 28.94738 51.35504
#
# Poissons Ratio (x) = 0.09375 0.36458
# Poissons Ratio (y) = 0.26992 0.57497
# Poissons Ratio (z) = 0.59164 0.32410
#
# Static dielectric constant tensor:
#      x y z
#    x 3.557270 0.000000 0.000000 
#    y 0.000000 3.145500 0.000000 
#    z 0.000000 0.000000 3.292430 
# 
# 
# High freq. dielectric constant tensor:
#      x y z
#    x 1.700430 0.000000 0.000000 
#    y 0.000000 1.677980 0.000000 
#    z 0.000000 0.000000 1.681740 
# 
# From -- ./inp_files/19893.got.cif
#   From: 2010.03.12/outbox.cif.g09.slc.cpg/sg47_10_cif.got.tgz:19893.got - 2010.04.14 03:12:58.
