data_PCOD8194416
_publ_section_title
;
Structure prediction by ZEFSAII (Michael W. Deem and Ramdas Pophale) SiO2 
 PCOD8194416
Probable space group: P M M M
;
_chemical_formula_sum "Si O2"
_cell_formula_units_Z 52
_cell_length_a 19.826440
_cell_length_b 9.526598
_cell_length_c 15.010574
_cell_angle_alpha 90.000000
_cell_angle_beta 90.000000
_cell_angle_gamma 90.000000
_cell_volume 2835.175056
_symmetry_space_group_name_H-M "P M M M"
_symmetry_group_IT_number 47
_symmetry_cell_setting 'orthorhombic'
loop_
_space_group_symop_operation_xyz
x,y,z
-x,-y,z
x,-y,-z
-x,y,-z
-x,-y,-z
x,y,-z
-x,y,z
x,-y,z
loop_
_atom_site_type_symbol
_atom_site_label
_atom_site_fract_x
_atom_site_fract_y
_atom_site_fract_z
Si Si1 0.500000 0.666694 0.602499
Si Si2 0.000000 0.833010 0.401290
Si Si3 0.137191 0.841004 0.316029
Si Si4 0.370934 0.666812 0.286489
Si Si5 0.075443 0.666416 0.000000
Si Si6 0.325763 0.334005 0.902787
Si Si7 0.176978 0.666195 0.850614
Si Si8 0.726473 0.841869 0.599514
O O1 0.500000 0.500000 0.599119
O O2 0.500000 0.725030 0.500000
O O3 0.564127 0.721353 0.658805
O O4 0.933566 0.779451 0.350597
O O5 0.000000 0.767871 0.500000
O O6 0.000000 0.000000 0.407410
O O7 0.165521 0.740116 0.241742
O O8 0.192375 0.837432 0.394675
O O9 0.128114 0.000000 0.280010
O O10 0.363749 0.500000 0.293616
O O11 0.372404 0.713943 0.181556
O O12 0.305480 0.734699 0.330594
O O13 0.116527 0.717520 0.085934
O O14 0.071055 0.500000 0.000000
O O15 0.000000 0.732027 0.000000
O O16 0.327436 0.500000 0.906783
O O17 0.248776 0.284009 0.889617
O O18 0.351338 0.275408 0.000000
O O19 0.176439 0.500000 0.836795
O O20 0.705348 0.796768 0.500000
O O21 0.700839 0.000000 0.620100
#
# Coordination Sequence:
#
# PCOD8194416 Si02
#       8
#     4   4   8   8   4   8   8   8
#     4   9  18  32  50  76 110 141 167 203 252 305
#     4   9  18  34  53  68  89 130 172 199 241 309
#     4  10  20  33  50  72  98 126 164 210 254 298
#     4  10  19  33  54  78 103 135 173 207 248 302
#     4   9  18  30  47  71  97 130 168 201 246 313
#     4   9  16  29  50  75 100 129 166 208 251 294
#     4  10  18  31  50  71  96 127 164 205 249 299
#     4  10  20  33  50  74 103 132 166 212 258 298
#
# _framework density 18.341018999999999
#
# number of rings (size 3 to 8) (size 9 to 14) (size 15 to 20)
#    0.000    2.385    2.308    0.923    1.077    2.769 
#    0.000    1.154    0.000    7.385    0.000    0.000 
#    0.000    1.231    0.000    0.000    0.000    0.000 
#
# Total GULP energy -644448.088897 kJ/mol
# GULP energy per Si atom -12393.232479 kJ/mol
# Density = 1.829927 g / cm^3
# Si number density = 18.341019 Si / 1000 Ang^3
#
#
#
# Elastic Constant Matrix: (Units=GPa)
#
#
# Indices 1 2 3 4 5 6 
#
# 1 103.0140 13.6667 56.2120 0.0000 0.0000 0.0000
# 2 13.6667 23.8300 24.6089 0.0000 0.0000 0.0000
# 3 56.2120 24.6089 156.9254 0.0000 0.0000 0.0000
# 4 0.0000 0.0000 0.0000 9.0702 0.0000 0.0000
# 5 0.0000 0.0000 0.0000 0.0000 33.6947 0.0000
# 6 0.0000 0.0000 0.0000 0.0000 0.0000 15.4791
#
#
#
# Elastic Compliance Matrix: (Units=1/GPa)
#
#
# Indices 1 2 3 4 5 6 
#
# 1 0.012240 -0.002973 -0.003918 0.000000 0.000000 0.000000
# 2 -0.002973 0.050795 -0.006901 0.000000 0.000000 0.000000
# 3 -0.003918 -0.006901 0.008858 0.000000 0.000000 0.000000
# 4 0.000000 0.000000 0.000000 0.110251 0.000000 0.000000
# 5 0.000000 0.000000 0.000000 0.000000 0.029678 0.000000
# 6 0.000000 0.000000 0.000000 0.000000 0.000000 0.064603
#
#
# Mechanical properties :
#
#
# Convention : Reuss Voigt Hill
#
# Bulk Modulus (GPa) = 22.56875 52.52719 37.54797
# Shear Modulus (GPa) = 15.68481 24.26759 19.97620
#
# Velocity S-wave (km/s) = 2.92751 3.64143 3.30381
# Velocity P-wave (km/s) = 4.87431 6.81039 5.92201
#
# Compressibility (1/GPa) = 0.04430905
#
# Stress axis : x y z
#
# Youngs Moduli (GPa) = 81.69971 19.68681 112.89089
#
# Poissons Ratio (x) = 0.05854 0.44232
# Poissons Ratio (y) = 0.24293 0.77901
# Poissons Ratio (z) = 0.32011 0.13585
#
# Static dielectric constant tensor:
#      x y z
#    x 3.532420 0.000000 0.000000 
#    y 0.000000 2.899670 0.000000 
#    z 0.000000 0.000000 3.687480 
# 
# 
# High freq. dielectric constant tensor:
#      x y z
#    x 1.707900 0.000000 0.000000 
#    y 0.000000 1.660580 0.000000 
#    z 0.000000 0.000000 1.724820 
# 
# From -- ./inp_files/25069.got.cif
#   From: 2010.03.12/outbox.cif.g09.slc.cpg/sg47_13_cif.got.tgz:25069.got - 2010.04.14 03:12:58.
