data_PCOD8194854
_publ_section_title
;
Structure prediction by ZEFSAII (Michael W. Deem and Ramdas Pophale) SiO2 
 PCOD8194854
Probable space group: P M M M
;
_chemical_formula_sum "Si O2"
_cell_formula_units_Z 56
_cell_length_a 8.941405
_cell_length_b 29.417683
_cell_length_c 13.689836
_cell_angle_alpha 90.000000
_cell_angle_beta 90.000000
_cell_angle_gamma 90.000000
_cell_volume 3600.911733
_symmetry_space_group_name_H-M "P M M M"
_symmetry_group_IT_number 47
_symmetry_cell_setting 'orthorhombic'
loop_
_space_group_symop_operation_xyz
x,y,z
-x,-y,z
x,-y,-z
-x,y,-z
-x,-y,-z
x,y,-z
-x,y,z
x,-y,z
loop_
_atom_site_type_symbol
_atom_site_label
_atom_site_fract_x
_atom_site_fract_y
_atom_site_fract_z
Si Si1 0.672734 0.551684 0.112585
Si Si2 0.673441 0.279992 0.112369
Si Si3 0.823523 0.634865 0.202761
Si Si4 0.176675 0.770821 0.280421
Si Si5 0.677312 0.047993 0.390528
Si Si6 0.823547 0.317355 0.393448
Si Si7 0.674886 0.146633 0.384736
O O1 0.500000 0.564208 0.128448
O O2 0.704123 0.500000 0.145058
O O3 0.774468 0.583909 0.178522
O O4 0.717045 0.558371 0.000000
O O5 0.500000 0.283402 0.139934
O O6 0.746723 0.329193 0.130735
O O7 0.749491 0.240297 0.176018
O O8 0.697198 0.266680 0.000000
O O9 0.773213 0.644922 0.314585
O O10 0.000000 0.640278 0.190147
O O11 0.228355 0.732208 0.356961
O O12 0.229772 0.818797 0.321062
O O13 0.000000 0.771260 0.265753
O O14 0.740886 0.046378 0.500000
O O15 0.500000 0.049269 0.394625
O O16 0.727443 0.096407 0.344865
O O17 0.729054 0.000000 0.337639
O O18 0.750630 0.327294 0.500000
O O19 0.000000 0.317782 0.403573
O O20 0.710226 0.151662 0.500000
O O21 0.500000 0.155080 0.365448
#
# Coordination Sequence:
#
# PCOD8194854 Si02
#       7
#     8   8   8   8   8   8   8
#     4   9  18  32  48  65  87 116 145 172 209 257
#     4  10  20  33  48  64  85 114 143 172 210 257
#     4  10  19  29  46  71  92 112 140 174 211 250
#     4  10  19  29  43  63  86 113 145 181 218 255
#     4   7  10  18  33  53  77 107 144 182 216 249
#     4   8  15  28  43  59  82 112 143 172 202 239
#     4   9  16  25  39  60  86 116 149 184 218 253
#
# _framework density 15.551617
#
# number of rings (size 3 to 8) (size 9 to 14) (size 15 to 20)
#    0.000    3.000    0.000    4.714    0.000    4.286 
#    0.000    0.714    0.000    9.429    0.000    5.000 
#    0.000    0.571    0.000    6.571    0.000    2.143 
#
# Total GULP energy -693843.059278 kJ/mol
# GULP energy per Si atom -12390.054630 kJ/mol
# Density = 1.551622 g / cm^3
# Si number density = 15.551617 Si / 1000 Ang^3
#
#
#
# Elastic Constant Matrix: (Units=GPa)
#
#
# Indices 1 2 3 4 5 6 
#
# 1 62.1519 42.2698 38.3877 0.0000 0.0000 0.0000
# 2 42.2698 126.5219 54.3047 0.0000 0.0000 0.0000
# 3 38.3877 54.3047 86.4985 0.0000 0.0000 0.0000
# 4 0.0000 0.0000 0.0000 18.4684 0.0000 0.0000
# 5 0.0000 0.0000 0.0000 0.0000 17.8434 0.0000
# 6 0.0000 0.0000 0.0000 0.0000 0.0000 16.5117
#
#
#
# Elastic Compliance Matrix: (Units=1/GPa)
#
#
# Indices 1 2 3 4 5 6 
#
# 1 0.024071 -0.004732 -0.007712 0.000000 0.000000 0.000000
# 2 -0.004732 0.011749 -0.005276 0.000000 0.000000 0.000000
# 3 -0.007712 -0.005276 0.018296 0.000000 0.000000 0.000000
# 4 0.000000 0.000000 0.000000 0.054146 0.000000 0.000000
# 5 0.000000 0.000000 0.000000 0.000000 0.056043 0.000000
# 6 0.000000 0.000000 0.000000 0.000000 0.000000 0.060563
#
#
# Mechanical properties :
#
#
# Convention : Reuss Voigt Hill
#
# Bulk Modulus (GPa) = 53.54459 60.56628 57.05543
# Shear Modulus (GPa) = 18.75930 19.91205 19.33567
#
# Velocity S-wave (km/s) = 3.47689 3.58213 3.52990
# Velocity P-wave (km/s) = 7.11501 7.49258 7.30623
#
# Compressibility (1/GPa) = 0.01867602
#
# Stress axis : x y z
#
# Youngs Moduli (GPa) = 41.54385 85.11128 54.65683
#
# Poissons Ratio (x) = 0.40273 0.42151
# Poissons Ratio (y) = 0.19658 0.28839
# Poissons Ratio (z) = 0.32038 0.44908
#
# Static dielectric constant tensor:
#      x y z
#    x 2.794530 0.000000 0.000000 
#    y 0.000000 3.186200 0.000000 
#    z 0.000000 0.000000 2.913200 
# 
# 
# High freq. dielectric constant tensor:
#      x y z
#    x 1.582700 0.000000 0.000000 
#    y 0.000000 1.599550 0.000000 
#    z 0.000000 0.000000 1.566190 
# 
# From -- ./inp_files/8120.got.cif
#   From: 2010.03.12/outbox.cif.g09.slc.cpg/sg47_5_cif.got.tgz:8120.got - 2010.04.14 03:12:58.
