data_PCOD8194936
_publ_section_title
;
Structure prediction by ZEFSAII (Michael W. Deem and Ramdas Pophale) SiO2 
 PCOD8194936
Probable space group: P M M M
;
_chemical_formula_sum "Si O2"
_cell_formula_units_Z 48
_cell_length_a 13.753059
_cell_length_b 8.982925
_cell_length_c 23.904529
_cell_angle_alpha 90.000000
_cell_angle_beta 90.000000
_cell_angle_gamma 90.000000
_cell_volume 2953.229996
_symmetry_space_group_name_H-M "P M M M"
_symmetry_group_IT_number 47
_symmetry_cell_setting 'orthorhombic'
loop_
_space_group_symop_operation_xyz
x,y,z
-x,-y,z
x,-y,-z
-x,y,-z
-x,-y,-z
x,y,-z
-x,y,z
x,-y,z
loop_
_atom_site_type_symbol
_atom_site_label
_atom_site_fract_x
_atom_site_fract_y
_atom_site_fract_z
Si Si1 0.393588 0.675254 0.775019
Si Si2 0.888075 0.827729 0.268338
Si Si3 0.391192 0.676792 0.437987
Si Si4 0.204979 0.676065 0.164786
Si Si5 0.275345 0.323841 0.667553
Si Si6 0.888268 0.827892 0.936135
O O1 0.500000 0.749125 0.785484
O O2 0.404975 0.500000 0.777584
O O3 0.315793 0.727137 0.821777
O O4 0.354679 0.721653 0.714052
O O5 0.868047 0.749108 0.209132
O O6 0.826143 0.755973 0.318667
O O7 0.000000 0.805008 0.284297
O O8 0.860724 0.000000 0.262061
O O9 0.356697 0.727339 0.500000
O O10 0.500000 0.738405 0.426184
O O11 0.394722 0.500000 0.434148
O O12 0.315425 0.736814 0.391828
O O13 0.193548 0.500000 0.170091
O O14 0.180176 0.727838 0.102464
O O15 0.256824 0.500000 0.667276
O O16 0.000000 0.782035 0.926687
O O17 0.873473 0.000000 0.920690
O O18 0.857732 0.797532 0.000000
#
# Coordination Sequence:
#
# PCOD8194936 Si02
#       6
#     8   8   8   8   8   8
#     4   8  14  25  41  62  88 115 141 171 210 255
#     4  10  20  32  45  61  85 118 149 177 217 268
#     4   8  13  22  40  68  97 120 143 175 218 267
#     4  10  19  29  46  71  92 112 142 181 220 255
#     4   9  16  26  44  68  89 112 145 184 219 251
#     4   9  18  32  48  65  88 120 151 176 211 261
#
# _framework density 16.25339
#
# number of rings (size 3 to 8) (size 9 to 14) (size 15 to 20)
#    0.000    3.000    0.000    4.000    0.000    6.000 
#    0.000    0.833    0.000   18.500    0.000    8.167 
#    0.000    0.000    0.000    0.000    0.000    0.000 
#
# Total GULP energy -594979.837758 kJ/mol
# GULP energy per Si atom -12395.413287 kJ/mol
# Density = 1.621640 g / cm^3
# Si number density = 16.253390 Si / 1000 Ang^3
#
#
#
# Elastic Constant Matrix: (Units=GPa)
#
#
# Indices 1 2 3 4 5 6 
#
# 1 114.2645 40.4694 66.9741 0.0000 0.0000 0.0000
# 2 40.4694 51.9701 37.4296 0.0000 0.0000 0.0000
# 3 66.9741 37.4296 121.1211 0.0000 0.0000 0.0000
# 4 0.0000 0.0000 0.0000 13.8625 0.0000 0.0000
# 5 0.0000 0.0000 0.0000 0.0000 28.4064 0.0000
# 6 0.0000 0.0000 0.0000 0.0000 0.0000 4.5482
#
#
#
# Elastic Compliance Matrix: (Units=1/GPa)
#
#
# Indices 1 2 3 4 5 6 
#
# 1 0.014803 -0.007244 -0.005947 0.000000 0.000000 0.000000
# 2 -0.007244 0.028296 -0.004738 0.000000 0.000000 0.000000
# 3 -0.005947 -0.004738 0.013009 0.000000 0.000000 0.000000
# 4 0.000000 0.000000 0.000000 0.072137 0.000000 0.000000
# 5 0.000000 0.000000 0.000000 0.000000 0.035203 0.000000
# 6 0.000000 0.000000 0.000000 0.000000 0.000000 0.219868
#
#
# Mechanical properties :
#
#
# Convention : Reuss Voigt Hill
#
# Bulk Modulus (GPa) = 49.38588 64.12243 56.75416
# Shear Modulus (GPa) = 11.73919 18.86226 15.30073
#
# Velocity S-wave (km/s) = 2.69041 3.41033 3.07153
# Velocity P-wave (km/s) = 6.33261 7.41920 6.89733
#
# Compressibility (1/GPa) = 0.02024870
#
# Stress axis : x y z
#
# Youngs Moduli (GPa) = 67.55481 35.34117 76.87185
#
# Poissons Ratio (x) = 0.25602 0.45712
# Poissons Ratio (y) = 0.48938 0.36425
# Poissons Ratio (z) = 0.40172 0.16746
#
# Static dielectric constant tensor:
#      x y z
#    x 3.213020 0.000000 0.000000 
#    y 0.000000 2.808260 0.000000 
#    z 0.000000 0.000000 3.132150 
# 
# 
# High freq. dielectric constant tensor:
#      x y z
#    x 1.618340 0.000000 0.000000 
#    y 0.000000 1.598960 0.000000 
#    z 0.000000 0.000000 1.618300 
# 
# From -- ./inp_files/4338.got.cif
#   From: 2010.03.12/outbox.cif.g09.slc.cpg/sg47_3_cif.got.tgz:4338.got - 2010.04.14 03:12:58.
