data_PCOD8194711
_publ_section_title
;
Structure prediction by ZEFSAII (Michael W. Deem and Ramdas Pophale) SiO2 
 PCOD8194711
Probable space group: P M M M
;
_chemical_formula_sum "Si O2"
_cell_formula_units_Z 64
_cell_length_a 13.566148
_cell_length_b 34.420402
_cell_length_c 9.200334
_cell_angle_alpha 90.000000
_cell_angle_beta 90.000000
_cell_angle_gamma 90.000000
_cell_volume 4296.116825
_symmetry_space_group_name_H-M "P M M M"
_symmetry_group_IT_number 47
_symmetry_cell_setting 'orthorhombic'
loop_
_space_group_symop_operation_xyz
x,y,z
-x,-y,z
x,-y,-z
-x,y,-z
-x,-y,-z
x,y,-z
-x,y,z
x,-y,z
loop_
_atom_site_type_symbol
_atom_site_label
_atom_site_fract_x
_atom_site_fract_y
_atom_site_fract_z
Si Si1 0.887245 0.267318 0.669116
Si Si2 0.117000 0.042780 0.662990
Si Si3 0.389820 0.541068 0.327658
Si Si4 0.116276 0.117148 0.167953
Si Si5 0.783383 0.187615 0.329565
Si Si6 0.617250 0.374949 0.332436
Si Si7 0.717153 0.694629 0.169875
Si Si8 0.386610 0.225907 0.831131
O O1 0.871469 0.275966 0.500000
O O2 0.854740 0.223575 0.706951
O O3 0.823603 0.298220 0.758770
O O4 0.000000 0.272362 0.716561
O O5 0.154666 0.052290 0.500000
O O6 0.155260 0.075520 0.774005
O O7 0.000000 0.042338 0.663824
O O8 0.155846 0.000000 0.711529
O O9 0.395694 0.542428 0.500000
O O10 0.500000 0.539692 0.263957
O O11 0.336189 0.500000 0.278863
O O12 0.341810 0.582282 0.280087
O O13 0.171143 0.149961 0.257224
O O14 0.000000 0.121732 0.193297
O O15 0.144703 0.120611 0.000000
O O16 0.773083 0.180373 0.500000
O O17 0.675458 0.195525 0.263743
O O18 0.644712 0.366680 0.500000
O O19 0.500000 0.372820 0.310831
O O20 0.670113 0.344181 0.231470
O O21 0.644424 0.730165 0.207307
O O22 0.732851 0.689451 0.000000
O O23 0.500000 0.220519 0.788508
O O24 0.367276 0.217164 0.000000
#
# Coordination Sequence:
#
# PCOD8194711 Si02
#       8
#     8   8   8   8   8   8   8   8
#     4   9  18  32  47  61  79 105 137 173 210 244
#     4   8  14  25  40  57  79 109 142 173 206 243
#     4   7  10  18  33  53  76 102 133 167 200 233
#     4  10  19  28  40  60  86 115 144 173 205 244
#     4  10  19  30  45  64  84 106 136 173 209 246
#     4   9  16  25  39  59  82 109 140 172 203 236
#     4  10  19  29  42  61  84 109 137 168 203 245
#     4   9  18  32  46  59  80 110 140 170 205 243
#
# _framework density 14.897175000000001
#
# number of rings (size 3 to 8) (size 9 to 14) (size 15 to 20)
#    0.000    3.000    0.000    3.375    0.000    3.750 
#    0.000    1.250    0.000    0.375    0.000    1.750 
#    0.000    1.000    0.000   11.000    0.000    4.375 
#
# Total GULP energy -793108.894019 kJ/mol
# GULP energy per Si atom -12392.326469 kJ/mol
# Density = 1.486327 g / cm^3
# Si number density = 14.897175 Si / 1000 Ang^3
#
#
#
# Elastic Constant Matrix: (Units=GPa)
#
#
# Indices 1 2 3 4 5 6 
#
# 1 65.0462 38.5651 38.6420 0.0000 0.0000 0.0000
# 2 38.5651 114.1009 51.3447 0.0000 0.0000 0.0000
# 3 38.6420 51.3447 66.0881 0.0000 0.0000 0.0000
# 4 0.0000 0.0000 0.0000 19.1492 0.0000 0.0000
# 5 0.0000 0.0000 0.0000 0.0000 18.9872 0.0000
# 6 0.0000 0.0000 0.0000 0.0000 0.0000 16.1721
#
#
#
# Elastic Compliance Matrix: (Units=1/GPa)
#
#
# Indices 1 2 3 4 5 6 
#
# 1 0.024115 -0.002776 -0.011943 0.000000 0.000000 0.000000
# 2 -0.002776 0.013795 -0.009094 0.000000 0.000000 0.000000
# 3 -0.011943 -0.009094 0.029180 0.000000 0.000000 0.000000
# 4 0.000000 0.000000 0.000000 0.052222 0.000000 0.000000
# 5 0.000000 0.000000 0.000000 0.000000 0.052667 0.000000
# 6 0.000000 0.000000 0.000000 0.000000 0.000000 0.061835
#
#
# Mechanical properties :
#
#
# Convention : Reuss Voigt Hill
#
# Bulk Modulus (GPa) = 51.38084 55.81541 53.59812
# Shear Modulus (GPa) = 17.36551 18.64058 18.00305
#
# Velocity S-wave (km/s) = 3.41793 3.54119 3.48010
# Velocity P-wave (km/s) = 7.08107 7.36671 7.22530
#
# Compressibility (1/GPa) = 0.01946251
#
# Stress axis : x y z
#
# Youngs Moduli (GPa) = 41.46849 72.49114 34.27037
#
# Poissons Ratio (x) = 0.20125 0.40929
# Poissons Ratio (y) = 0.11513 0.31166
# Poissons Ratio (z) = 0.49526 0.65924
#
# Static dielectric constant tensor:
#      x y z
#    x 2.610480 0.000000 0.000000 
#    y 0.000000 3.178820 0.000000 
#    z 0.000000 0.000000 2.845850 
# 
# 
# High freq. dielectric constant tensor:
#      x y z
#    x 1.524360 0.000000 0.000000 
#    y 0.000000 1.576400 0.000000 
#    z 0.000000 0.000000 1.567140 
# 
# From -- ./inp_files/8198.got.cif
#   From: 2010.03.12/outbox.cif.g09.slc.cpg/sg47_5_cif.got.tgz:8198.got - 2010.04.14 03:12:58.
