data_PCOD8194130
_publ_section_title
;
Structure prediction by ZEFSAII (Michael W. Deem and Ramdas Pophale) SiO2 
 PCOD8194130
Probable space group: P M M M
;
_chemical_formula_sum "Si O2"
_cell_formula_units_Z 48
_cell_length_a 14.503979
_cell_length_b 20.988513
_cell_length_c 9.308869
_cell_angle_alpha 90.000000
_cell_angle_beta 90.000000
_cell_angle_gamma 90.000000
_cell_volume 2833.777526
_symmetry_space_group_name_H-M "P M M M"
_symmetry_group_IT_number 47
_symmetry_cell_setting 'orthorhombic'
loop_
_space_group_symop_operation_xyz
x,y,z
-x,-y,z
x,-y,-z
-x,y,-z
-x,-y,-z
x,y,-z
-x,y,z
x,-y,z
loop_
_atom_site_type_symbol
_atom_site_label
_atom_site_fract_x
_atom_site_fract_y
_atom_site_fract_z
Si Si1 0.898357 0.371290 0.668252
Si Si2 0.607128 0.306332 0.669449
Si Si3 0.712130 0.430523 0.329786
Si Si4 0.707196 0.807412 0.832053
Si Si5 0.101398 0.756951 0.835772
Si Si6 0.603714 0.069937 0.829403
O O1 0.891754 0.358875 0.500000
O O2 0.818554 0.419556 0.718116
O O3 0.879340 0.303875 0.739612
O O4 0.000000 0.398229 0.710397
O O5 0.624410 0.299078 0.500000
O O6 0.500000 0.303610 0.708703
O O7 0.646598 0.374003 0.727540
O O8 0.659069 0.249839 0.748996
O O9 0.704968 0.432082 0.500000
O O10 0.681643 0.500000 0.268206
O O11 0.817581 0.807765 0.805096
O O12 0.670334 0.874686 0.770006
O O13 0.683187 0.799747 0.000000
O O14 0.000000 0.786828 0.801612
O O15 0.105769 0.733963 0.000000
O O16 0.500000 0.084154 0.775524
O O17 0.635676 0.000000 0.772695
O O18 0.606068 0.069474 0.000000
#
# Coordination Sequence:
#
# PCOD8194130 Si02
#       6
#     8   8   8   8   8   8
#     4   9  16  27  45  66  86 110 143 184 226 266
#     4  10  20  32  46  66  91 117 148 188 228 264
#     4   9  17  29  44  63  88 116 146 182 224 269
#     4  10  18  29  49  71  90 117 151 185 219 260
#     4   9  17  28  43  65  92 118 143 176 221 267
#     4   8  14  25  42  66  93 117 145 182 219 256
#
# _framework density 16.938521000000001
#
# number of rings (size 3 to 8) (size 9 to 14) (size 15 to 20)
#    0.000    2.833    1.667    1.000    0.000    1.667 
#    0.000    3.333    0.000    3.000    0.000    9.333 
#    0.000    0.000    0.000    5.667    0.000    6.167 
#
# Total GULP energy -594782.419028 kJ/mol
# GULP energy per Si atom -12391.300396 kJ/mol
# Density = 1.689997 g / cm^3
# Si number density = 16.938521 Si / 1000 Ang^3
#
#
#
# Elastic Constant Matrix: (Units=GPa)
#
#
# Indices 1 2 3 4 5 6 
#
# 1 122.7471 80.8659 22.0456 0.0000 0.0000 0.0000
# 2 80.8659 140.3269 17.5071 0.0000 0.0000 0.0000
# 3 22.0456 17.5071 15.1026 0.0000 0.0000 0.0000
# 4 0.0000 0.0000 0.0000 17.6090 0.0000 0.0000
# 5 0.0000 0.0000 0.0000 0.0000 17.1070 0.0000
# 6 0.0000 0.0000 0.0000 0.0000 0.0000 27.6517
#
#
#
# Elastic Compliance Matrix: (Units=1/GPa)
#
#
# Indices 1 2 3 4 5 6 
#
# 1 0.015366 -0.007080 -0.014222 0.000000 0.000000 0.000000
# 2 -0.007080 0.011594 -0.003104 0.000000 0.000000 0.000000
# 3 -0.014222 -0.003104 0.090572 0.000000 0.000000 0.000000
# 4 0.000000 0.000000 0.000000 0.056789 0.000000 0.000000
# 5 0.000000 0.000000 0.000000 0.000000 0.058456 0.000000
# 6 0.000000 0.000000 0.000000 0.000000 0.000000 0.036164
#
#
# Mechanical properties :
#
#
# Convention : Reuss Voigt Hill
#
# Bulk Modulus (GPa) = 14.55206 57.66818 36.11012
# Shear Modulus (GPa) = 14.67739 22.99073 18.83406
#
# Velocity S-wave (km/s) = 2.94685 3.68816 3.33814
# Velocity P-wave (km/s) = 4.49314 7.22884 6.01849
#
# Compressibility (1/GPa) = 0.06871879
#
# Stress axis : x y z
#
# Youngs Moduli (GPa) = 65.07984 86.25359 11.04090
#
# Poissons Ratio (x) = 0.61072 0.15702
# Poissons Ratio (y) = 0.46080 0.03427
# Poissons Ratio (z) = 0.92557 0.26774
#
# Static dielectric constant tensor:
#      x y z
#    x 3.551400 0.000000 0.000000 
#    y 0.000000 3.398530 0.000000 
#    z 0.000000 0.000000 2.864540 
# 
# 
# High freq. dielectric constant tensor:
#      x y z
#    x 1.665020 0.000000 0.000000 
#    y 0.000000 1.639560 0.000000 
#    z 0.000000 0.000000 1.614200 
# 
# From -- ./inp_files/6769.got.cif
#   From: 2010.03.12/outbox.cif.g09.slc.cpg/sg47_4_cif.got.tgz:6769.got - 2010.04.14 03:12:58.
