data_PCOD8194602
_publ_section_title
;
Structure prediction by ZEFSAII (Michael W. Deem and Ramdas Pophale) SiO2 
 PCOD8194602
Probable space group: P M M M
;
_chemical_formula_sum "Si O2"
_cell_formula_units_Z 52
_cell_length_a 14.714294
_cell_length_b 9.153866
_cell_length_c 20.185970
_cell_angle_alpha 90.000000
_cell_angle_beta 90.000000
_cell_angle_gamma 90.000000
_cell_volume 2718.902308
_symmetry_space_group_name_H-M "P M M M"
_symmetry_group_IT_number 47
_symmetry_cell_setting 'orthorhombic'
loop_
_space_group_symop_operation_xyz
x,y,z
-x,-y,z
x,-y,-z
-x,y,-z
-x,-y,-z
x,y,-z
-x,y,z
x,-y,z
loop_
_atom_site_type_symbol
_atom_site_label
_atom_site_fract_x
_atom_site_fract_y
_atom_site_fract_z
Si Si1 0.895492 0.833265 0.423059
Si Si2 0.605818 0.834780 0.282241
Si Si3 0.349754 0.159728 0.132742
Si Si4 0.776524 0.326173 0.681072
Si Si5 0.898843 0.829583 0.787730
Si Si6 0.500000 0.668512 0.070939
Si Si7 0.153885 0.167311 0.927156
O O1 0.871629 0.818160 0.500000
O O2 0.830433 0.724039 0.383933
O O3 0.000000 0.789786 0.410095
O O4 0.878986 0.000000 0.399085
O O5 0.500000 0.779284 0.280484
O O6 0.655453 0.830845 0.211483
O O7 0.672075 0.731785 0.325789
O O8 0.607069 0.000000 0.310305
O O9 0.412200 0.290713 0.111350
O O10 0.256959 0.186205 0.095059
O O11 0.389431 0.000000 0.113341
O O12 0.774610 0.500000 0.685345
O O13 0.828251 0.263912 0.745452
O O14 0.902798 0.770800 0.864372
O O15 0.000000 0.813121 0.757482
O O16 0.867385 0.000000 0.787131
O O17 0.500000 0.500000 0.059594
O O18 0.500000 0.749585 0.000000
O O19 0.127304 0.000000 0.936832
O O20 0.136931 0.243898 0.000000
#
# Coordination Sequence:
#
# PCOD8194602 Si02
#       7
#     8   8   8   8   8   4   8
#     4   9  19  38  65  95 125 158 195 232 271 320
#     4  10  20  37  60  82 106 142 190 240 286 335
#     4  10  18  33  54  72  94 129 178 234 285 339
#     4  12  24  36  56  86 122 157 186 228 281 337
#     4  10  20  35  55  77 106 146 192 241 286 335
#     4  11  23  33  43  67 103 135 166 215 284 359
#     4   9  17  30  50  75 100 129 174 235 294 341
#
# _framework density 19.125364999999999
#
# number of rings (size 3 to 8) (size 9 to 14) (size 15 to 20)
#    0.000    1.923    2.308    3.000    0.000    5.231 
#    0.000    2.308    0.000    0.923    0.000    4.308 
#    0.000    0.000    0.000    0.000    0.000    0.000 
#
# Total GULP energy -644261.377912 kJ/mol
# GULP energy per Si atom -12389.641883 kJ/mol
# Density = 1.908183 g / cm^3
# Si number density = 19.125365 Si / 1000 Ang^3
#
#
#
# Elastic Constant Matrix: (Units=GPa)
#
#
# Indices 1 2 3 4 5 6 
#
# 1 95.4586 49.4168 41.0562 0.0000 0.0000 0.0000
# 2 49.4168 89.8154 33.2667 0.0000 0.0000 0.0000
# 3 41.0562 33.2667 82.8378 0.0000 0.0000 0.0000
# 4 0.0000 0.0000 0.0000 10.4238 0.0000 0.0000
# 5 0.0000 0.0000 0.0000 0.0000 35.9191 0.0000
# 6 0.0000 0.0000 0.0000 0.0000 0.0000 12.7655
#
#
#
# Elastic Compliance Matrix: (Units=1/GPa)
#
#
# Indices 1 2 3 4 5 6 
#
# 1 0.016413 -0.007069 -0.005296 0.000000 0.000000 0.000000
# 2 -0.007069 0.016124 -0.002972 0.000000 0.000000 0.000000
# 3 -0.005296 -0.002972 0.015890 0.000000 0.000000 0.000000
# 4 0.000000 0.000000 0.000000 0.095934 0.000000 0.000000
# 5 0.000000 0.000000 0.000000 0.000000 0.027840 0.000000
# 6 0.000000 0.000000 0.000000 0.000000 0.000000 0.078336
#
#
# Mechanical properties :
#
#
# Convention : Reuss Voigt Hill
#
# Bulk Modulus (GPa) = 56.32550 57.28791 56.80671
# Shear Modulus (GPa) = 17.41382 21.44648 19.43015
#
# Velocity S-wave (km/s) = 3.02074 3.35231 3.19083
# Velocity P-wave (km/s) = 6.45609 6.70842 6.58346
#
# Compressibility (1/GPa) = 0.01775395
#
# Stress axis : x y z
#
# Youngs Moduli (GPa) = 60.92792 62.01945 62.93309
#
# Poissons Ratio (x) = 0.43841 0.33328
# Poissons Ratio (y) = 0.43069 0.18702
# Poissons Ratio (z) = 0.32266 0.18430
#
# Static dielectric constant tensor:
#      x y z
#    x 3.526440 0.000000 0.000000 
#    y 0.000000 3.201680 0.000000 
#    z 0.000000 0.000000 3.574660 
# 
# 
# High freq. dielectric constant tensor:
#      x y z
#    x 1.749310 0.000000 0.000000 
#    y 0.000000 1.706000 0.000000 
#    z 0.000000 0.000000 1.735370 
# 
# From -- ./inp_files/30908.got.cif
#   From: 2010.03.12/outbox.cif.g09.slc.cpg/sg47_16_cif.got.tgz:30908.got - 2010.04.14 03:12:58.
