data_PCOD8194840
_publ_section_title
;
Structure prediction by ZEFSAII (Michael W. Deem and Ramdas Pophale) SiO2 
 PCOD8194840
Probable space group: P M M M
;
_chemical_formula_sum "Si O2"
_cell_formula_units_Z 52
_cell_length_a 7.873748
_cell_length_b 27.817696
_cell_length_c 14.262751
_cell_angle_alpha 90.000000
_cell_angle_beta 90.000000
_cell_angle_gamma 90.000000
_cell_volume 3123.963623
_symmetry_space_group_name_H-M "P M M M"
_symmetry_group_IT_number 47
_symmetry_cell_setting 'orthorhombic'
loop_
_space_group_symop_operation_xyz
x,y,z
-x,-y,z
x,-y,-z
-x,y,-z
-x,-y,-z
x,y,-z
-x,y,z
x,-y,z
loop_
_atom_site_type_symbol
_atom_site_label
_atom_site_fract_x
_atom_site_fract_y
_atom_site_fract_z
Si Si1 0.000000 0.285436 0.104850
Si Si2 0.695774 0.898253 0.603099
Si Si3 0.807709 0.000000 0.389337
Si Si4 0.307875 0.448223 0.388989
Si Si5 0.689280 0.717071 0.232304
Si Si6 0.000000 0.828363 0.103789
Si Si7 0.302229 0.828609 0.763897
Si Si8 0.192560 0.346963 0.393022
O O1 0.829999 0.302683 0.159334
O O2 0.000000 0.228668 0.097338
O O3 0.000000 0.307972 0.000000
O O4 0.785875 0.894226 0.500000
O O5 0.500000 0.889069 0.588418
O O6 0.723322 0.951062 0.649213
O O7 0.763947 0.857345 0.672660
O O8 0.783405 0.000000 0.500000
O O9 0.000000 0.000000 0.356091
O O10 0.301259 0.450352 0.500000
O O11 0.500000 0.441287 0.353695
O O12 0.237063 0.500000 0.350531
O O13 0.201333 0.402063 0.354791
O O14 0.500000 0.711040 0.188608
O O15 0.722706 0.772514 0.257689
O O16 0.695222 0.687620 0.328907
O O17 0.174899 0.845130 0.153500
O O18 0.000000 0.851117 0.000000
O O19 0.500000 0.840482 0.789676
O O20 0.261279 0.343842 0.500000
O O21 0.000000 0.329159 0.387333
#
# Coordination Sequence:
#
# PCOD8194840 Si02
#       8
#     4   8   4   8   8   4   8   8
#     4   9  18  34  51  69  93 117 150 196 241 284
#     4   9  17  30  46  65  93 126 156 188 226 266
#     4   9  17  27  41  65  91 118 155 192 226 264
#     4   8  14  25  40  58  82 116 159 200 233 265
#     4  10  19  32  49  69  96 126 157 192 229 275
#     4   9  18  32  51  70  92 120 148 189 238 277
#     4   9  19  32  48  71  95 122 156 189 225 275
#     4  10  19  29  42  63  94 131 165 193 226 270
#
# _framework density 16.645522
#
# number of rings (size 3 to 8) (size 9 to 14) (size 15 to 20)
#    0.000    2.846    0.769    1.154    1.077    3.385 
#    0.000    6.154    0.000    0.000    0.000    1.077 
#    0.000    3.692    0.000    3.231    0.000    0.308 
#
# Total GULP energy -644311.959188 kJ/mol
# GULP energy per Si atom -12390.614600 kJ/mol
# Density = 1.660764 g / cm^3
# Si number density = 16.645522 Si / 1000 Ang^3
#
#
#
# Elastic Constant Matrix: (Units=GPa)
#
#
# Indices 1 2 3 4 5 6 
#
# 1 80.5147 29.6225 42.8623 0.0000 0.0000 0.0000
# 2 29.6225 74.1302 47.1568 0.0000 0.0000 0.0000
# 3 42.8623 47.1568 89.6660 0.0000 0.0000 0.0000
# 4 0.0000 0.0000 0.0000 3.2257 0.0000 0.0000
# 5 0.0000 0.0000 0.0000 0.0000 19.4078 0.0000
# 6 0.0000 0.0000 0.0000 0.0000 0.0000 19.1162
#
#
#
# Elastic Compliance Matrix: (Units=1/GPa)
#
#
# Indices 1 2 3 4 5 6 
#
# 1 0.016946 -0.002432 -0.006822 0.000000 0.000000 0.000000
# 2 -0.002432 0.020621 -0.009682 0.000000 0.000000 0.000000
# 3 -0.006822 -0.009682 0.019505 0.000000 0.000000 0.000000
# 4 0.000000 0.000000 0.000000 0.310013 0.000000 0.000000
# 5 0.000000 0.000000 0.000000 0.000000 0.051526 0.000000
# 6 0.000000 0.000000 0.000000 0.000000 0.000000 0.052312
#
#
# Mechanical properties :
#
#
# Convention : Reuss Voigt Hill
#
# Bulk Modulus (GPa) = 52.08177 53.73266 52.90722
# Shear Modulus (GPa) = 9.70506 16.66124 13.18315
#
# Velocity S-wave (km/s) = 2.41725 3.16720 2.81729
# Velocity P-wave (km/s) = 6.25679 6.76206 6.51433
#
# Compressibility (1/GPa) = 0.01920058
#
# Stress axis : x y z
#
# Youngs Moduli (GPa) = 59.00929 48.49443 51.26807
#
# Poissons Ratio (x) = 0.11796 0.34973
# Poissons Ratio (y) = 0.14354 0.49638
# Poissons Ratio (z) = 0.40253 0.46953
#
# Static dielectric constant tensor:
#      x y z
#    x 3.191020 0.000000 0.000000 
#    y 0.000000 3.444870 0.000000 
#    z 0.000000 0.000000 3.072680 
# 
# 
# High freq. dielectric constant tensor:
#      x y z
#    x 1.649110 0.000000 0.000000 
#    y 0.000000 1.630110 0.000000 
#    z 0.000000 0.000000 1.592700 
# 
# From -- ./inp_files/22050.got.cif
#   From: 2010.03.12/outbox.cif.g09.slc.cpg/sg47_12_cif.got.tgz:22050.got - 2010.04.14 03:12:58.
