data_PCOD8194035
_publ_section_title
;
Structure prediction by ZEFSAII (Michael W. Deem and Ramdas Pophale) SiO2 
 PCOD8194035
Probable space group: P M M M
;
_chemical_formula_sum "Si O2"
_cell_formula_units_Z 64
_cell_length_a 25.180115
_cell_length_b 9.464269
_cell_length_c 14.998091
_cell_angle_alpha 90.000000
_cell_angle_beta 90.000000
_cell_angle_gamma 90.000000
_cell_volume 3574.215791
_symmetry_space_group_name_H-M "P M M M"
_symmetry_group_IT_number 47
_symmetry_cell_setting 'orthorhombic'
loop_
_space_group_symop_operation_xyz
x,y,z
-x,-y,z
x,-y,-z
-x,y,-z
-x,-y,-z
x,y,-z
-x,y,z
x,-y,z
loop_
_atom_site_type_symbol
_atom_site_label
_atom_site_fract_x
_atom_site_fract_y
_atom_site_fract_z
Si Si1 0.764658 0.836736 0.400761
Si Si2 0.697329 0.162271 0.863875
Si Si3 0.558818 0.334673 0.283652
Si Si4 0.941182 0.332245 0.600130
Si Si5 0.844405 0.335138 0.284723
Si Si6 0.655586 0.158875 0.332431
Si Si7 0.600018 0.660200 0.095481
Si Si8 0.800914 0.338616 0.099204
O O1 0.786880 0.807650 0.500000
O O2 0.794434 0.740495 0.329651
O O3 0.701323 0.802044 0.403381
O O4 0.772760 0.000000 0.372742
O O5 0.686280 0.178569 0.759934
O O6 0.650605 0.239975 0.915861
O O7 0.752363 0.233390 0.889607
O O8 0.699500 0.000000 0.894321
O O9 0.500000 0.286612 0.314834
O O10 0.566271 0.500000 0.298873
O O11 0.603971 0.257950 0.341785
O O12 0.563498 0.293623 0.178694
O O13 0.925452 0.282224 0.500000
O O14 0.942385 0.500000 0.603270
O O15 0.898787 0.273645 0.672185
O O16 0.000000 0.273931 0.624562
O O17 0.839039 0.500000 0.306848
O O18 0.843954 0.307265 0.177743
O O19 0.634383 0.000000 0.344935
O O20 0.619771 0.500000 0.111963
O O21 0.568950 0.670505 0.000000
O O22 0.780649 0.500000 0.109455
O O23 0.826281 0.316451 0.000000
#
# Coordination Sequence:
#
# PCOD8194035 Si02
#       8
#     8   8   8   8   8   8   8   8
#     4  10  20  34  52  75 104 132 155 190 246 303
#     4  10  18  29  45  64  88 120 160 200 235 280
#     4   9  18  31  47  66  86 114 154 196 238 284
#     4   8  14  26  46  73 102 129 161 204 250 293
#     4  10  19  31  50  74 101 133 170 208 240 283
#     4   9  18  32  48  67  92 121 152 187 233 291
#     4   9  17  28  42  61  87 117 148 188 240 292
#     4  10  20  31  43  63  95 133 168 203 244 284
#
# _framework density 17.906026000000001
#
# number of rings (size 3 to 8) (size 9 to 14) (size 15 to 20)
#    0.000    2.625    1.250    1.500    0.000    4.250 
#    0.000    1.250    0.000    1.125    0.000   10.500 
#    0.000    0.000    0.000    2.250    0.000    2.625 
#
# Total GULP energy -793077.594705 kJ/mol
# GULP energy per Si atom -12391.837417 kJ/mol
# Density = 1.786527 g / cm^3
# Si number density = 17.906026 Si / 1000 Ang^3
#
#
#
# Elastic Constant Matrix: (Units=GPa)
#
#
# Indices 1 2 3 4 5 6 
#
# 1 110.9549 39.7215 48.0721 0.0000 0.0000 0.0000
# 2 39.7215 55.9437 27.6830 0.0000 0.0000 0.0000
# 3 48.0721 27.6830 83.1069 0.0000 0.0000 0.0000
# 4 0.0000 0.0000 0.0000 12.2778 0.0000 0.0000
# 5 0.0000 0.0000 0.0000 0.0000 13.0280 0.0000
# 6 0.0000 0.0000 0.0000 0.0000 0.0000 8.1758
#
#
#
# Elastic Compliance Matrix: (Units=1/GPa)
#
#
# Indices 1 2 3 4 5 6 
#
# 1 0.014061 -0.007135 -0.005757 0.000000 0.000000 0.000000
# 2 -0.007135 0.025024 -0.004208 0.000000 0.000000 0.000000
# 3 -0.005757 -0.004208 0.016764 0.000000 0.000000 0.000000
# 4 0.000000 0.000000 0.000000 0.081448 0.000000 0.000000
# 5 0.000000 0.000000 0.000000 0.000000 0.076758 0.000000
# 6 0.000000 0.000000 0.000000 0.000000 0.000000 0.122313
#
#
# Mechanical properties :
#
#
# Convention : Reuss Voigt Hill
#
# Bulk Modulus (GPa) = 46.19155 53.43987 49.81571
# Shear Modulus (GPa) = 13.23508 15.66491 14.44999
#
# Velocity S-wave (km/s) = 2.72166 2.96098 2.84384
# Velocity P-wave (km/s) = 5.97740 6.44975 6.21806
#
# Compressibility (1/GPa) = 0.02164898
#
# Stress axis : x y z
#
# Youngs Moduli (GPa) = 71.11759 39.96223 59.65031
#
# Poissons Ratio (x) = 0.28514 0.34339
# Poissons Ratio (y) = 0.50744 0.25102
# Poissons Ratio (z) = 0.40941 0.16817
#
# Static dielectric constant tensor:
#      x y z
#    x 3.295380 0.000000 0.000000 
#    y 0.000000 3.196990 0.000000 
#    z 0.000000 0.000000 3.495400 
# 
# 
# High freq. dielectric constant tensor:
#      x y z
#    x 1.667620 0.000000 0.000000 
#    y 0.000000 1.676290 0.000000 
#    z 0.000000 0.000000 1.690590 
# 
# From -- ./inp_files/25617.got.cif
#   From: 2010.03.12/outbox.cif.g09.slc.cpg/sg47_13_cif.got.tgz:25617.got - 2010.04.14 03:12:58.
