data_PCOD8194732
_publ_section_title
;
Structure prediction by ZEFSAII (Michael W. Deem and Ramdas Pophale) SiO2 
 PCOD8194732
Probable space group: P M M M
;
_chemical_formula_sum "Si O2"
_cell_formula_units_Z 48
_cell_length_a 9.197399
_cell_length_b 13.697661
_cell_length_c 23.824049
_cell_angle_alpha 90.000000
_cell_angle_beta 90.000000
_cell_angle_gamma 90.000000
_cell_volume 3001.421677
_symmetry_space_group_name_H-M "P M M M"
_symmetry_group_IT_number 47
_symmetry_cell_setting 'orthorhombic'
loop_
_space_group_symop_operation_xyz
x,y,z
-x,-y,z
x,-y,-z
-x,y,-z
-x,-y,-z
x,y,-z
-x,y,z
x,-y,z
loop_
_atom_site_type_symbol
_atom_site_label
_atom_site_fract_x
_atom_site_fract_y
_atom_site_fract_z
Si Si1 0.169431 0.885423 0.830277
Si Si2 0.662754 0.115742 0.061767
Si Si3 0.330209 0.109888 0.617335
Si Si4 0.168224 0.276879 0.437694
Si Si5 0.829485 0.611850 0.327999
Si Si6 0.670898 0.779854 0.269734
O O1 0.223825 0.848440 0.891244
O O2 0.257541 0.824202 0.785165
O O3 0.000000 0.862015 0.824798
O O4 0.201817 0.000000 0.821639
O O5 0.500000 0.153243 0.076353
O O6 0.662178 0.000000 0.060174
O O7 0.710005 0.155274 0.000000
O O8 0.500000 0.115270 0.605379
O O9 0.252651 0.175832 0.571016
O O10 0.293068 0.147147 0.679541
O O11 0.271226 0.000000 0.611887
O O12 0.203918 0.317861 0.500000
O O13 0.214440 0.357011 0.391483
O O14 0.000000 0.251528 0.431470
O O15 0.784312 0.500000 0.320000
O O16 0.740126 0.674374 0.282798
O O17 0.000000 0.628151 0.317520
O O18 0.500000 0.767224 0.259947
#
# Coordination Sequence:
#
# PCOD8194732 Si02
#       6
#     8   8   8   8   8   8
#     4  10  19  28  41  64  93 124 156 189 224 261
#     4   8  14  25  40  58  84 121 161 194 222 254
#     4   9  18  31  45  61  83 114 148 179 214 255
#     4   9  18  31  46  66  89 111 139 174 212 259
#     4   9  18  33  51  68  87 111 138 174 223 273
#     4  10  19  31  47  65  87 114 147 186 223 265
#
# _framework density 15.992421999999999
#
# number of rings (size 3 to 8) (size 9 to 14) (size 15 to 20)
#    0.000    2.833    0.000    2.000    0.000    4.333 
#    0.000    5.000    0.000    0.000    0.000    4.667 
#    0.000    0.667    0.000    7.000    0.000    3.333 
#
# Total GULP energy -595094.213201 kJ/mol
# GULP energy per Si atom -12397.796108 kJ/mol
# Density = 1.595602 g / cm^3
# Si number density = 15.992422 Si / 1000 Ang^3
#
#
#
# Elastic Constant Matrix: (Units=GPa)
#
#
# Indices 1 2 3 4 5 6 
#
# 1 65.8588 41.3351 49.0195 0.0000 0.0000 0.0000
# 2 41.3351 84.2045 39.0771 0.0000 0.0000 0.0000
# 3 49.0195 39.0771 105.7567 0.0000 0.0000 0.0000
# 4 0.0000 0.0000 0.0000 14.6000 0.0000 0.0000
# 5 0.0000 0.0000 0.0000 0.0000 28.3740 0.0000
# 6 0.0000 0.0000 0.0000 0.0000 0.0000 21.4595
#
#
#
# Elastic Compliance Matrix: (Units=1/GPa)
#
#
# Indices 1 2 3 4 5 6 
#
# 1 0.028242 -0.009401 -0.009617 0.000000 0.000000 0.000000
# 2 -0.009401 0.017463 -0.002095 0.000000 0.000000 0.000000
# 3 -0.009617 -0.002095 0.014687 0.000000 0.000000 0.000000
# 4 0.000000 0.000000 0.000000 0.068493 0.000000 0.000000
# 5 0.000000 0.000000 0.000000 0.000000 0.035244 0.000000
# 6 0.000000 0.000000 0.000000 0.000000 0.000000 0.046600
#
#
# Mechanical properties :
#
#
# Convention : Reuss Voigt Hill
#
# Bulk Modulus (GPa) = 55.04601 57.18704 56.11653
# Shear Modulus (GPa) = 19.30424 21.31258 20.30841
#
# Velocity S-wave (km/s) = 3.47808 3.65453 3.56740
# Velocity P-wave (km/s) = 7.11507 7.32420 7.22039
#
# Compressibility (1/GPa) = 0.01816662
#
# Stress axis : x y z
#
# Youngs Moduli (GPa) = 35.40780 57.26415 68.08535
#
# Poissons Ratio (x) = 0.53833 0.65478
# Poissons Ratio (y) = 0.33286 0.14265
# Poissons Ratio (z) = 0.34052 0.11998
#
# Static dielectric constant tensor:
#      x y z
#    x 3.079580 0.000000 0.000000 
#    y 0.000000 2.845740 0.000000 
#    z 0.000000 0.000000 3.199760 
# 
# 
# High freq. dielectric constant tensor:
#      x y z
#    x 1.618760 0.000000 0.000000 
#    y 0.000000 1.578400 0.000000 
#    z 0.000000 0.000000 1.614240 
# 
# From -- ./inp_files/4290.got.cif
#   From: 2010.03.12/outbox.cif.g09.slc.cpg/sg47_3_cif.got.tgz:4290.got - 2010.04.14 03:12:58.
