data_PCOD8194650
_publ_section_title
;
Structure prediction by ZEFSAII (Michael W. Deem and Ramdas Pophale) SiO2 
 PCOD8194650
Probable space group: P M M M
;
_chemical_formula_sum "Si O2"
_cell_formula_units_Z 60
_cell_length_a 24.378420
_cell_length_b 9.211659
_cell_length_c 17.958027
_cell_angle_alpha 90.000000
_cell_angle_beta 90.000000
_cell_angle_gamma 90.000000
_cell_volume 4032.756760
_symmetry_space_group_name_H-M "P M M M"
_symmetry_group_IT_number 47
_symmetry_cell_setting 'orthorhombic'
loop_
_space_group_symop_operation_xyz
x,y,z
-x,-y,z
x,-y,-z
-x,y,-z
-x,-y,-z
x,y,-z
-x,y,z
x,-y,z
loop_
_atom_site_type_symbol
_atom_site_label
_atom_site_fract_x
_atom_site_fract_y
_atom_site_fract_z
Si Si1 0.667940 0.160354 0.799593
Si Si2 0.730486 0.332024 0.086454
Si Si3 0.774830 0.840068 0.302048
Si Si4 0.939998 0.172382 0.916311
Si Si5 0.500000 0.827576 0.584195
Si Si6 0.712892 0.665960 0.413835
Si Si7 0.169003 0.172128 0.158680
Si Si8 0.612366 0.171977 0.655306
O O1 0.678032 0.270415 0.867675
O O2 0.721385 0.153151 0.748827
O O3 0.619378 0.211892 0.743280
O O4 0.655025 0.000000 0.832159
O O5 0.737780 0.500000 0.106861
O O6 0.786201 0.249539 0.107047
O O7 0.717511 0.308596 0.000000
O O8 0.765591 0.728086 0.369197
O O9 0.823573 0.789564 0.246370
O O10 0.787156 0.000000 0.335343
O O11 0.891249 0.230562 0.863794
O O12 0.000000 0.226908 0.887834
O O13 0.939296 0.000000 0.916491
O O14 0.929859 0.229921 0.000000
O O15 0.500000 0.765566 0.500000
O O16 0.446622 0.770813 0.628102
O O17 0.500000 0.000000 0.582130
O O18 0.727114 0.682015 0.500000
O O19 0.703973 0.500000 0.390178
O O20 0.657858 0.753024 0.395858
O O21 0.175875 0.000000 0.145592
O O22 0.619160 0.000000 0.643875
#
# Coordination Sequence:
#
# PCOD8194650 Si02
#       8
#     8   8   8   8   4   8   8   8
#     4   8  15  27  41  57  77 101 129 159 191 229
#     4  10  19  27  37  57  81 103 130 163 198 235
#     4   8  15  26  39  56  76 100 130 160 192 231
#     4   8  13  21  35  56  79 103 132 162 189 219
#     4   9  16  26  43  65  84 103 128 156 185 219
#     4  10  19  28  39  57  80 105 131 158 191 229
#     4   9  16  26  40  57  78 104 133 163 193 227
#     4   9  17  29  44  61  80 104 133 159 185 223
#
# _framework density 14.878159
#
# number of rings (size 3 to 8) (size 9 to 14) (size 15 to 20)
#    0.000    3.133    0.000    3.600    0.000    8.000 
#    0.000    0.333    0.000    1.600    0.000    2.333 
#    0.000    4.267    0.000    6.667    0.000    1.067 
#
# Total GULP energy -743533.770121 kJ/mol
# GULP energy per Si atom -12392.229502 kJ/mol
# Density = 1.484430 g / cm^3
# Si number density = 14.878159 Si / 1000 Ang^3
#
#
#
# Elastic Constant Matrix: (Units=GPa)
#
#
# Indices 1 2 3 4 5 6 
#
# 1 95.8164 26.4360 61.4452 0.0000 0.0000 0.0000
# 2 26.4360 56.0247 44.5133 0.0000 0.0000 0.0000
# 3 61.4452 44.5133 93.6729 0.0000 0.0000 0.0000
# 4 0.0000 0.0000 0.0000 21.8954 0.0000 0.0000
# 5 0.0000 0.0000 0.0000 0.0000 27.0401 0.0000
# 6 0.0000 0.0000 0.0000 0.0000 0.0000 4.5592
#
#
#
# Elastic Compliance Matrix: (Units=1/GPa)
#
#
# Indices 1 2 3 4 5 6 
#
# 1 0.018086 0.001433 -0.012544 0.000000 0.000000 0.000000
# 2 0.001433 0.028790 -0.014621 0.000000 0.000000 0.000000
# 3 -0.012544 -0.014621 0.025852 0.000000 0.000000 0.000000
# 4 0.000000 0.000000 0.000000 0.045672 0.000000 0.000000
# 5 0.000000 0.000000 0.000000 0.000000 0.036982 0.000000
# 6 0.000000 0.000000 0.000000 0.000000 0.000000 0.219336
#
#
# Mechanical properties :
#
#
# Convention : Reuss Voigt Hill
#
# Bulk Modulus (GPa) = 47.03057 56.70033 51.86545
# Shear Modulus (GPa) = 11.54018 18.24024 14.89021
#
# Velocity S-wave (km/s) = 2.78806 3.50519 3.16699
# Velocity P-wave (km/s) = 6.48409 7.38744 6.95046
#
# Compressibility (1/GPa) = 0.02126277
#
# Stress axis : x y z
#
# Youngs Moduli (GPa) = 55.29217 34.73457 38.68214
#
# Poissons Ratio (x) = -0.04977 0.48524
# Poissons Ratio (y) = -0.07922 0.56556
# Poissons Ratio (z) = 0.69360 0.50785
#
# Static dielectric constant tensor:
#      x y z
#    x 3.084590 0.000000 0.000000 
#    y 0.000000 2.777490 0.000000 
#    z 0.000000 0.000000 3.062350 
# 
# 
# High freq. dielectric constant tensor:
#      x y z
#    x 1.540150 0.000000 0.000000 
#    y 0.000000 1.554810 0.000000 
#    z 0.000000 0.000000 1.560860 
# 
# From -- ./inp_files/28897.got.cif
#   From: 2010.03.12/outbox.cif.g09.slc.cpg/sg47_15_cif.got.tgz:28897.got - 2010.04.14 03:12:58.
