data_PCOD8194402
_publ_section_title
;
Structure prediction by ZEFSAII (Michael W. Deem and Ramdas Pophale) SiO2 
 PCOD8194402
Probable space group: P M M M
;
_chemical_formula_sum "Si O2"
_cell_formula_units_Z 52
_cell_length_a 9.169693
_cell_length_b 18.107462
_cell_length_c 17.693960
_cell_angle_alpha 90.000000
_cell_angle_beta 90.000000
_cell_angle_gamma 90.000000
_cell_volume 2937.902775
_symmetry_space_group_name_H-M "P M M M"
_symmetry_group_IT_number 47
_symmetry_cell_setting 'orthorhombic'
loop_
_space_group_symop_operation_xyz
x,y,z
-x,-y,z
x,-y,-z
-x,y,-z
-x,-y,-z
x,y,-z
-x,y,z
x,-y,z
loop_
_atom_site_type_symbol
_atom_site_label
_atom_site_fract_x
_atom_site_fract_y
_atom_site_fract_z
Si Si1 0.666797 0.412658 0.500000
Si Si2 0.167586 0.920222 0.139889
Si Si3 0.833189 0.164617 0.415382
Si Si4 0.334847 0.710894 0.225296
Si Si5 0.830138 0.332326 0.632600
Si Si6 0.829323 0.763009 0.084874
Si Si7 0.662339 0.878097 0.720598
O O1 0.667953 0.500000 0.500000
O O2 0.500000 0.382595 0.500000
O O3 0.749274 0.386759 0.575360
O O4 0.218319 0.849819 0.090453
O O5 0.254021 0.925979 0.217958
O O6 0.000000 0.909062 0.161402
O O7 0.191060 0.000000 0.097774
O O8 0.781004 0.147706 0.500000
O O9 0.810851 0.250772 0.399737
O O10 0.738092 0.113579 0.360569
O O11 0.000000 0.142529 0.403014
O O12 0.500000 0.680372 0.217757
O O13 0.243966 0.660717 0.284310
O O14 0.258604 0.711013 0.142806
O O15 0.334972 0.793367 0.255460
O O16 0.000000 0.354348 0.639252
O O17 0.000000 0.754451 0.102867
O O18 0.792641 0.736733 0.000000
O O19 0.500000 0.909293 0.713966
#
# Coordination Sequence:
#
# PCOD8194402 Si02
#       7
#     4   8   8   8   8   8   8
#     4  11  23  35  47  69 105 143 172 199 230 263
#     4   9  17  29  44  60  80 112 150 185 226 279
#     4   9  16  27  43  64  86 108 139 182 230 274
#     4   9  17  29  45  66  91 121 154 191 237 285
#     4  10  18  31  49  69  93 125 165 200 231 270
#     4   9  17  29  45  67  94 121 151 192 239 285
#     4   9  17  27  40  60  82 107 140 181 228 275
#
# _framework density 17.699701000000001
#
# number of rings (size 3 to 8) (size 9 to 14) (size 15 to 20)
#    0.000    2.692    0.769    1.615    0.000    6.154 
#    0.000    1.538    0.000    0.462    0.000    7.538 
#    0.000    0.615    0.000    6.462    0.000    2.769 
#
# Total GULP energy -644544.644934 kJ/mol
# GULP energy per Si atom -12395.089326 kJ/mol
# Density = 1.765942 g / cm^3
# Si number density = 17.699701 Si / 1000 Ang^3
#
#
#
# Elastic Constant Matrix: (Units=GPa)
#
#
# Indices 1 2 3 4 5 6 
#
# 1 105.2982 23.4301 59.7068 0.0000 0.0000 0.0000
# 2 23.4301 25.4425 22.6029 0.0000 0.0000 0.0000
# 3 59.7068 22.6029 127.3905 0.0000 0.0000 0.0000
# 4 0.0000 0.0000 0.0000 9.8051 0.0000 0.0000
# 5 0.0000 0.0000 0.0000 0.0000 18.6797 0.0000
# 6 0.0000 0.0000 0.0000 0.0000 0.0000 14.6170
#
#
#
# Elastic Compliance Matrix: (Units=1/GPa)
#
#
# Indices 1 2 3 4 5 6 
#
# 1 0.014362 -0.008602 -0.005205 0.000000 0.000000 0.000000
# 2 -0.008602 0.051811 -0.005161 0.000000 0.000000 0.000000
# 3 -0.005205 -0.005161 0.011205 0.000000 0.000000 0.000000
# 4 0.000000 0.000000 0.000000 0.101988 0.000000 0.000000
# 5 0.000000 0.000000 0.000000 0.000000 0.053534 0.000000
# 6 0.000000 0.000000 0.000000 0.000000 0.000000 0.068414
#
#
# Mechanical properties :
#
#
# Convention : Reuss Voigt Hill
#
# Bulk Modulus (GPa) = 25.35375 52.17899 38.76637
# Shear Modulus (GPa) = 14.18848 18.77978 16.48413
#
# Velocity S-wave (km/s) = 2.83437 3.26087 3.05507
# Velocity P-wave (km/s) = 5.00669 6.61225 5.86468
#
# Compressibility (1/GPa) = 0.03944190
#
# Stress axis : x y z
#
# Youngs Moduli (GPa) = 69.62605 19.30082 89.24354
#
# Poissons Ratio (x) = 0.16603 0.46454
# Poissons Ratio (y) = 0.59893 0.46060
# Poissons Ratio (z) = 0.36242 0.09961
#
# Static dielectric constant tensor:
#      x y z
#    x 3.456220 0.000000 0.000000 
#    y 0.000000 2.791830 0.000000 
#    z 0.000000 0.000000 3.346090 
# 
# 
# High freq. dielectric constant tensor:
#      x y z
#    x 1.691750 0.000000 0.000000 
#    y 0.000000 1.626540 0.000000 
#    z 0.000000 0.000000 1.684260 
# 
# From -- ./inp_files/9525.got.cif
#   From: 2010.03.12/outbox.cif.g09.slc.cpg/sg47_5_cif.got.tgz:9525.got - 2010.04.14 03:12:58.
