data_PCOD8194153
_publ_section_title
;
Structure prediction by ZEFSAII (Michael W. Deem and Ramdas Pophale) SiO2 
 PCOD8194153
Probable space group: P M M M
;
_chemical_formula_sum "Si O2"
_cell_formula_units_Z 64
_cell_length_a 20.029401
_cell_length_b 8.853010
_cell_length_c 20.712510
_cell_angle_alpha 90.000000
_cell_angle_beta 90.000000
_cell_angle_gamma 90.000000
_cell_volume 3672.752367
_symmetry_space_group_name_H-M "P M M M"
_symmetry_group_IT_number 47
_symmetry_cell_setting 'orthorhombic'
loop_
_space_group_symop_operation_xyz
x,y,z
-x,-y,z
x,-y,-z
-x,y,-z
-x,-y,-z
x,y,-z
-x,y,z
x,-y,z
loop_
_atom_site_type_symbol
_atom_site_label
_atom_site_fract_x
_atom_site_fract_y
_atom_site_fract_z
Si Si1 0.706954 0.321948 0.381698
Si Si2 0.163961 0.172748 0.572858
Si Si3 0.429863 0.169389 0.229530
Si Si4 0.923000 0.678145 0.318054
Si Si5 0.924897 0.820569 0.929262
Si Si6 0.289482 0.822056 0.756300
Si Si7 0.426961 0.169930 0.616813
Si Si8 0.147557 0.176698 0.803643
O O1 0.712016 0.500000 0.384869
O O2 0.763720 0.250901 0.426430
O O3 0.722074 0.267833 0.309327
O O4 0.633889 0.273011 0.408286
O O5 0.136156 0.183088 0.500000
O O6 0.111379 0.253274 0.619077
O O7 0.171895 0.000000 0.595649
O O8 0.500000 0.253226 0.207807
O O9 0.357931 0.237821 0.207425
O O10 0.426092 0.170444 0.306355
O O11 0.435192 0.000000 0.202878
O O12 0.914403 0.500000 0.320947
O O13 0.888961 0.736749 0.253281
O O14 0.000000 0.727744 0.317838
O O15 0.877649 0.758414 0.872366
O O16 0.000000 0.762808 0.916179
O O17 0.923613 0.000000 0.929083
O O18 0.900561 0.762252 0.000000
O O19 0.226877 0.792641 0.802611
O O20 0.297519 0.000000 0.739733
O O21 0.500000 0.229783 0.592812
O O22 0.416040 0.000000 0.591097
O O23 0.131347 0.000000 0.795670
#
# Coordination Sequence:
#
# PCOD8194153 Si02
#       8
#     8   8   8   8   8   8   8   8
#     4  11  20  30  48  72 100 129 157 197 250 301
#     4  11  24  41  59  75  92 121 164 208 246 293
#     4   7  10  18  33  54  82 116 151 188 230 272
#     4  11  24  39  55  77 103 127 152 191 247 306
#     4   8  14  25  42  67  98 129 163 204 249 293
#     4   9  16  26  42  65  92 122 161 202 238 284
#     4   8  14  26  45  67  93 127 164 200 238 285
#     4  10  18  29  50  75  99 129 165 205 243 288
#
# _framework density 17.425623999999999
#
# number of rings (size 3 to 8) (size 9 to 14) (size 15 to 20)
#    0.000    2.625    1.250    4.125    0.000    3.000 
#    0.000    1.250    0.000    0.750    0.000    4.375 
#    0.000    0.500    0.000    7.000    0.000    0.125 
#
# Total GULP energy -792887.284896 kJ/mol
# GULP energy per Si atom -12388.863826 kJ/mol
# Density = 1.738596 g / cm^3
# Si number density = 17.425624 Si / 1000 Ang^3
#
#
#
# Elastic Constant Matrix: (Units=GPa)
#
#
# Indices 1 2 3 4 5 6 
#
# 1 164.6949 43.4963 60.5589 0.0000 0.0000 0.0000
# 2 43.4963 57.7369 20.1777 0.0000 0.0000 0.0000
# 3 60.5589 20.1777 82.0976 0.0000 0.0000 0.0000
# 4 0.0000 0.0000 0.0000 1.8368 0.0000 0.0000
# 5 0.0000 0.0000 0.0000 0.0000 14.3233 0.0000
# 6 0.0000 0.0000 0.0000 0.0000 0.0000 21.3008
#
#
#
# Elastic Compliance Matrix: (Units=1/GPa)
#
#
# Indices 1 2 3 4 5 6 
#
# 1 0.009568 -0.005187 -0.005783 0.000000 0.000000 0.000000
# 2 -0.005187 0.021760 -0.001522 0.000000 0.000000 0.000000
# 3 -0.005783 -0.001522 0.016820 0.000000 0.000000 0.000000
# 4 0.000000 0.000000 0.000000 0.544415 0.000000 0.000000
# 5 0.000000 0.000000 0.000000 0.000000 0.069816 0.000000
# 6 0.000000 0.000000 0.000000 0.000000 0.000000 0.046947
#
#
# Mechanical properties :
#
#
# Convention : Reuss Voigt Hill
#
# Bulk Modulus (GPa) = 43.16980 61.44392 52.30686
# Shear Modulus (GPa) = 6.73826 19.51195 13.12510
#
# Velocity S-wave (km/s) = 1.96857 3.34986 2.74744
# Velocity P-wave (km/s) = 5.47673 7.09220 6.33616
#
# Compressibility (1/GPa) = 0.02316434
#
# Stress axis : x y z
#
# Youngs Moduli (GPa) = 104.51226 45.95688 59.45140
#
# Poissons Ratio (x) = 0.23839 0.34381
# Poissons Ratio (y) = 0.54213 0.09046
# Poissons Ratio (z) = 0.60440 0.06993
#
# Static dielectric constant tensor:
#      x y z
#    x 3.923260 0.000000 0.000000 
#    y 0.000000 3.010600 0.000000 
#    z 0.000000 0.000000 3.020990 
# 
# 
# High freq. dielectric constant tensor:
#      x y z
#    x 1.696870 0.000000 0.000000 
#    y 0.000000 1.645120 0.000000 
#    z 0.000000 0.000000 1.625240 
# 
# From -- ./inp_files/31497.got.cif
#   From: 2010.03.12/outbox.cif.g09.slc.cpg/sg47_16_cif.got.tgz:31497.got - 2010.04.14 03:12:58.
