data_PCOD8194183
_publ_section_title
;
Structure prediction by ZEFSAII (Michael W. Deem and Ramdas Pophale) SiO2 
 PCOD8194183
Probable space group: P M M M
;
_chemical_formula_sum "Si O2"
_cell_formula_units_Z 64
_cell_length_a 9.066237
_cell_length_b 31.042100
_cell_length_c 14.421823
_cell_angle_alpha 90.000000
_cell_angle_beta 90.000000
_cell_angle_gamma 90.000000
_cell_volume 4058.806269
_symmetry_space_group_name_H-M "P M M M"
_symmetry_group_IT_number 47
_symmetry_cell_setting 'orthorhombic'
loop_
_space_group_symop_operation_xyz
x,y,z
-x,-y,z
x,-y,-z
-x,y,-z
-x,-y,-z
x,y,-z
-x,y,z
x,-y,z
loop_
_atom_site_type_symbol
_atom_site_label
_atom_site_fract_x
_atom_site_fract_y
_atom_site_fract_z
Si Si1 0.673516 0.130410 0.894237
Si Si2 0.674864 0.624188 0.205763
Si Si3 0.833125 0.046951 0.110150
Si Si4 0.325223 0.246504 0.600439
Si Si5 0.830697 0.450425 0.106923
Si Si6 0.675389 0.783792 0.794690
Si Si7 0.325235 0.656753 0.399326
Si Si8 0.170533 0.703724 0.890458
O O1 0.500000 0.126562 0.888791
O O2 0.737623 0.086420 0.849770
O O3 0.731281 0.170907 0.835397
O O4 0.727162 0.136865 0.000000
O O5 0.500000 0.629568 0.195877
O O6 0.723529 0.577515 0.170651
O O7 0.727377 0.627511 0.313372
O O8 0.751996 0.660783 0.145584
O O9 0.000000 0.053556 0.143752
O O10 0.774977 0.000000 0.145528
O O11 0.823523 0.047499 0.000000
O O12 0.267854 0.228777 0.500000
O O13 0.500000 0.248099 0.598512
O O14 0.273907 0.217096 0.686639
O O15 0.264317 0.294850 0.616248
O O16 0.804428 0.500000 0.133269
O O17 0.000000 0.437298 0.125012
O O18 0.790379 0.442250 0.000000
O O19 0.500000 0.778349 0.805858
O O20 0.751203 0.745524 0.849802
O O21 0.268370 0.639117 0.500000
O O22 0.500000 0.658316 0.400830
O O23 0.000000 0.703323 0.860500
O O24 0.188506 0.704955 0.000000
#
# Coordination Sequence:
#
# PCOD8194183 Si02
#       8
#     8   8   8   8   8   8   8   8
#     4   9  17  26  37  57  85 115 143 175 218 262
#     4  11  20  31  51  75  93 114 148 189 225 255
#     4   8  14  25  40  56  75 104 144 184 216 252
#     4   8  13  24  44  66  86 111 145 183 221 260
#     4   9  19  36  54  70  93 125 152 176 216 267
#     4  10  18  30  46  64  87 116 151 187 220 257
#     4   8  14  26  45  69  93 115 143 180 222 264
#     4  11  23  34  43  60  90 126 156 180 213 260
#
# _framework density 15.768181999999999
#
# number of rings (size 3 to 8) (size 9 to 14) (size 15 to 20)
#    0.000    2.750    1.250    3.000    0.000    4.250 
#    0.000    3.125    0.000    3.000    0.000    2.625 
#    0.000    0.500    0.000    6.250    0.000    1.250 
#
# Total GULP energy -793131.266219 kJ/mol
# GULP energy per Si atom -12392.676035 kJ/mol
# Density = 1.573229 g / cm^3
# Si number density = 15.768182 Si / 1000 Ang^3
#
#
#
# Elastic Constant Matrix: (Units=GPa)
#
#
# Indices 1 2 3 4 5 6 
#
# 1 38.7740 33.2701 29.5416 0.0000 0.0000 0.0000
# 2 33.2701 112.2756 58.4291 0.0000 0.0000 0.0000
# 3 29.5416 58.4291 101.2099 0.0000 0.0000 0.0000
# 4 0.0000 0.0000 0.0000 8.1715 0.0000 0.0000
# 5 0.0000 0.0000 0.0000 0.0000 7.7687 0.0000
# 6 0.0000 0.0000 0.0000 0.0000 0.0000 23.8721
#
#
#
# Elastic Compliance Matrix: (Units=1/GPa)
#
#
# Indices 1 2 3 4 5 6 
#
# 1 0.037309 -0.007702 -0.006443 0.000000 0.000000 0.000000
# 2 -0.007702 0.014322 -0.006020 0.000000 0.000000 0.000000
# 3 -0.006443 -0.006020 0.015236 0.000000 0.000000 0.000000
# 4 0.000000 0.000000 0.000000 0.122377 0.000000 0.000000
# 5 0.000000 0.000000 0.000000 0.000000 0.128722 0.000000
# 6 0.000000 0.000000 0.000000 0.000000 0.000000 0.041890
#
#
# Mechanical properties :
#
#
# Convention : Reuss Voigt Hill
#
# Bulk Modulus (GPa) = 37.68473 54.97126 46.32799
# Shear Modulus (GPa) = 12.22398 16.69702 14.46050
#
# Velocity S-wave (km/s) = 2.78732 3.25761 3.03160
# Velocity P-wave (km/s) = 5.85747 7.00623 6.45744
#
# Compressibility (1/GPa) = 0.02653595
#
# Stress axis : x y z
#
# Youngs Moduli (GPa) = 26.80353 69.82319 65.63219
#
# Poissons Ratio (x) = 0.53781 0.42288
# Poissons Ratio (y) = 0.20645 0.39510
# Poissons Ratio (z) = 0.17270 0.42033
#
# Static dielectric constant tensor:
#      x y z
#    x 2.840390 0.000000 0.000000 
#    y 0.000000 3.145090 0.000000 
#    z 0.000000 0.000000 3.264750 
# 
# 
# High freq. dielectric constant tensor:
#      x y z
#    x 1.585860 0.000000 0.000000 
#    y 0.000000 1.595880 0.000000 
#    z 0.000000 0.000000 1.591810 
# 
# From -- ./inp_files/8215.got.cif
#   From: 2010.03.12/outbox.cif.g09.slc.cpg/sg47_5_cif.got.tgz:8215.got - 2010.04.14 03:12:58.
