data_PCOD8194897
_publ_section_title
;
Structure prediction by ZEFSAII (Michael W. Deem and Ramdas Pophale) SiO2 
 PCOD8194897
Probable space group: P M M M
;
_chemical_formula_sum "Si O2"
_cell_formula_units_Z 56
_cell_length_a 9.108985
_cell_length_b 18.772919
_cell_length_c 18.998266
_cell_angle_alpha 90.000000
_cell_angle_beta 90.000000
_cell_angle_gamma 90.000000
_cell_volume 3248.745996
_symmetry_space_group_name_H-M "P M M M"
_symmetry_group_IT_number 47
_symmetry_cell_setting 'orthorhombic'
loop_
_space_group_symop_operation_xyz
x,y,z
-x,-y,z
x,-y,-z
-x,y,-z
-x,-y,-z
x,y,-z
-x,y,z
x,-y,z
loop_
_atom_site_type_symbol
_atom_site_label
_atom_site_fract_x
_atom_site_fract_y
_atom_site_fract_z
Si Si1 0.324957 0.712610 0.578308
Si Si2 0.670532 0.858836 0.079261
Si Si3 0.674809 0.421138 0.661550
Si Si4 0.668391 0.802619 0.707787
Si Si5 0.168669 0.918972 0.207903
Si Si6 0.667557 0.338747 0.796244
Si Si7 0.168430 0.710003 0.078630
O O1 0.264013 0.728269 0.500000
O O2 0.500000 0.710168 0.579292
O O3 0.265368 0.635278 0.603979
O O4 0.273116 0.774465 0.631906
O O5 0.500000 0.853025 0.099095
O O6 0.747874 0.911668 0.133645
O O7 0.738631 0.781260 0.086396
O O8 0.692463 0.888615 0.000000
O O9 0.500000 0.421726 0.658766
O O10 0.738568 0.500000 0.645785
O O11 0.723766 0.396276 0.739393
O O12 0.500000 0.827406 0.701983
O O13 0.764906 0.869469 0.731154
O O14 0.684266 0.740239 0.764692
O O15 0.000000 0.897799 0.196160
O O16 0.184989 0.000000 0.233732
O O17 0.500000 0.353957 0.817454
O O18 0.768041 0.346778 0.865617
O O19 0.000000 0.727333 0.096156
O O20 0.184764 0.678224 0.000000
#
# Coordination Sequence:
#
# PCOD8194897 Si02
#       7
#     8   8   8   8   8   8   8
#     4   8  14  25  44  72 102 129 158 194 235 278
#     4  10  20  33  49  69  94 124 157 193 237 290
#     4   8  14  24  40  67 102 134 161 191 230 277
#     4   9  17  30  48  69  93 123 160 199 237 280
#     4  11  23  35  48  68  94 125 161 202 244 283
#     4   9  16  27  45  67  91 123 162 200 236 276
#     4  10  19  29  44  67  92 119 156 203 248 284
#
# _framework density 17.237418999999999
#
# number of rings (size 3 to 8) (size 9 to 14) (size 15 to 20)
#    0.000    2.714    1.429    3.000    0.000    3.429 
#    0.000    2.857    0.000    1.714    0.000    6.000 
#    0.000    0.000    0.000    6.286    0.000    6.286 
#
# Total GULP energy -694176.744901 kJ/mol
# GULP energy per Si atom -12396.013302 kJ/mol
# Density = 1.719819 g / cm^3
# Si number density = 17.237419 Si / 1000 Ang^3
#
#
#
# Elastic Constant Matrix: (Units=GPa)
#
#
# Indices 1 2 3 4 5 6 
#
# 1 76.8035 33.5988 48.3973 0.0000 0.0000 0.0000
# 2 33.5988 76.4419 54.5697 0.0000 0.0000 0.0000
# 3 48.3973 54.5697 138.2194 0.0000 0.0000 0.0000
# 4 0.0000 0.0000 0.0000 19.6753 0.0000 0.0000
# 5 0.0000 0.0000 0.0000 0.0000 11.2960 0.0000
# 6 0.0000 0.0000 0.0000 0.0000 0.0000 4.8562
#
#
#
# Elastic Compliance Matrix: (Units=1/GPa)
#
#
# Indices 1 2 3 4 5 6 
#
# 1 0.017847 -0.004711 -0.004389 0.000000 0.000000 0.000000
# 2 -0.004711 0.019459 -0.006033 0.000000 0.000000 0.000000
# 3 -0.004389 -0.006033 0.011154 0.000000 0.000000 0.000000
# 4 0.000000 0.000000 0.000000 0.050825 0.000000 0.000000
# 5 0.000000 0.000000 0.000000 0.000000 0.088527 0.000000
# 6 0.000000 0.000000 0.000000 0.000000 0.000000 0.205924
#
#
# Mechanical properties :
#
#
# Convention : Reuss Voigt Hill
#
# Bulk Modulus (GPa) = 54.96509 62.73292 58.84900
# Shear Modulus (GPa) = 11.62610 17.49210 14.55910
#
# Velocity S-wave (km/s) = 2.59987 3.18901 2.90939
# Velocity P-wave (km/s) = 6.40068 7.07334 6.74540
#
# Compressibility (1/GPa) = 0.01819337
#
# Stress axis : x y z
#
# Youngs Moduli (GPa) = 56.03202 51.38927 89.65713
#
# Poissons Ratio (x) = 0.24210 0.39352
# Poissons Ratio (y) = 0.26397 0.54091
# Poissons Ratio (z) = 0.24593 0.31003
#
# Static dielectric constant tensor:
#      x y z
#    x 2.995790 0.000000 0.000000 
#    y 0.000000 3.061130 0.000000 
#    z 0.000000 0.000000 3.478080 
# 
# 
# High freq. dielectric constant tensor:
#      x y z
#    x 1.640510 0.000000 0.000000 
#    y 0.000000 1.637890 0.000000 
#    z 0.000000 0.000000 1.666750 
# 
# From -- ./inp_files/9857.got.cif
#   From: 2010.03.12/outbox.cif.g09.slc.cpg/sg47_5_cif.got.tgz:9857.got - 2010.04.14 03:12:58.
