data_PCOD8194066
_publ_section_title
;
Structure prediction by ZEFSAII (Michael W. Deem and Ramdas Pophale) SiO2 
 PCOD8194066
Probable space group: P M M M
;
_chemical_formula_sum "Si O2"
_cell_formula_units_Z 48
_cell_length_a 8.613721
_cell_length_b 17.995033
_cell_length_c 18.090968
_cell_angle_alpha 90.000000
_cell_angle_beta 90.000000
_cell_angle_gamma 90.000000
_cell_volume 2804.175907
_symmetry_space_group_name_H-M "P M M M"
_symmetry_group_IT_number 47
_symmetry_cell_setting 'orthorhombic'
loop_
_space_group_symop_operation_xyz
x,y,z
-x,-y,z
x,-y,-z
-x,y,-z
-x,-y,-z
x,y,-z
-x,y,z
x,-y,z
loop_
_atom_site_type_symbol
_atom_site_label
_atom_site_fract_x
_atom_site_fract_y
_atom_site_fract_z
Si Si1 0.319613 0.200952 0.195945
Si Si2 0.318798 0.918317 0.694372
Si Si3 0.182728 0.296752 0.915906
Si Si4 0.180558 0.314362 0.692547
Si Si5 0.315988 0.207135 0.416183
Si Si6 0.317542 0.414952 0.195384
O O1 0.500000 0.222239 0.207436
O O2 0.290758 0.116260 0.223226
O O3 0.265230 0.219954 0.112699
O O4 0.211789 0.252071 0.246412
O O5 0.500000 0.927474 0.679549
O O6 0.251353 0.863024 0.631401
O O7 0.239105 0.000000 0.690222
O O8 0.235463 0.367886 0.868923
O O9 0.000000 0.286621 0.909063
O O10 0.235265 0.309234 0.000000
O O11 0.249332 0.285046 0.614826
O O12 0.262640 0.389301 0.722591
O O13 0.000000 0.330022 0.682820
O O14 0.259182 0.196657 0.500000
O O15 0.500000 0.211205 0.410152
O O16 0.500000 0.403307 0.188407
O O17 0.268583 0.500000 0.184334
#
# Coordination Sequence:
#
# PCOD8194066 Si02
#       6
#     8   8   8   8   8   8
#     4   9  16  28  47  67  88 118 156 193 227 267
#     4   8  14  25  43  69  96 119 149 191 234 272
#     4  10  20  32  47  68  94 123 153 187 227 270
#     4  10  18  29  47  67  90 121 155 190 225 265
#     4   9  17  29  46  68  94 124 156 190 228 270
#     4  10  20  33  50  71  94 120 150 185 225 270
#
# _framework density 17.117328000000001
#
# number of rings (size 3 to 8) (size 9 to 14) (size 15 to 20)
#    0.000    2.667    0.000    6.000    0.000    3.667 
#    0.000    3.333    0.000   13.500    0.000   11.667 
#    0.000    0.000    0.000    0.000    0.000    0.000 
#
# Total GULP energy -594755.226527 kJ/mol
# GULP energy per Si atom -12390.733886 kJ/mol
# Density = 1.707837 g / cm^3
# Si number density = 17.117328 Si / 1000 Ang^3
#
#
#
# Elastic Constant Matrix: (Units=GPa)
#
#
# Indices 1 2 3 4 5 6 
#
# 1 39.6775 22.9048 31.5852 0.0000 0.0000 0.0000
# 2 22.9048 83.8813 84.8379 0.0000 0.0000 0.0000
# 3 31.5852 84.8379 110.6968 0.0000 0.0000 0.0000
# 4 0.0000 0.0000 0.0000 19.9692 0.0000 0.0000
# 5 0.0000 0.0000 0.0000 0.0000 24.2997 0.0000
# 6 0.0000 0.0000 0.0000 0.0000 0.0000 2.1749
#
#
#
# Elastic Compliance Matrix: (Units=1/GPa)
#
#
# Indices 1 2 3 4 5 6 
#
# 1 0.032706 0.002258 -0.011062 0.000000 0.000000 0.000000
# 2 0.002258 0.053174 -0.041396 0.000000 0.000000 0.000000
# 3 -0.011062 -0.041396 0.043916 0.000000 0.000000 0.000000
# 4 0.000000 0.000000 0.000000 0.050077 0.000000 0.000000
# 5 0.000000 0.000000 0.000000 0.000000 0.041153 0.000000
# 6 0.000000 0.000000 0.000000 0.000000 0.000000 0.459791
#
#
# Mechanical properties :
#
#
# Convention : Reuss Voigt Hill
#
# Bulk Modulus (GPa) = 34.02070 56.99015 45.50542
# Shear Modulus (GPa) = 6.32098 15.61727 10.96913
#
# Velocity S-wave (km/s) = 1.92373 3.02382 2.53419
# Velocity P-wave (km/s) = 4.98523 6.74962 5.93338
#
# Compressibility (1/GPa) = 0.02939387
#
# Stress axis : x y z
#
# Youngs Moduli (GPa) = 30.57539 18.80629 22.77059
#
# Poissons Ratio (x) = -0.04246 0.25190
# Poissons Ratio (y) = -0.06903 0.94262
# Poissons Ratio (z) = 0.33823 0.77851
#
# Static dielectric constant tensor:
#      x y z
#    x 3.065970 0.000000 0.000000 
#    y 0.000000 3.462440 0.000000 
#    z 0.000000 0.000000 3.444630 
# 
# 
# High freq. dielectric constant tensor:
#      x y z
#    x 1.653890 0.000000 0.000000 
#    y 0.000000 1.644670 0.000000 
#    z 0.000000 0.000000 1.646950 
# 
# From -- ./inp_files/9703.got.cif
#   From: 2010.03.12/outbox.cif.g09.slc.cpg/sg47_5_cif.got.tgz:9703.got - 2010.04.14 03:12:58.
