data_PCOD8194989
_publ_section_title
;
Structure prediction by ZEFSAII (Michael W. Deem and Ramdas Pophale) SiO2 
 PCOD8194989
Probable space group: P M M M
;
_chemical_formula_sum "Si O2"
_cell_formula_units_Z 56
_cell_length_a 13.493082
_cell_length_b 22.944306
_cell_length_c 10.865599
_cell_angle_alpha 90.000000
_cell_angle_beta 90.000000
_cell_angle_gamma 90.000000
_cell_volume 3363.874300
_symmetry_space_group_name_H-M "P M M M"
_symmetry_group_IT_number 47
_symmetry_cell_setting 'orthorhombic'
loop_
_space_group_symop_operation_xyz
x,y,z
-x,-y,z
x,-y,-z
-x,y,-z
-x,-y,-z
x,y,-z
-x,y,z
x,-y,z
loop_
_atom_site_type_symbol
_atom_site_label
_atom_site_fract_x
_atom_site_fract_y
_atom_site_fract_z
Si Si1 0.801309 0.236631 0.354857
Si Si2 0.195174 0.368626 0.646412
Si Si3 0.392919 0.825506 0.354706
Si Si4 0.117119 0.933647 0.000000
Si Si5 0.885991 0.123737 0.252177
Si Si6 0.000000 0.434105 0.646548
Si Si7 0.711440 0.936897 0.358417
Si Si8 0.389728 0.566261 0.646227
O O1 0.823864 0.228032 0.500000
O O2 0.821054 0.302210 0.310799
O O3 0.686195 0.224259 0.323327
O O4 0.869499 0.192791 0.275794
O O5 0.199392 0.372172 0.500000
O O6 0.299325 0.394343 0.699661
O O7 0.100061 0.403785 0.697443
O O8 0.399293 0.833119 0.500000
O O9 0.500000 0.807767 0.299839
O O10 0.359697 0.887993 0.297410
O O11 0.152553 0.896374 0.117804
O O12 0.000000 0.938120 0.000000
O O13 0.160955 0.000000 0.000000
O O14 0.824337 0.085883 0.349875
O O15 0.000000 0.108197 0.271201
O O16 0.000000 0.500000 0.694839
O O17 0.000000 0.431338 0.500000
O O18 0.684886 0.944191 0.500000
O O19 0.697871 0.000000 0.292862
O O20 0.387249 0.568814 0.500000
O O21 0.500000 0.587590 0.690867
O O22 0.372085 0.500000 0.690653
#
# Coordination Sequence:
#
# PCOD8194989 Si02
#       8
#     8   8   8   4   8   4   8   8
#     4   9  18  28  39  60  85 110 140 168 202 251
#     4   9  16  24  34  50  74 105 141 175 203 239
#     4   8  14  25  38  52  75 105 132 160 194 233
#     4   9  18  32  48  64  77  97 135 172 206 248
#     4  10  19  30  44  59  80 107 131 166 206 245
#     4   9  16  24  34  48  70 105 143 172 196 229
#     4   9  17  27  39  60  84 103 130 161 195 245
#     4   8  13  21  33  49  71 103 144 184 214 237
#
# _framework density 16.647470999999999
#
# number of rings (size 3 to 8) (size 9 to 14) (size 15 to 20)
#    0.000    3.143    0.000    2.571    1.000    4.571 
#    0.000    5.000    0.000    0.000    0.000    8.000 
#    0.000   13.714    0.000    3.214    0.000    3.571 
#
# Total GULP energy -693784.268204 kJ/mol
# GULP energy per Si atom -12389.004789 kJ/mol
# Density = 1.660958 g / cm^3
# Si number density = 16.647471 Si / 1000 Ang^3
#
#
#
# Elastic Constant Matrix: (Units=GPa)
#
#
# Indices 1 2 3 4 5 6 
#
# 1 97.7502 41.0440 6.9289 0.0000 0.0000 0.0000
# 2 41.0440 128.3743 17.7694 0.0000 0.0000 0.0000
# 3 6.9289 17.7694 19.3617 0.0000 0.0000 0.0000
# 4 0.0000 0.0000 0.0000 9.1694 0.0000 0.0000
# 5 0.0000 0.0000 0.0000 0.0000 3.5469 0.0000
# 6 0.0000 0.0000 0.0000 0.0000 0.0000 18.3982
#
#
#
# Elastic Compliance Matrix: (Units=1/GPa)
#
#
# Indices 1 2 3 4 5 6 
#
# 1 0.011829 -0.003661 -0.000873 0.000000 0.000000 0.000000
# 2 -0.003661 0.010056 -0.007919 0.000000 0.000000 0.000000
# 3 -0.000873 -0.007919 0.059229 0.000000 0.000000 0.000000
# 4 0.000000 0.000000 0.000000 0.109059 0.000000 0.000000
# 5 0.000000 0.000000 0.000000 0.000000 0.281940 0.000000
# 6 0.000000 0.000000 0.000000 0.000000 0.000000 0.054353
#
#
# Mechanical properties :
#
#
# Convention : Reuss Voigt Hill
#
# Bulk Modulus (GPa) = 17.79126 41.88564 29.83845
# Shear Modulus (GPa) = 8.77025 18.20582 13.48804
#
# Velocity S-wave (km/s) = 2.29775 3.31056 2.84952
# Velocity P-wave (km/s) = 4.21305 6.31095 5.36553
#
# Compressibility (1/GPa) = 0.05620738
#
# Stress axis : x y z
#
# Youngs Moduli (GPa) = 84.53546 99.43851 16.88367
#
# Poissons Ratio (x) = 0.36407 0.01474
# Poissons Ratio (y) = 0.30950 0.13371
# Poissons Ratio (z) = 0.07381 0.78748
#
# Static dielectric constant tensor:
#      x y z
#    x 3.419590 0.000000 0.000000 
#    y 0.000000 3.341890 0.000000 
#    z 0.000000 0.000000 2.520630 
# 
# 
# High freq. dielectric constant tensor:
#      x y z
#    x 1.648560 0.000000 0.000000 
#    y 0.000000 1.650330 0.000000 
#    z 0.000000 0.000000 1.549970 
# 
# From -- ./inp_files/16765.got.cif
#   From: 2010.03.12/outbox.cif.g09.slc.cpg/sg47_9_cif.got.tgz:16765.got - 2010.04.14 03:12:58.
