data_PCOD8194474
_publ_section_title
;
Structure prediction by ZEFSAII (Michael W. Deem and Ramdas Pophale) SiO2 
 PCOD8194474
Probable space group: P M M M
;
_chemical_formula_sum "Si O2"
_cell_formula_units_Z 44
_cell_length_a 9.751855
_cell_length_b 8.653152
_cell_length_c 26.809108
_cell_angle_alpha 90.000000
_cell_angle_beta 90.000000
_cell_angle_gamma 90.000000
_cell_volume 2262.267372
_symmetry_space_group_name_H-M "P M M M"
_symmetry_group_IT_number 47
_symmetry_cell_setting 'orthorhombic'
loop_
_space_group_symop_operation_xyz
x,y,z
-x,-y,z
x,-y,-z
-x,y,-z
-x,-y,-z
x,y,-z
-x,y,z
x,-y,z
loop_
_atom_site_type_symbol
_atom_site_label
_atom_site_fract_x
_atom_site_fract_y
_atom_site_fract_z
Si Si1 0.158344 0.316071 0.500000
Si Si2 0.000000 0.183553 0.944446
Si Si3 0.157371 0.677922 0.780684
Si Si4 0.750497 0.816901 0.879341
Si Si5 0.156340 0.818767 0.324372
Si Si6 0.500000 0.816598 0.944236
Si Si7 0.342352 0.683034 0.591809
O O1 0.152514 0.500000 0.500000
O O2 0.244669 0.253979 0.452595
O O3 0.000000 0.252217 0.500000
O O4 0.126634 0.243706 0.912983
O O5 0.000000 0.000000 0.949060
O O6 0.000000 0.255873 0.000000
O O7 0.187672 0.500000 0.768293
O O8 0.252399 0.734925 0.825748
O O9 0.193135 0.778748 0.732379
O O10 0.000000 0.704869 0.796384
O O11 0.625613 0.757627 0.911990
O O12 0.752742 0.000000 0.870380
O O13 0.269979 0.734222 0.357413
O O14 0.000000 0.762728 0.336856
O O15 0.169099 0.000000 0.332971
O O16 0.500000 0.000000 0.949326
O O17 0.500000 0.744439 0.000000
O O18 0.500000 0.746985 0.587932
O O19 0.348525 0.500000 0.589682
#
# Coordination Sequence:
#
# PCOD8194474 Si02
#       7
#     4   4   8   8   8   4   8
#     4   9  17  31  56  87 118 155 196 234 272 321
#     4   9  16  26  47  77 103 131 171 216 259 312
#     4  10  20  35  56  80 106 137 177 226 278 329
#     4  10  18  31  52  77 105 136 174 218 265 318
#     4  10  21  37  58  82 109 143 187 235 282 332
#     4   9  18  32  51  77 107 137 171 214 263 316
#     4  10  20  35  56  85 120 155 191 231 277 327
#
# _framework density 19.449511999999999
#
# number of rings (size 3 to 8) (size 9 to 14) (size 15 to 20)
#    0.000    2.273    0.909    2.455    0.000    6.182 
#    1.636    0.909    0.000    6.000    0.000    0.000 
#    0.000    0.000    0.000    0.000    0.000    0.000 
#
# Total GULP energy -545440.329114 kJ/mol
# GULP energy per Si atom -12396.371116 kJ/mol
# Density = 1.940524 g / cm^3
# Si number density = 19.449512 Si / 1000 Ang^3
#
#
#
# Elastic Constant Matrix: (Units=GPa)
#
#
# Indices 1 2 3 4 5 6 
#
# 1 161.1959 14.6792 78.5062 0.0000 0.0000 0.0000
# 2 14.6792 20.7270 8.8174 0.0000 0.0000 0.0000
# 3 78.5062 8.8174 134.6774 0.0000 0.0000 0.0000
# 4 0.0000 0.0000 0.0000 20.9001 0.0000 0.0000
# 5 0.0000 0.0000 0.0000 0.0000 -16.6407 0.0000
# 6 0.0000 0.0000 0.0000 0.0000 0.0000 21.4274
#
#
#
# Elastic Compliance Matrix: (Units=1/GPa)
#
#
# Indices 1 2 3 4 5 6 
#
# 1 0.009016 -0.004268 -0.004976 0.000000 0.000000 0.000000
# 2 -0.004268 0.051649 -0.000893 0.000000 0.000000 0.000000
# 3 -0.004976 -0.000893 0.010384 0.000000 0.000000 0.000000
# 4 0.000000 0.000000 0.000000 0.047847 0.000000 0.000000
# 5 0.000000 0.000000 0.000000 0.000000 -0.060094 0.000000
# 6 0.000000 0.000000 0.000000 0.000000 0.000000 0.046669
#
#
# Mechanical properties :
#
#
# Convention : Reuss Voigt Hill
#
# Bulk Modulus (GPa) = 19.69519 57.84512 38.77015
# Shear Modulus (GPa) = 35.04554 19.44386 27.24470
#
# Velocity S-wave (km/s) = 4.24945 3.16525 3.74677
# Velocity P-wave (km/s) = 5.85025 6.56994 6.22051
#
# Compressibility (1/GPa) = 0.05077381
#
# Stress axis : x y z
#
# Youngs Moduli (GPa) = 110.91679 19.36134 96.29946
#
# Poissons Ratio (x) = 0.08264 0.47919
# Poissons Ratio (y) = 0.47343 0.08604
# Poissons Ratio (z) = 0.55192 0.01730
#
# Static dielectric constant tensor:
#      x y z
#    x 3.706170 0.000000 0.000000 
#    y 0.000000 3.138600 0.000000 
#    z 0.000000 0.000000 3.643850 
# 
# 
# High freq. dielectric constant tensor:
#      x y z
#    x 1.756680 0.000000 0.000000 
#    y 0.000000 1.719920 0.000000 
#    z 0.000000 0.000000 1.772230 
# 
# From -- ./inp_files/13706.got.cif
#   From: 2010.03.12/outbox.cif.g09.slc.cpg/sg47_7_cif.got.tgz:13706.got - 2010.04.14 03:12:58.
