data_PCOD8194564
_publ_section_title
;
Structure prediction by ZEFSAII (Michael W. Deem and Ramdas Pophale) SiO2 
 PCOD8194564
Probable space group: P M M M
;
_chemical_formula_sum "Si O2"
_cell_formula_units_Z 44
_cell_length_a 9.023897
_cell_length_b 18.300059
_cell_length_c 14.349389
_cell_angle_alpha 90.000000
_cell_angle_beta 90.000000
_cell_angle_gamma 90.000000
_cell_volume 2369.627213
_symmetry_space_group_name_H-M "P M M M"
_symmetry_group_IT_number 47
_symmetry_cell_setting 'orthorhombic'
loop_
_space_group_symop_operation_xyz
x,y,z
-x,-y,z
x,-y,-z
-x,y,-z
-x,-y,-z
x,y,-z
-x,y,z
x,-y,z
loop_
_atom_site_type_symbol
_atom_site_label
_atom_site_fract_x
_atom_site_fract_y
_atom_site_fract_z
Si Si1 0.673628 0.312841 0.394951
Si Si2 0.175752 0.640390 0.782371
Si Si3 0.176205 0.500000 0.104850
Si Si4 0.169549 0.838406 0.396109
Si Si5 0.174717 0.919950 0.215677
Si Si6 0.176649 0.218317 0.895307
O O1 0.713824 0.338794 0.500000
O O2 0.500000 0.316518 0.377183
O O3 0.754801 0.365028 0.320830
O O4 0.726033 0.230307 0.379209
O O5 0.233739 0.571653 0.841626
O O6 0.232719 0.713673 0.833837
O O7 0.000000 0.639365 0.772709
O O8 0.000000 0.500000 0.100625
O O9 0.241028 0.500000 0.000000
O O10 0.190111 0.870648 0.500000
O O11 0.213204 0.901057 0.322931
O O12 0.000000 0.812354 0.379325
O O13 0.239899 0.857325 0.147857
O O14 0.000000 0.923542 0.201326
O O15 0.243496 0.000000 0.192544
O O16 0.000000 0.217734 0.895510
O O17 0.238425 0.226329 0.000000
#
# Coordination Sequence:
#
# PCOD8194564 Si02
#       6
#     8   8   4   8   8   8
#     4  10  20  33  51  75 101 131 167 206 248 295
#     4  10  18  32  54  78 103 131 164 202 245 295
#     4   9  18  32  54  85 112 132 161 207 254 291
#     4   9  16  28  47  70  96 127 164 207 252 297
#     4   9  16  25  39  66 101 130 160 200 246 295
#     4   9  16  26  43  68  97 129 163 200 243 289
#
# _framework density 18.568321999999998
#
# number of rings (size 3 to 8) (size 9 to 14) (size 15 to 20)
#    0.000    2.636    1.818    1.091    0.000    4.000 
#    0.000    4.545    0.000    6.000    0.000    2.545 
#    0.000    1.455    0.000    0.000    0.000    0.000 
#
# Total GULP energy -545439.243472 kJ/mol
# GULP energy per Si atom -12396.346443 kJ/mol
# Density = 1.852606 g / cm^3
# Si number density = 18.568322 Si / 1000 Ang^3
#
#
#
# Elastic Constant Matrix: (Units=GPa)
#
#
# Indices 1 2 3 4 5 6 
#
# 1 24.2296 21.7014 30.6340 0.0000 0.0000 0.0000
# 2 21.7014 137.7120 80.9746 0.0000 0.0000 0.0000
# 3 30.6340 80.9746 157.7362 0.0000 0.0000 0.0000
# 4 0.0000 0.0000 0.0000 29.2241 0.0000 0.0000
# 5 0.0000 0.0000 0.0000 0.0000 12.2109 0.0000
# 6 0.0000 0.0000 0.0000 0.0000 0.0000 4.7580
#
#
#
# Elastic Compliance Matrix: (Units=1/GPa)
#
#
# Indices 1 2 3 4 5 6 
#
# 1 0.055839 -0.003470 -0.009063 0.000000 0.000000 0.000000
# 2 -0.003470 0.010617 -0.004776 0.000000 0.000000 0.000000
# 3 -0.009063 -0.004776 0.010552 0.000000 0.000000 0.000000
# 4 0.000000 0.000000 0.000000 0.034218 0.000000 0.000000
# 5 0.000000 0.000000 0.000000 0.000000 0.081894 0.000000
# 6 0.000000 0.000000 0.000000 0.000000 0.000000 0.210172
#
#
# Mechanical properties :
#
#
# Convention : Reuss Voigt Hill
#
# Bulk Modulus (GPa) = 23.59149 65.14419 44.36784
# Shear Modulus (GPa) = 11.06095 21.66311 16.36203
#
# Velocity S-wave (km/s) = 2.44332 3.41936 2.97169
# Velocity P-wave (km/s) = 4.54891 7.12384 5.97669
#
# Compressibility (1/GPa) = 0.04238816
#
# Stress axis : x y z
#
# Youngs Moduli (GPa) = 17.90876 94.19012 94.77153
#
# Poissons Ratio (x) = 0.32687 0.85890
# Poissons Ratio (y) = 0.06215 0.45265
# Poissons Ratio (z) = 0.16231 0.44987
#
# Static dielectric constant tensor:
#      x y z
#    x 2.875390 0.000000 0.000000 
#    y 0.000000 3.477890 0.000000 
#    z 0.000000 0.000000 3.758360 
# 
# 
# High freq. dielectric constant tensor:
#      x y z
#    x 1.658910 0.000000 0.000000 
#    y 0.000000 1.709360 0.000000 
#    z 0.000000 0.000000 1.738660 
# 
# From -- ./inp_files/8970.got.cif
#   From: 2010.03.12/outbox.cif.g09.slc.cpg/sg47_5_cif.got.tgz:8970.got - 2010.04.14 03:12:58.
