data_PCOD8194875
_publ_section_title
;
Structure prediction by ZEFSAII (Michael W. Deem and Ramdas Pophale) SiO2 
 PCOD8194875
Probable space group: P M M M
;
_chemical_formula_sum "Si O2"
_cell_formula_units_Z 46
_cell_length_a 7.530411
_cell_length_b 29.458404
_cell_length_c 11.604288
_cell_angle_alpha 90.000000
_cell_angle_beta 90.000000
_cell_angle_gamma 90.000000
_cell_volume 2574.224342
_symmetry_space_group_name_H-M "P M M M"
_symmetry_group_IT_number 47
_symmetry_cell_setting 'orthorhombic'
loop_
_space_group_symop_operation_xyz
x,y,z
-x,-y,z
x,-y,-z
-x,y,-z
-x,-y,-z
x,y,-z
-x,y,z
x,-y,z
loop_
_atom_site_type_symbol
_atom_site_label
_atom_site_fract_x
_atom_site_fract_y
_atom_site_fract_z
Si Si1 0.697141 0.949914 0.363524
Si Si2 0.295515 0.333738 0.500000
Si Si3 0.000000 0.785798 0.741514
Si Si4 0.000000 0.261154 0.500000
Si Si5 0.000000 0.117895 0.361853
Si Si6 0.292690 0.362916 0.747811
Si Si7 0.707278 0.270378 0.136256
Si Si8 0.711100 0.450556 0.130501
O O1 0.699884 0.952025 0.500000
O O2 0.500000 0.937461 0.318859
O O3 0.829751 0.911006 0.322600
O O4 0.752930 0.000000 0.316721
O O5 0.500000 0.317961 0.500000
O O6 0.249562 0.363306 0.612203
O O7 0.180685 0.289002 0.500000
O O8 0.000000 0.839597 0.724397
O O9 0.823421 0.770153 0.809906
O O10 0.000000 0.768531 0.612415
O O11 0.000000 0.129379 0.500000
O O12 0.500000 0.364045 0.773977
O O13 0.218891 0.317537 0.809160
O O14 0.204334 0.408989 0.797114
O O15 0.500000 0.262298 0.167299
O O16 0.736534 0.272453 0.000000
O O17 0.500000 0.449335 0.137916
O O18 0.777846 0.500000 0.176338
O O19 0.774794 0.444032 0.000000
#
# Coordination Sequence:
#
# PCOD8194875 Si02
#       8
#     8   4   4   2   4   8   8   8
#     4   8  14  26  44  66  95 135 180 217 248 290
#     4  10  20  34  51  72  98 131 172 213 249 297
#     4  12  23  35  51  76 107 139 177 214 255 312
#     4  12  22  36  52  70 104 144 174 208 254 300
#     4  10  19  29  43  68 103 141 175 208 251 301
#     4   9  16  28  47  70  96 128 165 203 250 308
#     4  10  21  37  56  75  97 129 172 222 266 305
#     4   8  13  22  39  66  98 126 155 201 259 311
#
# _framework density 17.869461999999999
#
# number of rings (size 3 to 8) (size 9 to 14) (size 15 to 20)
#    0.000    2.609    2.174    2.087    0.000    3.826 
#    0.000    0.435    0.000    2.609    0.000    3.043 
#    0.000   12.522    0.000   16.174    0.000    0.696 
#
# Total GULP energy -570051.128015 kJ/mol
# GULP energy per Si atom -12392.415826 kJ/mol
# Density = 1.782879 g / cm^3
# Si number density = 17.869462 Si / 1000 Ang^3
#
#
#
# Elastic Constant Matrix: (Units=GPa)
#
#
# Indices 1 2 3 4 5 6 
#
# 1 77.9830 59.5277 35.1222 0.0000 0.0000 0.0000
# 2 59.5277 166.0009 60.6002 0.0000 0.0000 0.0000
# 3 35.1222 60.6002 94.7313 0.0000 0.0000 0.0000
# 4 0.0000 0.0000 0.0000 27.9110 0.0000 0.0000
# 5 0.0000 0.0000 0.0000 0.0000 19.7763 0.0000
# 6 0.0000 0.0000 0.0000 0.0000 0.0000 -4.8476
#
#
#
# Elastic Compliance Matrix: (Units=1/GPa)
#
#
# Indices 1 2 3 4 5 6 
#
# 1 0.018462 -0.005377 -0.003405 0.000000 0.000000 0.000000
# 2 -0.005377 0.009426 -0.004036 0.000000 0.000000 0.000000
# 3 -0.003405 -0.004036 0.014400 0.000000 0.000000 0.000000
# 4 0.000000 0.000000 0.000000 0.035828 0.000000 0.000000
# 5 0.000000 0.000000 0.000000 0.000000 0.050566 0.000000
# 6 0.000000 0.000000 0.000000 0.000000 0.000000 -0.206289
#
#
# Mechanical properties :
#
#
# Convention : Reuss Voigt Hill
#
# Bulk Modulus (GPa) = 60.05526 72.13504 66.09515
# Shear Modulus (GPa) = -107.71125 20.79895 -43.45615
#
# Velocity S-wave (km/s) = -7.77223 3.41536 -4.93675
# Velocity P-wave (km/s) = 6.84563 7.48387 2.13841
#
# Compressibility (1/GPa) = 0.01665133
#
# Stress axis : x y z
#
# Youngs Moduli (GPa) = 54.16676 106.09232 69.44241
#
# Poissons Ratio (x) = 0.57049 0.23644
# Poissons Ratio (y) = 0.29127 0.28027
# Poissons Ratio (z) = 0.18443 0.42819
#
# Static dielectric constant tensor:
#      x y z
#    x 3.332270 0.000000 0.000000 
#    y 0.000000 3.514530 0.000000 
#    z 0.000000 0.000000 3.143520 
# 
# 
# High freq. dielectric constant tensor:
#      x y z
#    x 1.687840 0.000000 0.000000 
#    y 0.000000 1.685770 0.000000 
#    z 0.000000 0.000000 1.661160 
# 
# From -- ./inp_files/15431.got.cif
#   From: 2010.03.12/outbox.cif.g09.slc.cpg/sg47_8_cif.got.tgz:15431.got - 2010.04.14 03:12:58.
