data_PCOD8194703
_publ_section_title
;
Structure prediction by ZEFSAII (Michael W. Deem and Ramdas Pophale) SiO2 
 PCOD8194703
Probable space group: P M M M
;
_chemical_formula_sum "Si O2"
_cell_formula_units_Z 64
_cell_length_a 9.231109
_cell_length_b 24.170937
_cell_length_c 18.750993
_cell_angle_alpha 90.000000
_cell_angle_beta 90.000000
_cell_angle_gamma 90.000000
_cell_volume 4183.806952
_symmetry_space_group_name_H-M "P M M M"
_symmetry_group_IT_number 47
_symmetry_cell_setting 'orthorhombic'
loop_
_space_group_symop_operation_xyz
x,y,z
-x,-y,z
x,-y,-z
-x,y,-z
-x,-y,-z
x,y,-z
-x,y,z
x,-y,z
loop_
_atom_site_type_symbol
_atom_site_label
_atom_site_fract_x
_atom_site_fract_y
_atom_site_fract_z
Si Si1 0.165007 0.270157 0.208808
Si Si2 0.171679 0.060879 0.783833
Si Si3 0.171186 0.670980 0.349450
Si Si4 0.667360 0.770459 0.582512
Si Si5 0.831835 0.164391 0.304096
Si Si6 0.833467 0.124076 0.079406
Si Si7 0.331744 0.762139 0.920200
Si Si8 0.171892 0.439435 0.580042
O O1 0.209583 0.316311 0.267187
O O2 0.190839 0.209573 0.242140
O O3 0.262234 0.278796 0.138399
O O4 0.000000 0.278048 0.185202
O O5 0.225517 0.105517 0.725619
O O6 0.219490 0.078717 0.863547
O O7 0.000000 0.058282 0.780532
O O8 0.237706 0.000000 0.767414
O O9 0.252143 0.713059 0.401622
O O10 0.226345 0.609001 0.367349
O O11 0.000000 0.678842 0.362759
O O12 0.685599 0.785404 0.500000
O O13 0.500000 0.764261 0.604230
O O14 0.737805 0.820644 0.626863
O O15 0.000000 0.162257 0.326595
O O16 0.737934 0.178099 0.088324
O O17 0.000000 0.141333 0.094172
O O18 0.815601 0.098800 0.000000
O O19 0.500000 0.767805 0.903967
O O20 0.303723 0.738626 0.000000
O O21 0.229544 0.427871 0.500000
O O22 0.227982 0.500000 0.606243
O O23 0.000000 0.439699 0.578990
#
# Coordination Sequence:
#
# PCOD8194703 Si02
#       8
#     8   8   8   8   8   8   8   8
#     4   9  16  27  42  61  84 110 140 173 211 251
#     4   9  16  27  44  65  86 105 132 172 209 246
#     4   9  17  28  44  66  91 117 146 178 209 244
#     4  10  20  31  44  64  87 110 138 175 216 254
#     4   9  17  30  46  64  84 107 136 168 209 258
#     4   9  16  27  43  61  83 110 137 166 201 243
#     4  10  19  28  40  59  82 110 142 173 208 251
#     4   8  13  22  39  64  92 121 151 178 202 234
#
# _framework density 15.297072
#
# number of rings (size 3 to 8) (size 9 to 14) (size 15 to 20)
#    0.000    2.875    1.250    2.250    0.000    4.500 
#    0.000    1.250    0.000    2.250    0.000    6.125 
#    0.000    0.500    0.000    6.250    0.000    1.000 
#
# Total GULP energy -793270.362441 kJ/mol
# GULP energy per Si atom -12394.849413 kJ/mol
# Density = 1.526226 g / cm^3
# Si number density = 15.297072 Si / 1000 Ang^3
#
#
#
# Elastic Constant Matrix: (Units=GPa)
#
#
# Indices 1 2 3 4 5 6 
#
# 1 54.2869 27.1250 46.4605 0.0000 0.0000 0.0000
# 2 27.1250 114.7326 66.2572 0.0000 0.0000 0.0000
# 3 46.4605 66.2572 105.7026 0.0000 0.0000 0.0000
# 4 0.0000 0.0000 0.0000 23.3557 0.0000 0.0000
# 5 0.0000 0.0000 0.0000 0.0000 21.5959 0.0000
# 6 0.0000 0.0000 0.0000 0.0000 0.0000 4.1345
#
#
#
# Elastic Compliance Matrix: (Units=1/GPa)
#
#
# Indices 1 2 3 4 5 6 
#
# 1 0.029576 0.000807 -0.013506 0.000000 0.000000 0.000000
# 2 0.000807 0.013683 -0.008932 0.000000 0.000000 0.000000
# 3 -0.013506 -0.008932 0.020995 0.000000 0.000000 0.000000
# 4 0.000000 0.000000 0.000000 0.042816 0.000000 0.000000
# 5 0.000000 0.000000 0.000000 0.000000 0.046305 0.000000
# 6 0.000000 0.000000 0.000000 0.000000 0.000000 0.241869
#
#
# Mechanical properties :
#
#
# Convention : Reuss Voigt Hill
#
# Bulk Modulus (GPa) = 47.63288 61.60082 54.61685
# Shear Modulus (GPa) = 11.22328 18.80919 15.01623
#
# Velocity S-wave (km/s) = 2.71161 3.51036 3.13651
# Velocity P-wave (km/s) = 6.40390 7.53573 6.99275
#
# Compressibility (1/GPa) = 0.02099390
#
# Stress axis : x y z
#
# Youngs Moduli (GPa) = 33.81119 73.08301 47.62943
#
# Poissons Ratio (x) = -0.05899 0.64327
# Poissons Ratio (y) = -0.02729 0.42541
# Poissons Ratio (z) = 0.45665 0.65275
#
# Static dielectric constant tensor:
#      x y z
#    x 2.767860 0.000000 0.000000 
#    y 0.000000 3.036050 0.000000 
#    z 0.000000 0.000000 3.056940 
# 
# 
# High freq. dielectric constant tensor:
#      x y z
#    x 1.565680 0.000000 0.000000 
#    y 0.000000 1.558270 0.000000 
#    z 0.000000 0.000000 1.584510 
# 
# From -- ./inp_files/10259.got.cif
#   From: 2010.03.12/outbox.cif.g09.slc.cpg/sg47_6_cif.got.tgz:10259.got - 2010.04.14 03:12:58.
