data_PCOD8194485
_publ_section_title
;
Structure prediction by ZEFSAII (Michael W. Deem and Ramdas Pophale) SiO2 
 PCOD8194485
Probable space group: P M M M
;
_chemical_formula_sum "Si O2"
_cell_formula_units_Z 52
_cell_length_a 20.120238
_cell_length_b 10.252233
_cell_length_c 14.291870
_cell_angle_alpha 90.000000
_cell_angle_beta 90.000000
_cell_angle_gamma 90.000000
_cell_volume 2948.089327
_symmetry_space_group_name_H-M "P M M M"
_symmetry_group_IT_number 47
_symmetry_cell_setting 'orthorhombic'
loop_
_space_group_symop_operation_xyz
x,y,z
-x,-y,z
x,-y,-z
-x,y,-z
-x,-y,-z
x,y,-z
-x,y,z
x,-y,z
loop_
_atom_site_type_symbol
_atom_site_label
_atom_site_fract_x
_atom_site_fract_y
_atom_site_fract_z
Si Si1 0.578186 0.500000 0.894961
Si Si2 0.227196 0.153918 0.600822
Si Si3 0.575642 0.760224 0.793887
Si Si4 0.696463 0.853167 0.898070
Si Si5 0.826624 0.844378 0.205820
Si Si6 0.377154 0.846536 0.605401
Si Si7 0.077787 0.353041 0.108124
O O1 0.500000 0.500000 0.905297
O O2 0.601307 0.622623 0.833974
O O3 0.609690 0.500000 0.000000
O O4 0.200181 0.206206 0.500000
O O5 0.178236 0.193913 0.684388
O O6 0.301952 0.204894 0.617794
O O7 0.233816 0.000000 0.596751
O O8 0.500000 0.790716 0.825879
O O9 0.627829 0.859236 0.839856
O O10 0.578850 0.767695 0.681022
O O11 0.758330 0.792344 0.841426
O O12 0.717757 0.000000 0.915780
O O13 0.687468 0.783791 0.000000
O O14 0.886948 0.760468 0.166387
O O15 0.839227 0.000000 0.192188
O O16 0.402598 0.815953 0.500000
O O17 0.383998 0.000000 0.626290
O O18 0.099565 0.500000 0.138638
O O19 0.000000 0.335817 0.125383
O O20 0.095701 0.331869 0.000000
#
# Coordination Sequence:
#
# PCOD8194485 Si02
#       7
#     4   8   8   8   8   8   8
#     4   9  20  38  53  63  83 123 173 219 259 304
#     4   8  14  27  49  74 101 134 167 203 253 307
#     4  11  21  34  51  69  93 130 175 218 263 315
#     4  10  20  32  46  70 103 132 162 209 264 310
#     4  10  18  31  53  79 106 136 172 215 258 301
#     4   9  17  31  51  75 102 129 161 206 262 320
#     4   9  19  36  55  77 109 144 174 206 247 300
#
# _framework density 17.638542999999999
#
# number of rings (size 3 to 8) (size 9 to 14) (size 15 to 20)
#    0.000    2.538    1.538    2.769    0.000    3.692 
#    1.385    2.692    0.000    2.308    0.000    3.231 
#    0.000    0.000    0.000    0.000    0.000    0.000 
#
# Total GULP energy -644281.738296 kJ/mol
# GULP energy per Si atom -12390.033429 kJ/mol
# Density = 1.759840 g / cm^3
# Si number density = 17.638543 Si / 1000 Ang^3
#
#
#
# Elastic Constant Matrix: (Units=GPa)
#
#
# Indices 1 2 3 4 5 6 
#
# 1 69.0499 28.8118 45.2910 0.0000 0.0000 0.0000
# 2 28.8118 59.1902 47.2661 0.0000 0.0000 0.0000
# 3 45.2910 47.2661 145.4997 0.0000 0.0000 0.0000
# 4 0.0000 0.0000 0.0000 22.1687 0.0000 0.0000
# 5 0.0000 0.0000 0.0000 0.0000 27.5948 0.0000
# 6 0.0000 0.0000 0.0000 0.0000 0.0000 15.0826
#
#
#
# Elastic Compliance Matrix: (Units=1/GPa)
#
#
# Indices 1 2 3 4 5 6 
#
# 1 0.019835 -0.006379 -0.004102 0.000000 0.000000 0.000000
# 2 -0.006379 0.024864 -0.006092 0.000000 0.000000 0.000000
# 3 -0.004102 -0.006092 0.010128 0.000000 0.000000 0.000000
# 4 0.000000 0.000000 0.000000 0.045109 0.000000 0.000000
# 5 0.000000 0.000000 0.000000 0.000000 0.036239 0.000000
# 6 0.000000 0.000000 0.000000 0.000000 0.000000 0.066302
#
#
# Mechanical properties :
#
#
# Convention : Reuss Voigt Hill
#
# Bulk Modulus (GPa) = 46.12087 57.38640 51.75364
# Shear Modulus (GPa) = 20.58894 23.12727 21.85811
#
# Velocity S-wave (km/s) = 3.42024 3.62495 3.52408
# Velocity P-wave (km/s) = 6.46544 7.07994 6.77966
#
# Compressibility (1/GPa) = 0.02168216
#
# Stress axis : x y z
#
# Youngs Moduli (GPa) = 50.41714 40.21828 98.73136
#
# Poissons Ratio (x) = 0.25657 0.40497
# Poissons Ratio (y) = 0.32163 0.60142
# Poissons Ratio (z) = 0.20680 0.24499
#
# Static dielectric constant tensor:
#      x y z
#    x 2.993330 0.000000 0.000000 
#    y 0.000000 3.022140 0.000000 
#    z 0.000000 0.000000 3.872000 
# 
# 
# High freq. dielectric constant tensor:
#      x y z
#    x 1.657820 0.000000 0.000000 
#    y 0.000000 1.645140 0.000000 
#    z 0.000000 0.000000 1.696890 
# 
# From -- ./inp_files/18547.got.cif
#   From: 2010.03.12/outbox.cif.g09.slc.cpg/sg47_10_cif.got.tgz:18547.got - 2010.04.14 03:12:58.
