data_PCOD8194120
_publ_section_title
;
Structure prediction by ZEFSAII (Michael W. Deem and Ramdas Pophale) SiO2 
 PCOD8194120
Probable space group: P M M M
;
_chemical_formula_sum "Si O2"
_cell_formula_units_Z 52
_cell_length_a 14.357809
_cell_length_b 22.749943
_cell_length_c 9.775803
_cell_angle_alpha 90.000000
_cell_angle_beta 90.000000
_cell_angle_gamma 90.000000
_cell_volume 3193.161804
_symmetry_space_group_name_H-M "P M M M"
_symmetry_group_IT_number 47
_symmetry_cell_setting 'orthorhombic'
loop_
_space_group_symop_operation_xyz
x,y,z
-x,-y,z
x,-y,-z
-x,y,-z
-x,-y,-z
x,y,-z
-x,y,z
x,-y,z
loop_
_atom_site_type_symbol
_atom_site_label
_atom_site_fract_x
_atom_site_fract_y
_atom_site_fract_z
Si Si1 0.271495 0.391449 0.160688
Si Si2 0.106845 0.431424 0.341584
Si Si3 0.897877 0.930252 0.151707
Si Si4 0.395576 0.500000 0.162003
Si Si5 0.607335 0.277877 0.841933
Si Si6 0.607907 0.828208 0.655319
Si Si7 0.263362 0.933389 0.342001
O O1 0.175196 0.393532 0.245234
O O2 0.339625 0.443012 0.212175
O O3 0.325586 0.331704 0.193713
O O4 0.248095 0.397596 0.000000
O O5 0.129887 0.418356 0.500000
O O6 0.121467 0.500000 0.309022
O O7 0.000000 0.413506 0.309403
O O8 0.824392 0.906758 0.261041
O O9 0.000000 0.904706 0.187917
O O10 0.901796 0.000000 0.157731
O O11 0.868113 0.909453 0.000000
O O12 0.500000 0.500000 0.225504
O O13 0.404102 0.500000 0.000000
O O14 0.500000 0.294155 0.805189
O O15 0.644694 0.223141 0.753710
O O16 0.615145 0.260313 0.000000
O O17 0.631885 0.809991 0.500000
O O18 0.500000 0.837740 0.678841
O O19 0.651156 0.891155 0.693028
O O20 0.236002 0.931998 0.500000
O O21 0.289153 0.000000 0.296277
#
# Coordination Sequence:
#
# PCOD8194120 Si02
#       7
#     8   8   8   4   8   8   8
#     4  10  18  29  48  73  95 120 155 193 231 269
#     4   9  18  32  48  67  95 129 159 189 231 280
#     4   8  14  25  41  62  89 119 147 175 214 268
#     4   9  16  26  42  67  98 124 145 177 224 273
#     4   9  18  32  49  69  93 122 156 191 228 274
#     4   9  18  32  48  66  90 122 158 191 226 272
#     4   9  17  28  44  68  94 118 148 189 234 276
#
# _framework density 16.284800000000001
#
# number of rings (size 3 to 8) (size 9 to 14) (size 15 to 20)
#    0.000    3.000    0.769    1.385    0.000    4.000 
#    0.000    3.846    0.000    2.769    0.000    4.308 
#    0.000    0.000    0.000    0.000    0.000    0.000 
#
# Total GULP energy -644612.801924 kJ/mol
# GULP energy per Si atom -12396.400037 kJ/mol
# Density = 1.624773 g / cm^3
# Si number density = 16.284800 Si / 1000 Ang^3
#
#
#
# Elastic Constant Matrix: (Units=GPa)
#
#
# Indices 1 2 3 4 5 6 
#
# 1 98.2069 57.3200 56.7253 0.0000 0.0000 0.0000
# 2 57.3200 94.3015 54.3054 0.0000 0.0000 0.0000
# 3 56.7253 54.3054 67.7942 0.0000 0.0000 0.0000
# 4 0.0000 0.0000 0.0000 24.0405 0.0000 0.0000
# 5 0.0000 0.0000 0.0000 0.0000 28.5689 0.0000
# 6 0.0000 0.0000 0.0000 0.0000 0.0000 13.1873
#
#
#
# Elastic Compliance Matrix: (Units=1/GPa)
#
#
# Indices 1 2 3 4 5 6 
#
# 1 0.020849 -0.004876 -0.013539 0.000000 0.000000 0.000000
# 2 -0.004876 0.020825 -0.012602 0.000000 0.000000 0.000000
# 3 -0.013539 -0.012602 0.036173 0.000000 0.000000 0.000000
# 4 0.000000 0.000000 0.000000 0.041597 0.000000 0.000000
# 5 0.000000 0.000000 0.000000 0.000000 0.035003 0.000000
# 6 0.000000 0.000000 0.000000 0.000000 0.000000 0.075831
#
#
# Mechanical properties :
#
#
# Convention : Reuss Voigt Hill
#
# Bulk Modulus (GPa) = 63.23543 66.33379 64.78461
# Shear Modulus (GPa) = 16.80210 19.28945 18.04577
#
# Velocity S-wave (km/s) = 3.21560 3.44540 3.33248
# Velocity P-wave (km/s) = 7.25961 7.52660 7.39431
#
# Compressibility (1/GPa) = 0.01581392
#
# Stress axis : x y z
#
# Youngs Moduli (GPa) = 47.96448 48.01915 27.64476
#
# Poissons Ratio (x) = 0.23414 0.37428
# Poissons Ratio (y) = 0.23388 0.34837
# Poissons Ratio (z) = 0.64939 0.60512
#
# Static dielectric constant tensor:
#      x y z
#    x 3.218050 0.000000 0.000000 
#    y 0.000000 2.934140 0.000000 
#    z 0.000000 0.000000 3.075060 
# 
# 
# High freq. dielectric constant tensor:
#      x y z
#    x 1.625770 0.000000 0.000000 
#    y 0.000000 1.601420 0.000000 
#    z 0.000000 0.000000 1.620390 
# 
# From -- ./inp_files/7074.got.cif
#   From: 2010.03.12/outbox.cif.g09.slc.cpg/sg47_4_cif.got.tgz:7074.got - 2010.04.14 03:12:58.
