data_PCOD8194116
_publ_section_title
;
Structure prediction by ZEFSAII (Michael W. Deem and Ramdas Pophale) SiO2 
 PCOD8194116
Probable space group: P M M M
;
_chemical_formula_sum "Si O2"
_cell_formula_units_Z 52
_cell_length_a 11.758665
_cell_length_b 28.040128
_cell_length_c 9.106008
_cell_angle_alpha 90.000000
_cell_angle_beta 90.000000
_cell_angle_gamma 90.000000
_cell_volume 3002.382617
_symmetry_space_group_name_H-M "P M M M"
_symmetry_group_IT_number 47
_symmetry_cell_setting 'orthorhombic'
loop_
_space_group_symop_operation_xyz
x,y,z
-x,-y,z
x,-y,-z
-x,y,-z
-x,-y,-z
x,y,-z
-x,y,z
x,-y,z
loop_
_atom_site_type_symbol
_atom_site_label
_atom_site_fract_x
_atom_site_fract_y
_atom_site_fract_z
Si Si1 0.500000 0.291091 0.836074
Si Si2 0.745790 0.593051 0.674994
Si Si3 0.500000 0.613701 0.672945
Si Si4 0.871805 0.500000 0.675302
Si Si5 0.867030 0.689054 0.670702
Si Si6 0.367885 0.854846 0.327405
Si Si7 0.634762 0.947677 0.835438
Si Si8 0.272438 0.766812 0.830505
O O1 0.500000 0.331318 0.714394
O O2 0.609074 0.259381 0.809079
O O3 0.500000 0.313255 0.000000
O O4 0.751869 0.592689 0.500000
O O5 0.615357 0.589176 0.732762
O O6 0.810958 0.547164 0.738827
O O7 0.802949 0.641939 0.732385
O O8 0.500000 0.610648 0.500000
O O9 0.867949 0.500000 0.500000
O O10 0.000000 0.500000 0.733735
O O11 0.838486 0.696885 0.500000
O O12 0.827378 0.735579 0.758649
O O13 0.000000 0.681117 0.696785
O O14 0.352436 0.850259 0.500000
O O15 0.500000 0.846724 0.281566
O O16 0.323991 0.906932 0.276583
O O17 0.284563 0.817279 0.249921
O O18 0.500000 0.949550 0.834892
O O19 0.681561 0.000000 0.786627
O O20 0.677893 0.935560 0.000000
O O21 0.242157 0.775467 0.000000
#
# Coordination Sequence:
#
# PCOD8194116 Si02
#       8
#     4   8   4   4   8   8   8   8
#     4  10  20  32  47  69  94 125 160 196 237 289
#     4   9  17  28  45  70  97 127 157 191 239 291
#     4  10  18  29  48  72  98 123 153 198 243 288
#     4   9  16  27  43  65  97 131 160 194 239 290
#     4  10  20  34  51  71  96 125 159 198 241 291
#     4  10  19  28  42  66  95 127 163 204 248 294
#     4   8  14  25  40  58  86 127 169 205 242 287
#     4  11  21  33  49  69  95 126 162 202 242 292
#
# _framework density 17.319576999999999
#
# number of rings (size 3 to 8) (size 9 to 14) (size 15 to 20)
#    0.000    2.385    2.308    1.846    0.000    4.000 
#    0.000    3.077    0.000    0.000    0.000    2.692 
#    0.000    4.308    0.000    6.462    0.000    3.077 
#
# Total GULP energy -644636.534379 kJ/mol
# GULP energy per Si atom -12396.856430 kJ/mol
# Density = 1.728016 g / cm^3
# Si number density = 17.319577 Si / 1000 Ang^3
#
#
#
# Elastic Constant Matrix: (Units=GPa)
#
#
# Indices 1 2 3 4 5 6 
#
# 1 90.4803 50.9233 29.8511 0.0000 0.0000 0.0000
# 2 50.9233 143.6458 45.4273 0.0000 0.0000 0.0000
# 3 29.8511 45.4273 52.6384 0.0000 0.0000 0.0000
# 4 0.0000 0.0000 0.0000 13.9691 0.0000 0.0000
# 5 0.0000 0.0000 0.0000 0.0000 -163.4539 0.0000
# 6 0.0000 0.0000 0.0000 0.0000 0.0000 19.1499
#
#
#
# Elastic Compliance Matrix: (Units=1/GPa)
#
#
# Indices 1 2 3 4 5 6 
#
# 1 0.014817 -0.003570 -0.005322 0.000000 0.000000 0.000000
# 2 -0.003570 0.010435 -0.006981 0.000000 0.000000 0.000000
# 3 -0.005322 -0.006981 0.028040 0.000000 0.000000 0.000000
# 4 0.000000 0.000000 0.000000 0.071586 0.000000 0.000000
# 5 0.000000 0.000000 0.000000 0.000000 -0.006118 0.000000
# 6 0.000000 0.000000 0.000000 0.000000 0.000000 0.052219
#
#
# Mechanical properties :
#
#
# Convention : Reuss Voigt Hill
#
# Bulk Modulus (GPa) = 46.41069 59.90753 53.15911
# Shear Modulus (GPa) = 23.82004 -15.36278 4.22863
#
# Velocity S-wave (km/s) = 3.71256 -2.98152 1.56424
# Velocity P-wave (km/s) = 6.72550 4.77619 5.83285
#
# Compressibility (1/GPa) = 0.02154676
#
# Stress axis : x y z
#
# Youngs Moduli (GPa) = 67.49008 95.83411 35.66307
#
# Poissons Ratio (x) = 0.34209 0.18980
# Poissons Ratio (y) = 0.24092 0.24896
# Poissons Ratio (z) = 0.35919 0.66901
#
# Static dielectric constant tensor:
#      x y z
#    x 3.106740 0.000000 0.000000 
#    y 0.000000 3.455290 0.000000 
#    z 0.000000 0.000000 3.016040 
# 
# 
# High freq. dielectric constant tensor:
#      x y z
#    x 1.638030 0.000000 0.000000 
#    y 0.000000 1.675570 0.000000 
#    z 0.000000 0.000000 1.644310 
# 
# From -- ./inp_files/4607.got.cif
#   From: 2010.03.12/outbox.cif.g09.slc.cpg/sg47_3_cif.got.tgz:4607.got - 2010.04.14 03:12:58.
