data_PCOD8194988
_publ_section_title
;
Structure prediction by ZEFSAII (Michael W. Deem and Ramdas Pophale) SiO2 
 PCOD8194988
Probable space group: P M M M
;
_chemical_formula_sum "Si O2"
_cell_formula_units_Z 44
_cell_length_a 8.943170
_cell_length_b 18.010640
_cell_length_c 19.312214
_cell_angle_alpha 90.000000
_cell_angle_beta 90.000000
_cell_angle_gamma 90.000000
_cell_volume 3110.661092
_symmetry_space_group_name_H-M "P M M M"
_symmetry_group_IT_number 47
_symmetry_cell_setting 'orthorhombic'
loop_
_space_group_symop_operation_xyz
x,y,z
-x,-y,z
x,-y,-z
-x,y,-z
-x,-y,-z
x,y,-z
-x,y,z
x,-y,z
loop_
_atom_site_type_symbol
_atom_site_label
_atom_site_fract_x
_atom_site_fract_y
_atom_site_fract_z
Si Si1 0.672404 0.412455 0.211933
Si Si2 0.327688 0.772728 0.418382
Si Si3 0.669222 0.500000 0.581836
Si Si4 0.823318 0.637048 0.653133
Si Si5 0.832384 0.918518 0.417872
Si Si6 0.167853 0.411872 0.075916
O O1 0.500000 0.392684 0.222220
O O2 0.702441 0.500000 0.221065
O O3 0.769184 0.368510 0.267970
O O4 0.722209 0.383416 0.136127
O O5 0.299262 0.763107 0.500000
O O6 0.500000 0.759000 0.399592
O O7 0.224749 0.715414 0.377833
O O8 0.281096 0.854919 0.392271
O O9 0.500000 0.500000 0.611341
O O10 0.668544 0.500000 0.500000
O O11 0.751398 0.572909 0.607335
O O12 0.000000 0.628956 0.650240
O O13 0.833451 0.919939 0.500000
O O14 0.000000 0.901180 0.390821
O O15 0.780240 0.000000 0.390469
O O16 0.168373 0.500000 0.075456
O O17 0.000000 0.383022 0.090736
O O18 0.222049 0.383127 0.000000
#
# Coordination Sequence:
#
# PCOD8194988 Si02
#       6
#     8   8   4   8   8   8
#     4  10  19  30  44  59  79 104 132 169 208 246
#     4  10  20  32  45  61  82 106 133 170 212 251
#     4  11  23  37  49  59  74  97 130 175 221 257
#     4  12  23  33  46  60  77 104 138 174 211 252
#     4   8  14  26  44  64  84 104 127 158 197 243
#     4   8  14  25  41  60  81 102 126 159 197 238
#
# _framework density 14.144902999999999
#
# number of rings (size 3 to 8) (size 9 to 14) (size 15 to 20)
#    0.000    2.273    0.909    4.636    0.000    5.455 
#    0.000    3.636    0.000    0.000    0.000    0.000 
#    0.000    0.000    0.000    0.000    0.000    0.909 
#
# Total GULP energy -545465.077118 kJ/mol
# GULP energy per Si atom -12396.933571 kJ/mol
# Density = 1.411271 g / cm^3
# Si number density = 14.144903 Si / 1000 Ang^3
#
#
#
# Elastic Constant Matrix: (Units=GPa)
#
#
# Indices 1 2 3 4 5 6 
#
# 1 106.7977 39.4300 45.2327 0.0000 0.0000 0.0000
# 2 39.4300 72.0951 29.3247 0.0000 0.0000 0.0000
# 3 45.2327 29.3247 70.8927 0.0000 0.0000 0.0000
# 4 0.0000 0.0000 0.0000 -20.2220 0.0000 0.0000
# 5 0.0000 0.0000 0.0000 0.0000 22.6889 0.0000
# 6 0.0000 0.0000 0.0000 0.0000 0.0000 22.9410
#
#
#
# Elastic Compliance Matrix: (Units=1/GPa)
#
#
# Indices 1 2 3 4 5 6 
#
# 1 0.014129 -0.004882 -0.006995 0.000000 0.000000 0.000000
# 2 -0.004882 0.018363 -0.004481 0.000000 0.000000 0.000000
# 3 -0.006995 -0.004481 0.020423 0.000000 0.000000 0.000000
# 4 0.000000 0.000000 0.000000 -0.049451 0.000000 0.000000
# 5 0.000000 0.000000 0.000000 0.000000 0.044074 0.000000
# 6 0.000000 0.000000 0.000000 0.000000 0.000000 0.043590
#
#
# Mechanical properties :
#
#
# Convention : Reuss Voigt Hill
#
# Bulk Modulus (GPa) = 49.50965 53.08449 51.29707
# Shear Modulus (GPa) = 38.29149 14.13479 26.21314
#
# Velocity S-wave (km/s) = 5.20861 3.16458 4.30953
# Velocity P-wave (km/s) = 8.44101 7.13886 7.81709
#
# Compressibility (1/GPa) = 0.02019808
#
# Stress axis : x y z
#
# Youngs Moduli (GPa) = 70.77798 54.45663 48.96490
#
# Poissons Ratio (x) = 0.26585 0.34253
# Poissons Ratio (y) = 0.34553 0.21942
# Poissons Ratio (z) = 0.49512 0.24403
#
# Static dielectric constant tensor:
#      x y z
#    x 2.918060 0.000000 0.000000 
#    y 0.000000 2.822490 0.000000 
#    z 0.000000 0.000000 2.809120 
# 
# 
# High freq. dielectric constant tensor:
#      x y z
#    x 1.553720 0.000000 0.000000 
#    y 0.000000 1.505650 0.000000 
#    z 0.000000 0.000000 1.517370 
# 
# From -- ./inp_files/26654.got.cif
#   From: 2010.03.12/outbox.cif.g09.slc.cpg/sg47_14_cif.got.tgz:26654.got - 2010.04.14 03:12:58.
