data_PCOD8194011
_publ_section_title
;
Structure prediction by ZEFSAII (Michael W. Deem and Ramdas Pophale) SiO2 
 PCOD8194011
Probable space group: P M M M
;
_chemical_formula_sum "Si O2"
_cell_formula_units_Z 48
_cell_length_a 9.238541
_cell_length_b 16.773341
_cell_length_c 23.235100
_cell_angle_alpha 90.000000
_cell_angle_beta 90.000000
_cell_angle_gamma 90.000000
_cell_volume 3600.538944
_symmetry_space_group_name_H-M "P M M M"
_symmetry_group_IT_number 47
_symmetry_cell_setting 'orthorhombic'
loop_
_space_group_symop_operation_xyz
x,y,z
-x,-y,z
x,-y,-z
-x,y,-z
-x,-y,-z
x,y,-z
-x,y,z
x,-y,z
loop_
_atom_site_type_symbol
_atom_site_label
_atom_site_fract_x
_atom_site_fract_y
_atom_site_fract_z
Si Si1 0.833640 0.847552 0.434061
Si Si2 0.662558 0.594814 0.063597
Si Si3 0.830854 0.322659 0.386461
Si Si4 0.828041 0.589464 0.500000
Si Si5 0.837965 0.594655 0.829049
Si Si6 0.336825 0.000000 0.568467
Si Si7 0.329594 0.592484 0.284393
O O1 0.790959 0.826851 0.500000
O O2 0.804250 0.771282 0.394199
O O3 0.000000 0.873546 0.431375
O O4 0.740785 0.920414 0.408428
O O5 0.500000 0.626535 0.074605
O O6 0.661730 0.500000 0.067184
O O7 0.768108 0.630342 0.112469
O O8 0.716310 0.621882 0.000000
O O9 0.771030 0.366698 0.443197
O O10 0.737359 0.353003 0.333603
O O11 0.000000 0.341812 0.375940
O O12 0.767051 0.500000 0.500000
O O13 0.000000 0.591944 0.500000
O O14 0.842625 0.500000 0.832897
O O15 0.740958 0.621235 0.775234
O O16 0.000000 0.629276 0.822266
O O17 0.500000 0.000000 0.591448
O O18 0.327758 0.000000 0.500000
O O19 0.500000 0.606860 0.280499
O O20 0.293186 0.500000 0.297082
#
# Coordination Sequence:
#
# PCOD8194011 Si02
#       7
#     8   8   8   4   8   4   8
#     4   9  16  28  44  61  79  96 116 143 179 223
#     4   8  13  21  33  49  69  91 112 138 179 227
#     4  10  18  29  44  60  74  92 121 155 190 228
#     4   9  16  26  41  58  73  90 116 153 193 229
#     4   9  16  25  37  51  66  87 118 155 189 220
#     4   9  17  27  41  61  81  99 117 135 168 217
#     4  10  20  31  40  51  70  97 127 158 194 232
#
# _framework density 13.331337
#
# number of rings (size 3 to 8) (size 9 to 14) (size 15 to 20)
#    0.000    2.833    0.833    2.250    0.000    5.667 
#    0.000    2.083    0.000    1.500    0.000    0.000 
#    0.000    0.000    0.000    0.000    0.000    0.000 
#
# Total GULP energy -595055.829011 kJ/mol
# GULP energy per Si atom -12396.996438 kJ/mol
# Density = 1.330099 g / cm^3
# Si number density = 13.331337 Si / 1000 Ang^3
#
#
#
# Elastic Constant Matrix: (Units=GPa)
#
#
# Indices 1 2 3 4 5 6 
#
# 1 85.6473 36.4198 54.5811 0.0000 0.0000 0.0000
# 2 36.4198 55.5888 31.5214 0.0000 0.0000 0.0000
# 3 54.5811 31.5214 102.5877 0.0000 0.0000 0.0000
# 4 0.0000 0.0000 0.0000 1.8811 0.0000 0.0000
# 5 0.0000 0.0000 0.0000 0.0000 24.9368 0.0000
# 6 0.0000 0.0000 0.0000 0.0000 0.0000 14.1925
#
#
#
# Elastic Compliance Matrix: (Units=1/GPa)
#
#
# Indices 1 2 3 4 5 6 
#
# 1 0.020748 -0.008881 -0.008310 0.000000 0.000000 0.000000
# 2 -0.008881 0.025587 -0.003137 0.000000 0.000000 0.000000
# 3 -0.008310 -0.003137 0.015133 0.000000 0.000000 0.000000
# 4 0.000000 0.000000 0.000000 0.531607 0.000000 0.000000
# 5 0.000000 0.000000 0.000000 0.000000 0.040101 0.000000
# 6 0.000000 0.000000 0.000000 0.000000 0.000000 0.070460
#
#
# Mechanical properties :
#
#
# Convention : Reuss Voigt Hill
#
# Bulk Modulus (GPa) = 48.04982 54.31869 51.18425
# Shear Modulus (GPa) = 6.65577 16.28887 11.47232
#
# Velocity S-wave (km/s) = 2.23683 3.49929 2.93670
# Velocity P-wave (km/s) = 6.54158 7.56044 7.06939
#
# Compressibility (1/GPa) = 0.02081173
#
# Stress axis : x y z
#
# Youngs Moduli (GPa) = 48.19703 39.08309 66.08165
#
# Poissons Ratio (x) = 0.34711 0.54914
# Poissons Ratio (y) = 0.42805 0.20727
# Poissons Ratio (z) = 0.40052 0.12259
#
# Static dielectric constant tensor:
#      x y z
#    x 2.735610 0.000000 0.000000 
#    y 0.000000 2.368150 0.000000 
#    z 0.000000 0.000000 2.681130 
# 
# 
# High freq. dielectric constant tensor:
#      x y z
#    x 1.511290 0.000000 0.000000 
#    y 0.000000 1.458110 0.000000 
#    z 0.000000 0.000000 1.494850 
# 
# From -- ./inp_files/29841.got.cif
#   From: 2010.03.12/outbox.cif.g09.slc.cpg/sg47_15_cif.got.tgz:29841.got - 2010.04.14 03:12:58.
