data_PCOD8194192
_publ_section_title
;
Structure prediction by ZEFSAII (Michael W. Deem and Ramdas Pophale) SiO2 
 PCOD8194192
Probable space group: P M M M
;
_chemical_formula_sum "Si O2"
_cell_formula_units_Z 40
_cell_length_a 14.403536
_cell_length_b 9.109861
_cell_length_c 20.783199
_cell_angle_alpha 90.000000
_cell_angle_beta 90.000000
_cell_angle_gamma 90.000000
_cell_volume 2727.051056
_symmetry_space_group_name_H-M "P M M M"
_symmetry_group_IT_number 47
_symmetry_cell_setting 'orthorhombic'
loop_
_space_group_symop_operation_xyz
x,y,z
-x,-y,z
x,-y,-z
-x,y,-z
-x,-y,-z
x,y,-z
-x,y,z
x,-y,z
loop_
_atom_site_type_symbol
_atom_site_label
_atom_site_fract_x
_atom_site_fract_y
_atom_site_fract_z
Si Si1 0.607237 0.829056 0.251282
Si Si2 0.390454 0.330449 0.500000
Si Si3 0.610544 0.665562 0.124753
Si Si4 0.899335 0.826105 0.427715
Si Si5 0.389210 0.165799 0.000000
Si Si6 0.294977 0.826143 0.381505
O O1 0.500000 0.791431 0.264856
O O2 0.646321 0.741794 0.189872
O O3 0.665752 0.777136 0.312721
O O4 0.620596 0.000000 0.236704
O O5 0.360533 0.500000 0.500000
O O6 0.500000 0.311436 0.500000
O O7 0.351899 0.253715 0.563383
O O8 0.500000 0.668730 0.123292
O O9 0.648504 0.500000 0.122276
O O10 0.649871 0.752456 0.063122
O O11 0.882913 0.766019 0.500000
O O12 0.813172 0.775195 0.383612
O O13 0.000000 0.768341 0.401658
O O14 0.901820 0.000000 0.429857
O O15 0.500000 0.167564 0.000000
O O16 0.351440 0.000000 0.000000
O O17 0.306136 0.000000 0.392117
#
# Coordination Sequence:
#
# PCOD8194192 Si02
#       6
#     8   4   8   8   4   8
#     4   9  17  27  38  54  76 102 134 169 200 231
#     4  11  23  33  40  55  80 106 133 169 210 245
#     4   9  16  25  37  53  74 102 134 164 196 235
#     4   8  13  23  42  66  84  96 120 164 212 252
#     4   9  15  23  37  55  75  99 130 169 202 225
#     4  10  18  30  47  62  76 102 138 171 203 244
#
# _framework density 14.667859999999999
#
# number of rings (size 3 to 8) (size 9 to 14) (size 15 to 20)
#    0.000    2.800    1.000    2.400    0.000    6.000 
#    0.000    2.000    0.000    1.200    0.000    0.000 
#    0.000    0.000    0.000    0.900    0.000   21.300 
#
# Total GULP energy -495805.366320 kJ/mol
# GULP energy per Si atom -12395.134158 kJ/mol
# Density = 1.463447 g / cm^3
# Si number density = 14.667860 Si / 1000 Ang^3
#
#
#
# Elastic Constant Matrix: (Units=GPa)
#
#
# Indices 1 2 3 4 5 6 
#
# 1 66.8173 26.0366 51.6892 0.0000 0.0000 0.0000
# 2 26.0366 71.1545 61.2352 0.0000 0.0000 0.0000
# 3 51.6892 61.2352 143.9494 0.0000 0.0000 0.0000
# 4 0.0000 0.0000 0.0000 13.7380 0.0000 0.0000
# 5 0.0000 0.0000 0.0000 0.0000 2.0754 0.0000
# 6 0.0000 0.0000 0.0000 0.0000 0.0000 6.6284
#
#
#
# Elastic Compliance Matrix: (Units=1/GPa)
#
#
# Indices 1 2 3 4 5 6 
#
# 1 0.020880 -0.001874 -0.006700 0.000000 0.000000 0.000000
# 2 -0.001874 0.022338 -0.008830 0.000000 0.000000 0.000000
# 3 -0.006700 -0.008830 0.013109 0.000000 0.000000 0.000000
# 4 0.000000 0.000000 0.000000 0.072791 0.000000 0.000000
# 5 0.000000 0.000000 0.000000 0.000000 0.481845 0.000000
# 6 0.000000 0.000000 0.000000 0.000000 0.000000 0.150866
#
#
# Mechanical properties :
#
#
# Convention : Reuss Voigt Hill
#
# Bulk Modulus (GPa) = 46.47041 62.20481 54.33761
# Shear Modulus (GPa) = 6.22038 14.01903 10.11970
#
# Velocity S-wave (km/s) = 2.06156 3.09490 2.62949
# Velocity P-wave (km/s) = 6.11697 7.43453 6.80770
#
# Compressibility (1/GPa) = 0.02151907
#
# Stress axis : x y z
#
# Youngs Moduli (GPa) = 47.89343 44.76579 76.28392
#
# Poissons Ratio (x) = 0.08389 0.51112
# Poissons Ratio (y) = 0.08975 0.67357
# Poissons Ratio (z) = 0.32090 0.39527
#
# Static dielectric constant tensor:
#      x y z
#    x 2.832540 0.000000 0.000000 
#    y 0.000000 2.796890 0.000000 
#    z 0.000000 0.000000 2.938400 
# 
# 
# High freq. dielectric constant tensor:
#      x y z
#    x 1.517980 0.000000 0.000000 
#    y 0.000000 1.552300 0.000000 
#    z 0.000000 0.000000 1.557960 
# 
# From -- ./inp_files/21242.got.cif
#   From: 2010.03.12/outbox.cif.g09.slc.cpg/sg47_11_cif.got.tgz:21242.got - 2010.04.14 03:12:58.
