data_PCOD8194105
_publ_section_title
;
Structure prediction by ZEFSAII (Michael W. Deem and Ramdas Pophale) SiO2 
 PCOD8194105
Probable space group: P M M M
;
_chemical_formula_sum "Si O2"
_cell_formula_units_Z 52
_cell_length_a 29.621255
_cell_length_b 8.021275
_cell_length_c 11.964539
_cell_angle_alpha 90.000000
_cell_angle_beta 90.000000
_cell_angle_gamma 90.000000
_cell_volume 2842.777245
_symmetry_space_group_name_H-M "P M M M"
_symmetry_group_IT_number 47
_symmetry_cell_setting 'orthorhombic'
loop_
_space_group_symop_operation_xyz
x,y,z
-x,-y,z
x,-y,-z
-x,y,-z
-x,-y,-z
x,y,-z
-x,y,z
x,-y,z
loop_
_atom_site_type_symbol
_atom_site_label
_atom_site_fract_x
_atom_site_fract_y
_atom_site_fract_z
Si Si1 0.799820 0.305806 0.233003
Si Si2 0.889434 0.309824 0.368700
Si Si3 0.319252 0.690294 0.000000
Si Si4 0.715249 0.698836 0.375438
Si Si5 0.222111 0.811976 0.000000
Si Si6 0.638288 0.304398 0.220362
Si Si7 0.050418 0.000000 0.632452
Si Si8 0.449961 0.803272 0.125450
O O1 0.793489 0.500000 0.212707
O O2 0.843116 0.266253 0.307512
O O3 0.755731 0.233601 0.296911
O O4 0.806876 0.221423 0.111895
O O5 0.880230 0.293041 0.500000
O O6 0.905848 0.500000 0.340606
O O7 0.925413 0.171299 0.327415
O O8 0.265397 0.693479 0.000000
O O9 0.339477 0.778705 0.109966
O O10 0.335120 0.500000 0.000000
O O11 0.720343 0.773291 0.500000
O O12 0.717794 0.500000 0.380368
O O13 0.666729 0.762090 0.326823
O O14 0.239313 0.000000 0.000000
O O15 0.644995 0.500000 0.218442
O O16 0.585161 0.260086 0.219751
O O17 0.048293 0.000000 0.500000
O O18 0.000000 0.000000 0.683418
O O19 0.500000 0.736294 0.156921
O O20 0.450389 0.000000 0.125755
O O21 0.437033 0.738923 0.000000
#
# Coordination Sequence:
#
# PCOD8194105 Si02
#       8
#     8   8   4   8   4   8   4   8
#     4  10  19  34  53  72 102 139 173 213 256 302
#     4   9  18  32  53  80 108 144 185 221 266 322
#     4  10  18  32  47  67  96 129 163 199 248 296
#     4   9  17  30  50  73  96 127 166 204 244 294
#     4  12  24  32  46  73 103 137 175 211 249 301
#     4  10  18  29  48  70  94 122 155 197 243 292
#     4   9  18  32  52  79 113 149 181 226 278 315
#     4   9  18  31  46  66  92 120 150 190 243 298
#
# _framework density 18.291969999999999
#
# number of rings (size 3 to 8) (size 9 to 14) (size 15 to 20)
#    0.000    2.385    2.308    1.615    1.077    3.077 
#    0.000    2.308    0.000    1.846    0.000    4.308 
#    0.000    2.462    0.000    0.000    0.000    0.000 
#
# Total GULP energy -644453.673997 kJ/mol
# GULP energy per Si atom -12393.339885 kJ/mol
# Density = 1.825034 g / cm^3
# Si number density = 18.291970 Si / 1000 Ang^3
#
#
#
# Elastic Constant Matrix: (Units=GPa)
#
#
# Indices 1 2 3 4 5 6 
#
# 1 134.4959 40.0354 52.5591 0.0000 0.0000 0.0000
# 2 40.0354 48.0151 27.5237 0.0000 0.0000 0.0000
# 3 52.5591 27.5237 103.2836 0.0000 0.0000 0.0000
# 4 0.0000 0.0000 0.0000 11.9386 0.0000 0.0000
# 5 0.0000 0.0000 0.0000 0.0000 20.4540 0.0000
# 6 0.0000 0.0000 0.0000 0.0000 0.0000 15.2743
#
#
#
# Elastic Compliance Matrix: (Units=1/GPa)
#
#
# Indices 1 2 3 4 5 6 
#
# 1 0.010978 -0.007024 -0.003714 0.000000 0.000000 0.000000
# 2 -0.007024 0.029076 -0.004174 0.000000 0.000000 0.000000
# 3 -0.003714 -0.004174 0.012685 0.000000 0.000000 0.000000
# 4 0.000000 0.000000 0.000000 0.083762 0.000000 0.000000
# 5 0.000000 0.000000 0.000000 0.000000 0.048890 0.000000
# 6 0.000000 0.000000 0.000000 0.000000 0.000000 0.065469
#
#
# Mechanical properties :
#
#
# Convention : Reuss Voigt Hill
#
# Bulk Modulus (GPa) = 43.64262 58.44788 51.04525
# Shear Modulus (GPa) = 17.34170 20.57848 18.96009
#
# Velocity S-wave (km/s) = 3.08238 3.35774 3.22300
# Velocity P-wave (km/s) = 6.04804 6.85964 6.46659
#
# Compressibility (1/GPa) = 0.02291338
#
# Stress axis : x y z
#
# Youngs Moduli (GPa) = 91.09497 34.39251 78.83552
#
# Poissons Ratio (x) = 0.24157 0.29283
# Poissons Ratio (y) = 0.63984 0.32906
# Poissons Ratio (z) = 0.33837 0.14356
#
# Static dielectric constant tensor:
#      x y z
#    x 3.563820 0.000000 0.000000 
#    y 0.000000 3.182120 0.000000 
#    z 0.000000 0.000000 3.424340 
# 
# 
# High freq. dielectric constant tensor:
#      x y z
#    x 1.698740 0.000000 0.000000 
#    y 0.000000 1.693450 0.000000 
#    z 0.000000 0.000000 1.682810 
# 
# From -- ./inp_files/19855.got.cif
#   From: 2010.03.12/outbox.cif.g09.slc.cpg/sg47_10_cif.got.tgz:19855.got - 2010.04.14 03:12:58.
