data_PCOD8194724
_publ_section_title
;
Structure prediction by ZEFSAII (Michael W. Deem and Ramdas Pophale) SiO2 
 PCOD8194724
Probable space group: P M M M
;
_chemical_formula_sum "Si O2"
_cell_formula_units_Z 52
_cell_length_a 9.017142
_cell_length_b 26.814407
_cell_length_c 13.512625
_cell_angle_alpha 90.000000
_cell_angle_beta 90.000000
_cell_angle_gamma 90.000000
_cell_volume 3267.208350
_symmetry_space_group_name_H-M "P M M M"
_symmetry_group_IT_number 47
_symmetry_cell_setting 'orthorhombic'
loop_
_space_group_symop_operation_xyz
x,y,z
-x,-y,z
x,-y,-z
-x,y,-z
-x,-y,-z
x,y,-z
-x,y,z
x,-y,z
loop_
_atom_site_type_symbol
_atom_site_label
_atom_site_fract_x
_atom_site_fract_y
_atom_site_fract_z
Si Si1 0.323165 0.339898 0.612895
Si Si2 0.828160 0.246926 0.700270
Si Si3 0.670195 0.844737 0.389074
Si Si4 0.831295 0.187040 0.110472
Si Si5 0.824236 0.000000 0.113864
Si Si6 0.665997 0.552753 0.382543
Si Si7 0.672844 0.903799 0.801585
O O1 0.273231 0.329251 0.500000
O O2 0.500000 0.339041 0.620469
O O3 0.255353 0.298593 0.684014
O O4 0.261117 0.394417 0.650597
O O5 0.769216 0.203973 0.627727
O O6 0.796843 0.231666 0.813827
O O7 0.000000 0.254692 0.677532
O O8 0.698743 0.865019 0.500000
O O9 0.500000 0.828219 0.374175
O O10 0.709921 0.888717 0.312040
O O11 0.721105 0.141043 0.126969
O O12 0.000000 0.167820 0.125804
O O13 0.807018 0.207913 0.000000
O O14 0.764813 0.952308 0.171596
O O15 0.000000 0.000000 0.118259
O O16 0.768761 0.000000 0.000000
O O17 0.658408 0.555028 0.500000
O O18 0.500000 0.550699 0.339652
O O19 0.746760 0.500000 0.349873
O O20 0.500000 0.914809 0.817280
#
# Coordination Sequence:
#
# PCOD8194724 Si02
#       7
#     8   8   8   8   4   8   8
#     4   9  16  25  38  57  83 114 143 172 208 247
#     4  10  19  28  41  63  87 111 142 177 209 246
#     4   9  18  33  50  66  88 118 146 171 204 246
#     4   9  18  33  49  63  84 114 142 169 209 258
#     4  11  23  37  52  69  92 120 143 167 208 259
#     4   7  10  18  33  52  73 101 140 178 205 236
#     4  10  20  33  51  74  93 110 139 177 210 242
#
# _framework density 15.915729000000001
#
# number of rings (size 3 to 8) (size 9 to 14) (size 15 to 20)
#    0.000    2.846    0.000    3.462    0.000    6.462 
#    0.000    0.385    0.000    2.769    0.000    2.154 
#    0.000    0.615    0.000    7.692    0.000    0.308 
#
# Total GULP energy -644361.730738 kJ/mol
# GULP energy per Si atom -12391.571745 kJ/mol
# Density = 1.587950 g / cm^3
# Si number density = 15.915729 Si / 1000 Ang^3
#
#
#
# Elastic Constant Matrix: (Units=GPa)
#
#
# Indices 1 2 3 4 5 6 
#
# 1 45.8780 42.2444 28.1220 0.0000 0.0000 0.0000
# 2 42.2444 140.0982 55.4966 0.0000 0.0000 0.0000
# 3 28.1220 55.4966 93.9560 0.0000 0.0000 0.0000
# 4 0.0000 0.0000 0.0000 14.9672 0.0000 0.0000
# 5 0.0000 0.0000 0.0000 0.0000 19.6933 0.0000
# 6 0.0000 0.0000 0.0000 0.0000 0.0000 1.4137
#
#
#
# Elastic Compliance Matrix: (Units=1/GPa)
#
#
# Indices 1 2 3 4 5 6 
#
# 1 0.031910 -0.007622 -0.005049 0.000000 0.000000 0.000000
# 2 -0.007622 0.011139 -0.004298 0.000000 0.000000 0.000000
# 3 -0.005049 -0.004298 0.014693 0.000000 0.000000 0.000000
# 4 0.000000 0.000000 0.000000 0.066813 0.000000 0.000000
# 5 0.000000 0.000000 0.000000 0.000000 0.050779 0.000000
# 6 0.000000 0.000000 0.000000 0.000000 0.000000 0.707341
#
#
# Mechanical properties :
#
#
# Convention : Reuss Voigt Hill
#
# Bulk Modulus (GPa) = 42.00943 59.07312 50.54127
# Shear Modulus (GPa) = 5.40806 17.48613 11.44709
#
# Velocity S-wave (km/s) = 1.84535 3.31821 2.68476
# Velocity P-wave (km/s) = 5.56710 7.20260 6.43701
#
# Compressibility (1/GPa) = 0.02380418
#
# Stress axis : x y z
#
# Youngs Moduli (GPa) = 31.33809 89.77766 68.05912
#
# Poissons Ratio (x) = 0.68428 0.34363
# Poissons Ratio (y) = 0.23886 0.29251
# Poissons Ratio (z) = 0.15823 0.38585
#
# Static dielectric constant tensor:
#      x y z
#    x 2.944330 0.000000 0.000000 
#    y 0.000000 3.268350 0.000000 
#    z 0.000000 0.000000 2.928050 
# 
# 
# High freq. dielectric constant tensor:
#      x y z
#    x 1.601100 0.000000 0.000000 
#    y 0.000000 1.611690 0.000000 
#    z 0.000000 0.000000 1.584770 
# 
# From -- ./inp_files/21744.got.cif
#   From: 2010.03.12/outbox.cif.g09.slc.cpg/sg47_11_cif.got.tgz:21744.got - 2010.04.14 03:12:58.
