data_PCOD8194538
_publ_section_title
;
Structure prediction by ZEFSAII (Michael W. Deem and Ramdas Pophale) SiO2 
 PCOD8194538
Probable space group: P M M M
;
_chemical_formula_sum "Si O2"
_cell_formula_units_Z 64
_cell_length_a 19.641404
_cell_length_b 8.905993
_cell_length_c 19.364004
_cell_angle_alpha 90.000000
_cell_angle_beta 90.000000
_cell_angle_gamma 90.000000
_cell_volume 3387.271763
_symmetry_space_group_name_H-M "P M M M"
_symmetry_group_IT_number 47
_symmetry_cell_setting 'orthorhombic'
loop_
_space_group_symop_operation_xyz
x,y,z
-x,-y,z
x,-y,-z
-x,y,-z
-x,-y,-z
x,y,-z
-x,y,z
x,-y,z
loop_
_atom_site_type_symbol
_atom_site_label
_atom_site_fract_x
_atom_site_fract_y
_atom_site_fract_z
Si Si1 0.157788 0.175279 0.810710
Si Si2 0.692096 0.176084 0.818061
Si Si3 0.079859 0.333220 0.076627
Si Si4 0.178776 0.322122 0.579658
Si Si5 0.573220 0.178355 0.423106
Si Si6 0.698090 0.176938 0.660194
Si Si7 0.078655 0.177998 0.675990
Si Si8 0.576750 0.821503 0.078470
O O1 0.231986 0.244473 0.829668
O O2 0.109436 0.205871 0.874802
O O3 0.123010 0.239711 0.741069
O O4 0.166882 0.000000 0.798765
O O5 0.677807 0.213001 0.738505
O O6 0.633777 0.246845 0.868549
O O7 0.692485 0.000000 0.832888
O O8 0.099030 0.500000 0.103727
O O9 0.000000 0.312289 0.074844
O O10 0.109735 0.309912 0.000000
O O11 0.190698 0.270974 0.500000
O O12 0.177774 0.500000 0.584821
O O13 0.235573 0.258166 0.631427
O O14 0.106864 0.256564 0.606580
O O15 0.579467 0.242550 0.500000
O O16 0.500000 0.226049 0.391425
O O17 0.634250 0.247316 0.379832
O O18 0.579124 0.000000 0.423635
O O19 0.709595 0.000000 0.649173
O O20 0.000000 0.224665 0.686721
O O21 0.085536 0.000000 0.668111
O O22 0.500000 0.764767 0.097919
O O23 0.577204 0.000000 0.083159
O O24 0.594708 0.770830 0.000000
#
# Coordination Sequence:
#
# PCOD8194538 Si02
#       8
#     8   8   8   8   8   8   8   8
#     4  10  19  33  52  77 107 135 168 215 263 310
#     4   9  17  28  45  70 100 132 172 216 255 299
#     4   9  19  35  52  72 101 136 173 211 252 305
#     4  11  24  39  55  77 105 137 175 219 266 321
#     4   8  14  24  41  70 102 128 161 207 258 312
#     4  10  18  32  53  75 103 139 175 218 269 319
#     4  10  21  38  59  81 105 135 173 216 266 327
#     4   8  14  25  41  65 103 148 184 212 251 305
#
# _framework density 18.894262000000001
#
# number of rings (size 3 to 8) (size 9 to 14) (size 15 to 20)
#    0.000    2.625    1.250    2.250    0.000    4.500 
#    0.000    5.625    0.000    0.375    0.000    1.750 
#    0.000    0.500    0.000    6.875    0.000    6.000 
#
# Total GULP energy -793031.915874 kJ/mol
# GULP energy per Si atom -12391.123686 kJ/mol
# Density = 1.885126 g / cm^3
# Si number density = 18.894262 Si / 1000 Ang^3
#
#
#
# Elastic Constant Matrix: (Units=GPa)
#
#
# Indices 1 2 3 4 5 6 
#
# 1 133.5923 26.1167 79.5948 0.0000 0.0000 0.0000
# 2 26.1167 17.7896 20.5914 0.0000 0.0000 0.0000
# 3 79.5948 20.5914 110.3486 0.0000 0.0000 0.0000
# 4 0.0000 0.0000 0.0000 17.0613 0.0000 0.0000
# 5 0.0000 0.0000 0.0000 0.0000 44.3926 0.0000
# 6 0.0000 0.0000 0.0000 0.0000 0.0000 7.0749
#
#
#
# Elastic Compliance Matrix: (Units=1/GPa)
#
#
# Indices 1 2 3 4 5 6 
#
# 1 0.014907 -0.012039 -0.008506 0.000000 0.000000 0.000000
# 2 -0.012039 0.081422 -0.006510 0.000000 0.000000 0.000000
# 3 -0.008506 -0.006510 0.016412 0.000000 0.000000 0.000000
# 4 0.000000 0.000000 0.000000 0.058612 0.000000 0.000000
# 5 0.000000 0.000000 0.000000 0.000000 0.022526 0.000000
# 6 0.000000 0.000000 0.000000 0.000000 0.000000 0.141345
#
#
# Mechanical properties :
#
#
# Convention : Reuss Voigt Hill
#
# Bulk Modulus (GPa) = 17.05562 57.14847 37.10205
# Shear Modulus (GPa) = 12.22861 22.73428 17.48144
#
# Velocity S-wave (km/s) = 2.54680 3.47253 3.04505
# Velocity P-wave (km/s) = 4.20651 6.81103 5.66060
#
# Compressibility (1/GPa) = 0.05863169
#
# Stress axis : x y z
#
# Youngs Moduli (GPa) = 67.08326 12.28169 60.93023
#
# Poissons Ratio (x) = 0.14786 0.51826
# Poissons Ratio (y) = 0.80762 0.39664
# Poissons Ratio (z) = 0.57060 0.07995
#
# Static dielectric constant tensor:
#      x y z
#    x 3.854590 0.000000 0.000000 
#    y 0.000000 2.949390 0.000000 
#    z 0.000000 0.000000 3.650560 
# 
# 
# High freq. dielectric constant tensor:
#      x y z
#    x 1.747630 0.000000 0.000000 
#    y 0.000000 1.677670 0.000000 
#    z 0.000000 0.000000 1.738340 
# 
# From -- ./inp_files/28820.got.cif
#   From: 2010.03.12/outbox.cif.g09.slc.cpg/sg47_15_cif.got.tgz:28820.got - 2010.04.14 03:12:58.
