data_PCOD8194813
_publ_section_title
;
Structure prediction by ZEFSAII (Michael W. Deem and Ramdas Pophale) SiO2 
 PCOD8194813
Probable space group: P M M M
;
_chemical_formula_sum "Si O2"
_cell_formula_units_Z 56
_cell_length_a 29.081253
_cell_length_b 13.717525
_cell_length_c 9.154081
_cell_angle_alpha 90.000000
_cell_angle_beta 90.000000
_cell_angle_gamma 90.000000
_cell_volume 3651.771762
_symmetry_space_group_name_H-M "P M M M"
_symmetry_group_IT_number 47
_symmetry_cell_setting 'orthorhombic'
loop_
_space_group_symop_operation_xyz
x,y,z
-x,-y,z
x,-y,-z
-x,y,-z
-x,-y,-z
x,y,-z
-x,y,z
x,-y,z
loop_
_atom_site_type_symbol
_atom_site_label
_atom_site_fract_x
_atom_site_fract_y
_atom_site_fract_z
Si Si1 0.551034 0.723242 0.330769
Si Si2 0.050737 0.115933 0.335888
Si Si3 0.596837 0.109600 0.170620
Si Si4 0.310756 0.220322 0.828225
Si Si5 0.862697 0.884302 0.163305
Si Si6 0.359189 0.611870 0.671222
Si Si7 0.771487 0.113434 0.328213
O O1 0.555667 0.747832 0.500000
O O2 0.500000 0.683041 0.293022
O O3 0.558698 0.824496 0.247410
O O4 0.588803 0.642946 0.284701
O O5 0.059087 0.154889 0.500000
O O6 0.090132 0.159435 0.230685
O O7 0.000000 0.148861 0.280433
O O8 0.053655 0.000000 0.336909
O O9 0.647719 0.147332 0.207725
O O10 0.592538 0.000000 0.230756
O O11 0.587155 0.114160 0.000000
O O12 0.322299 0.326433 0.762787
O O13 0.266258 0.178568 0.750130
O O14 0.301494 0.229863 0.000000
O O15 0.820409 0.852297 0.264876
O O16 0.865888 0.000000 0.157980
O O17 0.856203 0.842105 0.000000
O O18 0.350482 0.629118 0.500000
O O19 0.352722 0.500000 0.715323
O O20 0.770928 0.133598 0.500000
O O21 0.762220 0.000000 0.292929
#
# Coordination Sequence:
#
# PCOD8194813 Si02
#       7
#     8   8   8   8   8   8   8
#     4   9  18  31  46  66  89 110 135 167 201 237
#     4   8  13  21  32  45  64  94 133 176 218 255
#     4   9  18  31  45  61  83 112 141 167 198 238
#     4  10  19  31  47  65  85 107 135 171 208 248
#     4   9  16  24  34  50  73 101 135 175 215 252
#     4   9  18  33  51  68  86 108 134 165 202 246
#     4  10  19  29  42  60  83 111 141 173 210 252
#
# _framework density 15.335022
#
# number of rings (size 3 to 8) (size 9 to 14) (size 15 to 20)
#    0.000    2.857    0.000    2.143    0.000    5.429 
#    0.000    4.286    0.000    0.000    0.000    4.000 
#    0.000    0.000    0.000    0.000    0.000    0.714 
#
# Total GULP energy -694267.031058 kJ/mol
# GULP energy per Si atom -12397.625555 kJ/mol
# Density = 1.530012 g / cm^3
# Si number density = 15.335022 Si / 1000 Ang^3
#
#
#
# Elastic Constant Matrix: (Units=GPa)
#
#
# Indices 1 2 3 4 5 6 
#
# 1 119.4360 38.6167 56.8595 0.0000 0.0000 0.0000
# 2 38.6167 69.4438 36.3523 0.0000 0.0000 0.0000
# 3 56.8595 36.3523 76.7553 0.0000 0.0000 0.0000
# 4 0.0000 0.0000 0.0000 17.6249 0.0000 0.0000
# 5 0.0000 0.0000 0.0000 0.0000 27.7852 0.0000
# 6 0.0000 0.0000 0.0000 0.0000 0.0000 9.1412
#
#
#
# Elastic Compliance Matrix: (Units=1/GPa)
#
#
# Indices 1 2 3 4 5 6 
#
# 1 0.013387 -0.002996 -0.008498 0.000000 0.000000 0.000000
# 2 -0.002996 0.019818 -0.007167 0.000000 0.000000 0.000000
# 3 -0.008498 -0.007167 0.022718 0.000000 0.000000 0.000000
# 4 0.000000 0.000000 0.000000 0.056738 0.000000 0.000000
# 5 0.000000 0.000000 0.000000 0.000000 0.035990 0.000000
# 6 0.000000 0.000000 0.000000 0.000000 0.000000 0.109395
#
#
# Mechanical properties :
#
#
# Convention : Reuss Voigt Hill
#
# Bulk Modulus (GPa) = 53.75905 58.81022 56.28463
# Shear Modulus (GPa) = 16.58007 19.83070 18.20539
#
# Velocity S-wave (km/s) = 3.29171 3.59996 3.44928
# Velocity P-wave (km/s) = 7.04128 7.46412 7.25578
#
# Compressibility (1/GPa) = 0.01860152
#
# Stress axis : x y z
#
# Youngs Moduli (GPa) = 74.69970 50.46019 44.01815
#
# Poissons Ratio (x) = 0.15117 0.37407
# Poissons Ratio (y) = 0.22378 0.31546
# Poissons Ratio (z) = 0.63480 0.36163
#
# Static dielectric constant tensor:
#      x y z
#    x 3.076520 0.000000 0.000000 
#    y 0.000000 2.625590 0.000000 
#    z 0.000000 0.000000 3.058680 
# 
# 
# High freq. dielectric constant tensor:
#      x y z
#    x 1.591060 0.000000 0.000000 
#    y 0.000000 1.533560 0.000000 
#    z 0.000000 0.000000 1.596540 
# 
# From -- ./inp_files/14225.got.cif
#   From: 2010.03.12/outbox.cif.g09.slc.cpg/sg47_8_cif.got.tgz:14225.got - 2010.04.14 03:12:58.
