data_PCOD8194080
_publ_section_title
;
Structure prediction by ZEFSAII (Michael W. Deem and Ramdas Pophale) SiO2 
 PCOD8194080
Probable space group: P M M M
;
_chemical_formula_sum "Si O2"
_cell_formula_units_Z 56
_cell_length_a 9.761096
_cell_length_b 25.801547
_cell_length_c 14.124928
_cell_angle_alpha 90.000000
_cell_angle_beta 90.000000
_cell_angle_gamma 90.000000
_cell_volume 3557.382570
_symmetry_space_group_name_H-M "P M M M"
_symmetry_group_IT_number 47
_symmetry_cell_setting 'orthorhombic'
loop_
_space_group_symop_operation_xyz
x,y,z
-x,-y,z
x,-y,-z
-x,y,-z
-x,-y,-z
x,y,-z
-x,y,z
x,-y,z
loop_
_atom_site_type_symbol
_atom_site_label
_atom_site_fract_x
_atom_site_fract_y
_atom_site_fract_z
Si Si1 0.342190 0.851204 0.109547
Si Si2 0.657578 0.558288 0.233948
Si Si3 0.662370 0.651466 0.105403
Si Si4 0.339098 0.749261 0.226286
Si Si5 0.843871 0.598752 0.391941
Si Si6 0.846148 0.942745 0.887544
Si Si7 0.842215 0.280934 0.392104
O O1 0.500000 0.866120 0.122073
O O2 0.303488 0.800167 0.167083
O O3 0.255896 0.899101 0.152366
O O4 0.306742 0.840334 0.000000
O O5 0.500000 0.570338 0.259369
O O6 0.674678 0.500000 0.194375
O O7 0.711316 0.598115 0.154329
O O8 0.744336 0.564032 0.329187
O O9 0.500000 0.653622 0.097836
O O10 0.714771 0.700232 0.166040
O O11 0.726468 0.653859 0.000000
O O12 0.500000 0.744849 0.248684
O O13 0.256612 0.752178 0.324515
O O14 0.823039 0.581438 0.500000
O O15 0.805919 0.658829 0.379707
O O16 0.000000 0.588874 0.360350
O O17 0.000000 0.929685 0.853585
O O18 0.803089 0.000000 0.850058
O O19 0.838871 0.942970 0.000000
O O20 0.814682 0.263551 0.500000
O O21 0.000000 0.270555 0.365021
#
# Coordination Sequence:
#
# PCOD8194080 Si02
#       7
#     8   8   8   8   8   8   8
#     4   9  17  27  40  63  94 124 155 190 224 260
#     4  10  20  32  47  69  91 111 143 185 223 261
#     4   9  17  30  47  65  87 116 147 180 219 261
#     4  10  18  29  47  69  91 117 149 183 221 265
#     4   9  18  33  51  68  87 113 142 172 216 275
#     4   8  14  25  40  58  84 121 162 197 226 258
#     4   9  18  32  49  68  89 113 142 178 221 269
#
# _framework density 15.741911999999999
#
# number of rings (size 3 to 8) (size 9 to 14) (size 15 to 20)
#    0.000    2.857    1.429    1.714    0.000    4.000 
#    0.000    5.714    0.000    2.571    0.000    1.000 
#    0.000    0.571    0.000    6.286    0.000    4.857 
#
# Total GULP energy -694299.363110 kJ/mol
# GULP energy per Si atom -12398.202913 kJ/mol
# Density = 1.570608 g / cm^3
# Si number density = 15.741912 Si / 1000 Ang^3
#
#
#
# Elastic Constant Matrix: (Units=GPa)
#
#
# Indices 1 2 3 4 5 6 
#
# 1 58.5897 52.6842 42.2319 0.0000 0.0000 0.0000
# 2 52.6842 116.6424 46.7916 0.0000 0.0000 0.0000
# 3 42.2319 46.7916 81.1537 0.0000 0.0000 0.0000
# 4 0.0000 0.0000 0.0000 13.3471 0.0000 0.0000
# 5 0.0000 0.0000 0.0000 0.0000 18.4754 0.0000
# 6 0.0000 0.0000 0.0000 0.0000 0.0000 24.4026
#
#
#
# Elastic Compliance Matrix: (Units=1/GPa)
#
#
# Indices 1 2 3 4 5 6 
#
# 1 0.036155 -0.011425 -0.012227 0.000000 0.000000 0.000000
# 2 -0.011425 0.014763 -0.002567 0.000000 0.000000 0.000000
# 3 -0.012227 -0.002567 0.020165 0.000000 0.000000 0.000000
# 4 0.000000 0.000000 0.000000 0.074922 0.000000 0.000000
# 5 0.000000 0.000000 0.000000 0.000000 0.054126 0.000000
# 6 0.000000 0.000000 0.000000 0.000000 0.000000 0.040979
#
#
# Mechanical properties :
#
#
# Convention : Reuss Voigt Hill
#
# Bulk Modulus (GPa) = 53.63306 59.97793 56.80550
# Shear Modulus (GPa) = 16.67975 18.89021 17.78498
#
# Velocity S-wave (km/s) = 3.25864 3.46785 3.36487
# Velocity P-wave (km/s) = 6.95000 7.36330 7.15963
#
# Compressibility (1/GPa) = 0.01864522
#
# Stress axis : x y z
#
# Youngs Moduli (GPa) = 27.65865 67.73562 49.59046
#
# Poissons Ratio (x) = 0.77389 0.60636
# Poissons Ratio (y) = 0.31601 0.12728
# Poissons Ratio (z) = 0.33819 0.17385
#
# Static dielectric constant tensor:
#      x y z
#    x 2.897360 0.000000 0.000000 
#    y 0.000000 3.056450 0.000000 
#    z 0.000000 0.000000 2.868390 
# 
# 
# High freq. dielectric constant tensor:
#      x y z
#    x 1.592770 0.000000 0.000000 
#    y 0.000000 1.597290 0.000000 
#    z 0.000000 0.000000 1.580160 
# 
# From -- ./inp_files/16546.got.cif
#   From: 2010.03.12/outbox.cif.g09.slc.cpg/sg47_9_cif.got.tgz:16546.got - 2010.04.14 03:12:58.
