data_PCOD8194767
_publ_section_title
;
Structure prediction by ZEFSAII (Michael W. Deem and Ramdas Pophale) SiO2 
 PCOD8194767
Probable space group: P M M M
;
_chemical_formula_sum "Si O2"
_cell_formula_units_Z 40
_cell_length_a 8.962010
_cell_length_b 19.539057
_cell_length_c 15.739622
_cell_angle_alpha 90.000000
_cell_angle_beta 90.000000
_cell_angle_gamma 90.000000
_cell_volume 2756.152998
_symmetry_space_group_name_H-M "P M M M"
_symmetry_group_IT_number 47
_symmetry_cell_setting 'orthorhombic'
loop_
_space_group_symop_operation_xyz
x,y,z
-x,-y,z
x,-y,-z
-x,y,-z
-x,-y,-z
x,y,-z
-x,y,z
x,-y,z
loop_
_atom_site_type_symbol
_atom_site_label
_atom_site_fract_x
_atom_site_fract_y
_atom_site_fract_z
Si Si1 0.821896 0.423372 0.681859
Si Si2 0.176913 0.343037 0.154278
Si Si3 0.327578 0.580766 0.000000
Si Si4 0.832419 0.924922 0.100875
Si Si5 0.671616 0.790938 0.100332
Si Si6 0.836601 0.418757 0.500000
O O1 0.764202 0.500000 0.703658
O O2 0.768530 0.371823 0.754914
O O3 0.755899 0.398303 0.589460
O O4 0.000000 0.424549 0.675378
O O5 0.250630 0.389409 0.082846
O O6 0.230188 0.265116 0.148423
O O7 0.000000 0.346750 0.143481
O O8 0.307306 0.500000 0.000000
O O9 0.500000 0.603236 0.000000
O O10 0.722899 0.865509 0.134017
O O11 0.000000 0.910337 0.133741
O O12 0.778428 0.000000 0.133570
O O13 0.831450 0.925080 0.000000
O O14 0.500000 0.780768 0.124198
O O15 0.698812 0.782913 0.000000
O O16 0.853811 0.500000 0.500000
O O17 0.000000 0.384236 0.500000
#
# Coordination Sequence:
#
# PCOD8194767 Si02
#       6
#     8   8   4   8   8   4
#     4   8  14  24  39  60  81 100 127 164 208 253
#     4  11  20  29  43  60  79 105 138 174 205 238
#     4  11  23  35  43  53  74 105 140 175 211 245
#     4   8  14  25  41  59  77  98 129 168 205 238
#     4  10  19  29  40  54  78 109 140 170 201 239
#     4   7  10  20  38  58  81 101 116 151 208 259
#
# _framework density 14.512983
#
# number of rings (size 3 to 8) (size 9 to 14) (size 15 to 20)
#    0.000    2.800    1.000    3.900    0.000    2.800 
#    0.000    2.000    0.000    0.000    0.000    2.800 
#    0.000   11.200    0.000    0.900    0.000   20.600 
#
# Total GULP energy -495637.556935 kJ/mol
# GULP energy per Si atom -12390.938923 kJ/mol
# Density = 1.447995 g / cm^3
# Si number density = 14.512983 Si / 1000 Ang^3
#
#
#
# Elastic Constant Matrix: (Units=GPa)
#
#
# Indices 1 2 3 4 5 6 
#
# 1 57.1571 39.3498 31.6190 0.0000 0.0000 0.0000
# 2 39.3498 99.7059 47.7734 0.0000 0.0000 0.0000
# 3 31.6190 47.7734 97.1948 0.0000 0.0000 0.0000
# 4 0.0000 0.0000 0.0000 6.6650 0.0000 0.0000
# 5 0.0000 0.0000 0.0000 0.0000 0.4223 0.0000
# 6 0.0000 0.0000 0.0000 0.0000 0.0000 20.4825
#
#
#
# Elastic Compliance Matrix: (Units=1/GPa)
#
#
# Indices 1 2 3 4 5 6 
#
# 1 0.025359 -0.007921 -0.004356 0.000000 0.000000 0.000000
# 2 -0.007921 0.015593 -0.005088 0.000000 0.000000 0.000000
# 3 -0.004356 -0.005088 0.014207 0.000000 0.000000 0.000000
# 4 0.000000 0.000000 0.000000 0.150037 0.000000 0.000000
# 5 0.000000 0.000000 0.000000 0.000000 2.367846 0.000000
# 6 0.000000 0.000000 0.000000 0.000000 0.000000 0.048822
#
#
# Mechanical properties :
#
#
# Convention : Reuss Voigt Hill
#
# Bulk Modulus (GPa) = 48.95039 54.61583 51.78311
# Shear Modulus (GPa) = 1.87730 14.53500 8.20615
#
# Velocity S-wave (km/s) = 1.13857 3.16811 2.38047
# Velocity P-wave (km/s) = 5.96073 7.14819 6.58130
#
# Compressibility (1/GPa) = 0.02042885
#
# Stress axis : x y z
#
# Youngs Moduli (GPa) = 39.43443 64.13062 70.39019
#
# Poissons Ratio (x) = 0.50796 0.30665
# Poissons Ratio (y) = 0.31235 0.35812
# Poissons Ratio (z) = 0.17179 0.32628
#
# Static dielectric constant tensor:
#      x y z
#    x 2.712240 0.000000 0.000000 
#    y 0.000000 2.980970 0.000000 
#    z 0.000000 0.000000 2.916270 
# 
# 
# High freq. dielectric constant tensor:
#      x y z
#    x 1.540000 0.000000 0.000000 
#    y 0.000000 1.548120 0.000000 
#    z 0.000000 0.000000 1.519550 
# 
# From -- ./inp_files/10824.got.cif
#   From: 2010.03.12/outbox.cif.g09.slc.cpg/sg47_6_cif.got.tgz:10824.got - 2010.04.14 03:12:58.
