data_PCOD8194977
_publ_section_title
;
Structure prediction by ZEFSAII (Michael W. Deem and Ramdas Pophale) SiO2 
 PCOD8194977
Probable space group: P M M M
;
_chemical_formula_sum "Si O2"
_cell_formula_units_Z 44
_cell_length_a 9.081571
_cell_length_b 12.540535
_cell_length_c 24.819023
_cell_angle_alpha 90.000000
_cell_angle_beta 90.000000
_cell_angle_gamma 90.000000
_cell_volume 2826.582910
_symmetry_space_group_name_H-M "P M M M"
_symmetry_group_IT_number 47
_symmetry_cell_setting 'orthorhombic'
loop_
_space_group_symop_operation_xyz
x,y,z
-x,-y,z
x,-y,-z
-x,y,-z
-x,-y,-z
x,y,-z
-x,y,z
x,-y,z
loop_
_atom_site_type_symbol
_atom_site_label
_atom_site_fract_x
_atom_site_fract_y
_atom_site_fract_z
Si Si1 0.835331 0.126803 0.161683
Si Si2 0.174793 0.000000 0.560223
Si Si3 0.331281 0.623657 0.438113
Si Si4 0.825540 0.798041 0.627807
Si Si5 0.327096 0.875974 0.731367
Si Si6 0.334486 0.873191 0.059305
O O1 0.735446 0.164189 0.211541
O O2 0.769005 0.174500 0.106159
O O3 0.000000 0.171834 0.169039
O O4 0.837076 0.000000 0.158652
O O5 0.231882 0.104477 0.591044
O O6 0.241645 0.000000 0.500000
O O7 0.000000 0.000000 0.557675
O O8 0.290605 0.647746 0.500000
O O9 0.500000 0.656377 0.426755
O O10 0.307050 0.500000 0.425079
O O11 0.222145 0.688511 0.399941
O O12 0.750473 0.805898 0.685841
O O13 0.000000 0.800565 0.635244
O O14 0.500000 0.855044 0.730486
O O15 0.288779 0.000000 0.721833
O O16 0.500000 0.830664 0.068409
O O17 0.334965 0.000000 0.062622
O O18 0.276997 0.837158 0.000000
#
# Coordination Sequence:
#
# PCOD8194977 Si02
#       6
#     8   4   8   8   8   8
#     4   9  16  24  35  51  72  99 134 175 217 255
#     4   9  18  30  43  63  91 117 136 165 214 261
#     4   9  19  36  54  70  90 115 143 177 216 259
#     4  11  20  31  48  68  92 116 143 179 218 262
#     4  10  19  30  43  58  81 112 146 178 213 260
#     4   8  13  21  32  46  66  94 130 171 213 254
#
# _framework density 15.5665
#
# number of rings (size 3 to 8) (size 9 to 14) (size 15 to 20)
#    0.000    2.636    0.909    3.273    0.000    4.727 
#    0.000    2.727    0.000    2.182    0.000    0.000 
#    0.000    0.000    0.000    0.000    0.000    0.909 
#
# Total GULP energy -545534.238261 kJ/mol
# GULP energy per Si atom -12398.505415 kJ/mol
# Density = 1.553107 g / cm^3
# Si number density = 15.566500 Si / 1000 Ang^3
#
#
#
# Elastic Constant Matrix: (Units=GPa)
#
#
# Indices 1 2 3 4 5 6 
#
# 1 90.8972 25.0054 62.0242 0.0000 0.0000 0.0000
# 2 25.0054 38.4052 32.9283 0.0000 0.0000 0.0000
# 3 62.0242 32.9283 138.6807 0.0000 0.0000 0.0000
# 4 0.0000 0.0000 0.0000 9.9705 0.0000 0.0000
# 5 0.0000 0.0000 0.0000 0.0000 30.3231 0.0000
# 6 0.0000 0.0000 0.0000 0.0000 0.0000 16.7054
#
#
#
# Elastic Compliance Matrix: (Units=1/GPa)
#
#
# Indices 1 2 3 4 5 6 
#
# 1 0.016750 -0.005629 -0.006155 0.000000 0.000000 0.000000
# 2 -0.005629 0.034585 -0.005695 0.000000 0.000000 0.000000
# 3 -0.006155 -0.005695 0.011316 0.000000 0.000000 0.000000
# 4 0.000000 0.000000 0.000000 0.100296 0.000000 0.000000
# 5 0.000000 0.000000 0.000000 0.000000 0.032978 0.000000
# 6 0.000000 0.000000 0.000000 0.000000 0.000000 0.059861
#
#
# Mechanical properties :
#
#
# Convention : Reuss Voigt Hill
#
# Bulk Modulus (GPa) = 36.10786 56.43323 46.27055
# Shear Modulus (GPa) = 16.66819 21.26814 18.96816
#
# Velocity S-wave (km/s) = 3.27582 3.70033 3.49452
# Velocity P-wave (km/s) = 6.12815 7.38839 6.78758
#
# Compressibility (1/GPa) = 0.02769480
#
# Stress axis : x y z
#
# Youngs Moduli (GPa) = 59.70323 28.91394 88.37364
#
# Poissons Ratio (x) = 0.16274 0.54391
# Poissons Ratio (y) = 0.33604 0.50325
# Poissons Ratio (z) = 0.36745 0.16465
#
# Static dielectric constant tensor:
#      x y z
#    x 3.005940 0.000000 0.000000 
#    y 0.000000 2.453320 0.000000 
#    z 0.000000 0.000000 3.187770 
# 
# 
# High freq. dielectric constant tensor:
#      x y z
#    x 1.602190 0.000000 0.000000 
#    y 0.000000 1.526700 0.000000 
#    z 0.000000 0.000000 1.610200 
# 
# From -- ./inp_files/4291.got.cif
#   From: 2010.03.12/outbox.cif.g09.slc.cpg/sg47_3_cif.got.tgz:4291.got - 2010.04.14 03:12:58.
