data_PCOD8194277
_publ_section_title
;
Structure prediction by ZEFSAII (Michael W. Deem and Ramdas Pophale) SiO2 
 PCOD8194277
Probable space group: P M M M
;
_chemical_formula_sum "Si O2"
_cell_formula_units_Z 48
_cell_length_a 14.004261
_cell_length_b 12.589798
_cell_length_c 15.030559
_cell_angle_alpha 90.000000
_cell_angle_beta 90.000000
_cell_angle_gamma 90.000000
_cell_volume 2650.050139
_symmetry_space_group_name_H-M "P M M M"
_symmetry_group_IT_number 47
_symmetry_cell_setting 'orthorhombic'
loop_
_space_group_symop_operation_xyz
x,y,z
-x,-y,z
x,-y,-z
-x,y,-z
-x,-y,-z
x,y,-z
-x,y,z
x,-y,z
loop_
_atom_site_type_symbol
_atom_site_label
_atom_site_fract_x
_atom_site_fract_y
_atom_site_fract_z
Si Si1 0.108221 0.753405 0.664805
Si Si2 0.610189 0.375220 0.766329
Si Si3 0.886732 0.114507 0.500000
Si Si4 0.392687 0.000000 0.894252
Si Si5 0.107462 0.874698 0.847541
Si Si6 0.272585 0.376195 0.600352
Si Si7 0.296951 0.786151 0.899820
O O1 0.148387 0.826088 0.586631
O O2 0.116906 0.827002 0.749932
O O3 0.178216 0.653107 0.658356
O O4 0.000000 0.712773 0.650793
O O5 0.500000 0.344112 0.780703
O O6 0.627493 0.500000 0.783952
O O7 0.638289 0.345277 0.664356
O O8 0.675437 0.311885 0.836991
O O9 0.000000 0.104679 0.500000
O O10 0.837600 0.000000 0.500000
O O11 0.343260 0.107024 0.858382
O O12 0.500000 0.000000 0.858725
O O13 0.386065 0.000000 0.000000
O O14 0.182967 0.808511 0.906043
O O15 0.000000 0.856816 0.884875
O O16 0.131582 0.000000 0.847065
O O17 0.280736 0.325216 0.500000
O O18 0.268045 0.500000 0.586360
O O19 0.333384 0.761522 0.000000
#
# Coordination Sequence:
#
# PCOD8194277 Si02
#       7
#     8   8   4   4   8   8   8
#     4  10  18  30  49  74 105 142 180 220 264 314
#     4  10  22  40  60  81 106 139 181 228 277 327
#     4   9  16  26  43  69 100 133 171 213 255 302
#     4   9  18  32  51  79 110 138 172 219 275 327
#     4  10  20  34  53  79 113 150 186 222 264 320
#     4  10  20  34  54  80 107 136 173 217 268 325
#     4  11  21  35  57  83 111 143 181 226 274 326
#
# _framework density 18.112863999999998
#
# number of rings (size 3 to 8) (size 9 to 14) (size 15 to 20)
#    0.000    2.000    3.333    1.000    0.000    4.333 
#    0.000    4.167    0.000    0.500    0.000    1.167 
#    0.000    4.000    0.000    0.000    0.000    0.000 
#
# Total GULP energy -594807.124283 kJ/mol
# GULP energy per Si atom -12391.815089 kJ/mol
# Density = 1.807164 g / cm^3
# Si number density = 18.112864 Si / 1000 Ang^3
#
#
#
# Elastic Constant Matrix: (Units=GPa)
#
#
# Indices 1 2 3 4 5 6 
#
# 1 103.4651 39.4154 28.6092 0.0000 0.0000 0.0000
# 2 39.4154 53.6538 38.1795 0.0000 0.0000 0.0000
# 3 28.6092 38.1795 76.3432 0.0000 0.0000 0.0000
# 4 0.0000 0.0000 0.0000 19.0344 0.0000 0.0000
# 5 0.0000 0.0000 0.0000 0.0000 25.4017 0.0000
# 6 0.0000 0.0000 0.0000 0.0000 0.0000 27.8964
#
#
#
# Elastic Compliance Matrix: (Units=1/GPa)
#
#
# Indices 1 2 3 4 5 6 
#
# 1 0.013422 -0.009751 -0.000153 0.000000 0.000000 0.000000
# 2 -0.009751 0.036019 -0.014359 0.000000 0.000000 0.000000
# 3 -0.000153 -0.014359 0.020337 0.000000 0.000000 0.000000
# 4 0.000000 0.000000 0.000000 0.052537 0.000000 0.000000
# 5 0.000000 0.000000 0.000000 0.000000 0.039367 0.000000
# 6 0.000000 0.000000 0.000000 0.000000 0.000000 0.035847
#
#
# Mechanical properties :
#
#
# Convention : Reuss Voigt Hill
#
# Bulk Modulus (GPa) = 47.05562 49.54116 48.29839
# Shear Modulus (GPa) = 19.75184 22.95034 21.35109
#
# Velocity S-wave (km/s) = 3.30583 3.56346 3.43706
# Velocity P-wave (km/s) = 6.37235 6.65896 6.51723
#
# Compressibility (1/GPa) = 0.02125145
#
# Stress axis : x y z
#
# Youngs Moduli (GPa) = 74.50312 27.76288 49.17085
#
# Poissons Ratio (x) = 0.27072 0.00754
# Poissons Ratio (y) = 0.72650 0.70605
# Poissons Ratio (z) = 0.01142 0.39865
#
# Static dielectric constant tensor:
#      x y z
#    x 3.438410 0.000000 0.000000 
#    y 0.000000 3.315400 0.000000 
#    z 0.000000 0.000000 3.346520 
# 
# 
# High freq. dielectric constant tensor:
#      x y z
#    x 1.698660 0.000000 0.000000 
#    y 0.000000 1.690210 0.000000 
#    z 0.000000 0.000000 1.698320 
# 
# From -- ./inp_files/23570.got.cif
#   From: 2010.03.12/outbox.cif.g09.slc.cpg/sg47_12_cif.got.tgz:23570.got - 2010.04.14 03:12:58.
