data_PCOD8194672
_publ_section_title
;
Structure prediction by ZEFSAII (Michael W. Deem and Ramdas Pophale) SiO2 
 PCOD8194672
Probable space group: P M M M
;
_chemical_formula_sum "Si O2"
_cell_formula_units_Z 52
_cell_length_a 9.318604
_cell_length_b 12.887427
_cell_length_c 27.410848
_cell_angle_alpha 90.000000
_cell_angle_beta 90.000000
_cell_angle_gamma 90.000000
_cell_volume 3291.846276
_symmetry_space_group_name_H-M "P M M M"
_symmetry_group_IT_number 47
_symmetry_cell_setting 'orthorhombic'
loop_
_space_group_symop_operation_xyz
x,y,z
-x,-y,z
x,-y,-z
-x,y,-z
-x,-y,-z
x,y,-z
-x,y,z
x,-y,z
loop_
_atom_site_type_symbol
_atom_site_label
_atom_site_fract_x
_atom_site_fract_y
_atom_site_fract_z
Si Si1 0.667185 0.674686 0.237284
Si Si2 0.661223 0.887130 0.278517
Si Si3 0.832211 0.170297 0.371580
Si Si4 0.829273 0.000000 0.445670
Si Si5 0.841772 0.379538 0.857426
Si Si6 0.165610 0.614935 0.667224
Si Si7 0.339167 0.623408 0.946034
O O1 0.500000 0.643789 0.234921
O O2 0.691386 0.798891 0.238488
O O3 0.745526 0.633087 0.190073
O O4 0.734902 0.623739 0.285415
O O5 0.500000 0.873130 0.299106
O O6 0.767346 0.879741 0.323554
O O7 0.681149 0.000000 0.253517
O O8 0.795395 0.294596 0.372437
O O9 0.000000 0.152289 0.368004
O O10 0.774823 0.105524 0.418379
O O11 0.762576 0.000000 0.500000
O O12 0.000000 0.000000 0.448777
O O13 0.860644 0.500000 0.867791
O O14 0.764362 0.328245 0.904560
O O15 0.000000 0.328968 0.850464
O O16 0.189705 0.500000 0.643952
O O17 0.000000 0.628248 0.683751
O O18 0.500000 0.666050 0.937258
O O19 0.341788 0.500000 0.942192
O O20 0.284707 0.657052 0.000000
#
# Coordination Sequence:
#
# PCOD8194672 Si02
#       7
#     8   8   8   4   8   8   8
#     4  10  19  28  40  59  81 108 139 168 202 245
#     4   9  17  29  44  61  83 107 131 166 209 248
#     4   9  16  27  44  63  82 108 140 169 203 248
#     4   9  16  26  43  67  89 107 135 177 216 249
#     4  10  19  28  38  54  80 112 141 171 205 239
#     4   9  17  28  41  58  82 110 139 171 204 242
#     4   8  14  25  40  56  74 100 136 175 212 248
#
# _framework density 15.796606000000001
#
# number of rings (size 3 to 8) (size 9 to 14) (size 15 to 20)
#    0.000    2.846    0.769    1.846    0.000    4.000 
#    0.000    1.538    0.000    1.385    0.000    3.231 
#    0.000    0.615    0.000   14.769    0.000   10.308 
#
# Total GULP energy -644268.333881 kJ/mol
# GULP energy per Si atom -12389.775652 kJ/mol
# Density = 1.576065 g / cm^3
# Si number density = 15.796606 Si / 1000 Ang^3
#
#
#
# Elastic Constant Matrix: (Units=GPa)
#
#
# Indices 1 2 3 4 5 6 
#
# 1 65.1329 22.2740 38.3900 0.0000 0.0000 0.0000
# 2 22.2740 87.9307 28.3970 0.0000 0.0000 0.0000
# 3 38.3900 28.3970 89.5008 0.0000 0.0000 0.0000
# 4 0.0000 0.0000 0.0000 13.2306 0.0000 0.0000
# 5 0.0000 0.0000 0.0000 0.0000 4.7662 0.0000
# 6 0.0000 0.0000 0.0000 0.0000 0.0000 13.1089
#
#
#
# Elastic Compliance Matrix: (Units=1/GPa)
#
#
# Indices 1 2 3 4 5 6 
#
# 1 0.021108 -0.002700 -0.008197 0.000000 0.000000 0.000000
# 2 -0.002700 0.013016 -0.002972 0.000000 0.000000 0.000000
# 3 -0.008197 -0.002972 0.015632 0.000000 0.000000 0.000000
# 4 0.000000 0.000000 0.000000 0.075582 0.000000 0.000000
# 5 0.000000 0.000000 0.000000 0.000000 0.209811 0.000000
# 6 0.000000 0.000000 0.000000 0.000000 0.000000 0.076284
#
#
# Mechanical properties :
#
#
# Convention : Reuss Voigt Hill
#
# Bulk Modulus (GPa) = 45.41606 46.74291 46.07949
# Shear Modulus (GPa) = 11.19792 16.45470 13.82631
#
# Velocity S-wave (km/s) = 2.66537 3.23098 2.96171
# Velocity P-wave (km/s) = 6.18750 6.60104 6.39761
#
# Compressibility (1/GPa) = 0.02201864
#
# Stress axis : x y z
#
# Youngs Moduli (GPa) = 47.37524 76.82741 63.97068
#
# Poissons Ratio (x) = 0.20740 0.52440
# Poissons Ratio (y) = 0.12789 0.19011
# Poissons Ratio (z) = 0.38836 0.22832
#
# Static dielectric constant tensor:
#      x y z
#    x 3.169750 0.000000 0.000000 
#    y 0.000000 3.122280 0.000000 
#    z 0.000000 0.000000 2.951470 
# 
# 
# High freq. dielectric constant tensor:
#      x y z
#    x 1.609670 0.000000 0.000000 
#    y 0.000000 1.585350 0.000000 
#    z 0.000000 0.000000 1.578300 
# 
# From -- ./inp_files/33410.got.cif
#   From: 2010.03.12/outbox.cif.g09.slc.cpg/sg47_17_cif.got.tgz:33410.got - 2010.04.14 03:12:58.
