data_PCOD8194843
_publ_section_title
;
Structure prediction by ZEFSAII (Michael W. Deem and Ramdas Pophale) SiO2 
 PCOD8194843
Probable space group: P M M M
;
_chemical_formula_sum "Si O2"
_cell_formula_units_Z 40
_cell_length_a 15.216716
_cell_length_b 7.890030
_cell_length_c 23.597112
_cell_angle_alpha 90.000000
_cell_angle_beta 90.000000
_cell_angle_gamma 90.000000
_cell_volume 2833.077425
_symmetry_space_group_name_H-M "P M M M"
_symmetry_group_IT_number 47
_symmetry_cell_setting 'orthorhombic'
loop_
_space_group_symop_operation_xyz
x,y,z
-x,-y,z
x,-y,-z
-x,y,-z
-x,-y,-z
x,y,-z
-x,y,z
x,-y,z
loop_
_atom_site_type_symbol
_atom_site_label
_atom_site_fract_x
_atom_site_fract_y
_atom_site_fract_z
Si Si1 0.594669 0.807909 0.432893
Si Si2 0.105140 0.500000 0.136999
Si Si3 0.101225 0.189119 0.660105
Si Si4 0.895565 0.188171 0.063738
Si Si5 0.779473 0.692249 0.564652
Si Si6 0.895831 0.500000 0.735825
O O1 0.591062 0.799140 0.500000
O O2 0.500000 0.737636 0.409588
O O3 0.679084 0.702393 0.411686
O O4 0.607206 0.000000 0.412066
O O5 0.142109 0.668026 0.105654
O O6 0.143018 0.500000 0.200753
O O7 0.000000 0.500000 0.136594
O O8 0.155910 0.194800 0.602097
O O9 0.137337 0.330027 0.704009
O O10 0.000000 0.227039 0.645191
O O11 0.111475 0.000000 0.686410
O O12 0.000000 0.194990 0.064223
O O13 0.864275 0.000000 0.083382
O O14 0.861750 0.225004 0.000000
O O15 0.784164 0.759825 0.500000
O O16 0.811871 0.500000 0.568446
O O17 0.000000 0.500000 0.739337
#
# Coordination Sequence:
#
# PCOD8194843 Si02
#       6
#     8   4   8   8   8   4
#     4   8  14  25  40  58  80 101 118 138 168 216
#     4   9  15  22  35  49  64  88 115 145 180 220
#     4  10  20  33  46  56  71  96 124 160 202 236
#     4   8  13  20  30  47  70  91 111 137 172 216
#     4  10  19  29  43  61  78  96 119 150 189 237
#     4   9  18  31  41  53  70  88 121 161 193 229
#
# _framework density 14.118923000000001
#
# number of rings (size 3 to 8) (size 9 to 14) (size 15 to 20)
#    0.000    3.000    1.000    2.100    0.000    4.000 
#    0.000    8.000    0.000    0.000    0.000    0.000 
#    0.000    0.000    0.000    0.000    0.000    0.000 
#
# Total GULP energy -495626.180094 kJ/mol
# GULP energy per Si atom -12390.654502 kJ/mol
# Density = 1.408679 g / cm^3
# Si number density = 14.118923 Si / 1000 Ang^3
#
#
#
# Elastic Constant Matrix: (Units=GPa)
#
#
# Indices 1 2 3 4 5 6 
#
# 1 39.8922 21.6730 24.4861 0.0000 0.0000 0.0000
# 2 21.6730 100.8615 49.9541 0.0000 0.0000 0.0000
# 3 24.4861 49.9541 78.8207 0.0000 0.0000 0.0000
# 4 0.0000 0.0000 0.0000 14.5889 0.0000 0.0000
# 5 0.0000 0.0000 0.0000 0.0000 0.4830 0.0000
# 6 0.0000 0.0000 0.0000 0.0000 0.0000 14.0434
#
#
#
# Elastic Compliance Matrix: (Units=1/GPa)
#
#
# Indices 1 2 3 4 5 6 
#
# 1 0.031508 -0.002802 -0.008012 0.000000 0.000000 0.000000
# 2 -0.002802 0.014700 -0.008446 0.000000 0.000000 0.000000
# 3 -0.008012 -0.008446 0.020529 0.000000 0.000000 0.000000
# 4 0.000000 0.000000 0.000000 0.068545 0.000000 0.000000
# 5 0.000000 0.000000 0.000000 0.000000 2.070482 0.000000
# 6 0.000000 0.000000 0.000000 0.000000 0.000000 0.071208
#
#
# Mechanical properties :
#
#
# Convention : Reuss Voigt Hill
#
# Bulk Modulus (GPa) = 35.44069 45.75564 40.59816
# Shear Modulus (GPa) = 2.15063 14.05378 8.10221
#
# Velocity S-wave (km/s) = 1.23553 3.15840 2.39813
# Velocity P-wave (km/s) = 5.21454 6.76597 6.04027
#
# Compressibility (1/GPa) = 0.02821616
#
# Stress axis : x y z
#
# Youngs Moduli (GPa) = 31.73806 68.02893 48.71235
#
# Poissons Ratio (x) = 0.19063 0.39029
# Poissons Ratio (y) = 0.08893 0.41141
# Poissons Ratio (z) = 0.25429 0.57455
#
# Static dielectric constant tensor:
#      x y z
#    x 2.970050 0.000000 0.000000 
#    y 0.000000 2.988860 0.000000 
#    z 0.000000 0.000000 2.651760 
# 
# 
# High freq. dielectric constant tensor:
#      x y z
#    x 1.486840 0.000000 0.000000 
#    y 0.000000 1.555990 0.000000 
#    z 0.000000 0.000000 1.502990 
# 
# From -- ./inp_files/30341.got.cif
#   From: 2010.03.12/outbox.cif.g09.slc.cpg/sg47_16_cif.got.tgz:30341.got - 2010.04.14 03:12:58.
