data_PCOD8194920
_publ_section_title
;
Structure prediction by ZEFSAII (Michael W. Deem and Ramdas Pophale) SiO2 
 PCOD8194920
Probable space group: P M M M
;
_chemical_formula_sum "Si O2"
_cell_formula_units_Z 64
_cell_length_a 9.016289
_cell_length_b 18.673887
_cell_length_c 23.461098
_cell_angle_alpha 90.000000
_cell_angle_beta 90.000000
_cell_angle_gamma 90.000000
_cell_volume 3950.125409
_symmetry_space_group_name_H-M "P M M M"
_symmetry_group_IT_number 47
_symmetry_cell_setting 'orthorhombic'
loop_
_space_group_symop_operation_xyz
x,y,z
-x,-y,z
x,-y,-z
-x,y,-z
-x,-y,-z
x,y,-z
-x,y,z
x,-y,z
loop_
_atom_site_type_symbol
_atom_site_label
_atom_site_fract_x
_atom_site_fract_y
_atom_site_fract_z
Si Si1 0.168731 0.208710 0.271800
Si Si2 0.670248 0.920131 0.234422
Si Si3 0.171682 0.700608 0.159767
Si Si4 0.171448 0.081004 0.885174
Si Si5 0.670460 0.211554 0.065394
Si Si6 0.825594 0.649314 0.667690
Si Si7 0.329245 0.417299 0.772459
Si Si8 0.671185 0.417480 0.565218
O O1 0.271942 0.138678 0.279771
O O2 0.193334 0.240613 0.208881
O O3 0.215089 0.268295 0.318196
O O4 0.000000 0.184783 0.281076
O O5 0.500000 0.904948 0.218967
O O6 0.767624 0.911539 0.178264
O O7 0.689534 0.000000 0.260291
O O8 0.244784 0.729305 0.102239
O O9 0.249423 0.626887 0.177752
O O10 0.000000 0.684417 0.148688
O O11 0.258962 0.132972 0.927378
O O12 0.000000 0.104050 0.883925
O O13 0.191410 0.000000 0.907773
O O14 0.500000 0.208351 0.084806
O O15 0.685781 0.234849 0.000000
O O16 0.744170 0.596206 0.711082
O O17 0.773866 0.632741 0.603809
O O18 0.000000 0.636749 0.674773
O O19 0.500000 0.393780 0.768858
O O20 0.312267 0.500000 0.788429
O O21 0.701471 0.395973 0.500000
O O22 0.500000 0.404914 0.581066
O O23 0.714047 0.500000 0.575423
#
# Coordination Sequence:
#
# PCOD8194920 Si02
#       8
#     8   8   8   8   8   8   8   8
#     4   9  18  31  46  67  94 124 156 192 237 284
#     4  10  19  29  45  69  94 122 156 193 234 282
#     4  10  20  34  52  72  94 120 152 191 235 285
#     4  10  20  33  49  68  92 123 156 191 232 278
#     4  11  23  36  51  70  92 120 154 193 235 282
#     4  10  20  31  46  71 101 130 165 206 240 276
#     4  10  20  33  51  74  99 127 156 190 236 286
#     4   9  18  32  48  67  96 135 174 207 240 282
#
# _framework density 16.202017000000001
#
# number of rings (size 3 to 8) (size 9 to 14) (size 15 to 20)
#    0.000    2.125    1.250    3.750    0.000    8.250 
#    0.000    1.875    0.000    0.375    0.000    2.625 
#    0.000    0.500    0.000    5.500    0.000    4.000 
#
# Total GULP energy -793720.755104 kJ/mol
# GULP energy per Si atom -12401.886798 kJ/mol
# Density = 1.616514 g / cm^3
# Si number density = 16.202017 Si / 1000 Ang^3
#
#
#
# Elastic Constant Matrix: (Units=GPa)
#
#
# Indices 1 2 3 4 5 6 
#
# 1 116.4078 60.1156 45.9783 0.0000 0.0000 0.0000
# 2 60.1156 93.9406 45.4666 0.0000 0.0000 0.0000
# 3 45.9783 45.4666 75.1164 0.0000 0.0000 0.0000
# 4 0.0000 0.0000 0.0000 24.6053 0.0000 0.0000
# 5 0.0000 0.0000 0.0000 0.0000 23.1423 0.0000
# 6 0.0000 0.0000 0.0000 0.0000 0.0000 30.0323
#
#
#
# Elastic Compliance Matrix: (Units=1/GPa)
#
#
# Indices 1 2 3 4 5 6 
#
# 1 0.013780 -0.006698 -0.004380 0.000000 0.000000 0.000000
# 2 -0.006698 0.018311 -0.006984 0.000000 0.000000 0.000000
# 3 -0.004380 -0.006984 0.020221 0.000000 0.000000 0.000000
# 4 0.000000 0.000000 0.000000 0.040642 0.000000 0.000000
# 5 0.000000 0.000000 0.000000 0.000000 0.043211 0.000000
# 6 0.000000 0.000000 0.000000 0.000000 0.000000 0.033297
#
#
# Mechanical properties :
#
#
# Convention : Reuss Voigt Hill
#
# Bulk Modulus (GPa) = 61.77435 65.39841 63.58638
# Shear Modulus (GPa) = 23.69874 24.48294 24.09084
#
# Velocity S-wave (km/s) = 3.82868 3.89151 3.86022
# Velocity P-wave (km/s) = 7.59970 7.78741 7.69413
#
# Compressibility (1/GPa) = 0.01618795
#
# Stress axis : x y z
#
# Youngs Moduli (GPa) = 72.57121 54.61092 49.45379
#
# Poissons Ratio (x) = 0.36578 0.21662
# Poissons Ratio (y) = 0.48608 0.34537
# Poissons Ratio (z) = 0.31788 0.38139
#
# Static dielectric constant tensor:
#      x y z
#    x 3.203470 0.000000 0.000000 
#    y 0.000000 3.125910 0.000000 
#    z 0.000000 0.000000 2.778750 
# 
# 
# High freq. dielectric constant tensor:
#      x y z
#    x 1.640970 0.000000 0.000000 
#    y 0.000000 1.619570 0.000000 
#    z 0.000000 0.000000 1.586290 
# 
# From -- ./inp_files/10206.got.cif
#   From: 2010.03.12/outbox.cif.g09.slc.cpg/sg47_6_cif.got.tgz:10206.got - 2010.04.14 03:12:58.
