data_PCOD8194858
_publ_section_title
;
Structure prediction by ZEFSAII (Michael W. Deem and Ramdas Pophale) SiO2 
 PCOD8194858
Probable space group: P M M M
;
_chemical_formula_sum "Si O2"
_cell_formula_units_Z 44
_cell_length_a 13.590080
_cell_length_b 21.637804
_cell_length_c 9.258964
_cell_angle_alpha 90.000000
_cell_angle_beta 90.000000
_cell_angle_gamma 90.000000
_cell_volume 2722.686208
_symmetry_space_group_name_H-M "P M M M"
_symmetry_group_IT_number 47
_symmetry_cell_setting 'orthorhombic'
loop_
_space_group_symop_operation_xyz
x,y,z
-x,-y,z
x,-y,-z
-x,y,-z
-x,-y,-z
x,y,-z
-x,y,z
x,-y,z
loop_
_atom_site_type_symbol
_atom_site_label
_atom_site_fract_x
_atom_site_fract_y
_atom_site_fract_z
Si Si1 0.390144 0.354784 0.164821
Si Si2 0.889865 0.677342 0.666359
Si Si3 0.386331 0.000000 0.168092
Si Si4 0.384642 0.866093 0.828973
Si Si5 0.702259 0.752942 0.329930
Si Si6 0.203206 0.430602 0.831213
O O1 0.500000 0.380790 0.188143
O O2 0.375007 0.296558 0.269027
O O3 0.314850 0.409559 0.203042
O O4 0.374581 0.332095 0.000000
O O5 0.874574 0.659944 0.500000
O O6 0.812821 0.730752 0.711033
O O7 0.873597 0.614465 0.754387
O O8 0.000000 0.702029 0.697222
O O9 0.345829 0.065932 0.226540
O O10 0.500000 0.000000 0.203761
O O11 0.367246 0.000000 0.000000
O O12 0.500000 0.856507 0.791542
O O13 0.316568 0.818287 0.744573
O O14 0.369029 0.858417 0.000000
O O15 0.686752 0.759624 0.500000
O O16 0.189817 0.500000 0.771478
O O17 0.180726 0.428085 0.000000
#
# Coordination Sequence:
#
# PCOD8194858 Si02
#       6
#     8   8   4   8   8   8
#     4   9  17  29  44  61  84 116 148 172 199 245
#     4   9  19  35  50  62  80 109 143 177 215 261
#     4   7  12  24  41  61  86 119 154 176 191 227
#     4   9  16  27  44  65  91 122 150 172 198 239
#     4  10  19  29  43  64  87 110 140 180 220 252
#     4   9  18  31  46  66  89 109 134 173 217 256
#
# _framework density 16.160509999999999
#
# number of rings (size 3 to 8) (size 9 to 14) (size 15 to 20)
#    0.000    3.000    0.000    2.182    0.000    5.091 
#    0.000    4.091    0.000    1.636    0.000    5.727 
#    0.000    5.091    0.000    0.000    0.000    0.000 
#
# Total GULP energy -545297.531100 kJ/mol
# GULP energy per Si atom -12393.125707 kJ/mol
# Density = 1.612373 g / cm^3
# Si number density = 16.160510 Si / 1000 Ang^3
#
#
#
# Elastic Constant Matrix: (Units=GPa)
#
#
# Indices 1 2 3 4 5 6 
#
# 1 81.8538 42.5879 27.6573 0.0000 0.0000 0.0000
# 2 42.5879 137.5554 46.6475 0.0000 0.0000 0.0000
# 3 27.6573 46.6475 48.7866 0.0000 0.0000 0.0000
# 4 0.0000 0.0000 0.0000 10.9569 0.0000 0.0000
# 5 0.0000 0.0000 0.0000 0.0000 20.9361 0.0000
# 6 0.0000 0.0000 0.0000 0.0000 0.0000 16.2115
#
#
#
# Elastic Compliance Matrix: (Units=1/GPa)
#
#
# Indices 1 2 3 4 5 6 
#
# 1 0.015780 -0.002741 -0.006325 0.000000 0.000000 0.000000
# 2 -0.002741 0.011234 -0.009188 0.000000 0.000000 0.000000
# 3 -0.006325 -0.009188 0.032868 0.000000 0.000000 0.000000
# 4 0.000000 0.000000 0.000000 0.091266 0.000000 0.000000
# 5 0.000000 0.000000 0.000000 0.000000 0.047764 0.000000
# 6 0.000000 0.000000 0.000000 0.000000 0.000000 0.061685
#
#
# Mechanical properties :
#
#
# Convention : Reuss Voigt Hill
#
# Bulk Modulus (GPa) = 42.78100 55.77567 49.27834
# Shear Modulus (GPa) = 16.39897 19.70777 18.05337
#
# Velocity S-wave (km/s) = 3.18898 3.49593 3.34597
# Velocity P-wave (km/s) = 6.33163 7.13329 6.74438
#
# Compressibility (1/GPa) = 0.02337486
#
# Stress axis : x y z
#
# Youngs Moduli (GPa) = 63.37122 89.01510 30.42444
#
# Poissons Ratio (x) = 0.24395 0.19245
# Poissons Ratio (y) = 0.17367 0.27954
# Poissons Ratio (z) = 0.40085 0.81786
#
# Static dielectric constant tensor:
#      x y z
#    x 2.964380 0.000000 0.000000 
#    y 0.000000 3.239150 0.000000 
#    z 0.000000 0.000000 2.969580 
# 
# 
# High freq. dielectric constant tensor:
#      x y z
#    x 1.600200 0.000000 0.000000 
#    y 0.000000 1.618670 0.000000 
#    z 0.000000 0.000000 1.612420 
# 
# From -- ./inp_files/6779.got.cif
#   From: 2010.03.12/outbox.cif.g09.slc.cpg/sg47_4_cif.got.tgz:6779.got - 2010.04.14 03:12:58.
