data_PCOD8194353
_publ_section_title
;
Structure prediction by ZEFSAII (Michael W. Deem and Ramdas Pophale) SiO2 
 PCOD8194353
Probable space group: P M M M
;
_chemical_formula_sum "Si O2"
_cell_formula_units_Z 56
_cell_length_a 9.308883
_cell_length_b 19.814117
_cell_length_c 15.345304
_cell_angle_alpha 90.000000
_cell_angle_beta 90.000000
_cell_angle_gamma 90.000000
_cell_volume 2830.399843
_symmetry_space_group_name_H-M "P M M M"
_symmetry_group_IT_number 47
_symmetry_cell_setting 'orthorhombic'
loop_
_space_group_symop_operation_xyz
x,y,z
-x,-y,z
x,-y,-z
-x,y,-z
-x,-y,-z
x,y,-z
-x,y,z
x,-y,z
loop_
_atom_site_type_symbol
_atom_site_label
_atom_site_fract_x
_atom_site_fract_y
_atom_site_fract_z
Si Si1 0.838663 0.074674 0.856355
Si Si2 0.161088 0.073729 0.649230
Si Si3 0.332250 0.420961 0.764201
Si Si4 0.337451 0.199284 0.650315
Si Si5 0.664039 0.201143 0.857290
Si Si6 0.834909 0.332860 0.901116
Si Si7 0.329309 0.656720 0.404318
O O1 0.836457 0.076606 0.752768
O O2 0.729823 0.130846 0.893326
O O3 0.000000 0.090338 0.889607
O O4 0.790841 0.000000 0.888796
O O5 0.255604 0.134540 0.611057
O O6 0.000000 0.083334 0.614288
O O7 0.219865 0.000000 0.618740
O O8 0.500000 0.403118 0.777347
O O9 0.304156 0.500000 0.766332
O O10 0.243051 0.387615 0.841362
O O11 0.274568 0.393538 0.671026
O O12 0.500000 0.190899 0.619139
O O13 0.326427 0.204585 0.753752
O O14 0.268981 0.267793 0.611650
O O15 0.500000 0.206697 0.889496
O O16 0.755909 0.261427 0.896806
O O17 0.000000 0.324170 0.870829
O O18 0.827382 0.359663 0.000000
O O19 0.277678 0.631336 0.500000
O O20 0.500000 0.659390 0.400156
#
# Coordination Sequence:
#
# PCOD8194353 Si02
#       7
#     8   8   8   8   8   8   8
#     4   8  14  25  42  68 104 145 188 231 278 335
#     4   8  14  24  39  63  96 135 180 228 275 322
#     4  10  21  39  63  90 118 146 180 223 273 328
#     4   9  16  27  46  73 104 139 180 225 271 320
#     4  10  18  30  51  78 109 143 185 237 286 332
#     4  11  24  40  59  83 112 149 190 229 275 334
#     4   9  17  32  55  84 118 150 182 223 270 323
#
# _framework density 19.785188999999999
#
# number of rings (size 3 to 8) (size 9 to 14) (size 15 to 20)
#    0.000    2.714    1.429    1.714    0.000    3.143 
#    0.000    5.714    0.000    2.571    0.000    7.000 
#    0.000    0.000    0.000    0.000    0.000    0.000 
#
# Total GULP energy -694139.094245 kJ/mol
# GULP energy per Si atom -12395.340969 kJ/mol
# Density = 1.974016 g / cm^3
# Si number density = 19.785189 Si / 1000 Ang^3
#
#
#
# Elastic Constant Matrix: (Units=GPa)
#
#
# Indices 1 2 3 4 5 6 
#
# 1 101.3705 75.7901 39.5891 0.0000 0.0000 0.0000
# 2 75.7901 152.2940 54.7011 0.0000 0.0000 0.0000
# 3 39.5891 54.7011 79.4671 0.0000 0.0000 0.0000
# 4 0.0000 0.0000 0.0000 -2.0397 0.0000 0.0000
# 5 0.0000 0.0000 0.0000 0.0000 9.8855 0.0000
# 6 0.0000 0.0000 0.0000 0.0000 0.0000 30.9853
#
#
#
# Elastic Compliance Matrix: (Units=1/GPa)
#
#
# Indices 1 2 3 4 5 6 
#
# 1 0.016368 -0.006930 -0.003384 0.000000 0.000000 0.000000
# 2 -0.006930 0.011657 -0.004572 0.000000 0.000000 0.000000
# 3 -0.003384 -0.004572 0.017416 0.000000 0.000000 0.000000
# 4 0.000000 0.000000 0.000000 -0.490274 0.000000 0.000000
# 5 0.000000 0.000000 0.000000 0.000000 0.101158 0.000000
# 6 0.000000 0.000000 0.000000 0.000000 0.000000 0.032273
#
#
# Mechanical properties :
#
#
# Convention : Reuss Voigt Hill
#
# Bulk Modulus (GPa) = 63.81572 74.81025 69.31299
# Shear Modulus (GPa) = -18.08925 18.63632 0.27354
#
# Velocity S-wave (km/s) = -3.02699 3.07242 0.37223
# Velocity P-wave (km/s) = 4.48413 7.10491 5.94084
#
# Compressibility (1/GPa) = 0.01567012
#
# Stress axis : x y z
#
# Youngs Moduli (GPa) = 61.09649 85.78457 57.41682
#
# Poissons Ratio (x) = 0.59449 0.19428
# Poissons Ratio (y) = 0.42340 0.26249
# Poissons Ratio (z) = 0.20673 0.39218
#
# Static dielectric constant tensor:
#      x y z
#    x 3.558460 0.000000 0.000000 
#    y 0.000000 3.807420 0.000000 
#    z 0.000000 0.000000 3.440880 
# 
# 
# High freq. dielectric constant tensor:
#      x y z
#    x 1.747010 0.000000 0.000000 
#    y 0.000000 1.777110 0.000000 
#    z 0.000000 0.000000 1.755680 
# 
# From -- ./inp_files/11251.got.cif
#   From: 2010.03.12/outbox.cif.g09.slc.cpg/sg47_6_cif.got.tgz:11251.got - 2010.04.14 03:12:58.
