data_PCOD8194395
_publ_section_title
;
Structure prediction by ZEFSAII (Michael W. Deem and Ramdas Pophale) SiO2 
 PCOD8194395
Probable space group: P M M M
;
_chemical_formula_sum "Si O2"
_cell_formula_units_Z 64
_cell_length_a 19.804795
_cell_length_b 9.005093
_cell_length_c 20.087966
_cell_angle_alpha 90.000000
_cell_angle_beta 90.000000
_cell_angle_gamma 90.000000
_cell_volume 3582.568627
_symmetry_space_group_name_H-M "P M M M"
_symmetry_group_IT_number 47
_symmetry_cell_setting 'orthorhombic'
loop_
_space_group_symop_operation_xyz
x,y,z
-x,-y,z
x,-y,-z
-x,y,-z
-x,-y,-z
x,y,-z
-x,y,z
x,-y,z
loop_
_atom_site_type_symbol
_atom_site_label
_atom_site_fract_x
_atom_site_fract_y
_atom_site_fract_z
Si Si1 0.381114 0.830193 0.752654
Si Si2 0.425773 0.830964 0.897951
Si Si3 0.709454 0.673241 0.927646
Si Si4 0.574554 0.670322 0.372842
Si Si5 0.921020 0.670828 0.575321
Si Si6 0.818425 0.825001 0.330573
Si Si7 0.245395 0.675675 0.786793
Si Si8 0.302052 0.169835 0.426322
O O1 0.425338 0.818053 0.818494
O O2 0.426487 0.770186 0.693223
O O3 0.315729 0.726130 0.755537
O O4 0.357811 0.000000 0.739489
O O5 0.500000 0.775511 0.922093
O O6 0.365942 0.737553 0.929900
O O7 0.414607 0.000000 0.920530
O O8 0.699882 0.500000 0.917511
O O9 0.754735 0.730737 0.865022
O O10 0.743600 0.709482 0.000000
O O11 0.500000 0.684557 0.405596
O O12 0.590446 0.500000 0.354839
O O13 0.631059 0.730200 0.423090
O O14 0.902633 0.722437 0.500000
O O15 0.899829 0.500000 0.584742
O O16 0.883934 0.769039 0.630444
O O17 0.000000 0.691789 0.587779
O O18 0.813973 0.752435 0.256564
O O19 0.752867 0.776245 0.372939
O O20 0.824157 0.000000 0.322324
O O21 0.236280 0.500000 0.781534
O O22 0.270726 0.187941 0.500000
O O23 0.322471 0.000000 0.412288
#
# Coordination Sequence:
#
# PCOD8194395 Si02
#       8
#     8   8   8   8   8   8   8   8
#     4  10  18  31  49  68  90 119 156 202 257 312
#     4   9  18  30  44  64  89 118 155 199 249 310
#     4   9  19  34  49  67  94 127 162 205 257 310
#     4  11  23  35  48  67  90 119 159 209 265 320
#     4   9  19  36  57  83 117 155 189 217 249 293
#     4  11  21  34  55  82 109 139 175 216 256 299
#     4  10  19  32  52  75  99 129 167 210 255 303
#     4  10  22  38  53  70  94 127 166 208 256 308
#
# _framework density 17.864276
#
# number of rings (size 3 to 8) (size 9 to 14) (size 15 to 20)
#    0.000    2.125    1.250    2.625    0.000    5.250 
#    0.000    3.125    0.000    0.000    0.000    0.000 
#    0.000    0.500    0.000    5.750    0.000    1.625 
#
# Total GULP energy -793266.604194 kJ/mol
# GULP energy per Si atom -12394.790691 kJ/mol
# Density = 1.782362 g / cm^3
# Si number density = 17.864276 Si / 1000 Ang^3
#
#
#
# Elastic Constant Matrix: (Units=GPa)
#
#
# Indices 1 2 3 4 5 6 
#
# 1 57.6037 30.1695 39.5925 0.0000 0.0000 0.0000
# 2 30.1695 65.1446 40.0365 0.0000 0.0000 0.0000
# 3 39.5925 40.0365 123.9378 0.0000 0.0000 0.0000
# 4 0.0000 0.0000 0.0000 19.4135 0.0000 0.0000
# 5 0.0000 0.0000 0.0000 0.0000 15.7871 0.0000
# 6 0.0000 0.0000 0.0000 0.0000 0.0000 24.0457
#
#
#
# Elastic Compliance Matrix: (Units=1/GPa)
#
#
# Indices 1 2 3 4 5 6 
#
# 1 0.025529 -0.008498 -0.005410 0.000000 0.000000 0.000000
# 2 -0.008498 0.021982 -0.004386 0.000000 0.000000 0.000000
# 3 -0.005410 -0.004386 0.011214 0.000000 0.000000 0.000000
# 4 0.000000 0.000000 0.000000 0.051511 0.000000 0.000000
# 5 0.000000 0.000000 0.000000 0.000000 0.063343 0.000000
# 6 0.000000 0.000000 0.000000 0.000000 0.000000 0.041587
#
#
# Mechanical properties :
#
#
# Convention : Reuss Voigt Hill
#
# Bulk Modulus (GPa) = 45.17546 51.80922 48.49234
# Shear Modulus (GPa) = 19.29510 20.97511 20.13511
#
# Velocity S-wave (km/s) = 3.29004 3.43029 3.36090
# Velocity P-wave (km/s) = 6.30679 6.68982 6.50113
#
# Compressibility (1/GPa) = 0.02213591
#
# Stress axis : x y z
#
# Youngs Moduli (GPa) = 39.17057 45.49248 89.17578
#
# Poissons Ratio (x) = 0.38659 0.48247
# Poissons Ratio (y) = 0.33287 0.39114
# Poissons Ratio (z) = 0.21193 0.19954
#
# Static dielectric constant tensor:
#      x y z
#    x 2.959000 0.000000 0.000000 
#    y 0.000000 3.319770 0.000000 
#    z 0.000000 0.000000 3.574160 
# 
# 
# High freq. dielectric constant tensor:
#      x y z
#    x 1.646260 0.000000 0.000000 
#    y 0.000000 1.694840 0.000000 
#    z 0.000000 0.000000 1.698150 
# 
# From -- ./inp_files/10047.got.cif
#   From: 2010.03.12/outbox.cif.g09.slc.cpg/sg47_6_cif.got.tgz:10047.got - 2010.04.14 03:12:58.
