data_PCOD8194798
_publ_section_title
;
Structure prediction by ZEFSAII (Michael W. Deem and Ramdas Pophale) SiO2 
 PCOD8194798
Probable space group: P M M M
;
_chemical_formula_sum "Si O2"
_cell_formula_units_Z 46
_cell_length_a 12.353155
_cell_length_b 18.041942
_cell_length_c 12.889727
_cell_angle_alpha 90.000000
_cell_angle_beta 90.000000
_cell_angle_gamma 90.000000
_cell_volume 2872.796694
_symmetry_space_group_name_H-M "P M M M"
_symmetry_group_IT_number 47
_symmetry_cell_setting 'orthorhombic'
loop_
_space_group_symop_operation_xyz
x,y,z
-x,-y,z
x,-y,-z
-x,y,-z
-x,-y,-z
x,y,-z
-x,y,z
x,-y,z
loop_
_atom_site_type_symbol
_atom_site_label
_atom_site_fract_x
_atom_site_fract_y
_atom_site_fract_z
Si Si1 0.732435 0.912561 0.289343
Si Si2 0.500000 0.135122 0.500000
Si Si3 0.873089 0.156243 0.882221
Si Si4 0.128562 0.417139 0.695966
Si Si5 0.262653 0.170480 0.500000
Si Si6 0.500000 0.918251 0.279817
Si Si7 0.871172 0.676607 0.114216
Si Si8 0.128292 0.320493 0.500000
O O1 0.817143 0.898558 0.198287
O O2 0.770399 0.874661 0.396487
O O3 0.614801 0.880123 0.249121
O O4 0.722580 0.000000 0.310552
O O5 0.392070 0.186734 0.500000
O O6 0.500000 0.078993 0.404504
O O7 0.832625 0.239993 0.860640
O O8 0.000000 0.149669 0.863480
O O9 0.843918 0.132927 0.000000
O O10 0.176720 0.500000 0.685684
O O11 0.176155 0.379619 0.800358
O O12 0.164447 0.368047 0.599005
O O13 0.000000 0.421212 0.701312
O O14 0.195001 0.245440 0.500000
O O15 0.500000 0.000000 0.231720
O O16 0.000000 0.675535 0.115563
O O17 0.829574 0.652236 0.000000
O O18 0.000000 0.303055 0.500000
#
# Coordination Sequence:
#
# PCOD8194798 Si02
#       8
#     8   2   8   8   4   4   8   4
#     4  10  19  31  47  66  87 111 143 183 224 263
#     4   8  15  28  46  66  83 106 142 178 214 260
#     4   9  18  32  47  62  85 120 155 180 208 254
#     4   9  16  25  38  58  84 111 139 170 204 247
#     4  10  19  31  48  67  88 113 142 180 222 263
#     4   8  15  28  45  64  85 108 134 172 226 275
#     4   8  14  25  40  57  78 106 140 175 209 245
#     4  10  19  29  41  59  87 120 145 165 201 254
#
# _framework density 16.012270999999998
#
# number of rings (size 3 to 8) (size 9 to 14) (size 15 to 20)
#    0.000    2.957    0.000    2.739    0.000    6.261 
#    0.000    3.043    0.000    3.130    0.000    1.217 
#    0.000    0.000    0.000    0.000    0.000   41.043 
#
# Total GULP energy -569955.737971 kJ/mol
# GULP energy per Si atom -12390.342130 kJ/mol
# Density = 1.597583 g / cm^3
# Si number density = 16.012271 Si / 1000 Ang^3
#
#
#
# Elastic Constant Matrix: (Units=GPa)
#
#
# Indices 1 2 3 4 5 6 
#
# 1 45.2706 29.9501 38.4102 0.0000 0.0000 0.0000
# 2 29.9501 89.6568 52.4627 0.0000 0.0000 0.0000
# 3 38.4102 52.4627 116.2692 0.0000 0.0000 0.0000
# 4 0.0000 0.0000 0.0000 17.5666 0.0000 0.0000
# 5 0.0000 0.0000 0.0000 0.0000 15.4812 0.0000
# 6 0.0000 0.0000 0.0000 0.0000 0.0000 8.0370
#
#
#
# Elastic Compliance Matrix: (Units=1/GPa)
#
#
# Indices 1 2 3 4 5 6 
#
# 1 0.033147 -0.006339 -0.008090 0.000000 0.000000 0.000000
# 2 -0.006339 0.016367 -0.005291 0.000000 0.000000 0.000000
# 3 -0.008090 -0.005291 0.013661 0.000000 0.000000 0.000000
# 4 0.000000 0.000000 0.000000 0.056926 0.000000 0.000000
# 5 0.000000 0.000000 0.000000 0.000000 0.064595 0.000000
# 6 0.000000 0.000000 0.000000 0.000000 0.000000 0.124425
#
#
# Mechanical properties :
#
#
# Convention : Reuss Voigt Hill
#
# Bulk Modulus (GPa) = 42.13200 54.76029 48.44614
# Shear Modulus (GPa) = 14.02629 16.90852 15.46741
#
# Velocity S-wave (km/s) = 2.96289 3.25310 3.11138
# Velocity P-wave (km/s) = 6.17045 6.95582 6.57487
#
# Compressibility (1/GPa) = 0.02373493
#
# Stress axis : x y z
#
# Youngs Moduli (GPa) = 30.16839 61.09754 73.20234
#
# Poissons Ratio (x) = 0.38730 0.59222
# Poissons Ratio (y) = 0.19124 0.38732
# Poissons Ratio (z) = 0.24407 0.32327
#
# Static dielectric constant tensor:
#      x y z
#    x 2.807600 0.000000 0.000000 
#    y 0.000000 3.004960 0.000000 
#    z 0.000000 0.000000 3.186150 
# 
# 
# High freq. dielectric constant tensor:
#      x y z
#    x 1.569530 0.000000 0.000000 
#    y 0.000000 1.604550 0.000000 
#    z 0.000000 0.000000 1.624680 
# 
# From -- ./inp_files/17764.got.cif
#   From: 2010.03.12/outbox.cif.g09.slc.cpg/sg47_9_cif.got.tgz:17764.got - 2010.04.14 03:12:58.
