data_PCOD8194178
_publ_section_title
;
Structure prediction by ZEFSAII (Michael W. Deem and Ramdas Pophale) SiO2 
 PCOD8194178
Probable space group: P M M M
;
_chemical_formula_sum "Si O2"
_cell_formula_units_Z 60
_cell_length_a 14.002525
_cell_length_b 25.661180
_cell_length_c 10.013780
_cell_angle_alpha 90.000000
_cell_angle_beta 90.000000
_cell_angle_gamma 90.000000
_cell_volume 3598.164593
_symmetry_space_group_name_H-M "P M M M"
_symmetry_group_IT_number 47
_symmetry_cell_setting 'orthorhombic'
loop_
_space_group_symop_operation_xyz
x,y,z
-x,-y,z
x,-y,-z
-x,y,-z
-x,-y,-z
x,y,-z
-x,y,z
x,-y,z
loop_
_atom_site_type_symbol
_atom_site_label
_atom_site_fract_x
_atom_site_fract_y
_atom_site_fract_z
Si Si1 0.889508 0.855101 0.651460
Si Si2 0.893149 0.345393 0.340822
Si Si3 0.767279 0.752717 0.655658
Si Si4 0.886581 0.057845 0.850258
Si Si5 0.608160 0.724464 0.843474
Si Si6 0.607038 0.439210 0.000000
Si Si7 0.782322 0.557634 0.351950
Si Si8 0.608403 0.390436 0.738642
O O1 0.876811 0.874646 0.500000
O O2 0.834808 0.801828 0.676536
O O3 0.845438 0.899922 0.746493
O O4 0.000000 0.844232 0.684594
O O5 0.894043 0.346797 0.500000
O O6 0.825294 0.298083 0.295168
O O7 0.853146 0.400402 0.281409
O O8 0.000000 0.336589 0.284881
O O9 0.734283 0.748090 0.500000
O O10 0.678089 0.761390 0.757226
O O11 0.000000 0.057081 0.841046
O O12 0.847664 0.000000 0.814094
O O13 0.853986 0.073143 0.000000
O O14 0.500000 0.746370 0.837296
O O15 0.613221 0.670758 0.761426
O O16 0.638871 0.718794 0.000000
O O17 0.656453 0.417935 0.131817
O O18 0.604099 0.500000 0.000000
O O19 0.500000 0.414594 0.000000
O O20 0.820918 0.547922 0.500000
O O21 0.779113 0.500000 0.280615
O O22 0.678799 0.586233 0.372038
O O23 0.500000 0.408463 0.706913
#
# Coordination Sequence:
#
# PCOD8194178 Si02
#       8
#     8   8   8   8   8   4   8   8
#     4   9  17  28  44  69  99 130 166 206 241 274
#     4   9  17  30  47  64  84 114 151 192 235 276
#     4  10  19  32  50  71  94 122 158 196 236 282
#     4   8  14  25  41  63  95 135 173 204 236 276
#     4  10  20  34  51  70  93 119 149 187 232 284
#     4   9  16  26  42  62  79  99 131 165 201 258
#     4  10  20  31  43  64  89 111 142 183 229 283
#     4  10  18  30  46  63  84 109 137 173 222 280
#
# _framework density 16.675167999999999
#
# number of rings (size 3 to 8) (size 9 to 14) (size 15 to 20)
#    0.000    2.600    2.000    1.200    0.000    4.000 
#    0.000    4.667    0.000    1.200    0.000    0.000 
#    0.000    3.200    0.000    5.867    0.000    4.533 
#
# Total GULP energy -743323.811562 kJ/mol
# GULP energy per Si atom -12388.730193 kJ/mol
# Density = 1.663721 g / cm^3
# Si number density = 16.675168 Si / 1000 Ang^3
#
#
#
# Elastic Constant Matrix: (Units=GPa)
#
#
# Indices 1 2 3 4 5 6 
#
# 1 75.3334 31.4979 31.1958 0.0000 0.0000 0.0000
# 2 31.4979 96.1172 45.0998 0.0000 0.0000 0.0000
# 3 31.1958 45.0998 60.9419 0.0000 0.0000 0.0000
# 4 0.0000 0.0000 0.0000 25.4780 0.0000 0.0000
# 5 0.0000 0.0000 0.0000 0.0000 16.8894 0.0000
# 6 0.0000 0.0000 0.0000 0.0000 0.0000 10.5738
#
#
#
# Elastic Compliance Matrix: (Units=1/GPa)
#
#
# Indices 1 2 3 4 5 6 
#
# 1 0.017171 -0.002302 -0.007086 0.000000 0.000000 0.000000
# 2 -0.002302 0.016247 -0.010845 0.000000 0.000000 0.000000
# 3 -0.007086 -0.010845 0.028062 0.000000 0.000000 0.000000
# 4 0.000000 0.000000 0.000000 0.039250 0.000000 0.000000
# 5 0.000000 0.000000 0.000000 0.000000 0.059209 0.000000
# 6 0.000000 0.000000 0.000000 0.000000 0.000000 0.094574
#
#
# Mechanical properties :
#
#
# Convention : Reuss Voigt Hill
#
# Bulk Modulus (GPa) = 47.58781 49.77552 48.68166
# Shear Modulus (GPa) = 16.55716 18.89484 17.72600
#
# Velocity S-wave (km/s) = 3.15449 3.36983 3.26393
# Velocity P-wave (km/s) = 6.47053 6.71237 6.59256
#
# Compressibility (1/GPa) = 0.02101379
#
# Stress axis : x y z
#
# Youngs Moduli (GPa) = 58.23676 61.54943 35.63491
#
# Poissons Ratio (x) = 0.14169 0.25252
# Poissons Ratio (y) = 0.13407 0.38647
# Poissons Ratio (z) = 0.41268 0.66751
#
# Static dielectric constant tensor:
#      x y z
#    x 3.065210 0.000000 0.000000 
#    y 0.000000 3.184620 0.000000 
#    z 0.000000 0.000000 3.139740 
# 
# 
# High freq. dielectric constant tensor:
#      x y z
#    x 1.614040 0.000000 0.000000 
#    y 0.000000 1.630500 0.000000 
#    z 0.000000 0.000000 1.626400 
# 
# From -- ./inp_files/18009.got.cif
#   From: 2010.03.12/outbox.cif.g09.slc.cpg/sg47_10_cif.got.tgz:18009.got - 2010.04.14 03:12:58.
