data_PCOD8194981
_publ_section_title
;
Structure prediction by ZEFSAII (Michael W. Deem and Ramdas Pophale) SiO2 
 PCOD8194981
Probable space group: P M M M
;
_chemical_formula_sum "Si O2"
_cell_formula_units_Z 64
_cell_length_a 30.546039
_cell_length_b 14.194589
_cell_length_c 9.747479
_cell_angle_alpha 90.000000
_cell_angle_beta 90.000000
_cell_angle_gamma 90.000000
_cell_volume 4226.394498
_symmetry_space_group_name_H-M "P M M M"
_symmetry_group_IT_number 47
_symmetry_cell_setting 'orthorhombic'
loop_
_space_group_symop_operation_xyz
x,y,z
-x,-y,z
x,-y,-z
-x,y,-z
-x,-y,-z
x,y,-z
-x,y,z
x,-y,z
loop_
_atom_site_type_symbol
_atom_site_label
_atom_site_fract_x
_atom_site_fract_y
_atom_site_fract_z
Si Si1 0.373788 0.109682 0.841257
Si Si2 0.283853 0.797689 0.158817
Si Si3 0.245196 0.395348 0.843389
Si Si4 0.548378 0.111893 0.653986
Si Si5 0.163141 0.604859 0.656246
Si Si6 0.790530 0.110499 0.341897
Si Si7 0.119268 0.207804 0.657614
Si Si8 0.949479 0.892170 0.157909
O O1 0.331373 0.167595 0.793342
O O2 0.414951 0.151151 0.757169
O O3 0.365216 0.000000 0.809123
O O4 0.384448 0.126026 0.000000
O O5 0.281984 0.684416 0.181257
O O6 0.247702 0.849564 0.248154
O O7 0.275805 0.824738 0.000000
O O8 0.263834 0.500000 0.807352
O O9 0.203990 0.369622 0.750611
O O10 0.228834 0.392503 0.000000
O O11 0.559554 0.145864 0.500000
O O12 0.500000 0.149114 0.696981
O O13 0.548190 0.000000 0.660449
O O14 0.179984 0.612564 0.500000
O O15 0.145014 0.500000 0.688489
O O16 0.124634 0.679970 0.681437
O O17 0.780136 0.135413 0.500000
O O18 0.836355 0.155984 0.296125
O O19 0.794260 0.000000 0.318010
O O20 0.108508 0.183769 0.500000
O O21 0.078951 0.176003 0.748909
O O22 0.000000 0.868042 0.184538
O O23 0.939737 0.000000 0.198091
O O24 0.937270 0.874538 0.000000
#
# Coordination Sequence:
#
# PCOD8194981 Si02
#       8
#     8   8   8   8   8   8   8   8
#     4   9  17  27  38  55  81 113 146 176 208 250
#     4  10  19  30  43  60  86 118 150 181 213 256
#     4   9  17  29  45  64  85 111 146 186 223 256
#     4   8  14  25  40  57  77 103 138 178 216 254
#     4   9  17  30  48  68  90 115 143 178 219 259
#     4  10  20  31  42  61  90 119 147 180 213 248
#     4  10  19  31  48  70  93 115 145 182 218 258
#     4   9  19  35  52  70  92 117 146 180 217 258
#
# _framework density 15.142931000000001
#
# number of rings (size 3 to 8) (size 9 to 14) (size 15 to 20)
#    0.000    2.750    1.250    1.500    0.000    3.500 
#    0.000    3.125    0.000    0.375    0.000    2.625 
#    0.000    0.500    0.000    6.250    0.000    1.250 
#
# Total GULP energy -793421.784737 kJ/mol
# GULP energy per Si atom -12397.215387 kJ/mol
# Density = 1.510847 g / cm^3
# Si number density = 15.142931 Si / 1000 Ang^3
#
#
#
# Elastic Constant Matrix: (Units=GPa)
#
#
# Indices 1 2 3 4 5 6 
#
# 1 107.5925 52.3786 60.7140 0.0000 0.0000 0.0000
# 2 52.3786 79.1041 38.6444 0.0000 0.0000 0.0000
# 3 60.7140 38.6444 65.5339 0.0000 0.0000 0.0000
# 4 0.0000 0.0000 0.0000 19.0055 0.0000 0.0000
# 5 0.0000 0.0000 0.0000 0.0000 16.7171 0.0000
# 6 0.0000 0.0000 0.0000 0.0000 0.0000 9.9965
#
#
#
# Elastic Compliance Matrix: (Units=1/GPa)
#
#
# Indices 1 2 3 4 5 6 
#
# 1 0.021522 -0.006335 -0.016203 0.000000 0.000000 0.000000
# 2 -0.006335 0.019622 -0.005702 0.000000 0.000000 0.000000
# 3 -0.016203 -0.005702 0.033633 0.000000 0.000000 0.000000
# 4 0.000000 0.000000 0.000000 0.052616 0.000000 0.000000
# 5 0.000000 0.000000 0.000000 0.000000 0.059819 0.000000
# 6 0.000000 0.000000 0.000000 0.000000 0.000000 0.100035
#
#
# Mechanical properties :
#
#
# Convention : Reuss Voigt Hill
#
# Bulk Modulus (GPa) = 54.65437 61.74495 58.19966
# Shear Modulus (GPa) = 14.29284 15.84337 15.06811
#
# Velocity S-wave (km/s) = 3.07557 3.23810 3.15788
# Velocity P-wave (km/s) = 6.98447 7.40565 7.19814
#
# Compressibility (1/GPa) = 0.01829680
#
# Stress axis : x y z
#
# Youngs Moduli (GPa) = 46.46461 50.96424 29.73263
#
# Poissons Ratio (x) = 0.32285 0.48177
# Poissons Ratio (y) = 0.29435 0.16953
# Poissons Ratio (z) = 0.75288 0.29058
#
# Static dielectric constant tensor:
#      x y z
#    x 2.859360 0.000000 0.000000 
#    y 0.000000 2.984190 0.000000 
#    z 0.000000 0.000000 2.991960 
# 
# 
# High freq. dielectric constant tensor:
#      x y z
#    x 1.560930 0.000000 0.000000 
#    y 0.000000 1.566840 0.000000 
#    z 0.000000 0.000000 1.586180 
# 
# From -- ./inp_files/8332.got.cif
#   From: 2010.03.12/outbox.cif.g09.slc.cpg/sg47_5_cif.got.tgz:8332.got - 2010.04.14 03:12:58.
