data_PCOD8194170
_publ_section_title
;
Structure prediction by ZEFSAII (Michael W. Deem and Ramdas Pophale) SiO2 
 PCOD8194170
Probable space group: P M M M
;
_chemical_formula_sum "Si O2"
_cell_formula_units_Z 56
_cell_length_a 23.085359
_cell_length_b 16.392403
_cell_length_c 9.216195
_cell_angle_alpha 90.000000
_cell_angle_beta 90.000000
_cell_angle_gamma 90.000000
_cell_volume 3487.634060
_symmetry_space_group_name_H-M "P M M M"
_symmetry_group_IT_number 47
_symmetry_cell_setting 'orthorhombic'
loop_
_space_group_symop_operation_xyz
x,y,z
-x,-y,z
x,-y,-z
-x,y,-z
-x,-y,-z
x,y,-z
-x,y,z
x,-y,z
loop_
_atom_site_type_symbol
_atom_site_label
_atom_site_fract_x
_atom_site_fract_y
_atom_site_fract_z
Si Si1 0.331829 0.164380 0.331298
Si Si2 0.736662 0.000000 0.663510
Si Si3 0.935851 0.684659 0.668402
Si Si4 0.853474 0.000000 0.170664
Si Si5 0.433499 0.093624 0.167455
Si Si6 0.761021 0.733738 0.170757
Si Si7 0.178020 0.593833 0.669828
Si Si8 0.878774 0.176209 0.831318
O O1 0.336029 0.187919 0.500000
O O2 0.301452 0.078529 0.304752
O O3 0.395895 0.155617 0.264482
O O4 0.296949 0.234844 0.247860
O O5 0.789152 0.000000 0.771857
O O6 0.760736 0.000000 0.500000
O O7 0.931246 0.704114 0.500000
O O8 0.887877 0.618076 0.713997
O O9 0.925575 0.770370 0.747623
O O10 0.000000 0.651491 0.709064
O O11 0.886780 0.917852 0.219887
O O12 0.846106 0.000000 0.000000
O O13 0.500000 0.119003 0.189791
O O14 0.424277 0.000000 0.217258
O O15 0.415231 0.103076 0.000000
O O16 0.776432 0.645462 0.236841
O O17 0.813411 0.795767 0.205981
O O18 0.749979 0.724942 0.000000
O O19 0.188710 0.610427 0.500000
O O20 0.187160 0.500000 0.710311
O O21 0.891605 0.187138 0.000000
#
# Coordination Sequence:
#
# PCOD8194170 Si02
#       8
#     8   4   8   4   8   8   8   8
#     4  11  20  30  44  67  96 126 163 201 240 281
#     4  10  20  28  39  64  93 121 154 196 238 277
#     4   9  18  32  49  68  90 117 149 184 223 272
#     4  10  18  30  45  62  85 115 156 196 232 275
#     4   9  18  31  45  62  89 129 173 211 244 276
#     4  10  19  31  48  69  93 122 153 190 233 279
#     4   9  18  33  52  73  97 121 144 179 229 283
#     4   9  18  30  45  64  86 115 150 190 233 273
#
# _framework density 16.056730000000002
#
# number of rings (size 3 to 8) (size 9 to 14) (size 15 to 20)
#    0.000    2.429    2.143    1.286    0.000    2.857 
#    0.000    2.500    0.000    2.143    0.000    4.000 
#    0.000    0.571    0.000    6.000    0.000    2.571 
#
# Total GULP energy -694356.947508 kJ/mol
# GULP energy per Si atom -12399.231206 kJ/mol
# Density = 1.602018 g / cm^3
# Si number density = 16.056730 Si / 1000 Ang^3
#
#
#
# Elastic Constant Matrix: (Units=GPa)
#
#
# Indices 1 2 3 4 5 6 
#
# 1 83.3159 40.8231 43.0640 0.0000 0.0000 0.0000
# 2 40.8231 102.5617 45.5570 0.0000 0.0000 0.0000
# 3 43.0640 45.5570 63.4177 0.0000 0.0000 0.0000
# 4 0.0000 0.0000 0.0000 23.9430 0.0000 0.0000
# 5 0.0000 0.0000 0.0000 0.0000 26.4670 0.0000
# 6 0.0000 0.0000 0.0000 0.0000 0.0000 19.3341
#
#
#
# Elastic Compliance Matrix: (Units=1/GPa)
#
#
# Indices 1 2 3 4 5 6 
#
# 1 0.018985 -0.002688 -0.010961 0.000000 0.000000 0.000000
# 2 -0.002688 0.014700 -0.008735 0.000000 0.000000 0.000000
# 3 -0.010961 -0.008735 0.029486 0.000000 0.000000 0.000000
# 4 0.000000 0.000000 0.000000 0.041766 0.000000 0.000000
# 5 0.000000 0.000000 0.000000 0.000000 0.037783 0.000000
# 6 0.000000 0.000000 0.000000 0.000000 0.000000 0.051722
#
#
# Mechanical properties :
#
#
# Convention : Reuss Voigt Hill
#
# Bulk Modulus (GPa) = 54.33571 56.46484 55.40027
# Shear Modulus (GPa) = 20.37956 21.93889 21.15923
#
# Velocity S-wave (km/s) = 3.56648 3.70041 3.63406
# Velocity P-wave (km/s) = 7.13253 7.31434 7.22401
#
# Compressibility (1/GPa) = 0.01840410
#
# Stress axis : x y z
#
# Youngs Moduli (GPa) = 52.67327 68.02723 33.91418
#
# Poissons Ratio (x) = 0.18285 0.37173
# Poissons Ratio (y) = 0.14158 0.29623
# Poissons Ratio (z) = 0.57735 0.59420
#
# Static dielectric constant tensor:
#      x y z
#    x 2.925050 0.000000 0.000000 
#    y 0.000000 2.957000 0.000000 
#    z 0.000000 0.000000 3.045500 
# 
# 
# High freq. dielectric constant tensor:
#      x y z
#    x 1.599180 0.000000 0.000000 
#    y 0.000000 1.595510 0.000000 
#    z 0.000000 0.000000 1.621610 
# 
# From -- ./inp_files/11322.got.cif
#   From: 2010.03.12/outbox.cif.g09.slc.cpg/sg47_6_cif.got.tgz:11322.got - 2010.04.14 03:12:58.
