data_PCOD8194181
_publ_section_title
;
Structure prediction by ZEFSAII (Michael W. Deem and Ramdas Pophale) SiO2 
 PCOD8194181
Probable space group: P M M M
;
_chemical_formula_sum "Si O2"
_cell_formula_units_Z 64
_cell_length_a 14.200536
_cell_length_b 18.720360
_cell_length_c 15.409428
_cell_angle_alpha 90.000000
_cell_angle_beta 90.000000
_cell_angle_gamma 90.000000
_cell_volume 4096.429182
_symmetry_space_group_name_H-M "P M M M"
_symmetry_group_IT_number 47
_symmetry_cell_setting 'orthorhombic'
loop_
_space_group_symop_operation_xyz
x,y,z
-x,-y,z
x,-y,-z
-x,y,-z
-x,-y,-z
x,y,-z
-x,y,z
x,-y,z
loop_
_atom_site_type_symbol
_atom_site_label
_atom_site_fract_x
_atom_site_fract_y
_atom_site_fract_z
Si Si1 0.283042 0.165855 0.901644
Si Si2 0.111855 0.419128 0.405474
Si Si3 0.604154 0.305247 0.102373
Si Si4 0.747116 0.083593 0.257272
Si Si5 0.107281 0.346987 0.234889
Si Si6 0.604879 0.084776 0.403073
Si Si7 0.107295 0.815279 0.806469
Si Si8 0.755899 0.417079 0.101797
O O1 0.342368 0.233666 0.868166
O O2 0.305032 0.100709 0.835125
O O3 0.171085 0.185127 0.894220
O O4 0.307513 0.143455 0.000000
O O5 0.148996 0.391843 0.500000
O O6 0.145686 0.500000 0.390647
O O7 0.152922 0.372231 0.326346
O O8 0.000000 0.414724 0.405606
O O9 0.500000 0.307897 0.144822
O O10 0.661351 0.375625 0.131116
O O11 0.595113 0.303782 0.000000
O O12 0.681255 0.113309 0.334508
O O13 0.846329 0.126957 0.260263
O O14 0.768132 0.000000 0.265238
O O15 0.113318 0.261953 0.236556
O O16 0.157659 0.383406 0.153556
O O17 0.000000 0.373039 0.227194
O O18 0.633765 0.109908 0.500000
O O19 0.500000 0.113763 0.380349
O O20 0.602938 0.000000 0.398471
O O21 0.000000 0.837072 0.828422
O O22 0.742405 0.500000 0.124748
O O23 0.776745 0.405669 0.000000
#
# Coordination Sequence:
#
# PCOD8194181 Si02
#       8
#     8   8   8   8   8   8   8   8
#     4   9  18  32  48  68  90 118 160 196 233 284
#     4   8  14  25  42  64  88 116 150 185 224 270
#     4   9  17  31  48  63  85 120 156 187 224 271
#     4   9  18  31  47  69  96 123 152 197 246 287
#     4  10  18  30  46  63  90 123 156 192 232 275
#     4   8  14  27  49  74  96 119 149 185 230 286
#     4   9  19  32  46  65  90 123 163 198 233 282
#     4  10  19  29  42  65  94 119 150 189 226 271
#
# _framework density 15.623362999999999
#
# number of rings (size 3 to 8) (size 9 to 14) (size 15 to 20)
#    0.750    2.250    1.250    1.125    0.000    2.500 
#    0.000    3.750    0.000    1.875    0.000    5.250 
#    0.000    0.500    0.000    2.625    0.000    0.250 
#
# Total GULP energy -792849.524614 kJ/mol
# GULP energy per Si atom -12388.273822 kJ/mol
# Density = 1.558780 g / cm^3
# Si number density = 15.623363 Si / 1000 Ang^3
#
#
#
# Elastic Constant Matrix: (Units=GPa)
#
#
# Indices 1 2 3 4 5 6 
#
# 1 92.1176 33.4848 36.5786 0.0000 0.0000 0.0000
# 2 33.4848 63.9727 29.7949 0.0000 0.0000 0.0000
# 3 36.5786 29.7949 80.4928 0.0000 0.0000 0.0000
# 4 0.0000 0.0000 0.0000 17.7964 0.0000 0.0000
# 5 0.0000 0.0000 0.0000 0.0000 20.8075 0.0000
# 6 0.0000 0.0000 0.0000 0.0000 0.0000 16.1407
#
#
#
# Elastic Compliance Matrix: (Units=1/GPa)
#
#
# Indices 1 2 3 4 5 6 
#
# 1 0.014710 -0.005542 -0.004633 0.000000 0.000000 0.000000
# 2 -0.005542 0.020976 -0.005246 0.000000 0.000000 0.000000
# 3 -0.004633 -0.005246 0.016471 0.000000 0.000000 0.000000
# 4 0.000000 0.000000 0.000000 0.056191 0.000000 0.000000
# 5 0.000000 0.000000 0.000000 0.000000 0.048060 0.000000
# 6 0.000000 0.000000 0.000000 0.000000 0.000000 0.061955
#
#
# Mechanical properties :
#
#
# Convention : Reuss Voigt Hill
#
# Bulk Modulus (GPa) = 46.91651 48.47774 47.69713
# Shear Modulus (GPa) = 19.50773 20.06392 19.78582
#
# Velocity S-wave (km/s) = 3.53742 3.58750 3.56255
# Velocity P-wave (km/s) = 6.83955 6.94669 6.89333
#
# Compressibility (1/GPa) = 0.02131446
#
# Stress axis : x y z
#
# Youngs Moduli (GPa) = 67.98139 47.67465 60.71320
#
# Poissons Ratio (x) = 0.26419 0.28131
# Poissons Ratio (y) = 0.37672 0.31850
# Poissons Ratio (z) = 0.31499 0.25010
#
# Static dielectric constant tensor:
#      x y z
#    x 3.022140 0.000000 0.000000 
#    y 0.000000 2.860410 0.000000 
#    z 0.000000 0.000000 3.044470 
# 
# 
# High freq. dielectric constant tensor:
#      x y z
#    x 1.581590 0.000000 0.000000 
#    y 0.000000 1.588450 0.000000 
#    z 0.000000 0.000000 1.585510 
# 
# From -- ./inp_files/24063.got.cif
#   From: 2010.03.12/outbox.cif.g09.slc.cpg/sg47_13_cif.got.tgz:24063.got - 2010.04.14 03:12:58.
