data_PCOD8194983
_publ_section_title
;
Structure prediction by ZEFSAII (Michael W. Deem and Ramdas Pophale) SiO2 
 PCOD8194983
Probable space group: P M M M
;
_chemical_formula_sum "Si O2"
_cell_formula_units_Z 36
_cell_length_a 10.524962
_cell_length_b 14.640565
_cell_length_c 14.413104
_cell_angle_alpha 90.000000
_cell_angle_beta 90.000000
_cell_angle_gamma 90.000000
_cell_volume 2220.935234
_symmetry_space_group_name_H-M "P M M M"
_symmetry_group_IT_number 47
_symmetry_cell_setting 'orthorhombic'
loop_
_space_group_symop_operation_xyz
x,y,z
-x,-y,z
x,-y,-z
-x,y,-z
-x,-y,-z
x,y,-z
-x,y,z
x,-y,z
loop_
_atom_site_type_symbol
_atom_site_label
_atom_site_fract_x
_atom_site_fract_y
_atom_site_fract_z
Si Si1 0.253693 0.607338 0.792396
Si Si2 0.000000 0.607592 0.104555
Si Si3 0.141558 0.102334 0.890022
Si Si4 0.357976 0.607757 0.399035
Si Si5 0.359453 0.766240 0.107243
O O1 0.281093 0.500000 0.808279
O O2 0.120437 0.639253 0.835984
O O3 0.259978 0.634102 0.683041
O O4 0.359145 0.666822 0.844816
O O5 0.000000 0.500000 0.093518
O O6 0.000000 0.651326 0.000000
O O7 0.252205 0.167121 0.848374
O O8 0.000000 0.138791 0.862853
O O9 0.160448 0.000000 0.850150
O O10 0.155051 0.098769 0.000000
O O11 0.310693 0.645316 0.500000
O O12 0.500000 0.646022 0.377669
O O13 0.366701 0.500000 0.404546
O O14 0.500000 0.809209 0.121533
O O15 0.329621 0.750161 0.000000
#
# Coordination Sequence:
#
# PCOD8194983 Si02
#       5
#     8   4   8   8   8
#     4  10  19  30  43  60  86 120 155 188 221 260
#     4   9  18  30  41  55  78 116 161 190 213 253
#     4   8  15  29  47  63  80 108 145 182 222 267
#     4   8  14  26  44  62  79 105 144 188 232 273
#     4  10  20  29  40  63  90 117 149 184 223 263
#
# _framework density 16.209388000000001
#
# number of rings (size 3 to 8) (size 9 to 14) (size 15 to 20)
#    0.000    3.000    0.000    2.667    1.556    3.111 
#    0.000    3.889    0.000    3.333    0.000    0.000 
#    0.000    0.889    0.000    7.111    0.000    1.556 
#
# Total GULP energy -445980.498995 kJ/mol
# GULP energy per Si atom -12388.347194 kJ/mol
# Density = 1.617249 g / cm^3
# Si number density = 16.209388 Si / 1000 Ang^3
#
#
#
# Elastic Constant Matrix: (Units=GPa)
#
#
# Indices 1 2 3 4 5 6 
#
# 1 106.1384 39.7192 57.9305 0.0000 0.0000 0.0000
# 2 39.7192 54.8766 19.3718 0.0000 0.0000 0.0000
# 3 57.9305 19.3718 101.5328 0.0000 0.0000 0.0000
# 4 0.0000 0.0000 0.0000 4.9440 0.0000 0.0000
# 5 0.0000 0.0000 0.0000 0.0000 21.8068 0.0000
# 6 0.0000 0.0000 0.0000 0.0000 0.0000 17.4576
#
#
#
# Elastic Compliance Matrix: (Units=1/GPa)
#
#
# Indices 1 2 3 4 5 6 
#
# 1 0.017535 -0.009821 -0.008131 0.000000 0.000000 0.000000
# 2 -0.009821 0.025040 0.000826 0.000000 0.000000 0.000000
# 3 -0.008131 0.000826 0.014330 0.000000 0.000000 0.000000
# 4 0.000000 0.000000 0.000000 0.202267 0.000000 0.000000
# 5 0.000000 0.000000 0.000000 0.000000 0.045857 0.000000
# 6 0.000000 0.000000 0.000000 0.000000 0.000000 0.057282
#
#
# Mechanical properties :
#
#
# Convention : Reuss Voigt Hill
#
# Bulk Modulus (GPa) = 44.14394 55.17677 49.66036
# Shear Modulus (GPa) = 12.37275 18.54342 15.45809
#
# Velocity S-wave (km/s) = 2.76580 3.38597 3.09147
# Velocity P-wave (km/s) = 6.12309 7.02853 6.59138
#
# Compressibility (1/GPa) = 0.02265316
#
# Stress axis : x y z
#
# Youngs Moduli (GPa) = 57.02949 39.93676 69.78127
#
# Poissons Ratio (x) = 0.39223 0.56738
# Poissons Ratio (y) = 0.56010 -0.05766
# Poissons Ratio (z) = 0.46370 -0.03300
#
# Static dielectric constant tensor:
#      x y z
#    x 3.252500 0.000000 0.000000 
#    y 0.000000 2.915380 0.000000 
#    z 0.000000 0.000000 3.159480 
# 
# 
# High freq. dielectric constant tensor:
#      x y z
#    x 1.626480 0.000000 0.000000 
#    y 0.000000 1.591200 0.000000 
#    z 0.000000 0.000000 1.588680 
# 
# From -- ./inp_files/5492.got.cif
#   From: 2010.03.12/outbox.cif.g09.slc.cpg/sg47_3_cif.got.tgz:5492.got - 2010.04.14 03:12:58.
