data_PCOD8194678
_publ_section_title
;
Structure prediction by ZEFSAII (Michael W. Deem and Ramdas Pophale) SiO2 
 PCOD8194678
Probable space group: P M M M
;
_chemical_formula_sum "Si O2"
_cell_formula_units_Z 64
_cell_length_a 19.182604
_cell_length_b 9.166927
_cell_length_c 24.155744
_cell_angle_alpha 90.000000
_cell_angle_beta 90.000000
_cell_angle_gamma 90.000000
_cell_volume 4247.679619
_symmetry_space_group_name_H-M "P M M M"
_symmetry_group_IT_number 47
_symmetry_cell_setting 'orthorhombic'
loop_
_space_group_symop_operation_xyz
x,y,z
-x,-y,z
x,-y,-z
-x,y,-z
-x,-y,-z
x,y,-z
-x,y,z
x,-y,z
loop_
_atom_site_type_symbol
_atom_site_label
_atom_site_fract_x
_atom_site_fract_y
_atom_site_fract_z
Si Si1 0.078602 0.673615 0.938863
Si Si2 0.922799 0.674026 0.273393
Si Si3 0.578430 0.829399 0.741435
Si Si4 0.157341 0.673334 0.833504
Si Si5 0.422167 0.666965 0.372523
Si Si6 0.208399 0.672886 0.664471
Si Si7 0.709980 0.672688 0.439052
Si Si8 0.707814 0.671475 0.227258
O O1 0.079906 0.500000 0.937382
O O2 0.131525 0.737417 0.892545
O O3 0.000000 0.727579 0.926060
O O4 0.101889 0.728502 0.000000
O O5 0.924778 0.500000 0.272883
O O6 0.894647 0.731077 0.214287
O O7 0.869789 0.729265 0.321492
O O8 0.000000 0.738205 0.284454
O O9 0.500000 0.795006 0.762785
O O10 0.588969 0.768039 0.680158
O O11 0.634599 0.754352 0.782348
O O12 0.592845 0.000000 0.739959
O O13 0.153711 0.500000 0.833773
O O14 0.236900 0.720874 0.820164
O O15 0.500000 0.684957 0.396893
O O16 0.408087 0.500000 0.353673
O O17 0.368295 0.713816 0.420198
O O18 0.207734 0.500000 0.661514
O O19 0.234765 0.737377 0.605668
O O20 0.261398 0.718687 0.713104
O O21 0.723770 0.740965 0.500000
O O22 0.718202 0.500000 0.442280
O O23 0.693850 0.500000 0.224154
#
# Coordination Sequence:
#
# PCOD8194678 Si02
#       8
#     8   8   8   8   8   8   8   8
#     4   8  12  17  26  44  77 118 146 160 182 220
#     4   8  12  17  27  43  65  93 121 152 186 218
#     4  10  19  28  39  56  77  99 121 147 185 232
#     4   8  13  19  30  49  72  99 133 165 186 212
#     4   9  16  26  40  55  71  93 121 150 179 218
#     4   8  13  21  32  48  68  88 116 151 186 221
#     4   9  15  22  34  51  69  89 117 155 189 215
#     4   9  15  25  40  55  73  98 127 158 188 219
#
# _framework density 15.067049000000001
#
# number of rings (size 3 to 8) (size 9 to 14) (size 15 to 20)
#    0.000    3.375    1.250    2.625    0.000    2.500 
#    0.000    1.250    0.000    0.750    0.000    4.375 
#    0.000   13.500    0.000    7.625    0.000    7.250 
#
# Total GULP energy -792887.105620 kJ/mol
# GULP energy per Si atom -12388.861025 kJ/mol
# Density = 1.503276 g / cm^3
# Si number density = 15.067049 Si / 1000 Ang^3
#
#
#
# Elastic Constant Matrix: (Units=GPa)
#
#
# Indices 1 2 3 4 5 6 
#
# 1 138.8888 26.2452 74.5685 0.0000 0.0000 0.0000
# 2 26.2452 20.4051 12.8886 0.0000 0.0000 0.0000
# 3 74.5685 12.8886 110.4353 0.0000 0.0000 0.0000
# 4 0.0000 0.0000 0.0000 2.2619 0.0000 0.0000
# 5 0.0000 0.0000 0.0000 0.0000 25.2825 0.0000
# 6 0.0000 0.0000 0.0000 0.0000 0.0000 5.8005
#
#
#
# Elastic Compliance Matrix: (Units=1/GPa)
#
#
# Indices 1 2 3 4 5 6 
#
# 1 0.013840 -0.012845 -0.007846 0.000000 0.000000 0.000000
# 2 -0.012845 0.064829 0.001107 0.000000 0.000000 0.000000
# 3 -0.007846 0.001107 0.014223 0.000000 0.000000 0.000000
# 4 0.000000 0.000000 0.000000 0.442111 0.000000 0.000000
# 5 0.000000 0.000000 0.000000 0.000000 0.039553 0.000000
# 6 0.000000 0.000000 0.000000 0.000000 0.000000 0.172399
#
#
# Mechanical properties :
#
#
# Convention : Reuss Voigt Hill
#
# Bulk Modulus (GPa) = 18.61314 55.23708 36.92511
# Shear Modulus (GPa) = 6.21867 17.07078 11.64472
#
# Velocity S-wave (km/s) = 2.03379 3.36964 2.78305
# Velocity P-wave (km/s) = 4.23030 7.20276 5.90657
#
# Compressibility (1/GPa) = 0.05372549
#
# Stress axis : x y z
#
# Youngs Moduli (GPa) = 72.25668 15.42509 70.30639
#
# Poissons Ratio (x) = 0.19813 0.55160
# Poissons Ratio (y) = 0.92813 -0.07784
# Poissons Ratio (z) = 0.56690 -0.01708
#
# Static dielectric constant tensor:
#      x y z
#    x 3.264300 0.000000 0.000000 
#    y 0.000000 2.369720 0.000000 
#    z 0.000000 0.000000 3.060290 
# 
# 
# High freq. dielectric constant tensor:
#      x y z
#    x 1.583130 0.000000 0.000000 
#    y 0.000000 1.516750 0.000000 
#    z 0.000000 0.000000 1.549840 
# 
# From -- ./inp_files/32947.got.cif
#   From: 2010.03.12/outbox.cif.g09.slc.cpg/sg47_17_cif.got.tgz:32947.got - 2010.04.14 03:12:58.
