data_PCOD8194129
_publ_section_title
;
Structure prediction by ZEFSAII (Michael W. Deem and Ramdas Pophale) SiO2 
 PCOD8194129
Probable space group: P M M M
;
_chemical_formula_sum "Si O2"
_cell_formula_units_Z 40
_cell_length_a 9.743871
_cell_length_b 11.796326
_cell_length_c 19.827634
_cell_angle_alpha 90.000000
_cell_angle_beta 90.000000
_cell_angle_gamma 90.000000
_cell_volume 2279.025504
_symmetry_space_group_name_H-M "P M M M"
_symmetry_group_IT_number 47
_symmetry_cell_setting 'orthorhombic'
loop_
_space_group_symop_operation_xyz
x,y,z
-x,-y,z
x,-y,-z
-x,y,-z
-x,-y,-z
x,y,-z
-x,y,z
x,-y,z
loop_
_atom_site_type_symbol
_atom_site_label
_atom_site_fract_x
_atom_site_fract_y
_atom_site_fract_z
Si Si1 0.841489 0.252756 0.424831
Si Si2 0.345476 0.270661 0.184027
Si Si3 0.351746 0.500000 0.736597
Si Si4 0.158232 0.629914 0.921918
Si Si5 0.843131 0.500000 0.386341
Si Si6 0.660155 0.132251 0.687603
O O1 0.813153 0.204499 0.500000
O O2 0.807266 0.386927 0.427942
O O3 0.745059 0.190892 0.371652
O O4 0.000000 0.232081 0.404369
O O5 0.500000 0.241017 0.159951
O O6 0.338036 0.392253 0.217109
O O7 0.245905 0.277117 0.119530
O O8 0.294284 0.178642 0.239052
O O9 0.500000 0.500000 0.699604
O O10 0.233151 0.500000 0.683546
O O11 0.203963 0.500000 0.907142
O O12 0.000000 0.645172 0.901712
O O13 0.181426 0.658055 0.000000
O O14 0.000000 0.500000 0.365265
O O15 0.500000 0.159907 0.675483
O O16 0.691538 0.000000 0.685685
#
# Coordination Sequence:
#
# PCOD8194129 Si02
#       6
#     8   8   4   8   4   8
#     4  10  21  36  54  77 105 135 168 210 259 311
#     4  10  19  32  51  75 103 132 166 210 256 301
#     4  10  18  29  48  76 104 130 166 213 258 304
#     4   9  18  31  48  75 110 141 166 196 241 300
#     4  10  19  32  52  77 105 135 166 202 253 316
#     4  10  22  39  56  74  99 134 177 221 261 302
#
# _framework density 17.551361
#
# number of rings (size 3 to 8) (size 9 to 14) (size 15 to 20)
#    0.000    2.200    3.000    0.900    0.000    4.400 
#    0.000    3.000    0.000    2.400    0.000    4.200 
#    0.000    0.000    0.000    0.000    0.000    0.000 
#
# Total GULP energy -495851.485898 kJ/mol
# GULP energy per Si atom -12396.287147 kJ/mol
# Density = 1.751141 g / cm^3
# Si number density = 17.551361 Si / 1000 Ang^3
#
#
#
# Elastic Constant Matrix: (Units=GPa)
#
#
# Indices 1 2 3 4 5 6 
#
# 1 76.1153 45.7846 69.3972 0.0000 0.0000 0.0000
# 2 45.7846 88.7648 46.0970 0.0000 0.0000 0.0000
# 3 69.3972 46.0970 114.0664 0.0000 0.0000 0.0000
# 4 0.0000 0.0000 0.0000 3.7318 0.0000 0.0000
# 5 0.0000 0.0000 0.0000 0.0000 68.6171 0.0000
# 6 0.0000 0.0000 0.0000 0.0000 0.0000 23.0124
#
#
#
# Elastic Compliance Matrix: (Units=1/GPa)
#
#
# Indices 1 2 3 4 5 6 
#
# 1 0.034005 -0.008601 -0.017212 0.000000 0.000000 0.000000
# 2 -0.008601 0.016433 -0.001408 0.000000 0.000000 0.000000
# 3 -0.017212 -0.001408 0.019808 0.000000 0.000000 0.000000
# 4 0.000000 0.000000 0.000000 0.267970 0.000000 0.000000
# 5 0.000000 0.000000 0.000000 0.000000 0.014574 0.000000
# 6 0.000000 0.000000 0.000000 0.000000 0.000000 0.043455
#
#
# Mechanical properties :
#
#
# Convention : Reuss Voigt Hill
#
# Bulk Modulus (GPa) = 63.28052 66.83379 65.05715
# Shear Modulus (GPa) = 10.96599 26.91677 18.94138
#
# Velocity S-wave (km/s) = 2.50230 3.92037 3.28868
# Velocity P-wave (km/s) = 6.66944 7.65859 7.18107
#
# Compressibility (1/GPa) = 0.01580265
#
# Stress axis : x y z
#
# Youngs Moduli (GPa) = 29.40765 60.85153 50.48469
#
# Poissons Ratio (x) = 0.52337 0.86897
# Poissons Ratio (y) = 0.25293 0.07111
# Poissons Ratio (z) = 0.50618 0.08571
#
# Static dielectric constant tensor:
#      x y z
#    x 3.366050 0.000000 0.000000 
#    y 0.000000 3.319920 0.000000 
#    z 0.000000 0.000000 3.228200 
# 
# 
# High freq. dielectric constant tensor:
#      x y z
#    x 1.678590 0.000000 0.000000 
#    y 0.000000 1.660440 0.000000 
#    z 0.000000 0.000000 1.676010 
# 
# From -- ./inp_files/4091.got.cif
#   From: 2010.03.12/outbox.cif.g09.slc.cpg/sg47_3_cif.got.tgz:4091.got - 2010.04.14 03:12:58.
