data_PCOD8194354
_publ_section_title
;
Structure prediction by ZEFSAII (Michael W. Deem and Ramdas Pophale) SiO2 
 PCOD8194354
Probable space group: P M M M
;
_chemical_formula_sum "Si O2"
_cell_formula_units_Z 52
_cell_length_a 8.887619
_cell_length_b 18.022985
_cell_length_c 17.041692
_cell_angle_alpha 90.000000
_cell_angle_beta 90.000000
_cell_angle_gamma 90.000000
_cell_volume 2729.762491
_symmetry_space_group_name_H-M "P M M M"
_symmetry_group_IT_number 47
_symmetry_cell_setting 'orthorhombic'
loop_
_space_group_symop_operation_xyz
x,y,z
-x,-y,z
x,-y,-z
-x,y,-z
-x,-y,-z
x,y,-z
-x,y,z
x,-y,z
loop_
_atom_site_type_symbol
_atom_site_label
_atom_site_fract_x
_atom_site_fract_y
_atom_site_fract_z
Si Si1 0.825215 0.288905 0.409407
Si Si2 0.179191 0.000000 0.588295
Si Si3 0.820364 0.642889 0.831468
Si Si4 0.673652 0.803297 0.171111
Si Si5 0.825882 0.639400 0.000000
Si Si6 0.327185 0.416441 0.317526
Si Si7 0.670192 0.789886 0.000000
Si Si8 0.822073 0.857599 0.317509
O O1 0.792417 0.272723 0.500000
O O2 0.734481 0.361197 0.383296
O O3 0.770409 0.217485 0.360974
O O4 0.000000 0.304451 0.393674
O O5 0.239064 0.927242 0.633064
O O6 0.244317 0.000000 0.500000
O O7 0.000000 0.000000 0.585345
O O8 0.753005 0.724159 0.818319
O O9 0.763757 0.589136 0.763678
O O10 0.000000 0.649542 0.828586
O O11 0.763779 0.608717 0.916264
O O12 0.500000 0.793741 0.193258
O O13 0.692402 0.835262 0.081554
O O14 0.749462 0.861047 0.230949
O O15 0.795384 0.726794 0.000000
O O16 0.000000 0.623322 0.000000
O O17 0.500000 0.397459 0.300563
O O18 0.307553 0.500000 0.349635
O O19 0.500000 0.755745 0.000000
O O20 0.000000 0.861589 0.309026
#
# Coordination Sequence:
#
# PCOD8194354 Si02
#       8
#     8   4   8   8   4   8   4   8
#     4  10  21  37  58  82 106 135 176 223 270 324
#     4   9  18  34  57  84 115 148 180 217 265 323
#     4  10  18  32  53  78 106 139 179 223 270 321
#     4  10  18  30  51  78 110 144 180 221 266 317
#     4   8  16  28  47  75 105 134 171 220 270 317
#     4  11  24  39  54  75 106 144 183 224 272 323
#     4   8  16  28  44  72 106 142 180 217 259 312
#     4  10  19  33  56  85 113 143 180 219 263 319
#
# _framework density 19.049275999999999
#
# number of rings (size 3 to 8) (size 9 to 14) (size 15 to 20)
#    0.000    2.231    1.538    1.846    0.000    4.923 
#    0.000    2.308    0.000    4.615    0.000    3.231 
#    0.000    0.000    0.000    0.000    0.000    0.000 
#
# Total GULP energy -644463.285724 kJ/mol
# GULP energy per Si atom -12393.524725 kJ/mol
# Density = 1.900592 g / cm^3
# Si number density = 19.049276 Si / 1000 Ang^3
#
#
#
# Elastic Constant Matrix: (Units=GPa)
#
#
# Indices 1 2 3 4 5 6 
#
# 1 48.9654 30.6953 31.2702 0.0000 0.0000 0.0000
# 2 30.6953 92.7899 52.8920 0.0000 0.0000 0.0000
# 3 31.2702 52.8920 134.8553 0.0000 0.0000 0.0000
# 4 0.0000 0.0000 0.0000 21.4449 0.0000 0.0000
# 5 0.0000 0.0000 0.0000 0.0000 25.3821 0.0000
# 6 0.0000 0.0000 0.0000 0.0000 0.0000 11.4563
#
#
#
# Elastic Compliance Matrix: (Units=1/GPa)
#
#
# Indices 1 2 3 4 5 6 
#
# 1 0.027027 -0.006914 -0.003555 0.000000 0.000000 0.000000
# 2 -0.006914 0.015649 -0.004534 0.000000 0.000000 0.000000
# 3 -0.003555 -0.004534 0.010018 0.000000 0.000000 0.000000
# 4 0.000000 0.000000 0.000000 0.046631 0.000000 0.000000
# 5 0.000000 0.000000 0.000000 0.000000 0.039398 0.000000
# 6 0.000000 0.000000 0.000000 0.000000 0.000000 0.087289
#
#
# Mechanical properties :
#
#
# Convention : Reuss Voigt Hill
#
# Bulk Modulus (GPa) = 44.07864 56.25841 50.16852
# Shear Modulus (GPa) = 18.96942 22.44021 20.70481
#
# Velocity S-wave (km/s) = 3.15907 3.43594 3.30041
# Velocity P-wave (km/s) = 6.04117 6.73336 6.39663
#
# Compressibility (1/GPa) = 0.02268673
#
# Stress axis : x y z
#
# Youngs Moduli (GPa) = 36.99952 63.90174 99.81800
#
# Poissons Ratio (x) = 0.44183 0.35488
# Poissons Ratio (y) = 0.25582 0.45262
# Poissons Ratio (z) = 0.13154 0.28976
#
# Static dielectric constant tensor:
#      x y z
#    x 3.404840 0.000000 0.000000 
#    y 0.000000 3.192430 0.000000 
#    z 0.000000 0.000000 3.957060 
# 
# 
# High freq. dielectric constant tensor:
#      x y z
#    x 1.731210 0.000000 0.000000 
#    y 0.000000 1.699530 0.000000 
#    z 0.000000 0.000000 1.764480 
# 
# From -- ./inp_files/26830.got.cif
#   From: 2010.03.12/outbox.cif.g09.slc.cpg/sg47_14_cif.got.tgz:26830.got - 2010.04.14 03:12:58.
