data_PCOD8194087
_publ_section_title
;
Structure prediction by ZEFSAII (Michael W. Deem and Ramdas Pophale) SiO2 
 PCOD8194087
Probable space group: P M M M
;
_chemical_formula_sum "Si O2"
_cell_formula_units_Z 52
_cell_length_a 12.814744
_cell_length_b 26.218833
_cell_length_c 9.332229
_cell_angle_alpha 90.000000
_cell_angle_beta 90.000000
_cell_angle_gamma 90.000000
_cell_volume 3135.513531
_symmetry_space_group_name_H-M "P M M M"
_symmetry_group_IT_number 47
_symmetry_cell_setting 'orthorhombic'
loop_
_space_group_symop_operation_xyz
x,y,z
-x,-y,z
x,-y,-z
-x,y,-z
-x,-y,-z
x,y,-z
-x,y,z
x,-y,z
loop_
_atom_site_type_symbol
_atom_site_label
_atom_site_fract_x
_atom_site_fract_y
_atom_site_fract_z
Si Si1 0.876900 0.597395 0.665066
Si Si2 0.000000 0.120659 0.168870
Si Si3 0.204237 0.941362 0.833050
Si Si4 0.000000 0.773288 0.329567
Si Si5 0.192960 0.706176 0.670417
Si Si6 0.620284 0.884207 0.333146
Si Si7 0.385261 0.769274 0.329404
Si Si8 0.124200 0.500000 0.161857
O O1 0.848593 0.586627 0.500000
O O2 0.820998 0.648295 0.725142
O O3 0.833985 0.550207 0.757634
O O4 0.000000 0.605231 0.682873
O O5 0.101999 0.089311 0.215985
O O6 0.000000 0.172618 0.255093
O O7 0.000000 0.131620 0.000000
O O8 0.306683 0.922567 0.751773
O O9 0.184336 0.000000 0.794156
O O10 0.225406 0.933782 0.000000
O O11 0.100149 0.742081 0.274939
O O12 0.000000 0.780996 0.500000
O O13 0.190725 0.705396 0.500000
O O14 0.301145 0.729113 0.731500
O O15 0.646548 0.889242 0.500000
O O16 0.500000 0.898684 0.303500
O O17 0.642680 0.826509 0.279263
O O18 0.385399 0.768569 0.500000
O O19 0.500000 0.753564 0.271936
O O20 0.000000 0.500000 0.165995
O O21 0.166826 0.500000 0.000000
#
# Coordination Sequence:
#
# PCOD8194087 Si02
#       8
#     8   4   8   4   8   8   8   4
#     4   9  15  25  40  60  86 115 147 181 217 254
#     4  10  21  36  50  66  91 123 156 191 231 273
#     4  10  21  36  52  68  89 120 157 193 230 275
#     4  10  18  29  47  70  93 118 149 183 222 271
#     4   9  15  24  41  65  91 117 147 182 217 259
#     4   9  18  33  52  74  98 121 147 185 234 282
#     4   8  14  25  42  65  92 119 144 173 216 267
#     4   9  17  27  39  57  84 119 152 180 215 260
#
# _framework density 16.584204
#
# number of rings (size 3 to 8) (size 9 to 14) (size 15 to 20)
#    0.000    2.846    0.769    2.308    0.000    4.615 
#    0.000    2.308    0.000    2.308    0.000    0.538 
#    0.000    4.308    0.000    0.000    0.000    0.000 
#
# Total GULP energy -644679.709446 kJ/mol
# GULP energy per Si atom -12397.686720 kJ/mol
# Density = 1.654646 g / cm^3
# Si number density = 16.584204 Si / 1000 Ang^3
#
#
#
# Elastic Constant Matrix: (Units=GPa)
#
#
# Indices 1 2 3 4 5 6 
#
# 1 98.7223 70.4589 31.7507 0.0000 0.0000 0.0000
# 2 70.4589 153.5746 50.4177 0.0000 0.0000 0.0000
# 3 31.7507 50.4177 42.7291 0.0000 0.0000 0.0000
# 4 0.0000 0.0000 0.0000 12.8877 0.0000 0.0000
# 5 0.0000 0.0000 0.0000 0.0000 15.4161 0.0000
# 6 0.0000 0.0000 0.0000 0.0000 0.0000 8.8818
#
#
#
# Elastic Compliance Matrix: (Units=1/GPa)
#
#
# Indices 1 2 3 4 5 6 
#
# 1 0.015734 -0.005518 -0.005181 0.000000 0.000000 0.000000
# 2 -0.005518 0.012564 -0.010724 0.000000 0.000000 0.000000
# 3 -0.005181 -0.010724 0.039907 0.000000 0.000000 0.000000
# 4 0.000000 0.000000 0.000000 0.077593 0.000000 0.000000
# 5 0.000000 0.000000 0.000000 0.000000 0.064867 0.000000
# 6 0.000000 0.000000 0.000000 0.000000 0.000000 0.112590
#
#
# Mechanical properties :
#
#
# Convention : Reuss Voigt Hill
#
# Bulk Modulus (GPa) = 39.43399 66.69786 53.06593
# Shear Modulus (GPa) = 13.34923 16.93036 15.13979
#
# Velocity S-wave (km/s) = 2.84022 3.19858 3.02471
# Velocity P-wave (km/s) = 5.88094 7.34481 6.65326
#
# Compressibility (1/GPa) = 0.02535883
#
# Stress axis : x y z
#
# Youngs Moduli (GPa) = 63.55814 79.59415 25.05830
#
# Poissons Ratio (x) = 0.43918 0.12982
# Poissons Ratio (y) = 0.35069 0.26874
# Poissons Ratio (z) = 0.32927 0.85360
#
# Static dielectric constant tensor:
#      x y z
#    x 3.197810 0.000000 0.000000 
#    y 0.000000 3.257090 0.000000 
#    z 0.000000 0.000000 2.805500 
# 
# 
# High freq. dielectric constant tensor:
#      x y z
#    x 1.625520 0.000000 0.000000 
#    y 0.000000 1.645480 0.000000 
#    z 0.000000 0.000000 1.603870 
# 
# From -- ./inp_files/4678.got.cif
#   From: 2010.03.12/outbox.cif.g09.slc.cpg/sg47_3_cif.got.tgz:4678.got - 2010.04.14 03:12:58.
