data_PCOD8194640
_publ_section_title
;
Structure prediction by ZEFSAII (Michael W. Deem and Ramdas Pophale) SiO2 
 PCOD8194640
Probable space group: P M M M
;
_chemical_formula_sum "Si O2"
_cell_formula_units_Z 56
_cell_length_a 13.936487
_cell_length_b 29.288381
_cell_length_c 9.224191
_cell_angle_alpha 90.000000
_cell_angle_beta 90.000000
_cell_angle_gamma 90.000000
_cell_volume 3765.103911
_symmetry_space_group_name_H-M "P M M M"
_symmetry_group_IT_number 47
_symmetry_cell_setting 'orthorhombic'
loop_
_space_group_symop_operation_xyz
x,y,z
-x,-y,z
x,-y,-z
-x,y,-z
-x,-y,-z
x,y,-z
-x,y,z
x,-y,z
loop_
_atom_site_type_symbol
_atom_site_label
_atom_site_fract_x
_atom_site_fract_y
_atom_site_fract_z
Si Si1 0.711053 0.638634 0.173050
Si Si2 0.208529 0.220162 0.829352
Si Si3 0.393972 0.728044 0.171843
Si Si4 0.391811 0.550206 0.172484
Si Si5 0.111303 0.137914 0.329679
Si Si6 0.886213 0.949846 0.837533
Si Si7 0.894625 0.312147 0.828077
O O1 0.640615 0.678606 0.230144
O O2 0.676984 0.589786 0.236742
O O3 0.819263 0.649623 0.228097
O O4 0.708976 0.637906 0.000000
O O5 0.318010 0.232697 0.784122
O O6 0.176909 0.176151 0.741780
O O7 0.140134 0.261891 0.782304
O O8 0.199977 0.210214 0.000000
O O9 0.500000 0.739178 0.235335
O O10 0.397809 0.725244 0.000000
O O11 0.500000 0.558799 0.228013
O O12 0.356090 0.500000 0.224674
O O13 0.390812 0.552124 0.000000
O O14 0.126158 0.139099 0.500000
O O15 0.149867 0.089139 0.271986
O O16 0.000000 0.145778 0.286831
O O17 0.000000 0.951119 0.836313
O O18 0.847448 0.000000 0.788914
O O19 0.849600 0.938607 0.000000
O O20 0.000000 0.321615 0.760632
O O21 0.899114 0.314328 0.000000
#
# Coordination Sequence:
#
# PCOD8194640 Si02
#       7
#     8   8   8   8   8   8   8
#     4   8  12  17  26  40  58  80 106 141 183 218
#     4   9  16  25  38  54  71  94 123 154 187 222
#     4   8  13  21  34  52  70  86 110 149 192 226
#     4   8  12  16  22  33  50  74 104 137 175 221
#     4  10  19  27  36  53  78 106 131 156 186 217
#     4   8  14  25  40  56  74  99 131 162 189 218
#     4   8  13  20  30  44  60  80 110 146 178 208
#
# _framework density 14.873428000000001
#
# number of rings (size 3 to 8) (size 9 to 14) (size 15 to 20)
#    0.000    3.571    0.000    3.857    0.000    3.429 
#    0.000    1.429    0.000    0.857    0.000    3.000 
#    0.000    0.571    0.000    6.571    0.000   13.571 
#
# Total GULP energy -693778.052089 kJ/mol
# GULP energy per Si atom -12388.893787 kJ/mol
# Density = 1.483958 g / cm^3
# Si number density = 14.873428 Si / 1000 Ang^3
#
#
#
# Elastic Constant Matrix: (Units=GPa)
#
#
# Indices 1 2 3 4 5 6 
#
# 1 111.1462 68.2127 20.1291 0.0000 0.0000 0.0000
# 2 68.2127 140.3515 33.8498 0.0000 0.0000 0.0000
# 3 20.1291 33.8498 25.9603 0.0000 0.0000 0.0000
# 4 0.0000 0.0000 0.0000 -0.3727 0.0000 0.0000
# 5 0.0000 0.0000 0.0000 0.0000 5.8443 0.0000
# 6 0.0000 0.0000 0.0000 0.0000 0.0000 20.6439
#
#
#
# Elastic Compliance Matrix: (Units=1/GPa)
#
#
# Indices 1 2 3 4 5 6 
#
# 1 0.012948 -0.005647 -0.002676 0.000000 0.000000 0.000000
# 2 -0.005647 0.012857 -0.012385 0.000000 0.000000 0.000000
# 3 -0.002676 -0.012385 0.056744 0.000000 0.000000 0.000000
# 4 0.000000 0.000000 0.000000 -2.683140 0.000000 0.000000
# 5 0.000000 0.000000 0.000000 0.000000 0.171108 0.000000
# 6 0.000000 0.000000 0.000000 0.000000 0.000000 0.048441
#
#
# Mechanical properties :
#
#
# Convention : Reuss Voigt Hill
#
# Bulk Modulus (GPa) = 24.31189 57.98234 41.14712
# Shear Modulus (GPa) = -2.14969 15.57417 6.71224
#
# Velocity S-wave (km/s) = -1.20352 3.23942 2.12667
# Velocity P-wave (km/s) = 3.80132 7.28425 5.80992
#
# Compressibility (1/GPa) = 0.04113213
#
# Stress axis : x y z
#
# Youngs Moduli (GPa) = 77.23397 77.78032 17.62300
#
# Poissons Ratio (x) = 0.43926 0.04715
# Poissons Ratio (y) = 0.43617 0.21826
# Poissons Ratio (z) = 0.20665 0.96332
#
# Static dielectric constant tensor:
#      x y z
#    x 3.110670 0.000000 0.000000 
#    y 0.000000 3.126800 0.000000 
#    z 0.000000 0.000000 2.388850 
# 
# 
# High freq. dielectric constant tensor:
#      x y z
#    x 1.546600 0.000000 0.000000 
#    y 0.000000 1.570410 0.000000 
#    z 0.000000 0.000000 1.514760 
# 
# From -- ./inp_files/8159.got.cif
#   From: 2010.03.12/outbox.cif.g09.slc.cpg/sg47_5_cif.got.tgz:8159.got - 2010.04.14 03:12:58.
