data_PCOD8194018
_publ_section_title
;
Structure prediction by ZEFSAII (Michael W. Deem and Ramdas Pophale) SiO2 
 PCOD8194018
Probable space group: P M M M
;
_chemical_formula_sum "Si O2"
_cell_formula_units_Z 64
_cell_length_a 18.898878
_cell_length_b 23.917458
_cell_length_c 9.157420
_cell_angle_alpha 90.000000
_cell_angle_beta 90.000000
_cell_angle_gamma 90.000000
_cell_volume 4139.273993
_symmetry_space_group_name_H-M "P M M M"
_symmetry_group_IT_number 47
_symmetry_cell_setting 'orthorhombic'
loop_
_space_group_symop_operation_xyz
x,y,z
-x,-y,z
x,-y,-z
-x,y,-z
-x,-y,-z
x,y,-z
-x,y,z
x,-y,z
loop_
_atom_site_type_symbol
_atom_site_label
_atom_site_fract_x
_atom_site_fract_y
_atom_site_fract_z
Si Si1 0.078831 0.874777 0.833235
Si Si2 0.785219 0.938604 0.172638
Si Si3 0.579022 0.437898 0.326708
Si Si4 0.788424 0.275849 0.170728
Si Si5 0.920029 0.759998 0.330112
Si Si6 0.667540 0.334270 0.671210
Si Si7 0.699227 0.833664 0.829335
Si Si8 0.580033 0.225059 0.329780
O O1 0.134423 0.922118 0.785525
O O2 0.087781 0.822634 0.727557
O O3 0.000000 0.900337 0.820213
O O4 0.094174 0.854686 0.000000
O O5 0.730784 0.891941 0.232580
O O6 0.768684 0.000000 0.240106
O O7 0.777608 0.941133 0.000000
O O8 0.575860 0.433303 0.500000
O O9 0.500000 0.426286 0.265002
O O10 0.604250 0.500000 0.278795
O O11 0.634113 0.391935 0.267777
O O12 0.865809 0.279903 0.243750
O O13 0.739638 0.323759 0.241116
O O14 0.755601 0.215023 0.205374
O O15 0.795217 0.287487 0.000000
O O16 0.900361 0.759564 0.500000
O O17 0.000000 0.738014 0.303555
O O18 0.685375 0.337039 0.500000
O O19 0.610869 0.286014 0.705600
O O20 0.625130 0.822711 0.750066
O O21 0.683724 0.836848 0.000000
O O22 0.583160 0.212128 0.500000
O O23 0.500000 0.222862 0.270817
#
# Coordination Sequence:
#
# PCOD8194018 Si02
#       8
#     8   8   8   8   8   8   8   8
#     4   9  16  27  43  62  84 110 139 170 205 247
#     4   9  16  27  43  62  83 106 136 175 212 249
#     4   8  13  22  39  64  93 125 159 190 216 245
#     4  10  18  29  44  62  86 114 144 178 216 257
#     4  10  19  29  43  63  86 113 143 174 211 256
#     4   9  16  26  42  65  91 117 146 182 217 249
#     4   9  17  29  43  61  82 105 134 169 211 256
#     4   9  17  28  43  63  84 107 135 171 215 257
#
# _framework density 15.461648
#
# number of rings (size 3 to 8) (size 9 to 14) (size 15 to 20)
#    0.000    2.875    1.250    1.500    0.000    3.250 
#    0.000    1.250    0.000    3.375    0.000    5.250 
#    0.000    0.500    0.000    5.750    0.000    1.625 
#
# Total GULP energy -793374.665980 kJ/mol
# GULP energy per Si atom -12396.479156 kJ/mol
# Density = 1.542646 g / cm^3
# Si number density = 15.461648 Si / 1000 Ang^3
#
#
#
# Elastic Constant Matrix: (Units=GPa)
#
#
# Indices 1 2 3 4 5 6 
#
# 1 118.8858 63.5611 44.6872 0.0000 0.0000 0.0000
# 2 63.5611 102.8764 29.1172 0.0000 0.0000 0.0000
# 3 44.6872 29.1172 47.3266 0.0000 0.0000 0.0000
# 4 0.0000 0.0000 0.0000 13.4855 0.0000 0.0000
# 5 0.0000 0.0000 0.0000 0.0000 22.9666 0.0000
# 6 0.0000 0.0000 0.0000 0.0000 0.0000 25.8289
#
#
#
# Elastic Compliance Matrix: (Units=1/GPa)
#
#
# Indices 1 2 3 4 5 6 
#
# 1 0.016292 -0.006916 -0.011128 0.000000 0.000000 0.000000
# 2 -0.006916 0.014706 -0.002517 0.000000 0.000000 0.000000
# 3 -0.011128 -0.002517 0.033186 0.000000 0.000000 0.000000
# 4 0.000000 0.000000 0.000000 0.074154 0.000000 0.000000
# 5 0.000000 0.000000 0.000000 0.000000 0.043542 0.000000
# 6 0.000000 0.000000 0.000000 0.000000 0.000000 0.038716
#
#
# Mechanical properties :
#
#
# Convention : Reuss Voigt Hill
#
# Bulk Modulus (GPa) = 43.36384 60.42443 51.89414
# Shear Modulus (GPa) = 18.55934 21.23775 19.89855
#
# Velocity S-wave (km/s) = 3.46836 3.71020 3.59132
# Velocity P-wave (km/s) = 6.64427 7.58414 7.12971
#
# Compressibility (1/GPa) = 0.02306069
#
# Stress axis : x y z
#
# Youngs Moduli (GPa) = 61.37963 67.99967 30.13308
#
# Poissons Ratio (x) = 0.47030 0.33533
# Poissons Ratio (y) = 0.42451 0.07585
# Poissons Ratio (z) = 0.68305 0.17117
#
# Static dielectric constant tensor:
#      x y z
#    x 3.117140 0.000000 0.000000 
#    y 0.000000 2.937410 0.000000 
#    z 0.000000 0.000000 2.772300 
# 
# 
# High freq. dielectric constant tensor:
#      x y z
#    x 1.593490 0.000000 0.000000 
#    y 0.000000 1.562480 0.000000 
#    z 0.000000 0.000000 1.572870 
# 
# From -- ./inp_files/10205.got.cif
#   From: 2010.03.12/outbox.cif.g09.slc.cpg/sg47_6_cif.got.tgz:10205.got - 2010.04.14 03:12:58.
