data_PCOD8194740
_publ_section_title
;
Structure prediction by ZEFSAII (Michael W. Deem and Ramdas Pophale) SiO2 
 PCOD8194740
Probable space group: P M M M
;
_chemical_formula_sum "Si O2"
_cell_formula_units_Z 44
_cell_length_a 14.176463
_cell_length_b 9.601052
_cell_length_c 20.777707
_cell_angle_alpha 90.000000
_cell_angle_beta 90.000000
_cell_angle_gamma 90.000000
_cell_volume 2828.032059
_symmetry_space_group_name_H-M "P M M M"
_symmetry_group_IT_number 47
_symmetry_cell_setting 'orthorhombic'
loop_
_space_group_symop_operation_xyz
x,y,z
-x,-y,z
x,-y,-z
-x,y,-z
-x,-y,-z
x,y,-z
-x,y,z
x,-y,z
loop_
_atom_site_type_symbol
_atom_site_label
_atom_site_fract_x
_atom_site_fract_y
_atom_site_fract_z
Si Si1 0.610979 0.151073 0.500000
Si Si2 0.891343 0.338439 0.187816
Si Si3 0.230152 0.335579 0.688306
Si Si4 0.391382 0.834742 0.360134
Si Si5 0.112037 0.156489 0.070863
Si Si6 0.894514 0.334839 0.570994
O O1 0.500000 0.126315 0.500000
O O2 0.635986 0.225475 0.432046
O O3 0.660682 0.000000 0.500000
O O4 0.882301 0.500000 0.171697
O O5 0.830045 0.296520 0.249245
O O6 0.848865 0.257574 0.126261
O O7 0.000000 0.298026 0.202117
O O8 0.250661 0.500000 0.684496
O O9 0.328123 0.250486 0.690716
O O10 0.173287 0.277657 0.626454
O O11 0.500000 0.802674 0.343650
O O12 0.372101 0.000000 0.355949
O O13 0.000000 0.162578 0.070792
O O14 0.146821 0.000000 0.085552
O O15 0.148915 0.203535 0.000000
O O16 0.856829 0.289622 0.500000
O O17 0.898968 0.500000 0.576000
O O18 0.000000 0.275068 0.581438
#
# Coordination Sequence:
#
# PCOD8194740 Si02
#       6
#     4   8   8   8   8   8
#     4   7  12  26  45  59  72  95 128 166 211 263
#     4   9  17  28  41  60  89 121 148 174 206 248
#     4  10  19  28  42  64  87 109 140 181 218 251
#     4   9  18  32  47  61  79 106 139 174 218 273
#     4   8  14  25  41  61  85 113 145 179 210 240
#     4   8  14  25  40  57  79 109 143 176 210 248
#
# _framework density 15.558522
#
# number of rings (size 3 to 8) (size 9 to 14) (size 15 to 20)
#    0.000    3.364    0.000    2.727    1.273    3.636 
#    0.000    1.818    0.000    3.273    0.000    1.273 
#    0.000    0.727    0.000    8.000    0.000    6.182 
#
# Total GULP energy -545148.826375 kJ/mol
# GULP energy per Si atom -12389.746054 kJ/mol
# Density = 1.552311 g / cm^3
# Si number density = 15.558522 Si / 1000 Ang^3
#
#
#
# Elastic Constant Matrix: (Units=GPa)
#
#
# Indices 1 2 3 4 5 6 
#
# 1 63.9509 35.6617 53.8972 0.0000 0.0000 0.0000
# 2 35.6617 44.4403 53.2769 0.0000 0.0000 0.0000
# 3 53.8972 53.2769 126.8612 0.0000 0.0000 0.0000
# 4 0.0000 0.0000 0.0000 20.1036 0.0000 0.0000
# 5 0.0000 0.0000 0.0000 0.0000 9.6454 0.0000
# 6 0.0000 0.0000 0.0000 0.0000 0.0000 18.0683
#
#
#
# Elastic Compliance Matrix: (Units=1/GPa)
#
#
# Indices 1 2 3 4 5 6 
#
# 1 0.029974 -0.017696 -0.005303 0.000000 0.000000 0.000000
# 2 -0.017696 0.055765 -0.015901 0.000000 0.000000 0.000000
# 3 -0.005303 -0.015901 0.016814 0.000000 0.000000 0.000000
# 4 0.000000 0.000000 0.000000 0.049742 0.000000 0.000000
# 5 0.000000 0.000000 0.000000 0.000000 0.103677 0.000000
# 6 0.000000 0.000000 0.000000 0.000000 0.000000 0.055346
#
#
# Mechanical properties :
#
#
# Convention : Reuss Voigt Hill
#
# Bulk Modulus (GPa) = 40.39901 57.88043 49.13972
# Shear Modulus (GPa) = 12.58276 15.72455 14.15365
#
# Velocity S-wave (km/s) = 2.84692 3.18255 3.01940
# Velocity P-wave (km/s) = 6.06867 7.12653 6.61877
#
# Compressibility (1/GPa) = 0.02475308
#
# Stress axis : x y z
#
# Youngs Moduli (GPa) = 33.36194 17.93227 59.47570
#
# Poissons Ratio (x) = 0.31732 0.31541
# Poissons Ratio (y) = 0.59036 0.94574
# Poissons Ratio (z) = 0.17692 0.28515
#
# Static dielectric constant tensor:
#      x y z
#    x 2.730160 0.000000 0.000000 
#    y 0.000000 2.736270 0.000000 
#    z 0.000000 0.000000 3.198030 
# 
# 
# High freq. dielectric constant tensor:
#      x y z
#    x 1.563750 0.000000 0.000000 
#    y 0.000000 1.572710 0.000000 
#    z 0.000000 0.000000 1.592110 
# 
# From -- ./inp_files/16334.got.cif
#   From: 2010.03.12/outbox.cif.g09.slc.cpg/sg47_9_cif.got.tgz:16334.got - 2010.04.14 03:12:58.
