data_PCOD8194399
_publ_section_title
;
Structure prediction by ZEFSAII (Michael W. Deem and Ramdas Pophale) SiO2 
 PCOD8194399
Probable space group: P M M M
;
_chemical_formula_sum "Si O2"
_cell_formula_units_Z 52
_cell_length_a 20.635701
_cell_length_b 16.229258
_cell_length_c 9.421205
_cell_angle_alpha 90.000000
_cell_angle_beta 90.000000
_cell_angle_gamma 90.000000
_cell_volume 3155.181485
_symmetry_space_group_name_H-M "P M M M"
_symmetry_group_IT_number 47
_symmetry_cell_setting 'orthorhombic'
loop_
_space_group_symop_operation_xyz
x,y,z
-x,-y,z
x,-y,-z
-x,y,-z
-x,-y,-z
x,y,-z
-x,y,z
x,-y,z
loop_
_atom_site_type_symbol
_atom_site_label
_atom_site_fract_x
_atom_site_fract_y
_atom_site_fract_z
Si Si1 0.822987 0.730629 0.333831
Si Si2 0.075407 0.170886 0.836277
Si Si3 0.500000 0.406890 0.830939
Si Si4 0.758583 0.595221 0.836863
Si Si5 0.626989 0.313450 0.835382
Si Si6 0.729484 0.000000 0.664764
Si Si7 0.861137 0.000000 0.164094
Si Si8 0.308841 0.822043 0.663422
O O1 0.834644 0.718953 0.500000
O O2 0.887666 0.765236 0.263481
O O3 0.808463 0.642199 0.264604
O O4 0.763845 0.792411 0.300268
O O5 0.095806 0.078555 0.795649
O O6 0.000000 0.181544 0.805353
O O7 0.092195 0.189860 0.000000
O O8 0.500000 0.500000 0.769189
O O9 0.562916 0.357891 0.775612
O O10 0.500000 0.411558 0.000000
O O11 0.763333 0.500000 0.798292
O O12 0.685588 0.624161 0.806379
O O13 0.777269 0.612556 0.000000
O O14 0.638357 0.227075 0.755174
O O15 0.619474 0.291743 0.000000
O O16 0.687031 0.080956 0.701390
O O17 0.749245 0.000000 0.500000
O O18 0.795417 0.000000 0.749799
O O19 0.841635 0.000000 0.000000
O O20 0.325190 0.805047 0.500000
#
# Coordination Sequence:
#
# PCOD8194399 Si02
#       8
#     8   8   4   8   8   4   4   8
#     4  10  19  31  48  69  94 124 159 199 241 283
#     4  10  20  33  48  68  97 130 160 192 235 287
#     4   9  16  28  49  76 103 130 158 191 235 285
#     4   9  17  30  49  72  97 124 155 193 238 288
#     4   9  17  29  48  73 100 127 159 194 232 283
#     4  10  18  31  49  68  95 128 162 200 241 282
#     4  10  19  30  48  72  97 125 159 198 236 279
#     4   9  18  31  47  67  94 127 161 199 240 279
#
# _framework density 16.480827000000001
#
# number of rings (size 3 to 8) (size 9 to 14) (size 15 to 20)
#    0.000    2.538    1.538    1.154    0.000    4.615 
#    0.000    0.385    0.000    4.154    0.000    6.462 
#    0.000    0.000    0.000    0.000    0.000    0.000 
#
# Total GULP energy -644874.854901 kJ/mol
# GULP energy per Si atom -12401.439517 kJ/mol
# Density = 1.644332 g / cm^3
# Si number density = 16.480827 Si / 1000 Ang^3
#
#
#
# Elastic Constant Matrix: (Units=GPa)
#
#
# Indices 1 2 3 4 5 6 
#
# 1 98.4578 66.9029 51.9867 0.0000 0.0000 0.0000
# 2 66.9029 143.2615 62.3469 0.0000 0.0000 0.0000
# 3 51.9867 62.3469 68.5770 0.0000 0.0000 0.0000
# 4 0.0000 0.0000 0.0000 25.0300 0.0000 0.0000
# 5 0.0000 0.0000 0.0000 0.0000 17.3638 0.0000
# 6 0.0000 0.0000 0.0000 0.0000 0.0000 16.7617
#
#
#
# Elastic Compliance Matrix: (Units=1/GPa)
#
#
# Indices 1 2 3 4 5 6 
#
# 1 0.018317 -0.004155 -0.010108 0.000000 0.000000 0.000000
# 2 -0.004155 0.012493 -0.008208 0.000000 0.000000 0.000000
# 3 -0.010108 -0.008208 0.029707 0.000000 0.000000 0.000000
# 4 0.000000 0.000000 0.000000 0.039952 0.000000 0.000000
# 5 0.000000 0.000000 0.000000 0.000000 0.057591 0.000000
# 6 0.000000 0.000000 0.000000 0.000000 0.000000 0.059660
#
#
# Mechanical properties :
#
#
# Convention : Reuss Voigt Hill
#
# Bulk Modulus (GPa) = 64.20683 74.75216 69.47949
# Shear Modulus (GPa) = 18.66684 20.43510 19.55097
#
# Velocity S-wave (km/s) = 3.36912 3.52509 3.44799
# Velocity P-wave (km/s) = 7.36055 7.87552 7.62239
#
# Compressibility (1/GPa) = 0.01557467
#
# Stress axis : x y z
#
# Youngs Moduli (GPa) = 54.59293 80.04677 33.66160
#
# Poissons Ratio (x) = 0.33260 0.34027
# Poissons Ratio (y) = 0.22683 0.27629
# Poissons Ratio (z) = 0.55185 0.65702
#
# Static dielectric constant tensor:
#      x y z
#    x 2.974780 0.000000 0.000000 
#    y 0.000000 3.222210 0.000000 
#    z 0.000000 0.000000 3.038100 
# 
# 
# High freq. dielectric constant tensor:
#      x y z
#    x 1.612900 0.000000 0.000000 
#    y 0.000000 1.637570 0.000000 
#    z 0.000000 0.000000 1.627380 
# 
# From -- ./inp_files/9628.got.cif
#   From: 2010.03.12/outbox.cif.g09.slc.cpg/sg47_5_cif.got.tgz:9628.got - 2010.04.14 03:12:58.
