data_PCOD8194731
_publ_section_title
;
Structure prediction by ZEFSAII (Michael W. Deem and Ramdas Pophale) SiO2 
 PCOD8194731
Probable space group: P M M M
;
_chemical_formula_sum "Si O2"
_cell_formula_units_Z 64
_cell_length_a 24.019663
_cell_length_b 9.191510
_cell_length_c 18.632739
_cell_angle_alpha 90.000000
_cell_angle_beta 90.000000
_cell_angle_gamma 90.000000
_cell_volume 4113.679709
_symmetry_space_group_name_H-M "P M M M"
_symmetry_group_IT_number 47
_symmetry_cell_setting 'orthorhombic'
loop_
_space_group_symop_operation_xyz
x,y,z
-x,-y,z
x,-y,-z
-x,y,-z
-x,-y,-z
x,y,-z
-x,y,z
x,-y,z
loop_
_atom_site_type_symbol
_atom_site_label
_atom_site_fract_x
_atom_site_fract_y
_atom_site_fract_z
Si Si1 0.725381 0.328260 0.364686
Si Si2 0.333285 0.829833 0.080465
Si Si3 0.167557 0.166423 0.585127
Si Si4 0.563390 0.332528 0.295898
Si Si5 0.673155 0.333703 0.785285
Si Si6 0.061398 0.663118 0.414773
Si Si7 0.621863 0.832211 0.580953
Si Si8 0.560064 0.659168 0.916390
O O1 0.724617 0.500000 0.379860
O O2 0.786003 0.265263 0.378524
O O3 0.709480 0.290134 0.283120
O O4 0.680697 0.251252 0.415896
O O5 0.301015 0.753586 0.146269
O O6 0.396841 0.787658 0.098322
O O7 0.324929 0.000000 0.085379
O O8 0.315776 0.775168 0.000000
O O9 0.172600 0.181533 0.500000
O O10 0.107986 0.225108 0.613514
O O11 0.174123 0.000000 0.609776
O O12 0.500000 0.301160 0.270513
O O13 0.571374 0.500000 0.319386
O O14 0.607276 0.298273 0.231446
O O15 0.576593 0.235817 0.365510
O O16 0.681793 0.500000 0.804766
O O17 0.061485 0.663188 0.500000
O O18 0.074806 0.500000 0.387038
O O19 0.000000 0.711971 0.387123
O O20 0.598739 0.818322 0.500000
O O21 0.631828 0.000000 0.601917
O O22 0.500000 0.698786 0.881693
O O23 0.580299 0.500000 0.885629
O O24 0.552111 0.640796 0.000000
#
# Coordination Sequence:
#
# PCOD8194731 Si02
#       8
#     8   8   8   8   8   8   8   8
#     4  10  20  33  48  64  82 107 142 179 213 252
#     4  10  20  31  44  64  85 102 123 153 191 238
#     4  10  19  28  41  64  91 118 149 184 221 258
#     4   9  19  35  51  65  81 103 133 166 201 248
#     4   9  19  34  49  64  81 104 134 167 204 246
#     4   8  14  25  40  58  83 117 155 191 223 251
#     4  10  20  32  46  65  87 107 130 166 211 256
#     4   8  14  25  40  56  74  97 122 146 175 214
#
# _framework density 15.557848
#
# number of rings (size 3 to 8) (size 9 to 14) (size 15 to 20)
#    0.000    2.750    0.000    3.375    0.000    8.000 
#    0.000    5.000    0.000    0.000    0.000    0.000 
#    0.000    0.000    0.000    0.000    0.000    0.625 
#
# Total GULP energy -793049.176406 kJ/mol
# GULP energy per Si atom -12391.393381 kJ/mol
# Density = 1.552244 g / cm^3
# Si number density = 15.557848 Si / 1000 Ang^3
#
#
#
# Elastic Constant Matrix: (Units=GPa)
#
#
# Indices 1 2 3 4 5 6 
#
# 1 69.7102 29.0547 14.4918 0.0000 0.0000 0.0000
# 2 29.0547 79.8556 38.8499 0.0000 0.0000 0.0000
# 3 14.4918 38.8499 74.5601 0.0000 0.0000 0.0000
# 4 0.0000 0.0000 0.0000 22.7968 0.0000 0.0000
# 5 0.0000 0.0000 0.0000 0.0000 8.8167 0.0000
# 6 0.0000 0.0000 0.0000 0.0000 0.0000 21.2339
#
#
#
# Elastic Compliance Matrix: (Units=1/GPa)
#
#
# Indices 1 2 3 4 5 6 
#
# 1 0.016910 -0.006100 -0.000108 0.000000 0.000000 0.000000
# 2 -0.006100 0.018975 -0.008702 0.000000 0.000000 0.000000
# 3 -0.000108 -0.008702 0.017967 0.000000 0.000000 0.000000
# 4 0.000000 0.000000 0.000000 0.043866 0.000000 0.000000
# 5 0.000000 0.000000 0.000000 0.000000 0.113421 0.000000
# 6 0.000000 0.000000 0.000000 0.000000 0.000000 0.047094
#
#
# Mechanical properties :
#
#
# Convention : Reuss Voigt Hill
#
# Bulk Modulus (GPa) = 41.60972 43.21316 42.41144
# Shear Modulus (GPa) = 16.88823 20.01812 18.45317
#
# Velocity S-wave (km/s) = 3.29829 3.59094 3.44772
# Velocity P-wave (km/s) = 6.42714 6.71038 6.57029
#
# Compressibility (1/GPa) = 0.02403284
#
# Stress axis : x y z
#
# Youngs Moduli (GPa) = 59.13661 52.70006 55.65744
#
# Poissons Ratio (x) = 0.32146 0.00603
# Poissons Ratio (y) = 0.36072 0.48431
# Poissons Ratio (z) = 0.00641 0.45857
#
# Static dielectric constant tensor:
#      x y z
#    x 2.882080 0.000000 0.000000 
#    y 0.000000 3.030010 0.000000 
#    z 0.000000 0.000000 2.943770 
# 
# 
# High freq. dielectric constant tensor:
#      x y z
#    x 1.560430 0.000000 0.000000 
#    y 0.000000 1.603370 0.000000 
#    z 0.000000 0.000000 1.579700 
# 
# From -- ./inp_files/31569.got.cif
#   From: 2010.03.12/outbox.cif.g09.slc.cpg/sg47_16_cif.got.tgz:31569.got - 2010.04.14 03:12:58.
