data_PCOD8194218
_publ_section_title
;
Structure prediction by ZEFSAII (Michael W. Deem and Ramdas Pophale) SiO2 
 PCOD8194218
Probable space group: P M M M
;
_chemical_formula_sum "Si O2"
_cell_formula_units_Z 64
_cell_length_a 30.691701
_cell_length_b 14.254441
_cell_length_c 9.135458
_cell_angle_alpha 90.000000
_cell_angle_beta 90.000000
_cell_angle_gamma 90.000000
_cell_volume 3996.699302
_symmetry_space_group_name_H-M "P M M M"
_symmetry_group_IT_number 47
_symmetry_cell_setting 'orthorhombic'
loop_
_space_group_symop_operation_xyz
x,y,z
-x,-y,z
x,-y,-z
-x,y,-z
-x,-y,-z
x,y,-z
-x,y,z
x,-y,z
loop_
_atom_site_type_symbol
_atom_site_label
_atom_site_fract_x
_atom_site_fract_y
_atom_site_fract_z
Si Si1 0.749471 0.898054 0.826336
Si Si2 0.122785 0.718790 0.673190
Si Si3 0.631993 0.608495 0.671673
Si Si4 0.198991 0.609182 0.830378
Si Si5 0.452234 0.611354 0.835387
Si Si6 0.151760 0.106474 0.830020
Si Si7 0.050316 0.608637 0.167172
Si Si8 0.710940 0.293568 0.171687
O O1 0.798766 0.881548 0.772539
O O2 0.718878 0.813293 0.772637
O O3 0.732334 0.000000 0.769075
O O4 0.750891 0.898917 0.000000
O O5 0.125142 0.720802 0.500000
O O6 0.164317 0.663481 0.733665
O O7 0.121832 0.824634 0.734924
O O8 0.078363 0.669574 0.721849
O O9 0.633006 0.622396 0.500000
O O10 0.638154 0.500000 0.716770
O O11 0.585802 0.648679 0.729579
O O12 0.670147 0.668308 0.741400
O O13 0.195857 0.500000 0.793358
O O14 0.247188 0.643868 0.790046
O O15 0.188745 0.629831 0.000000
O O16 0.500000 0.648674 0.783879
O O17 0.452981 0.500000 0.831352
O O18 0.442604 0.646509 0.000000
O O19 0.135689 0.000000 0.805395
O O20 0.148175 0.134469 0.000000
O O21 0.060098 0.500000 0.197929
O O22 0.000000 0.631826 0.196241
O O23 0.062948 0.632933 0.000000
O O24 0.700524 0.297588 0.000000
#
# Coordination Sequence:
#
# PCOD8194218 Si02
#       8
#     8   8   8   8   8   8   8   8
#     4   8  14  27  49  72  89 110 149 200 243 275
#     4  12  23  32  48  75 106 132 154 189 239 292
#     4  10  20  30  40  59  91 128 160 191 231 280
#     4  10  20  33  48  66  91 127 170 206 230 265
#     4   8  14  26  44  63  82 109 151 199 238 273
#     4   9  17  33  56  75  93 122 162 203 238 277
#     4   9  19  37  59  78  96 124 164 205 238 273
#     4  10  18  30  48  66  88 120 159 199 234 271
#
# _framework density 16.013213
#
# number of rings (size 3 to 8) (size 9 to 14) (size 15 to 20)
#    0.000    2.500    1.250    3.750    0.000    4.500 
#    0.000    1.875    0.000    0.750    0.000    2.625 
#    0.000    0.500    0.000    5.750    0.000    1.875 
#
# Total GULP energy -793427.765491 kJ/mol
# GULP energy per Si atom -12397.308836 kJ/mol
# Density = 1.597677 g / cm^3
# Si number density = 16.013213 Si / 1000 Ang^3
#
#
#
# Elastic Constant Matrix: (Units=GPa)
#
#
# Indices 1 2 3 4 5 6 
#
# 1 99.2660 53.3318 52.5079 0.0000 0.0000 0.0000
# 2 53.3318 96.4302 50.3844 0.0000 0.0000 0.0000
# 3 52.5079 50.3844 77.0884 0.0000 0.0000 0.0000
# 4 0.0000 0.0000 0.0000 13.6964 0.0000 0.0000
# 5 0.0000 0.0000 0.0000 0.0000 5.6557 0.0000
# 6 0.0000 0.0000 0.0000 0.0000 0.0000 6.5046
#
#
#
# Elastic Compliance Matrix: (Units=1/GPa)
#
#
# Indices 1 2 3 4 5 6 
#
# 1 0.017299 -0.005180 -0.008397 0.000000 0.000000 0.000000
# 2 -0.005180 0.017299 -0.007779 0.000000 0.000000 0.000000
# 3 -0.008397 -0.007779 0.023776 0.000000 0.000000 0.000000
# 4 0.000000 0.000000 0.000000 0.073012 0.000000 0.000000
# 5 0.000000 0.000000 0.000000 0.000000 0.176814 0.000000
# 6 0.000000 0.000000 0.000000 0.000000 0.000000 0.153736
#
#
# Mechanical properties :
#
#
# Convention : Reuss Voigt Hill
#
# Bulk Modulus (GPa) = 63.84659 65.02586 64.43622
# Shear Modulus (GPa) = 9.80647 12.94206 11.37426
#
# Velocity S-wave (km/s) = 2.47735 2.84599 2.66805
# Velocity P-wave (km/s) = 6.93836 7.17602 7.05819
#
# Compressibility (1/GPa) = 0.01566254
#
# Stress axis : x y z
#
# Youngs Moduli (GPa) = 57.80800 57.80659 42.05938
#
# Poissons Ratio (x) = 0.29941 0.35319
# Poissons Ratio (y) = 0.29942 0.32716
# Poissons Ratio (z) = 0.48544 0.44965
#
# Static dielectric constant tensor:
#      x y z
#    x 3.092710 0.000000 0.000000 
#    y 0.000000 3.221960 0.000000 
#    z 0.000000 0.000000 2.876960 
# 
# 
# High freq. dielectric constant tensor:
#      x y z
#    x 1.605830 0.000000 0.000000 
#    y 0.000000 1.601260 0.000000 
#    z 0.000000 0.000000 1.599890 
# 
# From -- ./inp_files/14330.got.cif
#   From: 2010.03.12/outbox.cif.g09.slc.cpg/sg47_8_cif.got.tgz:14330.got - 2010.04.14 03:12:58.
