data_PCOD8194622
_publ_section_title
;
Structure prediction by ZEFSAII (Michael W. Deem and Ramdas Pophale) SiO2 
 PCOD8194622
Probable space group: P M M M
;
_chemical_formula_sum "Si O2"
_cell_formula_units_Z 48
_cell_length_a 17.219498
_cell_length_b 15.542289
_cell_length_c 8.766699
_cell_angle_alpha 90.000000
_cell_angle_beta 90.000000
_cell_angle_gamma 90.000000
_cell_volume 2346.235286
_symmetry_space_group_name_H-M "P M M M"
_symmetry_group_IT_number 47
_symmetry_cell_setting 'orthorhombic'
loop_
_space_group_symop_operation_xyz
x,y,z
-x,-y,z
x,-y,-z
-x,y,-z
-x,-y,-z
x,y,-z
-x,y,z
x,-y,z
loop_
_atom_site_type_symbol
_atom_site_label
_atom_site_fract_x
_atom_site_fract_y
_atom_site_fract_z
Si Si1 0.342502 0.160514 0.320612
Si Si2 0.804613 0.904494 0.824458
Si Si3 0.088164 0.748752 0.180206
Si Si4 0.500000 0.355901 0.167639
Si Si5 0.500000 0.848790 0.169826
Si Si6 0.182362 0.596198 0.325092
Si Si7 0.334325 0.345700 0.182575
O O1 0.349760 0.173166 0.500000
O O2 0.272816 0.096743 0.277793
O O3 0.423063 0.120557 0.258739
O O4 0.319770 0.250207 0.242546
O O5 0.866148 0.833841 0.764993
O O6 0.841486 0.000000 0.807711
O O7 0.782422 0.885570 0.000000
O O8 0.123069 0.662765 0.251958
O O9 0.000000 0.758466 0.236814
O O10 0.092965 0.738539 0.000000
O O11 0.500000 0.253364 0.159369
O O12 0.418009 0.382592 0.246607
O O13 0.500000 0.397098 0.000000
O O14 0.500000 0.888972 0.000000
O O15 0.195869 0.621813 0.500000
O O16 0.147402 0.500000 0.309620
O O17 0.265309 0.594759 0.240570
O O18 0.336303 0.342964 0.000000
#
# Coordination Sequence:
#
# PCOD8194622 Si02
#       7
#     8   8   8   4   4   8   8
#     4  11  20  32  54  85 121 159 201 249 301 353
#     4  10  21  38  61  89 122 160 199 241 294 358
#     4  10  22  41  66  93 119 152 195 243 297 360
#     4   7  14  27  48  79 110 145 191 241 288 337
#     4   9  17  31  52  79 114 158 207 253 298 348
#     4  11  24  40  59  87 122 160 200 245 302 360
#     4  10  18  33  57  83 115 157 203 248 297 351
#
# _framework density 20.458306
#
# number of rings (size 3 to 8) (size 9 to 14) (size 15 to 20)
#    0.000    2.000    1.667    3.750    0.000    2.667 
#    0.000    5.417    0.000    5.000    0.000    2.333 
#    0.000    0.000    0.000    0.000    0.000    0.000 
#
# Total GULP energy -595024.875682 kJ/mol
# GULP energy per Si atom -12396.351577 kJ/mol
# Density = 2.041174 g / cm^3
# Si number density = 20.458306 Si / 1000 Ang^3
#
#
#
# Elastic Constant Matrix: (Units=GPa)
#
#
# Indices 1 2 3 4 5 6 
#
# 1 169.6246 60.7488 52.0308 0.0000 0.0000 0.0000
# 2 60.7488 97.0773 18.8267 0.0000 0.0000 0.0000
# 3 52.0308 18.8267 60.1809 0.0000 0.0000 0.0000
# 4 0.0000 0.0000 0.0000 18.4290 0.0000 0.0000
# 5 0.0000 0.0000 0.0000 0.0000 16.5414 0.0000
# 6 0.0000 0.0000 0.0000 0.0000 0.0000 7.8481
#
#
#
# Elastic Compliance Matrix: (Units=1/GPa)
#
#
# Indices 1 2 3 4 5 6 
#
# 1 0.009713 -0.004737 -0.006916 0.000000 0.000000 0.000000
# 2 -0.004737 0.013277 -0.000058 0.000000 0.000000 0.000000
# 3 -0.006916 -0.000058 0.022614 0.000000 0.000000 0.000000
# 4 0.000000 0.000000 0.000000 0.054262 0.000000 0.000000
# 5 0.000000 0.000000 0.000000 0.000000 0.060454 0.000000
# 6 0.000000 0.000000 0.000000 0.000000 0.000000 0.127419
#
#
# Mechanical properties :
#
#
# Convention : Reuss Voigt Hill
#
# Bulk Modulus (GPa) = 45.08112 65.56614 55.32363
# Shear Modulus (GPa) = 15.69587 21.58215 18.63901
#
# Velocity S-wave (km/s) = 2.77286 3.25150 3.02167
# Velocity P-wave (km/s) = 5.68640 6.79813 6.26697
#
# Compressibility (1/GPa) = 0.02218223
#
# Stress axis : x y z
#
# Youngs Moduli (GPa) = 102.95149 75.32009 44.22041
#
# Poissons Ratio (x) = 0.35680 0.30583
# Poissons Ratio (y) = 0.48769 0.00256
# Poissons Ratio (z) = 0.71201 0.00435
#
# Static dielectric constant tensor:
#      x y z
#    x 3.985680 0.000000 0.000000 
#    y 0.000000 3.489880 0.000000 
#    z 0.000000 0.000000 3.598680 
# 
# 
# High freq. dielectric constant tensor:
#      x y z
#    x 1.805590 0.000000 0.000000 
#    y 0.000000 1.784100 0.000000 
#    z 0.000000 0.000000 1.785960 
# 
# From -- ./inp_files/9219.got.cif
#   From: 2010.03.12/outbox.cif.g09.slc.cpg/sg47_5_cif.got.tgz:9219.got - 2010.04.14 03:12:58.
