data_PCOD8194409
_publ_section_title
;
Structure prediction by ZEFSAII (Michael W. Deem and Ramdas Pophale) SiO2 
 PCOD8194409
Probable space group: P M M M
;
_chemical_formula_sum "Si O2"
_cell_formula_units_Z 52
_cell_length_a 18.656905
_cell_length_b 9.577573
_cell_length_c 16.009267
_cell_angle_alpha 90.000000
_cell_angle_beta 90.000000
_cell_angle_gamma 90.000000
_cell_volume 2860.661814
_symmetry_space_group_name_H-M "P M M M"
_symmetry_group_IT_number 47
_symmetry_cell_setting 'orthorhombic'
loop_
_space_group_symop_operation_xyz
x,y,z
-x,-y,z
x,-y,-z
-x,y,-z
-x,-y,-z
x,y,-z
-x,y,z
x,-y,z
loop_
_atom_site_type_symbol
_atom_site_label
_atom_site_fract_x
_atom_site_fract_y
_atom_site_fract_z
Si Si1 0.330616 0.834098 0.594607
Si Si2 0.921745 0.165219 0.500000
Si Si3 0.081136 0.341419 0.232588
Si Si4 0.580482 0.834147 0.753002
Si Si5 0.682383 0.164227 0.903274
Si Si6 0.815994 0.656950 0.906715
Si Si7 0.826251 0.165075 0.650712
O O1 0.347705 0.777072 0.500000
O O2 0.385060 0.777311 0.665746
O O3 0.252298 0.784347 0.624101
O O4 0.332438 0.000000 0.590674
O O5 0.880315 0.216822 0.580202
O O6 0.000000 0.234953 0.500000
O O7 0.926921 0.000000 0.500000
O O8 0.083875 0.500000 0.267232
O O9 0.106362 0.335258 0.136956
O O10 0.143612 0.246262 0.270590
O O11 0.000000 0.281698 0.241983
O O12 0.500000 0.774411 0.758325
O O13 0.621339 0.786336 0.837555
O O14 0.580451 0.000000 0.748918
O O15 0.754650 0.239447 0.872273
O O16 0.695477 0.000000 0.895111
O O17 0.661681 0.203382 0.000000
O O18 0.784603 0.500000 0.899956
O O19 0.833251 0.702276 0.000000
O O20 0.828047 0.000000 0.667351
#
# Coordination Sequence:
#
# PCOD8194409 Si02
#       7
#     8   4   8   8   8   8   8
#     4   9  16  27  44  66  91 121 160 203 241 275
#     4   9  16  26  43  67  90 114 150 193 231 273
#     4  10  21  34  47  68  98 127 156 194 241 289
#     4   9  17  27  41  66  98 129 159 190 231 286
#     4   9  17  30  49  73  99 125 155 194 238 283
#     4   9  18  33  52  71  92 123 162 199 234 278
#     4  10  18  31  50  70  92 121 159 200 237 280
#
# _framework density 18.177613000000001
#
# number of rings (size 3 to 8) (size 9 to 14) (size 15 to 20)
#    0.000    2.692    0.769    1.385    0.000    3.692 
#    0.000    5.000    0.000    1.846    0.000    5.385 
#    0.000    0.000    0.000    6.462    0.000    6.154 
#
# Total GULP energy -644261.531247 kJ/mol
# GULP energy per Si atom -12389.644832 kJ/mol
# Density = 1.813624 g / cm^3
# Si number density = 18.177613 Si / 1000 Ang^3
#
#
#
# Elastic Constant Matrix: (Units=GPa)
#
#
# Indices 1 2 3 4 5 6 
#
# 1 108.1177 17.3305 58.9886 0.0000 0.0000 0.0000
# 2 17.3305 25.1558 19.4450 0.0000 0.0000 0.0000
# 3 58.9886 19.4450 105.6937 0.0000 0.0000 0.0000
# 4 0.0000 0.0000 0.0000 10.2805 0.0000 0.0000
# 5 0.0000 0.0000 0.0000 0.0000 30.9003 0.0000
# 6 0.0000 0.0000 0.0000 0.0000 0.0000 15.3343
#
#
#
# Elastic Compliance Matrix: (Units=1/GPa)
#
#
# Indices 1 2 3 4 5 6 
#
# 1 0.013652 -0.004098 -0.006865 0.000000 0.000000 0.000000
# 2 -0.004098 0.047573 -0.006465 0.000000 0.000000 0.000000
# 3 -0.006865 -0.006465 0.014482 0.000000 0.000000 0.000000
# 4 0.000000 0.000000 0.000000 0.097271 0.000000 0.000000
# 5 0.000000 0.000000 0.000000 0.000000 0.032362 0.000000
# 6 0.000000 0.000000 0.000000 0.000000 0.000000 0.065213
#
#
# Mechanical properties :
#
#
# Convention : Reuss Voigt Hill
#
# Bulk Modulus (GPa) = 24.47978 47.83280 36.15629
# Shear Modulus (GPa) = 15.67267 20.84992 18.26130
#
# Velocity S-wave (km/s) = 2.93950 3.39043 3.17299
# Velocity P-wave (km/s) = 5.00171 6.45739 5.77560
#
# Compressibility (1/GPa) = 0.04085004
#
# Stress axis : x y z
#
# Youngs Moduli (GPa) = 73.25090 21.02034 69.05044
#
# Poissons Ratio (x) = 0.08615 0.47404
# Poissons Ratio (y) = 0.30021 0.44640
# Poissons Ratio (z) = 0.50288 0.13589
#
# Static dielectric constant tensor:
#      x y z
#    x 3.512440 0.000000 0.000000 
#    y 0.000000 2.906660 0.000000 
#    z 0.000000 0.000000 3.600290 
# 
# 
# High freq. dielectric constant tensor:
#      x y z
#    x 1.704010 0.000000 0.000000 
#    y 0.000000 1.651690 0.000000 
#    z 0.000000 0.000000 1.719020 
# 
# From -- ./inp_files/25018.got.cif
#   From: 2010.03.12/outbox.cif.g09.slc.cpg/sg47_13_cif.got.tgz:25018.got - 2010.04.14 03:12:58.
