data_PCOD8194616
_publ_section_title
;
Structure prediction by ZEFSAII (Michael W. Deem and Ramdas Pophale) SiO2 
 PCOD8194616
Probable space group: P M M M
;
_chemical_formula_sum "Si O2"
_cell_formula_units_Z 44
_cell_length_a 18.098292
_cell_length_b 8.767980
_cell_length_c 14.536616
_cell_angle_alpha 90.000000
_cell_angle_beta 90.000000
_cell_angle_gamma 90.000000
_cell_volume 2306.749630
_symmetry_space_group_name_H-M "P M M M"
_symmetry_group_IT_number 47
_symmetry_cell_setting 'orthorhombic'
loop_
_space_group_symop_operation_xyz
x,y,z
-x,-y,z
x,-y,-z
-x,y,-z
-x,-y,-z
x,y,-z
-x,y,z
x,-y,z
loop_
_atom_site_type_symbol
_atom_site_label
_atom_site_fract_x
_atom_site_fract_y
_atom_site_fract_z
Si Si1 0.356115 0.819054 0.900298
Si Si2 0.716736 0.678532 0.606257
Si Si3 0.000000 0.181935 0.604139
Si Si4 0.855801 0.181175 0.293244
Si Si5 0.416261 0.179063 0.290022
Si Si6 0.189461 0.818908 0.099577
O O1 0.405131 0.760813 0.814953
O O2 0.272744 0.758203 0.886619
O O3 0.356263 0.000000 0.901208
O O4 0.386643 0.760478 0.000000
O O5 0.723672 0.723216 0.500000
O O6 0.724767 0.500000 0.622369
O O7 0.781256 0.762392 0.660414
O O8 0.636983 0.732262 0.641173
O O9 0.927526 0.247572 0.655038
O O10 0.000000 0.243387 0.500000
O O11 0.000000 0.000000 0.606154
O O12 0.859111 0.237625 0.186475
O O13 0.855454 0.000000 0.298819
O O14 0.500000 0.214344 0.319774
O O15 0.398353 0.000000 0.296278
O O16 0.190556 0.000000 0.098763
O O17 0.158298 0.760388 0.000000
#
# Coordination Sequence:
#
# PCOD8194616 Si02
#       6
#     8   8   4   8   8   8
#     4   8  13  24  45  75 107 133 161 203 253 302
#     4  11  24  39  54  73  99 135 177 217 262 312
#     4   9  18  30  48  80 112 135 167 217 270 305
#     4  10  18  33  57  80 105 137 172 211 255 307
#     4  10  20  34  54  80 105 132 172 216 256 304
#     4   8  13  23  45  76 105 133 166 205 250 300
#
# _framework density 19.074458
#
# number of rings (size 3 to 8) (size 9 to 14) (size 15 to 20)
#    0.000    2.636    1.818    2.182    0.000    3.273 
#    0.000    4.545    0.000    6.545    0.000    1.273 
#    0.000    1.455    0.000    0.000    0.000    0.000 
#
# Total GULP energy -545268.099819 kJ/mol
# GULP energy per Si atom -12392.456814 kJ/mol
# Density = 1.903104 g / cm^3
# Si number density = 19.074458 Si / 1000 Ang^3
#
#
#
# Elastic Constant Matrix: (Units=GPa)
#
#
# Indices 1 2 3 4 5 6 
#
# 1 102.6569 9.3280 65.9806 0.0000 0.0000 0.0000
# 2 9.3280 12.2780 20.8366 0.0000 0.0000 0.0000
# 3 65.9806 20.8366 158.5660 0.0000 0.0000 0.0000
# 4 0.0000 0.0000 0.0000 8.0511 0.0000 0.0000
# 5 0.0000 0.0000 0.0000 0.0000 28.7032 0.0000
# 6 0.0000 0.0000 0.0000 0.0000 0.0000 5.1535
#
#
#
# Elastic Compliance Matrix: (Units=1/GPa)
#
#
# Indices 1 2 3 4 5 6 
#
# 1 0.013306 -0.000917 -0.005416 0.000000 0.000000 0.000000
# 2 -0.000917 0.104885 -0.013401 0.000000 0.000000 0.000000
# 3 -0.005416 -0.013401 0.010321 0.000000 0.000000 0.000000
# 4 0.000000 0.000000 0.000000 0.124207 0.000000 0.000000
# 5 0.000000 0.000000 0.000000 0.000000 0.034839 0.000000
# 6 0.000000 0.000000 0.000000 0.000000 0.000000 0.194045
#
#
# Mechanical properties :
#
#
# Convention : Reuss Voigt Hill
#
# Bulk Modulus (GPa) = 11.23047 51.75460 31.49254
# Shear Modulus (GPa) = 9.07849 20.20527 14.64188
#
# Velocity S-wave (km/s) = 2.18400 3.25820 2.77360
# Velocity P-wave (km/s) = 3.50147 6.43011 5.17719
#
# Compressibility (1/GPa) = 0.08904347
#
# Stress axis : x y z
#
# Youngs Moduli (GPa) = 75.15648 9.53423 96.88863
#
# Poissons Ratio (x) = 0.00875 0.52475
# Poissons Ratio (y) = 0.06894 1.29839
# Poissons Ratio (z) = 0.40705 0.12777
#
# Static dielectric constant tensor:
#      x y z
#    x 3.462040 0.000000 0.000000 
#    y 0.000000 2.929480 0.000000 
#    z 0.000000 0.000000 4.128170 
# 
# 
# High freq. dielectric constant tensor:
#      x y z
#    x 1.727490 0.000000 0.000000 
#    y 0.000000 1.681220 0.000000 
#    z 0.000000 0.000000 1.766010 
# 
# From -- ./inp_files/6064.got.cif
#   From: 2010.03.12/outbox.cif.g09.slc.cpg/sg47_4_cif.got.tgz:6064.got - 2010.04.14 03:12:58.
