data_PCOD8194575
_publ_section_title
;
Structure prediction by ZEFSAII (Michael W. Deem and Ramdas Pophale) SiO2 
 PCOD8194575
Probable space group: P M M M
;
_chemical_formula_sum "Si O2"
_cell_formula_units_Z 64
_cell_length_a 19.688653
_cell_length_b 9.243444
_cell_length_c 20.618298
_cell_angle_alpha 90.000000
_cell_angle_beta 90.000000
_cell_angle_gamma 90.000000
_cell_volume 3752.343876
_symmetry_space_group_name_H-M "P M M M"
_symmetry_group_IT_number 47
_symmetry_cell_setting 'orthorhombic'
loop_
_space_group_symop_operation_xyz
x,y,z
-x,-y,z
x,-y,-z
-x,y,-z
-x,-y,-z
x,y,-z
-x,y,z
x,-y,z
loop_
_atom_site_type_symbol
_atom_site_label
_atom_site_fract_x
_atom_site_fract_y
_atom_site_fract_z
Si Si1 0.702955 0.165927 0.926579
Si Si2 0.714267 0.671746 0.689186
Si Si3 0.213710 0.667690 0.820990
Si Si4 0.194894 0.668141 0.572635
Si Si5 0.423169 0.331989 0.882129
Si Si6 0.077475 0.167624 0.631852
Si Si7 0.924356 0.665130 0.237215
Si Si8 0.426627 0.671415 0.266840
O O1 0.757390 0.242974 0.880695
O O2 0.628702 0.237801 0.923676
O O3 0.696472 0.000000 0.905093
O O4 0.729843 0.179642 0.000000
O O5 0.712852 0.500000 0.687251
O O6 0.754122 0.723124 0.753308
O O7 0.750542 0.730922 0.624286
O O8 0.636592 0.732422 0.691138
O O9 0.231875 0.500000 0.832368
O O10 0.132203 0.693524 0.817966
O O11 0.223339 0.692520 0.500000
O O12 0.180471 0.500000 0.586151
O O13 0.124348 0.753124 0.579479
O O14 0.500000 0.300645 0.905639
O O15 0.405293 0.500000 0.891648
O O16 0.414133 0.285730 0.807539
O O17 0.090969 0.232019 0.702655
O O18 0.000000 0.192352 0.610111
O O19 0.096512 0.000000 0.634206
O O20 0.917781 0.500000 0.262252
O O21 0.000000 0.694411 0.208610
O O22 0.500000 0.734399 0.290673
O O23 0.429551 0.500000 0.271996
#
# Coordination Sequence:
#
# PCOD8194575 Si02
#       8
#     8   8   8   8   8   8   8   8
#     4  11  24  37  48  69 104 140 170 204 250 302
#     4   9  15  27  48  73  97 123 161 207 249 288
#     4  10  18  32  55  77  97 126 166 211 251 292
#     4  10  20  33  49  70  98 133 170 208 251 297
#     4   9  17  31  52  76  99 128 170 211 247 296
#     4  10  20  32  47  70 101 134 166 201 242 293
#     4   9  17  31  53  79 104 128 159 203 254 304
#     4   8  13  23  44  72  97 121 153 197 244 285
#
# _framework density 17.056007000000001
#
# number of rings (size 3 to 8) (size 9 to 14) (size 15 to 20)
#    0.000    2.500    2.500    1.500    0.000    3.250 
#    0.000    2.500    0.000    0.750    0.000    5.250 
#    0.000    0.000    0.000    1.125    0.000    1.250 
#
# Total GULP energy -793324.273822 kJ/mol
# GULP energy per Si atom -12395.691778 kJ/mol
# Density = 1.701719 g / cm^3
# Si number density = 17.056007 Si / 1000 Ang^3
#
#
#
# Elastic Constant Matrix: (Units=GPa)
#
#
# Indices 1 2 3 4 5 6 
#
# 1 126.6442 39.1061 60.6808 0.0000 0.0000 0.0000
# 2 39.1061 58.6962 39.8070 0.0000 0.0000 0.0000
# 3 60.6808 39.8070 93.3910 0.0000 0.0000 0.0000
# 4 0.0000 0.0000 0.0000 14.1428 0.0000 0.0000
# 5 0.0000 0.0000 0.0000 0.0000 21.6860 0.0000
# 6 0.0000 0.0000 0.0000 0.0000 0.0000 14.1745
#
#
#
# Elastic Compliance Matrix: (Units=1/GPa)
#
#
# Indices 1 2 3 4 5 6 
#
# 1 0.012046 -0.003822 -0.006198 0.000000 0.000000 0.000000
# 2 -0.003822 0.025177 -0.008248 0.000000 0.000000 0.000000
# 3 -0.006198 -0.008248 0.018250 0.000000 0.000000 0.000000
# 4 0.000000 0.000000 0.000000 0.070708 0.000000 0.000000
# 5 0.000000 0.000000 0.000000 0.000000 0.046113 0.000000
# 6 0.000000 0.000000 0.000000 0.000000 0.000000 0.070549
#
#
# Mechanical properties :
#
#
# Convention : Reuss Voigt Hill
#
# Bulk Modulus (GPa) = 52.80549 61.99102 57.39825
# Shear Modulus (GPa) = 17.50141 19.27648 18.38895
#
# Velocity S-wave (km/s) = 3.20678 3.36547 3.28708
# Velocity P-wave (km/s) = 6.68868 7.17819 6.93775
#
# Compressibility (1/GPa) = 0.01893743
#
# Stress axis : x y z
#
# Youngs Moduli (GPa) = 83.01501 39.71855 54.79408
#
# Poissons Ratio (x) = 0.15182 0.33959
# Poissons Ratio (y) = 0.31732 0.45193
# Poissons Ratio (z) = 0.51450 0.32759
#
# Static dielectric constant tensor:
#      x y z
#    x 3.612100 0.000000 0.000000 
#    y 0.000000 2.959150 0.000000 
#    z 0.000000 0.000000 2.986660 
# 
# 
# High freq. dielectric constant tensor:
#      x y z
#    x 1.668860 0.000000 0.000000 
#    y 0.000000 1.630530 0.000000 
#    z 0.000000 0.000000 1.629160 
# 
# From -- ./inp_files/9938.got.cif
#   From: 2010.03.12/outbox.cif.g09.slc.cpg/sg47_5_cif.got.tgz:9938.got - 2010.04.14 03:12:58.
