data_PCOD8194589
_publ_section_title
;
Structure prediction by ZEFSAII (Michael W. Deem and Ramdas Pophale) SiO2 
 PCOD8194589
Probable space group: P M M M
;
_chemical_formula_sum "Si O2"
_cell_formula_units_Z 56
_cell_length_a 9.209778
_cell_length_b 20.297453
_cell_length_c 15.393102
_cell_angle_alpha 90.000000
_cell_angle_beta 90.000000
_cell_angle_gamma 90.000000
_cell_volume 2877.510078
_symmetry_space_group_name_H-M "P M M M"
_symmetry_group_IT_number 47
_symmetry_cell_setting 'orthorhombic'
loop_
_space_group_symop_operation_xyz
x,y,z
-x,-y,z
x,-y,-z
-x,y,-z
-x,-y,-z
x,y,-z
-x,y,z
x,-y,z
loop_
_atom_site_type_symbol
_atom_site_label
_atom_site_fract_x
_atom_site_fract_y
_atom_site_fract_z
Si Si1 0.669051 0.105524 0.189791
Si Si2 0.827840 0.500000 0.100071
Si Si3 0.163065 0.071284 0.355429
Si Si4 0.827814 0.426065 0.594831
Si Si5 0.843228 0.000000 0.901219
Si Si6 0.165120 0.212687 0.594662
Si Si7 0.172607 0.377874 0.219023
Si Si8 0.330047 0.749399 0.761884
O O1 0.500000 0.092598 0.177892
O O2 0.718981 0.074055 0.279907
O O3 0.754258 0.066855 0.115816
O O4 0.704883 0.183486 0.186034
O O5 0.774450 0.564281 0.153791
O O6 0.000000 0.500000 0.097213
O O7 0.767562 0.500000 0.000000
O O8 0.188141 0.133844 0.417322
O O9 0.000000 0.075916 0.316316
O O10 0.182595 0.000000 0.403510
O O11 0.779995 0.395452 0.500000
O O12 0.766692 0.500000 0.600222
O O13 0.771969 0.388650 0.681115
O O14 0.000000 0.427559 0.599507
O O15 0.000000 0.000000 0.851336
O O16 0.880100 0.000000 0.000000
O O17 0.195895 0.244026 0.500000
O O18 0.273547 0.244447 0.663206
O O19 0.000000 0.229016 0.623941
O O20 0.248277 0.310031 0.188640
O O21 0.000000 0.370728 0.214339
O O22 0.500000 0.734681 0.758619
#
# Coordination Sequence:
#
# PCOD8194589 Si02
#       8
#     8   4   8   8   4   8   8   8
#     4  10  20  35  54  75 103 140 181 216 254 317
#     4   9  18  34  58  88 116 139 173 224 276 327
#     4   9  16  27  47  73 100 134 174 223 276 314
#     4   8  13  23  43  74 108 137 172 221 268 309
#     4  11  23  37  57  85 110 129 158 211 277 334
#     4   9  18  32  49  72 104 142 186 229 267 315
#     4  10  18  32  56  83 109 143 184 224 270 327
#     4  10  22  37  53  76 108 147 184 220 267 318
#
# _framework density 19.461268
#
# number of rings (size 3 to 8) (size 9 to 14) (size 15 to 20)
#    0.000    2.571    1.429    1.500    0.000    3.429 
#    0.000    3.929    0.000    3.429    0.000    5.000 
#    0.000    0.000    0.000    0.000    0.000    0.000 
#
# Total GULP energy -693742.576508 kJ/mol
# GULP energy per Si atom -12388.260295 kJ/mol
# Density = 1.941697 g / cm^3
# Si number density = 19.461268 Si / 1000 Ang^3
#
#
#
# Elastic Constant Matrix: (Units=GPa)
#
#
# Indices 1 2 3 4 5 6 
#
# 1 73.9568 53.5838 32.1855 0.0000 0.0000 0.0000
# 2 53.5838 142.3650 42.5335 0.0000 0.0000 0.0000
# 3 32.1855 42.5335 91.3376 0.0000 0.0000 0.0000
# 4 0.0000 0.0000 0.0000 12.4453 0.0000 0.0000
# 5 0.0000 0.0000 0.0000 0.0000 -28.8511 0.0000
# 6 0.0000 0.0000 0.0000 0.0000 0.0000 15.1612
#
#
#
# Elastic Compliance Matrix: (Units=1/GPa)
#
#
# Indices 1 2 3 4 5 6 
#
# 1 0.019817 -0.006241 -0.004077 0.000000 0.000000 0.000000
# 2 -0.006241 0.010125 -0.002516 0.000000 0.000000 0.000000
# 3 -0.004077 -0.002516 0.013557 0.000000 0.000000 0.000000
# 4 0.000000 0.000000 0.000000 0.080351 0.000000 0.000000
# 5 0.000000 0.000000 0.000000 0.000000 -0.034661 0.000000
# 6 0.000000 0.000000 0.000000 0.000000 0.000000 0.065958
#
#
# Mechanical properties :
#
#
# Convention : Reuss Voigt Hill
#
# Bulk Modulus (GPa) = 56.08043 62.69611 59.38827
# Shear Modulus (GPa) = 26.77257 11.70818 19.24038
#
# Velocity S-wave (km/s) = 3.71305 2.45544 3.14769
# Velocity P-wave (km/s) = 6.87468 6.35017 6.61763
#
# Compressibility (1/GPa) = 0.01783153
#
# Stress axis : x y z
#
# Youngs Moduli (GPa) = 50.46068 98.76791 73.76510
#
# Poissons Ratio (x) = 0.61640 0.30074
# Poissons Ratio (y) = 0.31492 0.18557
# Poissons Ratio (z) = 0.20573 0.24847
#
# Static dielectric constant tensor:
#      x y z
#    x 3.275410 0.000000 0.000000 
#    y 0.000000 3.872820 0.000000 
#    z 0.000000 0.000000 3.447110 
# 
# 
# High freq. dielectric constant tensor:
#      x y z
#    x 1.725190 0.000000 0.000000 
#    y 0.000000 1.770540 0.000000 
#    z 0.000000 0.000000 1.730430 
# 
# From -- ./inp_files/21661.got.cif
#   From: 2010.03.12/outbox.cif.g09.slc.cpg/sg47_11_cif.got.tgz:21661.got - 2010.04.14 03:12:58.
