data_PCOD8194726
_publ_section_title
;
Structure prediction by ZEFSAII (Michael W. Deem and Ramdas Pophale) SiO2 
 PCOD8194726
Probable space group: P M M M
;
_chemical_formula_sum "Si O2"
_cell_formula_units_Z 60
_cell_length_a 24.061203
_cell_length_b 18.373870
_cell_length_c 9.125156
_cell_angle_alpha 90.000000
_cell_angle_beta 90.000000
_cell_angle_gamma 90.000000
_cell_volume 4034.207888
_symmetry_space_group_name_H-M "P M M M"
_symmetry_group_IT_number 47
_symmetry_cell_setting 'orthorhombic'
loop_
_space_group_symop_operation_xyz
x,y,z
-x,-y,z
x,-y,-z
-x,y,-z
-x,-y,-z
x,y,-z
-x,y,z
x,-y,z
loop_
_atom_site_type_symbol
_atom_site_label
_atom_site_fract_x
_atom_site_fract_y
_atom_site_fract_z
Si Si1 0.729434 0.155578 0.673247
Si Si2 0.370279 0.084068 0.833194
Si Si3 0.061018 0.913790 0.336120
Si Si4 0.169048 0.915145 0.828202
Si Si5 0.500000 0.585920 0.336286
Si Si6 0.663681 0.295584 0.332724
Si Si7 0.388728 0.416006 0.829028
Si Si8 0.437788 0.807149 0.333633
O O1 0.732723 0.143864 0.500000
O O2 0.683462 0.101182 0.735924
O O3 0.787891 0.136522 0.745478
O O4 0.712820 0.239327 0.710745
O O5 0.424100 0.126281 0.774049
O O6 0.384647 0.000000 0.821397
O O7 0.357558 0.107270 0.000000
O O8 0.075226 0.885447 0.500000
O O9 0.108119 0.888100 0.222630
O O10 0.000000 0.884074 0.287333
O O11 0.058925 0.000000 0.337694
O O12 0.179266 0.000000 0.787570
O O13 0.174851 0.902570 0.000000
O O14 0.500000 0.500000 0.349730
O O15 0.500000 0.621163 0.500000
O O16 0.444961 0.610374 0.250535
O O17 0.670752 0.320626 0.500000
O O18 0.663001 0.367642 0.231217
O O19 0.604490 0.257884 0.304918
O O20 0.374940 0.500000 0.795120
O O21 0.396778 0.402430 0.000000
O O22 0.431620 0.835544 0.500000
O O23 0.500000 0.778700 0.301337
#
# Coordination Sequence:
#
# PCOD8194726 Si02
#       8
#     8   8   8   8   4   8   8   8
#     4  10  20  33  47  62  80 105 139 175 209 248
#     4  10  20  32  45  61  80 100 126 165 209 251
#     4   8  14  25  40  58  82 113 148 183 217 252
#     4  10  19  28  41  63  88 114 145 182 221 257
#     4   9  17  29  45  63  83 107 130 153 184 225
#     4   9  19  33  48  64  81 105 134 165 202 244
#     4  10  20  32  46  67  90 107 128 158 194 241
#     4   9  19  34  48  62  79 100 128 161 197 244
#
# _framework density 14.872807
#
# number of rings (size 3 to 8) (size 9 to 14) (size 15 to 20)
#    0.000    2.600    0.000    3.400    0.933    8.533 
#    0.000    2.667    0.000    0.000    0.000    0.000 
#    0.000    0.000    0.000    0.000    0.000    0.667 
#
# Total GULP energy -743816.982852 kJ/mol
# GULP energy per Si atom -12396.949714 kJ/mol
# Density = 1.483896 g / cm^3
# Si number density = 14.872807 Si / 1000 Ang^3
#
#
#
# Elastic Constant Matrix: (Units=GPa)
#
#
# Indices 1 2 3 4 5 6 
#
# 1 87.9012 30.0032 41.3703 0.0000 0.0000 0.0000
# 2 30.0032 57.5968 42.7808 0.0000 0.0000 0.0000
# 3 41.3703 42.7808 90.2585 0.0000 0.0000 0.0000
# 4 0.0000 0.0000 0.0000 22.1000 0.0000 0.0000
# 5 0.0000 0.0000 0.0000 0.0000 21.2532 0.0000
# 6 0.0000 0.0000 0.0000 0.0000 0.0000 12.3217
#
#
#
# Elastic Compliance Matrix: (Units=1/GPa)
#
#
# Indices 1 2 3 4 5 6 
#
# 1 0.015141 -0.004217 -0.004941 0.000000 0.000000 0.000000
# 2 -0.004217 0.027970 -0.011324 0.000000 0.000000 0.000000
# 3 -0.004941 -0.011324 0.018712 0.000000 0.000000 0.000000
# 4 0.000000 0.000000 0.000000 0.045249 0.000000 0.000000
# 5 0.000000 0.000000 0.000000 0.000000 0.047052 0.000000
# 6 0.000000 0.000000 0.000000 0.000000 0.000000 0.081157
#
#
# Mechanical properties :
#
#
# Convention : Reuss Voigt Hill
#
# Bulk Modulus (GPa) = 47.94412 51.56280 49.75346
# Shear Modulus (GPa) = 17.65539 19.24180 18.44859
#
# Velocity S-wave (km/s) = 3.44916 3.60079 3.52579
# Velocity P-wave (km/s) = 6.94034 7.21332 7.07815
#
# Compressibility (1/GPa) = 0.02085762
#
# Stress axis : x y z
#
# Youngs Moduli (GPa) = 66.04380 35.75223 53.44262
#
# Poissons Ratio (x) = 0.15078 0.26407
# Poissons Ratio (y) = 0.27853 0.60520
# Poissons Ratio (z) = 0.32634 0.40487
#
# Static dielectric constant tensor:
#      x y z
#    x 2.912070 0.000000 0.000000 
#    y 0.000000 2.684030 0.000000 
#    z 0.000000 0.000000 3.017140 
# 
# 
# High freq. dielectric constant tensor:
#      x y z
#    x 1.544250 0.000000 0.000000 
#    y 0.000000 1.538210 0.000000 
#    z 0.000000 0.000000 1.582860 
# 
# From -- ./inp_files/12903.got.cif
#   From: 2010.03.12/outbox.cif.g09.slc.cpg/sg47_7_cif.got.tgz:12903.got - 2010.04.14 03:12:58.
