data_PCOD8194437
_publ_section_title
;
Structure prediction by ZEFSAII (Michael W. Deem and Ramdas Pophale) SiO2 
 PCOD8194437
Probable space group: P M M M
;
_chemical_formula_sum "Si O2"
_cell_formula_units_Z 52
_cell_length_a 14.542729
_cell_length_b 9.748539
_cell_length_c 20.941114
_cell_angle_alpha 90.000000
_cell_angle_beta 90.000000
_cell_angle_gamma 90.000000
_cell_volume 2968.829288
_symmetry_space_group_name_H-M "P M M M"
_symmetry_group_IT_number 47
_symmetry_cell_setting 'orthorhombic'
loop_
_space_group_symop_operation_xyz
x,y,z
-x,-y,z
x,-y,-z
-x,y,-z
-x,-y,-z
x,y,-z
-x,y,z
x,-y,z
loop_
_atom_site_type_symbol
_atom_site_label
_atom_site_fract_x
_atom_site_fract_y
_atom_site_fract_z
Si Si1 0.000000 0.836656 0.429615
Si Si2 0.896462 0.849704 0.207625
Si Si3 0.341307 0.336892 0.669525
Si Si4 0.782763 0.661880 0.123875
Si Si5 0.399006 0.662128 0.189176
Si Si6 0.833978 0.845398 0.651948
Si Si7 0.500000 0.661775 0.427158
Si Si8 0.892972 0.336920 0.000000
O O1 0.906182 0.783460 0.398153
O O2 0.000000 0.776604 0.500000
O O3 0.000000 0.000000 0.425883
O O4 0.833513 0.727973 0.183222
O O5 0.890389 0.849949 0.282984
O O6 0.000000 0.819317 0.185767
O O7 0.865680 0.000000 0.181097
O O8 0.325656 0.500000 0.669848
O O9 0.373774 0.285018 0.739718
O O10 0.248753 0.259984 0.652618
O O11 0.412070 0.291444 0.614172
O O12 0.794362 0.500000 0.128365
O O13 0.675199 0.704462 0.133942
O O14 0.832512 0.717368 0.059822
O O15 0.500000 0.720835 0.169932
O O16 0.403655 0.500000 0.192823
O O17 0.799571 0.000000 0.634717
O O18 0.500000 0.500000 0.433187
O O19 0.500000 0.724210 0.500000
O O20 0.896368 0.500000 0.000000
O O21 0.000000 0.282055 0.000000
#
# Coordination Sequence:
#
# PCOD8194437 Si02
#       8
#     4   8   8   8   8   8   4   4
#     4   9  18  34  53  69  93 136 175 196 238 311
#     4  10  19  31  48  72 101 129 160 204 253 292
#     4  10  18  31  51  73  97 127 164 204 246 297
#     4  10  19  32  52  75  99 131 169 203 242 293
#     4   9  16  28  48  74  98 124 161 206 248 285
#     4  10  19  32  50  73  99 126 162 208 251 292
#     4   9  18  32  51  73  99 134 168 197 246 313
#     4   9  18  32  48  72 106 137 163 199 248 297
#
# _framework density 17.515322000000001
#
# number of rings (size 3 to 8) (size 9 to 14) (size 15 to 20)
#    0.000    2.385    3.077    0.462    0.000    1.538 
#    0.000    1.538    0.000    6.000    0.000    0.000 
#    0.000    1.231    0.000    0.000    0.000    0.000 
#
# Total GULP energy -644297.521181 kJ/mol
# GULP energy per Si atom -12390.336946 kJ/mol
# Density = 1.747546 g / cm^3
# Si number density = 17.515322 Si / 1000 Ang^3
#
#
#
# Elastic Constant Matrix: (Units=GPa)
#
#
# Indices 1 2 3 4 5 6 
#
# 1 162.0838 33.7266 68.4160 0.0000 0.0000 0.0000
# 2 33.7266 26.6454 15.5484 0.0000 0.0000 0.0000
# 3 68.4160 15.5484 100.3312 0.0000 0.0000 0.0000
# 4 0.0000 0.0000 0.0000 13.5715 0.0000 0.0000
# 5 0.0000 0.0000 0.0000 0.0000 30.1635 0.0000
# 6 0.0000 0.0000 0.0000 0.0000 0.0000 16.4856
#
#
#
# Elastic Compliance Matrix: (Units=1/GPa)
#
#
# Indices 1 2 3 4 5 6 
#
# 1 0.010710 -0.010219 -0.005720 0.000000 0.000000 0.000000
# 2 -0.010219 0.051012 -0.000937 0.000000 0.000000 0.000000
# 3 -0.005720 -0.000937 0.014013 0.000000 0.000000 0.000000
# 4 0.000000 0.000000 0.000000 0.073684 0.000000 0.000000
# 5 0.000000 0.000000 0.000000 0.000000 0.033153 0.000000
# 6 0.000000 0.000000 0.000000 0.000000 0.000000 0.060659
#
#
# Mechanical properties :
#
#
# Convention : Reuss Voigt Hill
#
# Bulk Modulus (GPa) = 23.81922 58.27139 41.04530
# Shear Modulus (GPa) = 17.18355 23.46873 20.32614
#
# Velocity S-wave (km/s) = 3.13558 3.66443 3.41027
# Velocity P-wave (km/s) = 5.17086 7.15857 6.24431
#
# Compressibility (1/GPa) = 0.04198291
#
# Stress axis : x y z
#
# Youngs Moduli (GPa) = 93.36754 19.60342 71.36484
#
# Poissons Ratio (x) = 0.20033 0.40819
# Poissons Ratio (y) = 0.95413 0.06686
# Poissons Ratio (z) = 0.53404 0.01837
#
# Static dielectric constant tensor:
#      x y z
#    x 3.569580 0.000000 0.000000 
#    y 0.000000 2.876550 0.000000 
#    z 0.000000 0.000000 3.414430 
# 
# 
# High freq. dielectric constant tensor:
#      x y z
#    x 1.689280 0.000000 0.000000 
#    y 0.000000 1.633830 0.000000 
#    z 0.000000 0.000000 1.670800 
# 
# From -- ./inp_files/30917.got.cif
#   From: 2010.03.12/outbox.cif.g09.slc.cpg/sg47_16_cif.got.tgz:30917.got - 2010.04.14 03:12:58.
