data_PCOD8194624
_publ_section_title
;
Structure prediction by ZEFSAII (Michael W. Deem and Ramdas Pophale) SiO2 
 PCOD8194624
Probable space group: P M M M
;
_chemical_formula_sum "Si O2"
_cell_formula_units_Z 44
_cell_length_a 13.455215
_cell_length_b 19.369567
_cell_length_c 9.236566
_cell_angle_alpha 90.000000
_cell_angle_beta 90.000000
_cell_angle_gamma 90.000000
_cell_volume 2407.249426
_symmetry_space_group_name_H-M "P M M M"
_symmetry_group_IT_number 47
_symmetry_cell_setting 'orthorhombic'
loop_
_space_group_symop_operation_xyz
x,y,z
-x,-y,z
x,-y,-z
-x,y,-z
-x,-y,-z
x,y,-z
-x,y,z
x,-y,z
loop_
_atom_site_type_symbol
_atom_site_label
_atom_site_fract_x
_atom_site_fract_y
_atom_site_fract_z
Si Si1 0.821237 0.846973 0.168012
Si Si2 0.000000 0.918656 0.332958
Si Si3 0.248571 0.421852 0.170294
Si Si4 0.891730 0.302543 0.829808
Si Si5 0.614431 0.667722 0.659593
Si Si6 0.388453 0.807066 0.168304
O O1 0.897800 0.892091 0.260714
O O2 0.834039 0.767002 0.210329
O O3 0.702598 0.861615 0.200320
O O4 0.846619 0.861132 0.000000
O O5 0.000000 0.895727 0.500000
O O6 0.000000 0.000000 0.315452
O O7 0.219475 0.500000 0.211163
O O8 0.163621 0.370231 0.229307
O O9 0.347357 0.398633 0.252560
O O10 0.266538 0.413938 0.000000
O O11 0.000000 0.299681 0.756225
O O12 0.902899 0.309275 0.000000
O O13 0.663958 0.672965 0.500000
O O14 0.500000 0.653791 0.641752
O O15 0.634738 0.738414 0.743623
O O16 0.500000 0.836843 0.206136
O O17 0.383792 0.786568 0.000000
#
# Coordination Sequence:
#
# PCOD8194624 Si02
#       6
#     8   4   8   8   8   8
#     4  10  18  33  59  86 111 143 183 224 266 318
#     4  11  25  41  57  85 122 151 178 216 262 314
#     4  10  20  33  49  69  95 132 178 226 276 326
#     4   9  16  29  50  76 102 128 167 217 264 314
#     4  10  20  32  47  69  99 135 175 221 272 325
#     4   9  17  31  54  83 113 142 176 224 275 320
#
# _framework density 18.278123000000001
#
# number of rings (size 3 to 8) (size 9 to 14) (size 15 to 20)
#    0.000    2.273    2.727    0.818    0.000    3.636 
#    0.000    3.636    0.000    0.545    0.000    5.091 
#    0.000    0.000    0.000    0.000    0.000    0.000 
#
# Total GULP energy -545167.346441 kJ/mol
# GULP energy per Si atom -12390.166965 kJ/mol
# Density = 1.823652 g / cm^3
# Si number density = 18.278123 Si / 1000 Ang^3
#
#
#
# Elastic Constant Matrix: (Units=GPa)
#
#
# Indices 1 2 3 4 5 6 
#
# 1 129.7224 50.9065 52.0341 0.0000 0.0000 0.0000
# 2 50.9065 68.1277 33.9695 0.0000 0.0000 0.0000
# 3 52.0341 33.9695 66.9016 0.0000 0.0000 0.0000
# 4 0.0000 0.0000 0.0000 15.4671 0.0000 0.0000
# 5 0.0000 0.0000 0.0000 0.0000 16.3360 0.0000
# 6 0.0000 0.0000 0.0000 0.0000 0.0000 21.2890
#
#
#
# Elastic Compliance Matrix: (Units=1/GPa)
#
#
# Indices 1 2 3 4 5 6 
#
# 1 0.012909 -0.006212 -0.006886 0.000000 0.000000 0.000000
# 2 -0.006212 0.022644 -0.006666 0.000000 0.000000 0.000000
# 3 -0.006886 -0.006666 0.023687 0.000000 0.000000 0.000000
# 4 0.000000 0.000000 0.000000 0.064653 0.000000 0.000000
# 5 0.000000 0.000000 0.000000 0.000000 0.061215 0.000000
# 6 0.000000 0.000000 0.000000 0.000000 0.000000 0.046973
#
#
# Mechanical properties :
#
#
# Convention : Reuss Voigt Hill
#
# Bulk Modulus (GPa) = 50.72935 59.84131 55.28533
# Shear Modulus (GPa) = 17.97407 19.14120 18.55763
#
# Velocity S-wave (km/s) = 3.13927 3.23959 3.18982
# Velocity P-wave (km/s) = 6.39956 6.84132 6.62412
#
# Compressibility (1/GPa) = 0.01971246
#
# Stress axis : x y z
#
# Youngs Moduli (GPa) = 77.46786 44.16193 42.21673
#
# Poissons Ratio (x) = 0.27435 0.29069
# Poissons Ratio (y) = 0.48125 0.28141
# Poissons Ratio (z) = 0.53341 0.29437
#
# Static dielectric constant tensor:
#      x y z
#    x 4.055740 0.000000 0.000000 
#    y 0.000000 3.097960 0.000000 
#    z 0.000000 0.000000 3.339650 
# 
# 
# High freq. dielectric constant tensor:
#      x y z
#    x 1.726890 0.000000 0.000000 
#    y 0.000000 1.672720 0.000000 
#    z 0.000000 0.000000 1.689100 
# 
# From -- ./inp_files/6145.got.cif
#   From: 2010.03.12/outbox.cif.g09.slc.cpg/sg47_4_cif.got.tgz:6145.got - 2010.04.14 03:12:58.
