data_PCOD8194772
_publ_section_title
;
Structure prediction by ZEFSAII (Michael W. Deem and Ramdas Pophale) SiO2 
 PCOD8194772
Probable space group: P M M M
;
_chemical_formula_sum "Si O2"
_cell_formula_units_Z 48
_cell_length_a 20.598534
_cell_length_b 19.438073
_cell_length_c 9.214603
_cell_angle_alpha 90.000000
_cell_angle_beta 90.000000
_cell_angle_gamma 90.000000
_cell_volume 3689.488410
_symmetry_space_group_name_H-M "P M M M"
_symmetry_group_IT_number 47
_symmetry_cell_setting 'orthorhombic'
loop_
_space_group_symop_operation_xyz
x,y,z
-x,-y,z
x,-y,-z
-x,y,-z
-x,-y,-z
x,y,-z
-x,y,z
x,-y,z
loop_
_atom_site_type_symbol
_atom_site_label
_atom_site_fract_x
_atom_site_fract_y
_atom_site_fract_z
Si Si1 0.733682 0.579776 0.170138
Si Si2 0.879243 0.418518 0.840061
Si Si3 0.623897 0.338407 0.327002
Si Si4 0.422992 0.924252 0.337393
Si Si5 0.000000 0.582238 0.661501
Si Si6 0.423700 0.792329 0.830878
Si Si7 0.500000 0.576671 0.672106
O O1 0.720072 0.500000 0.205805
O O2 0.807138 0.600389 0.214696
O O3 0.688927 0.626659 0.269817
O O4 0.721519 0.593976 0.000000
O O5 0.885329 0.500000 0.848253
O O6 0.935018 0.388098 0.736608
O O7 0.890675 0.387438 0.000000
O O8 0.626135 0.332067 0.500000
O O9 0.617016 0.263453 0.257909
O O10 0.563593 0.384188 0.271969
O O11 0.398396 0.906409 0.500000
O O12 0.500000 0.925849 0.336903
O O13 0.398716 0.866701 0.224452
O O14 0.396843 0.000000 0.290413
O O15 0.000000 0.500000 0.664477
O O16 0.000000 0.611363 0.500000
O O17 0.500000 0.782259 0.799037
O O18 0.407858 0.785715 0.000000
O O19 0.500000 0.500000 0.738728
O O20 0.500000 0.573354 0.500000
#
# Coordination Sequence:
#
# PCOD8194772 Si02
#       7
#     8   8   8   8   4   8   4
#     4   9  18  31  43  55  72  93 120 155 193 232
#     4   8  14  25  39  52  69  94 117 138 173 222
#     4  11  20  30  43  55  71  94 121 156 194 234
#     4   8  14  25  41  59  77  95 114 137 170 215
#     4   9  15  21  33  55  77  91 109 141 174 207
#     4  10  19  29  41  56  75  95 118 149 184 223
#     4   9  18  30  41  53  66  83 114 155 197 238
#
# _framework density 13.009933999999999
#
# number of rings (size 3 to 8) (size 9 to 14) (size 15 to 20)
#    0.000    2.833    0.833    3.250    0.000    3.667 
#    0.000    3.333    0.000    2.000    0.000    0.000 
#    0.000    0.000    0.000    0.000    0.000    0.000 
#
# Total GULP energy -594978.949872 kJ/mol
# GULP energy per Si atom -12395.394789 kJ/mol
# Density = 1.298032 g / cm^3
# Si number density = 13.009934 Si / 1000 Ang^3
#
#
#
# Elastic Constant Matrix: (Units=GPa)
#
#
# Indices 1 2 3 4 5 6 
#
# 1 79.9069 32.9201 45.3671 0.0000 0.0000 0.0000
# 2 32.9201 75.8962 42.4202 0.0000 0.0000 0.0000
# 3 45.3671 42.4202 79.8821 0.0000 0.0000 0.0000
# 4 0.0000 0.0000 0.0000 19.2827 0.0000 0.0000
# 5 0.0000 0.0000 0.0000 0.0000 18.0053 0.0000
# 6 0.0000 0.0000 0.0000 0.0000 0.0000 2.3182
#
#
#
# Elastic Compliance Matrix: (Units=1/GPa)
#
#
# Indices 1 2 3 4 5 6 
#
# 1 0.018982 -0.003140 -0.009113 0.000000 0.000000 0.000000
# 2 -0.003140 0.019257 -0.008443 0.000000 0.000000 0.000000
# 3 -0.009113 -0.008443 0.022177 0.000000 0.000000 0.000000
# 4 0.000000 0.000000 0.000000 0.051860 0.000000 0.000000
# 5 0.000000 0.000000 0.000000 0.000000 0.055539 0.000000
# 6 0.000000 0.000000 0.000000 0.000000 0.000000 0.431367
#
#
# Mechanical properties :
#
#
# Convention : Reuss Voigt Hill
#
# Bulk Modulus (GPa) = 52.56315 53.01110 52.78712
# Shear Modulus (GPa) = 7.72899 15.58643 11.65771
#
# Velocity S-wave (km/s) = 2.44003 3.46503 2.99668
# Velocity P-wave (km/s) = 6.95905 7.53947 7.25507
#
# Compressibility (1/GPa) = 0.01902474
#
# Stress axis : x y z
#
# Youngs Moduli (GPa) = 52.68131 51.93002 45.09132
#
# Poissons Ratio (x) = 0.16306 0.41091
# Poissons Ratio (y) = 0.16542 0.38069
# Poissons Ratio (z) = 0.48008 0.43843
#
# Static dielectric constant tensor:
#      x y z
#    x 2.510980 0.000000 0.000000 
#    y 0.000000 2.541010 0.000000 
#    z 0.000000 0.000000 2.682730 
# 
# 
# High freq. dielectric constant tensor:
#      x y z
#    x 1.466080 0.000000 0.000000 
#    y 0.000000 1.462490 0.000000 
#    z 0.000000 0.000000 1.500580 
# 
# From -- ./inp_files/9719.got.cif
#   From: 2010.03.12/outbox.cif.g09.slc.cpg/sg47_5_cif.got.tgz:9719.got - 2010.04.14 03:12:58.
