data_PCOD8194447
_publ_section_title
;
Structure prediction by ZEFSAII (Michael W. Deem and Ramdas Pophale) SiO2 
 PCOD8194447
Probable space group: P M M M
;
_chemical_formula_sum "Si O2"
_cell_formula_units_Z 48
_cell_length_a 12.278658
_cell_length_b 15.493733
_cell_length_c 13.718489
_cell_angle_alpha 90.000000
_cell_angle_beta 90.000000
_cell_angle_gamma 90.000000
_cell_volume 2609.836195
_symmetry_space_group_name_H-M "P M M M"
_symmetry_group_IT_number 47
_symmetry_cell_setting 'orthorhombic'
loop_
_space_group_symop_operation_xyz
x,y,z
-x,-y,z
x,-y,-z
-x,y,-z
-x,-y,-z
x,y,-z
-x,y,z
x,-y,z
loop_
_atom_site_type_symbol
_atom_site_label
_atom_site_fract_x
_atom_site_fract_y
_atom_site_fract_z
Si Si1 0.872652 0.097428 0.729638
Si Si2 0.626106 0.651183 0.109423
Si Si3 0.280582 0.835927 0.110515
Si Si4 0.872455 0.736236 0.387744
Si Si5 0.000000 0.601659 0.892099
Si Si6 0.197637 0.403086 0.758483
Si Si7 0.500000 0.099187 0.106917
O O1 0.822012 0.130395 0.830373
O O2 0.841882 0.166276 0.645619
O O3 0.000000 0.096473 0.748265
O O4 0.832926 0.000000 0.701614
O O5 0.500000 0.669521 0.138538
O O6 0.704200 0.734030 0.113706
O O7 0.684008 0.589615 0.188483
O O8 0.629866 0.611414 0.000000
O O9 0.389855 0.874206 0.161978
O O10 0.266809 0.870142 0.000000
O O11 0.839929 0.728673 0.500000
O O12 0.801910 0.664053 0.331130
O O13 0.000000 0.717467 0.370840
O O14 0.892531 0.631450 0.834759
O O15 0.000000 0.500000 0.904259
O O16 0.000000 0.644838 0.000000
O O17 0.169343 0.500000 0.720870
O O18 0.500000 0.000000 0.088098
O O19 0.500000 0.147843 0.000000
#
# Coordination Sequence:
#
# PCOD8194447 Si02
#       7
#     8   8   8   8   4   8   4
#     4  10  21  36  54  80 113 145 179 218 269 335
#     4  10  20  35  55  80 114 154 193 229 268 322
#     4  10  18  31  51  76 109 148 186 224 266 319
#     4  10  21  38  59  82 109 142 184 234 285 331
#     4   9  18  32  51  79 114 147 177 215 265 325
#     4  11  21  35  56  83 114 146 186 231 276 331
#     4   9  16  26  44  72 102 136 181 224 260 302
#
# _framework density 18.391959
#
# number of rings (size 3 to 8) (size 9 to 14) (size 15 to 20)
#    0.000    2.000    3.333    1.000    0.000    3.333 
#    0.000    4.167    0.000    0.500    0.000    1.167 
#    0.000    3.333    0.000    0.000    0.000    0.000 
#
# Total GULP energy -594915.211544 kJ/mol
# GULP energy per Si atom -12394.066907 kJ/mol
# Density = 1.835010 g / cm^3
# Si number density = 18.391959 Si / 1000 Ang^3
#
#
#
# Elastic Constant Matrix: (Units=GPa)
#
#
# Indices 1 2 3 4 5 6 
#
# 1 61.6170 29.4451 42.9736 0.0000 0.0000 0.0000
# 2 29.4451 99.8971 48.3785 0.0000 0.0000 0.0000
# 3 42.9736 48.3785 111.6207 0.0000 0.0000 0.0000
# 4 0.0000 0.0000 0.0000 17.4488 0.0000 0.0000
# 5 0.0000 0.0000 0.0000 0.0000 17.5016 0.0000
# 6 0.0000 0.0000 0.0000 0.0000 0.0000 25.2149
#
#
#
# Elastic Compliance Matrix: (Units=1/GPa)
#
#
# Indices 1 2 3 4 5 6 
#
# 1 0.022941 -0.003145 -0.007469 0.000000 0.000000 0.000000
# 2 -0.003145 0.013101 -0.004467 0.000000 0.000000 0.000000
# 3 -0.007469 -0.004467 0.013771 0.000000 0.000000 0.000000
# 4 0.000000 0.000000 0.000000 0.057311 0.000000 0.000000
# 5 0.000000 0.000000 0.000000 0.000000 0.057138 0.000000
# 6 0.000000 0.000000 0.000000 0.000000 0.000000 0.039659
#
#
# Mechanical properties :
#
#
# Convention : Reuss Voigt Hill
#
# Bulk Modulus (GPa) = 50.89070 57.19214 54.04142
# Shear Modulus (GPa) = 20.77850 22.18890 21.48370
#
# Velocity S-wave (km/s) = 3.36484 3.47716 3.42146
# Velocity P-wave (km/s) = 6.54418 6.87638 6.71234
#
# Compressibility (1/GPa) = 0.01964996
#
# Stress axis : x y z
#
# Youngs Moduli (GPa) = 43.58917 76.33173 72.61729
#
# Poissons Ratio (x) = 0.24005 0.54241
# Poissons Ratio (y) = 0.13708 0.32441
# Poissons Ratio (z) = 0.32558 0.34100
#
# Static dielectric constant tensor:
#      x y z
#    x 3.353990 0.000000 0.000000 
#    y 0.000000 3.443110 0.000000 
#    z 0.000000 0.000000 3.158800 
# 
# 
# High freq. dielectric constant tensor:
#      x y z
#    x 1.705010 0.000000 0.000000 
#    y 0.000000 1.720340 0.000000 
#    z 0.000000 0.000000 1.674820 
# 
# From -- ./inp_files/22707.got.cif
#   From: 2010.03.12/outbox.cif.g09.slc.cpg/sg47_12_cif.got.tgz:22707.got - 2010.04.14 03:12:58.
