data_PCOD8194408
_publ_section_title
;
Structure prediction by ZEFSAII (Michael W. Deem and Ramdas Pophale) SiO2 
 PCOD8194408
Probable space group: P M M M
;
_chemical_formula_sum "Si O2"
_cell_formula_units_Z 36
_cell_length_a 11.867419
_cell_length_b 7.795686
_cell_length_c 22.511707
_cell_angle_alpha 90.000000
_cell_angle_beta 90.000000
_cell_angle_gamma 90.000000
_cell_volume 2082.663193
_symmetry_space_group_name_H-M "P M M M"
_symmetry_group_IT_number 47
_symmetry_cell_setting 'orthorhombic'
loop_
_space_group_symop_operation_xyz
x,y,z
-x,-y,z
x,-y,-z
-x,y,-z
-x,-y,-z
x,y,-z
-x,y,z
x,-y,z
loop_
_atom_site_type_symbol
_atom_site_label
_atom_site_fract_x
_atom_site_fract_y
_atom_site_fract_z
Si Si1 0.266397 0.697922 0.886351
Si Si2 0.869407 0.798974 0.000000
Si Si3 0.874621 0.703285 0.221446
Si Si4 0.865768 0.309129 0.646718
Si Si5 0.134513 0.000000 0.567026
Si Si6 0.500000 0.705450 0.932624
O O1 0.285530 0.500000 0.872591
O O2 0.184948 0.716372 0.942175
O O3 0.208709 0.784136 0.828229
O O4 0.389029 0.780068 0.899654
O O5 0.000000 0.750928 0.000000
O O6 0.847644 0.000000 0.000000
O O7 0.882735 0.500000 0.214079
O O8 0.827273 0.747545 0.287100
O O9 0.000000 0.781962 0.212562
O O10 0.819483 0.500000 0.630647
O O11 0.819005 0.170623 0.599721
O O12 0.000000 0.314341 0.645771
O O13 0.181004 0.000000 0.500000
O O14 0.000000 0.000000 0.567913
O O15 0.500000 0.500000 0.933463
O O16 0.500000 0.774505 0.000000
#
# Coordination Sequence:
#
# PCOD8194408 Si02
#       6
#     8   4   8   8   4   4
#     4  10  18  31  50  65  81 111 147 181 221 270
#     4  11  23  34  41  60  90 109 136 185 232 269
#     4   8  14  25  42  62  80 104 143 181 216 262
#     4   8  14  25  38  54  80 111 144 182 217 254
#     4   9  16  24  36  58  84 114 151 176 202 252
#     4   9  16  28  46  68  86 104 140 185 221 266
#
# _framework density 17.285561000000001
#
# number of rings (size 3 to 8) (size 9 to 14) (size 15 to 20)
#    0.000    3.000    1.111    2.333    0.000    2.222 
#    2.000    3.333    0.000    0.000    0.000    0.000 
#    0.000    0.000    0.000    2.000    0.000   23.111 
#
# Total GULP energy -446148.480396 kJ/mol
# GULP energy per Si atom -12393.013344 kJ/mol
# Density = 1.724622 g / cm^3
# Si number density = 17.285561 Si / 1000 Ang^3
#
#
#
# Elastic Constant Matrix: (Units=GPa)
#
#
# Indices 1 2 3 4 5 6 
#
# 1 83.3784 16.9496 50.3885 0.0000 0.0000 0.0000
# 2 16.9496 52.5188 45.8248 0.0000 0.0000 0.0000
# 3 50.3885 45.8248 163.7669 0.0000 0.0000 0.0000
# 4 0.0000 0.0000 0.0000 7.0849 0.0000 0.0000
# 5 0.0000 0.0000 0.0000 0.0000 6.7357 0.0000
# 6 0.0000 0.0000 0.0000 0.0000 0.0000 4.1417
#
#
#
# Elastic Compliance Matrix: (Units=1/GPa)
#
#
# Indices 1 2 3 4 5 6 
#
# 1 0.014778 -0.001061 -0.004250 0.000000 0.000000 0.000000
# 2 -0.001061 0.025267 -0.006744 0.000000 0.000000 0.000000
# 3 -0.004250 -0.006744 0.009301 0.000000 0.000000 0.000000
# 4 0.000000 0.000000 0.000000 0.141145 0.000000 0.000000
# 5 0.000000 0.000000 0.000000 0.000000 0.148463 0.000000
# 6 0.000000 0.000000 0.000000 0.000000 0.000000 0.241445
#
#
# Mechanical properties :
#
#
# Convention : Reuss Voigt Hill
#
# Bulk Modulus (GPa) = 39.62515 58.44329 49.03422
# Shear Modulus (GPa) = 8.15767 16.02588 12.09178
#
# Velocity S-wave (km/s) = 2.17477 3.04818 2.64773
# Velocity P-wave (km/s) = 5.41108 6.80238 6.14622
#
# Compressibility (1/GPa) = 0.02523650
#
# Stress axis : x y z
#
# Youngs Moduli (GPa) = 67.67002 39.57654 107.51617
#
# Poissons Ratio (x) = 0.04199 0.45694
# Poissons Ratio (y) = 0.07180 0.72507
# Poissons Ratio (z) = 0.28759 0.26690
#
# Static dielectric constant tensor:
#      x y z
#    x 3.134750 0.000000 0.000000 
#    y 0.000000 3.126460 0.000000 
#    z 0.000000 0.000000 3.408500 
# 
# 
# High freq. dielectric constant tensor:
#      x y z
#    x 1.613930 0.000000 0.000000 
#    y 0.000000 1.653350 0.000000 
#    z 0.000000 0.000000 1.665170 
# 
# From -- ./inp_files/30281.got.cif
#   From: 2010.03.12/outbox.cif.g09.slc.cpg/sg47_16_cif.got.tgz:30281.got - 2010.04.14 03:12:58.
