data_PCOD8194990
_publ_section_title
;
Structure prediction by ZEFSAII (Michael W. Deem and Ramdas Pophale) SiO2 
 PCOD8194990
Probable space group: P M M M
;
_chemical_formula_sum "Si O2"
_cell_formula_units_Z 64
_cell_length_a 9.055483
_cell_length_b 19.316728
_cell_length_c 23.895852
_cell_angle_alpha 90.000000
_cell_angle_beta 90.000000
_cell_angle_gamma 90.000000
_cell_volume 4179.917441
_symmetry_space_group_name_H-M "P M M M"
_symmetry_group_IT_number 47
_symmetry_cell_setting 'orthorhombic'
loop_
_space_group_symop_operation_xyz
x,y,z
-x,-y,z
x,-y,-z
-x,y,-z
-x,-y,-z
x,y,-z
-x,y,z
x,-y,z
loop_
_atom_site_type_symbol
_atom_site_label
_atom_site_fract_x
_atom_site_fract_y
_atom_site_fract_z
Si Si1 0.326071 0.278538 0.263435
Si Si2 0.675138 0.575465 0.882531
Si Si3 0.826739 0.790333 0.839587
Si Si4 0.325912 0.852793 0.671743
Si Si5 0.675539 0.078118 0.438671
Si Si6 0.829570 0.922251 0.227307
Si Si7 0.325633 0.284444 0.936082
Si Si8 0.325392 0.573988 0.756030
O O1 0.500000 0.273459 0.250313
O O2 0.241063 0.259532 0.207156
O O3 0.281759 0.226668 0.313774
O O4 0.279721 0.357733 0.279861
O O5 0.500000 0.577561 0.883657
O O6 0.728731 0.500000 0.905750
O O7 0.735570 0.638994 0.919741
O O8 0.733049 0.584422 0.819157
O O9 0.790648 0.870033 0.823319
O O10 0.752776 0.774367 0.899109
O O11 0.000000 0.776494 0.843440
O O12 0.500000 0.863027 0.672931
O O13 0.262463 0.871688 0.610198
O O14 0.261886 0.905034 0.717309
O O15 0.732991 0.102997 0.500000
O O16 0.500000 0.079497 0.438613
O O17 0.730820 0.000000 0.427043
O O18 0.000000 0.914560 0.243970
O O19 0.791164 0.000000 0.207401
O O20 0.500000 0.279671 0.926048
O O21 0.283183 0.269816 0.000000
O O22 0.500000 0.568699 0.757353
O O23 0.263272 0.500000 0.731795
#
# Coordination Sequence:
#
# PCOD8194990 Si02
#       8
#     8   8   8   8   8   8   8   8
#     4   9  15  25  41  59  80 101 126 164 200 228
#     4   8  13  22  38  59  79  99 126 157 185 218
#     4  10  19  30  44  60  79 102 126 153 191 239
#     4   9  16  24  39  63  84 103 132 168 200 229
#     4   8  13  21  33  51  79 112 139 162 190 227
#     4   9  18  31  45  61  81 104 128 157 195 236
#     4  10  19  30  45  62  79 100 127 160 194 227
#     4   8  12  19  35  56  76 100 127 155 189 228
#
# _framework density 15.311306999999999
#
# number of rings (size 3 to 8) (size 9 to 14) (size 15 to 20)
#    0.000    3.125    1.250    1.875    0.000    1.750 
#    0.000    1.250    0.000    2.250    0.000    5.250 
#    0.000    0.500    0.000    7.000    0.000    0.000 
#
# Total GULP energy -792869.983235 kJ/mol
# GULP energy per Si atom -12388.593488 kJ/mol
# Density = 1.527646 g / cm^3
# Si number density = 15.311307 Si / 1000 Ang^3
#
#
#
# Elastic Constant Matrix: (Units=GPa)
#
#
# Indices 1 2 3 4 5 6 
#
# 1 18.3608 21.8509 20.9164 0.0000 0.0000 0.0000
# 2 21.8509 142.8269 70.1226 0.0000 0.0000 0.0000
# 3 20.9164 70.1226 103.8457 0.0000 0.0000 0.0000
# 4 0.0000 0.0000 0.0000 23.7645 0.0000 0.0000
# 5 0.0000 0.0000 0.0000 0.0000 6.2803 0.0000
# 6 0.0000 0.0000 0.0000 0.0000 0.0000 12.4324
#
#
#
# Elastic Compliance Matrix: (Units=1/GPa)
#
#
# Indices 1 2 3 4 5 6 
#
# 1 0.073951 -0.005985 -0.010854 0.000000 0.000000 0.000000
# 2 -0.005985 0.010958 -0.006194 0.000000 0.000000 0.000000
# 3 -0.010854 -0.006194 0.015998 0.000000 0.000000 0.000000
# 4 0.000000 0.000000 0.000000 0.042080 0.000000 0.000000
# 5 0.000000 0.000000 0.000000 0.000000 0.159228 0.000000
# 6 0.000000 0.000000 0.000000 0.000000 0.000000 0.080435
#
#
# Mechanical properties :
#
#
# Convention : Reuss Voigt Hill
#
# Bulk Modulus (GPa) = 18.23416 54.53480 36.38448
# Shear Modulus (GPa) = 11.18577 18.63834 14.91205
#
# Velocity S-wave (km/s) = 2.70581 3.49276 3.12416
# Velocity P-wave (km/s) = 4.65797 7.20836 6.06866
#
# Compressibility (1/GPa) = 0.05484211
#
# Stress axis : x y z
#
# Youngs Moduli (GPa) = 13.52248 91.25595 62.50619
#
# Poissons Ratio (x) = 0.54616 0.67842
# Poissons Ratio (y) = 0.08093 0.38717
# Poissons Ratio (z) = 0.14677 0.56525
#
# Static dielectric constant tensor:
#      x y z
#    x 2.631450 0.000000 0.000000 
#    y 0.000000 3.376130 0.000000 
#    z 0.000000 0.000000 2.925120 
# 
# 
# High freq. dielectric constant tensor:
#      x y z
#    x 1.552720 0.000000 0.000000 
#    y 0.000000 1.594440 0.000000 
#    z 0.000000 0.000000 1.553690 
# 
# From -- ./inp_files/30217.got.cif
#   From: 2010.03.12/outbox.cif.g09.slc.cpg/sg47_16_cif.got.tgz:30217.got - 2010.04.14 03:12:58.
