data_PCOD8194083
_publ_section_title
;
Structure prediction by ZEFSAII (Michael W. Deem and Ramdas Pophale) SiO2 
 PCOD8194083
Probable space group: P M M M
;
_chemical_formula_sum "Si O2"
_cell_formula_units_Z 52
_cell_length_a 28.100714
_cell_length_b 8.946183
_cell_length_c 11.907179
_cell_angle_alpha 90.000000
_cell_angle_beta 90.000000
_cell_angle_gamma 90.000000
_cell_volume 2993.394904
_symmetry_space_group_name_H-M "P M M M"
_symmetry_group_IT_number 47
_symmetry_cell_setting 'orthorhombic'
loop_
_space_group_symop_operation_xyz
x,y,z
-x,-y,z
x,-y,-z
-x,y,-z
-x,-y,-z
x,y,-z
-x,y,z
x,-y,z
loop_
_atom_site_type_symbol
_atom_site_label
_atom_site_fract_x
_atom_site_fract_y
_atom_site_fract_z
Si Si1 0.404466 0.675900 0.370809
Si Si2 0.684080 0.170853 0.277695
Si Si3 0.160470 0.324695 0.500000
Si Si4 0.256016 0.166064 0.500000
Si Si5 0.769247 0.177818 0.873465
Si Si6 0.500000 0.167859 0.633237
Si Si7 0.140309 0.178315 0.730447
Si Si8 0.947515 0.177371 0.874560
O O1 0.394325 0.726082 0.500000
O O2 0.409704 0.500000 0.363259
O O3 0.362872 0.728837 0.287136
O O4 0.453004 0.747698 0.324050
O O5 0.712048 0.186868 0.392508
O O6 0.718716 0.230367 0.178681
O O7 0.668643 0.000000 0.255932
O O8 0.151002 0.500000 0.500000
O O9 0.216538 0.293150 0.500000
O O10 0.136993 0.251166 0.608821
O O11 0.232196 0.000000 0.500000
O O12 0.813026 0.236121 0.797556
O O13 0.771035 0.000000 0.874549
O O14 0.773773 0.241627 0.000000
O O15 0.500000 0.167868 0.500000
O O16 0.500000 0.000000 0.681513
O O17 0.093642 0.239349 0.794295
O O18 0.141128 0.000000 0.718937
O O19 0.000000 0.227343 0.831251
O O20 0.944428 0.000000 0.878109
O O21 0.938989 0.240178 0.000000
#
# Coordination Sequence:
#
# PCOD8194083 Si02
#       8
#     8   8   4   4   8   4   8   8
#     4  10  19  29  43  66  97 130 163 199 240 286
#     4  10  18  29  47  69  96 126 161 199 236 286
#     4  12  24  34  47  69  99 132 168 208 247 290
#     4  10  18  32  50  70  94 128 170 205 240 290
#     4   9  17  29  48  74  98 123 160 203 243 286
#     4   9  17  29  45  65  92 127 164 201 243 289
#     4  10  18  32  53  74  99 132 165 199 244 300
#     4   8  14  26  49  82 109 125 154 207 260 298
#
# _framework density 17.371579000000001
#
# number of rings (size 3 to 8) (size 9 to 14) (size 15 to 20)
#    0.000    2.385    2.308    2.308    0.000    4.000 
#    0.000    0.385    0.000    6.000    0.000    1.615 
#    0.000    4.308    0.000    0.000    0.000    0.000 
#
# Total GULP energy -644640.224658 kJ/mol
# GULP energy per Si atom -12396.927397 kJ/mol
# Density = 1.733204 g / cm^3
# Si number density = 17.371579 Si / 1000 Ang^3
#
#
#
# Elastic Constant Matrix: (Units=GPa)
#
#
# Indices 1 2 3 4 5 6 
#
# 1 151.2358 42.0964 63.3450 0.0000 0.0000 0.0000
# 2 42.0964 51.5682 27.2909 0.0000 0.0000 0.0000
# 3 63.3450 27.2909 109.9123 0.0000 0.0000 0.0000
# 4 0.0000 0.0000 0.0000 10.9858 0.0000 0.0000
# 5 0.0000 0.0000 0.0000 0.0000 32.8292 0.0000
# 6 0.0000 0.0000 0.0000 0.0000 0.0000 9.1157
#
#
#
# Elastic Compliance Matrix: (Units=1/GPa)
#
#
# Indices 1 2 3 4 5 6 
#
# 1 0.010080 -0.005934 -0.004336 0.000000 0.000000 0.000000
# 2 -0.005934 0.025819 -0.002991 0.000000 0.000000 0.000000
# 3 -0.004336 -0.002991 0.012340 0.000000 0.000000 0.000000
# 4 0.000000 0.000000 0.000000 0.091026 0.000000 0.000000
# 5 0.000000 0.000000 0.000000 0.000000 0.030461 0.000000
# 6 0.000000 0.000000 0.000000 0.000000 0.000000 0.109700
#
#
# Mechanical properties :
#
#
# Convention : Reuss Voigt Hill
#
# Bulk Modulus (GPa) = 46.04712 64.24232 55.14472
# Shear Modulus (GPa) = 15.96497 22.58511 19.27504
#
# Velocity S-wave (km/s) = 3.03484 3.60963 3.33464
# Velocity P-wave (km/s) = 6.23258 7.37795 6.82932
#
# Compressibility (1/GPa) = 0.02171689
#
# Stress axis : x y z
#
# Youngs Moduli (GPa) = 99.20642 38.73182 81.03930
#
# Poissons Ratio (x) = 0.22983 0.35138
# Poissons Ratio (y) = 0.58868 0.24238
# Poissons Ratio (z) = 0.43016 0.11584
#
# Static dielectric constant tensor:
#      x y z
#    x 3.440090 0.000000 0.000000 
#    y 0.000000 2.898430 0.000000 
#    z 0.000000 0.000000 3.191080 
# 
# 
# High freq. dielectric constant tensor:
#      x y z
#    x 1.678360 0.000000 0.000000 
#    y 0.000000 1.635160 0.000000 
#    z 0.000000 0.000000 1.648150 
# 
# From -- ./inp_files/19864.got.cif
#   From: 2010.03.12/outbox.cif.g09.slc.cpg/sg47_10_cif.got.tgz:19864.got - 2010.04.14 03:12:58.
