data_PCOD8194231
_publ_section_title
;
Structure prediction by ZEFSAII (Michael W. Deem and Ramdas Pophale) SiO2 
 PCOD8194231
Probable space group: P M M M
;
_chemical_formula_sum "Si O2"
_cell_formula_units_Z 52
_cell_length_a 8.012655
_cell_length_b 29.741745
_cell_length_c 11.962497
_cell_angle_alpha 90.000000
_cell_angle_beta 90.000000
_cell_angle_gamma 90.000000
_cell_volume 2850.786749
_symmetry_space_group_name_H-M "P M M M"
_symmetry_group_IT_number 47
_symmetry_cell_setting 'orthorhombic'
loop_
_space_group_symop_operation_xyz
x,y,z
-x,-y,z
x,-y,-z
-x,y,-z
-x,-y,-z
x,y,-z
-x,y,z
x,-y,z
loop_
_atom_site_type_symbol
_atom_site_label
_atom_site_fract_x
_atom_site_fract_y
_atom_site_fract_z
Si Si1 0.195379 0.887646 0.368320
Si Si2 0.500000 0.950066 0.631919
Si Si3 0.807496 0.206201 0.720379
Si Si4 0.301257 0.253759 0.500000
Si Si5 0.200018 0.716114 0.126431
Si Si6 0.308900 0.647321 0.500000
Si Si7 0.693337 0.550496 0.129069
Si Si8 0.188509 0.631644 0.734625
O O1 0.215313 0.876159 0.500000
O O2 0.326496 0.926084 0.331032
O O3 0.256314 0.845009 0.293446
O O4 0.000000 0.901067 0.344691
O O5 0.500000 0.953418 0.500000
O O6 0.500000 0.000000 0.685223
O O7 0.776277 0.230979 0.606275
O O8 0.729835 0.236926 0.820223
O O9 0.000000 0.202656 0.745995
O O10 0.500000 0.249633 0.500000
O O11 0.224825 0.303785 0.500000
O O12 0.271949 0.673665 0.198255
O O13 0.000000 0.714913 0.126504
O O14 0.268652 0.712400 0.000000
O O15 0.500000 0.657434 0.500000
O O16 0.265785 0.620941 0.613323
O O17 0.500000 0.561449 0.148724
O O18 0.734764 0.500000 0.170376
O O19 0.802613 0.585815 0.196264
O O20 0.740842 0.555174 0.000000
O O21 0.000000 0.645176 0.714096
#
# Coordination Sequence:
#
# PCOD8194231 Si02
#       8
#     8   4   8   4   8   4   8   8
#     4   9  17  27  43  68  94 128 172 211 253 307
#     4   9  18  30  44  64  95 135 169 209 263 307
#     4  10  18  30  48  69  99 133 169 208 248 297
#     4  11  21  29  47  72  96 130 172 213 247 286
#     4   9  18  31  48  72 102 135 166 199 248 305
#     4  11  23  37  50  74 105 137 178 211 252 309
#     4   9  19  37  59  80 104 136 170 206 255 312
#     4  11  21  34  55  79 105 134 169 215 259 299
#
# _framework density 18.240577999999999
#
# number of rings (size 3 to 8) (size 9 to 14) (size 15 to 20)
#    0.000    2.231    2.308    1.846    1.077    2.154 
#    0.000    2.692    0.000    3.692    0.000    0.000 
#    0.000    1.231    0.000    6.000    0.000    0.154 
#
# Total GULP energy -644319.546787 kJ/mol
# GULP energy per Si atom -12390.760515 kJ/mol
# Density = 1.819906 g / cm^3
# Si number density = 18.240578 Si / 1000 Ang^3
#
#
#
# Elastic Constant Matrix: (Units=GPa)
#
#
# Indices 1 2 3 4 5 6 
#
# 1 39.5452 36.8156 14.6997 0.0000 0.0000 0.0000
# 2 36.8156 130.8541 47.2140 0.0000 0.0000 0.0000
# 3 14.6997 47.2140 99.0410 0.0000 0.0000 0.0000
# 4 0.0000 0.0000 0.0000 19.1971 0.0000 0.0000
# 5 0.0000 0.0000 0.0000 0.0000 16.4937 0.0000
# 6 0.0000 0.0000 0.0000 0.0000 0.0000 25.5156
#
#
#
# Elastic Compliance Matrix: (Units=1/GPa)
#
#
# Indices 1 2 3 4 5 6 
#
# 1 0.034290 -0.009434 -0.000592 0.000000 0.000000 0.000000
# 2 -0.009434 0.011825 -0.004237 0.000000 0.000000 0.000000
# 3 -0.000592 -0.004237 0.012205 0.000000 0.000000 0.000000
# 4 0.000000 0.000000 0.000000 0.052091 0.000000 0.000000
# 5 0.000000 0.000000 0.000000 0.000000 0.060629 0.000000
# 6 0.000000 0.000000 0.000000 0.000000 0.000000 0.039192
#
#
# Mechanical properties :
#
#
# Convention : Reuss Voigt Hill
#
# Bulk Modulus (GPa) = 33.56389 51.87765 42.72077
# Shear Modulus (GPa) = 20.10542 23.62202 21.86372
#
# Velocity S-wave (km/s) = 3.32360 3.60255 3.46588
# Velocity P-wave (km/s) = 5.75925 6.76809 6.28395
#
# Compressibility (1/GPa) = 0.02979392
#
# Stress axis : x y z
#
# Youngs Moduli (GPa) = 29.16280 84.56620 81.93678
#
# Poissons Ratio (x) = 0.79778 0.04852
# Poissons Ratio (y) = 0.27512 0.34716
# Poissons Ratio (z) = 0.01727 0.35830
#
# Static dielectric constant tensor:
#      x y z
#    x 3.244610 0.000000 0.000000 
#    y 0.000000 3.527610 0.000000 
#    z 0.000000 0.000000 3.337690 
# 
# 
# High freq. dielectric constant tensor:
#      x y z
#    x 1.697140 0.000000 0.000000 
#    y 0.000000 1.700820 0.000000 
#    z 0.000000 0.000000 1.678970 
# 
# From -- ./inp_files/15543.got.cif
#   From: 2010.03.12/outbox.cif.g09.slc.cpg/sg47_8_cif.got.tgz:15543.got - 2010.04.14 03:12:58.
