data_PCOD8194164
_publ_section_title
;
Structure prediction by ZEFSAII (Michael W. Deem and Ramdas Pophale) SiO2 
 PCOD8194164
Probable space group: P M M M
;
_chemical_formula_sum "Si O2"
_cell_formula_units_Z 44
_cell_length_a 17.472370
_cell_length_b 8.486870
_cell_length_c 15.332182
_cell_angle_alpha 90.000000
_cell_angle_beta 90.000000
_cell_angle_gamma 90.000000
_cell_volume 2273.543843
_symmetry_space_group_name_H-M "P M M M"
_symmetry_group_IT_number 47
_symmetry_cell_setting 'orthorhombic'
loop_
_space_group_symop_operation_xyz
x,y,z
-x,-y,z
x,-y,-z
-x,y,-z
-x,-y,-z
x,y,-z
-x,y,z
x,-y,z
loop_
_atom_site_type_symbol
_atom_site_label
_atom_site_fract_x
_atom_site_fract_y
_atom_site_fract_z
Si Si1 0.290124 0.683716 0.769993
Si Si2 0.130248 0.682237 0.405917
Si Si3 0.000000 0.686295 0.100108
Si Si4 0.704986 0.182333 0.405527
Si Si5 0.415345 0.312658 0.097642
Si Si6 0.879111 0.815137 0.769951
O O1 0.275684 0.500000 0.784948
O O2 0.327614 0.713995 0.674254
O O3 0.350264 0.755589 0.838912
O O4 0.210103 0.773539 0.780816
O O5 0.086113 0.701203 0.500000
O O6 0.153670 0.500000 0.392535
O O7 0.204582 0.790575 0.410008
O O8 0.084782 0.739968 0.319722
O O9 0.924004 0.749387 0.147016
O O10 0.000000 0.500000 0.104165
O O11 0.000000 0.745717 0.000000
O O12 0.668849 0.230680 0.500000
O O13 0.688943 0.000000 0.386137
O O14 0.500000 0.251505 0.125174
O O15 0.414867 0.500000 0.102235
O O16 0.396327 0.255060 0.000000
O O17 0.890889 0.000000 0.765427
#
# Coordination Sequence:
#
# PCOD8194164 Si02
#       6
#     8   8   4   8   8   8
#     4  10  18  29  51  80 105 133 172 213 252 298
#     4   9  16  28  49  76 105 136 171 211 252 296
#     4  11  25  45  64  77  96 131 175 222 266 305
#     4   9  16  26  42  66  98 135 171 207 251 301
#     4   8  15  29  49  74 103 132 164 207 258 306
#     4  11  22  36  55  79 109 140 171 210 256 310
#
# _framework density 19.353047
#
# number of rings (size 3 to 8) (size 9 to 14) (size 15 to 20)
#    0.000    2.455    0.000    6.273    0.000    3.636 
#    0.000    2.273    0.000    7.091    0.000    8.909 
#    0.000    0.000    0.000    0.000    0.000    0.000 
#
# Total GULP energy -545119.573125 kJ/mol
# GULP energy per Si atom -12389.081207 kJ/mol
# Density = 1.930900 g / cm^3
# Si number density = 19.353047 Si / 1000 Ang^3
#
#
#
# Elastic Constant Matrix: (Units=GPa)
#
#
# Indices 1 2 3 4 5 6 
#
# 1 76.7766 15.9014 71.0637 0.0000 0.0000 0.0000
# 2 15.9014 63.2403 40.9810 0.0000 0.0000 0.0000
# 3 71.0637 40.9810 190.9889 0.0000 0.0000 0.0000
# 4 0.0000 0.0000 0.0000 17.7304 0.0000 0.0000
# 5 0.0000 0.0000 0.0000 0.0000 -4.7862 0.0000
# 6 0.0000 0.0000 0.0000 0.0000 0.0000 0.5910
#
#
#
# Elastic Compliance Matrix: (Units=1/GPa)
#
#
# Indices 1 2 3 4 5 6 
#
# 1 0.019870 -0.000238 -0.007342 0.000000 0.000000 0.000000
# 2 -0.000238 0.018369 -0.003853 0.000000 0.000000 0.000000
# 3 -0.007342 -0.003853 0.008795 0.000000 0.000000 0.000000
# 4 0.000000 0.000000 0.000000 0.056400 0.000000 0.000000
# 5 0.000000 0.000000 0.000000 0.000000 -0.208932 0.000000
# 6 0.000000 0.000000 0.000000 0.000000 0.000000 1.692044
#
#
# Mechanical properties :
#
#
# Convention : Reuss Voigt Hill
#
# Bulk Modulus (GPa) = 41.37846 65.21088 53.29467
# Shear Modulus (GPa) = 3.09125 16.24433 9.66779
#
# Velocity S-wave (km/s) = 1.26521 2.90033 2.23748
# Velocity P-wave (km/s) = 4.85403 6.70704 5.85432
#
# Compressibility (1/GPa) = 0.02416717
#
# Stress axis : x y z
#
# Youngs Moduli (GPa) = 50.32719 54.43836 113.70720
#
# Poissons Ratio (x) = 0.01297 0.83485
# Poissons Ratio (y) = 0.01199 0.43810
# Poissons Ratio (z) = 0.36951 0.20975
#
# Static dielectric constant tensor:
#      x y z
#    x 3.307260 0.000000 0.000000 
#    y 0.000000 3.336740 0.000000 
#    z 0.000000 0.000000 4.341780 
# 
# 
# High freq. dielectric constant tensor:
#      x y z
#    x 1.706310 0.000000 0.000000 
#    y 0.000000 1.744610 0.000000 
#    z 0.000000 0.000000 1.774820 
# 
# From -- ./inp_files/24313.got.cif
#   From: 2010.03.12/outbox.cif.g09.slc.cpg/sg47_13_cif.got.tgz:24313.got - 2010.04.14 03:12:58.
