data_PCOD8194901
_publ_section_title
;
Structure prediction by ZEFSAII (Michael W. Deem and Ramdas Pophale) SiO2 
 PCOD8194901
Probable space group: P M M M
;
_chemical_formula_sum "Si O2"
_cell_formula_units_Z 52
_cell_length_a 26.028664
_cell_length_b 13.705420
_cell_length_c 9.337915
_cell_angle_alpha 90.000000
_cell_angle_beta 90.000000
_cell_angle_gamma 90.000000
_cell_volume 3331.149642
_symmetry_space_group_name_H-M "P M M M"
_symmetry_group_IT_number 47
_symmetry_cell_setting 'orthorhombic'
loop_
_space_group_symop_operation_xyz
x,y,z
-x,-y,z
x,-y,-z
-x,y,-z
-x,-y,-z
x,y,-z
-x,y,z
x,-y,z
loop_
_atom_site_type_symbol
_atom_site_label
_atom_site_fract_x
_atom_site_fract_y
_atom_site_fract_z
Si Si1 0.854309 0.791990 0.663589
Si Si2 0.296532 0.715865 0.831781
Si Si3 0.789747 0.610218 0.335762
Si Si4 0.058105 0.110254 0.831846
Si Si5 0.500000 0.615998 0.338387
Si Si6 0.748227 0.111636 0.332808
Si Si7 0.402118 0.387870 0.165331
O O1 0.869986 0.809182 0.500000
O O2 0.838412 0.679946 0.693310
O O3 0.903596 0.814653 0.758150
O O4 0.806898 0.861974 0.706192
O O5 0.257214 0.637894 0.766280
O O6 0.290228 0.821702 0.759102
O O7 0.353409 0.678464 0.798503
O O8 0.285846 0.724424 0.000000
O O9 0.771288 0.623554 0.500000
O O10 0.807161 0.500000 0.303452
O O11 0.000000 0.139277 0.790288
O O12 0.069612 0.000000 0.779870
O O13 0.066229 0.117863 0.000000
O O14 0.500000 0.500000 0.334033
O O15 0.500000 0.656337 0.500000
O O16 0.550840 0.654160 0.258365
O O17 0.738282 0.132041 0.500000
O O18 0.737623 0.000000 0.291600
O O19 0.389235 0.500000 0.204872
O O20 0.417945 0.379635 0.000000
#
# Coordination Sequence:
#
# PCOD8194901 Si02
#       7
#     8   8   8   8   4   8   8
#     4   9  17  29  46  67  87 110 144 181 215 254
#     4  10  19  29  44  68  93 117 149 185 219 259
#     4   9  18  32  47  63  88 121 151 180 217 259
#     4   9  18  31  45  63  88 115 141 172 215 265
#     4   9  17  27  41  63  86 111 148 187 217 252
#     4   9  18  32  47  64  90 121 149 179 218 263
#     4   9  17  29  43  60  88 122 148 175 216 261
#
# _framework density 15.610227
#
# number of rings (size 3 to 8) (size 9 to 14) (size 15 to 20)
#    0.000    2.846    0.000    3.000    0.000    7.077 
#    0.000    2.308    0.000    0.462    0.000    3.769 
#    0.000    4.308    0.000    0.000    0.000    0.000 
#
# Total GULP energy -644784.167547 kJ/mol
# GULP energy per Si atom -12399.695530 kJ/mol
# Density = 1.557470 g / cm^3
# Si number density = 15.610227 Si / 1000 Ang^3
#
#
#
# Elastic Constant Matrix: (Units=GPa)
#
#
# Indices 1 2 3 4 5 6 
#
# 1 115.6966 60.4052 66.4888 0.0000 0.0000 0.0000
# 2 60.4052 110.7502 49.0019 0.0000 0.0000 0.0000
# 3 66.4888 49.0019 77.1014 0.0000 0.0000 0.0000
# 4 0.0000 0.0000 0.0000 23.5222 0.0000 0.0000
# 5 0.0000 0.0000 0.0000 0.0000 21.9536 0.0000
# 6 0.0000 0.0000 0.0000 0.0000 0.0000 21.2845
#
#
#
# Elastic Compliance Matrix: (Units=1/GPa)
#
#
# Indices 1 2 3 4 5 6 
#
# 1 0.018443 -0.004204 -0.013232 0.000000 0.000000 0.000000
# 2 -0.004204 0.013520 -0.004967 0.000000 0.000000 0.000000
# 3 -0.013232 -0.004967 0.027537 0.000000 0.000000 0.000000
# 4 0.000000 0.000000 0.000000 0.042513 0.000000 0.000000
# 5 0.000000 0.000000 0.000000 0.000000 0.045551 0.000000
# 6 0.000000 0.000000 0.000000 0.000000 0.000000 0.046983
#
#
# Mechanical properties :
#
#
# Convention : Reuss Voigt Hill
#
# Bulk Modulus (GPa) = 68.05815 72.81554 70.43685
# Shear Modulus (GPa) = 20.47075 21.86221 21.16648
#
# Velocity S-wave (km/s) = 3.62521 3.74639 3.68630
# Velocity P-wave (km/s) = 7.82406 8.09081 7.95856
#
# Compressibility (1/GPa) = 0.01469332
#
# Stress axis : x y z
#
# Youngs Moduli (GPa) = 54.22244 73.96347 36.31429
#
# Poissons Ratio (x) = 0.31097 0.48051
# Poissons Ratio (y) = 0.22797 0.18038
# Poissons Ratio (z) = 0.71747 0.36738
#
# Static dielectric constant tensor:
#      x y z
#    x 2.855680 0.000000 0.000000 
#    y 0.000000 2.965030 0.000000 
#    z 0.000000 0.000000 2.993740 
# 
# 
# High freq. dielectric constant tensor:
#      x y z
#    x 1.586950 0.000000 0.000000 
#    y 0.000000 1.582540 0.000000 
#    z 0.000000 0.000000 1.603710 
# 
# From -- ./inp_files/7695.got.cif
#   From: 2010.03.12/outbox.cif.g09.slc.cpg/sg47_4_cif.got.tgz:7695.got - 2010.04.14 03:12:58.
