data_PCOD8194151
_publ_section_title
;
Structure prediction by ZEFSAII (Michael W. Deem and Ramdas Pophale) SiO2 
 PCOD8194151
Probable space group: P M M M
;
_chemical_formula_sum "Si O2"
_cell_formula_units_Z 56
_cell_length_a 23.031223
_cell_length_b 10.144051
_cell_length_c 14.106347
_cell_angle_alpha 90.000000
_cell_angle_beta 90.000000
_cell_angle_gamma 90.000000
_cell_volume 3295.664449
_symmetry_space_group_name_H-M "P M M M"
_symmetry_group_IT_number 47
_symmetry_cell_setting 'orthorhombic'
loop_
_space_group_symop_operation_xyz
x,y,z
-x,-y,z
x,-y,-z
-x,y,-z
-x,-y,-z
x,y,-z
-x,y,z
x,-y,z
loop_
_atom_site_type_symbol
_atom_site_label
_atom_site_fract_x
_atom_site_fract_y
_atom_site_fract_z
Si Si1 0.768607 0.848045 0.611306
Si Si2 0.678788 0.655225 0.704191
Si Si3 0.436363 0.344246 0.394228
Si Si4 0.000000 0.842808 0.391532
Si Si5 0.885350 0.146641 0.700528
Si Si6 0.135645 0.245769 0.107479
Si Si7 0.737727 0.651093 0.104079
Si Si8 0.935177 0.500000 0.888350
O O1 0.777835 0.842713 0.500000
O O2 0.717753 0.748500 0.639256
O O3 0.826450 0.788038 0.660712
O O4 0.755336 0.000000 0.643591
O O5 0.689843 0.500000 0.680781
O O6 0.612572 0.697868 0.681548
O O7 0.690870 0.685773 0.815079
O O8 0.420937 0.290880 0.500000
O O9 0.500000 0.289382 0.362791
O O10 0.439391 0.500000 0.398752
O O11 0.056911 0.782069 0.339647
O O12 0.000000 0.797013 0.500000
O O13 0.000000 0.000000 0.380717
O O14 0.884212 0.138613 0.815484
O O15 0.885896 0.000000 0.658975
O O16 0.204671 0.262502 0.115519
O O17 0.101644 0.374409 0.143355
O O18 0.118352 0.204099 0.000000
O O19 0.757741 0.500000 0.111803
O O20 0.709778 0.678419 0.000000
O O21 0.000000 0.500000 0.842969
O O22 0.940962 0.500000 0.000000
#
# Coordination Sequence:
#
# PCOD8194151 Si02
#       8
#     8   8   8   4   8   8   8   4
#     4  10  20  33  48  68  97 127 154 195 248 291
#     4  10  18  29  50  75  95 123 163 202 234 275
#     4   8  14  25  42  67  99 129 157 193 236 280
#     4   9  18  34  53  66  79 110 157 194 219 271
#     4  10  20  33  48  68  90 117 153 189 232 284
#     4  10  18  30  47  66  92 119 146 186 231 277
#     4   9  16  28  45  67  94 122 152 190 236 281
#     4   9  18  30  46  66  86 116 155 184 219 281
#
# _framework density 16.992021000000001
#
# number of rings (size 3 to 8) (size 9 to 14) (size 15 to 20)
#    0.000    2.571    2.143    1.286    1.000    2.857 
#    0.000    0.000    0.000    2.571    0.000    5.500 
#    0.000    0.000    0.000    1.286    0.000    1.571 
#
# Total GULP energy -693871.605394 kJ/mol
# GULP energy per Si atom -12390.564382 kJ/mol
# Density = 1.695335 g / cm^3
# Si number density = 16.992021 Si / 1000 Ang^3
#
#
#
# Elastic Constant Matrix: (Units=GPa)
#
#
# Indices 1 2 3 4 5 6 
#
# 1 131.2091 21.9860 59.5476 0.0000 0.0000 0.0000
# 2 21.9860 30.7250 15.3580 0.0000 0.0000 0.0000
# 3 59.5476 15.3580 117.0302 0.0000 0.0000 0.0000
# 4 0.0000 0.0000 0.0000 19.7745 0.0000 0.0000
# 5 0.0000 0.0000 0.0000 0.0000 28.7887 0.0000
# 6 0.0000 0.0000 0.0000 0.0000 0.0000 12.2972
#
#
#
# Elastic Compliance Matrix: (Units=1/GPa)
#
#
# Indices 1 2 3 4 5 6 
#
# 1 0.010648 -0.005256 -0.004728 0.000000 0.000000 0.000000
# 2 -0.005256 0.037426 -0.002237 0.000000 0.000000 0.000000
# 3 -0.004728 -0.002237 0.011244 0.000000 0.000000 0.000000
# 4 0.000000 0.000000 0.000000 0.050570 0.000000 0.000000
# 5 0.000000 0.000000 0.000000 0.000000 0.034736 0.000000
# 6 0.000000 0.000000 0.000000 0.000000 0.000000 0.081320
#
#
# Mechanical properties :
#
#
# Convention : Reuss Voigt Hill
#
# Bulk Modulus (GPa) = 28.67327 52.52750 40.60038
# Shear Modulus (GPa) = 19.08312 24.31024 21.69668
#
# Velocity S-wave (km/s) = 3.35485 3.78654 3.57721
# Velocity P-wave (km/s) = 5.64959 7.07795 6.40372
#
# Compressibility (1/GPa) = 0.03487569
#
# Stress axis : x y z
#
# Youngs Moduli (GPa) = 93.91457 26.71931 88.93488
#
# Poissons Ratio (x) = 0.14044 0.42050
# Poissons Ratio (y) = 0.49362 0.19895
# Poissons Ratio (z) = 0.44404 0.05977
#
# Static dielectric constant tensor:
#      x y z
#    x 3.427350 0.000000 0.000000 
#    y 0.000000 2.861660 0.000000 
#    z 0.000000 0.000000 3.238260 
# 
# 
# High freq. dielectric constant tensor:
#      x y z
#    x 1.650080 0.000000 0.000000 
#    y 0.000000 1.611650 0.000000 
#    z 0.000000 0.000000 1.657180 
# 
# From -- ./inp_files/19613.got.cif
#   From: 2010.03.12/outbox.cif.g09.slc.cpg/sg47_10_cif.got.tgz:19613.got - 2010.04.14 03:12:58.
