data_PCOD8194986
_publ_section_title
;
Structure prediction by ZEFSAII (Michael W. Deem and Ramdas Pophale) SiO2 
 PCOD8194986
Probable space group: P M M M
;
_chemical_formula_sum "Si O2"
_cell_formula_units_Z 48
_cell_length_a 20.625610
_cell_length_b 19.363207
_cell_length_c 8.890677
_cell_angle_alpha 90.000000
_cell_angle_beta 90.000000
_cell_angle_gamma 90.000000
_cell_volume 3550.740407
_symmetry_space_group_name_H-M "P M M M"
_symmetry_group_IT_number 47
_symmetry_cell_setting 'orthorhombic'
loop_
_space_group_symop_operation_xyz
x,y,z
-x,-y,z
x,-y,-z
-x,y,-z
-x,-y,-z
x,y,-z
-x,y,z
x,-y,z
loop_
_atom_site_type_symbol
_atom_site_label
_atom_site_fract_x
_atom_site_fract_y
_atom_site_fract_z
Si Si1 0.500000 0.417551 0.669989
Si Si2 0.120269 0.346749 0.822354
Si Si3 0.076419 0.211868 0.326788
Si Si4 0.000000 0.418348 0.329507
Si Si5 0.371597 0.418063 0.831001
Si Si6 0.923036 0.924348 0.831039
Si Si7 0.759959 0.580868 0.324703
O O1 0.500000 0.500000 0.670435
O O2 0.500000 0.389447 0.500000
O O3 0.436595 0.388331 0.754513
O O4 0.114482 0.267627 0.771525
O O5 0.063742 0.392292 0.751864
O O6 0.188447 0.376267 0.769276
O O7 0.115095 0.351408 0.000000
O O8 0.093522 0.223129 0.500000
O O9 0.101980 0.136080 0.278443
O O10 0.000000 0.220454 0.296104
O O11 0.000000 0.500000 0.327383
O O12 0.000000 0.389683 0.500000
O O13 0.375740 0.500000 0.836093
O O14 0.310453 0.394795 0.731605
O O15 0.365307 0.388314 0.000000
O O16 0.000000 0.924732 0.830101
O O17 0.897993 0.000000 0.775817
O O18 0.897910 0.909987 0.000000
O O19 0.766857 0.598125 0.500000
O O20 0.771013 0.500000 0.293628
#
# Coordination Sequence:
#
# PCOD8194986 Si02
#       7
#     4   8   8   4   8   8   8
#     4   9  15  23  37  57  79 101 123 147 182 227
#     4  12  23  33  46  60  75  97 126 162 201 242
#     4  10  19  30  44  59  78 100 124 156 192 232
#     4  11  23  37  49  59  72  91 120 161 207 249
#     4   9  16  26  40  58  78  98 122 153 188 228
#     4   8  14  25  41  60  81 101 120 145 180 223
#     4  10  20  33  46  58  75  99 126 160 202 244
#
# _framework density 13.518307
#
# number of rings (size 3 to 8) (size 9 to 14) (size 15 to 20)
#    0.000    2.167    0.833    4.500    0.000    7.667 
#    0.000    1.667    0.000    0.000    0.000    0.000 
#    0.000    0.000    0.000    0.000    0.000    0.000 
#
# Total GULP energy -595162.351976 kJ/mol
# GULP energy per Si atom -12399.215666 kJ/mol
# Density = 1.348754 g / cm^3
# Si number density = 13.518307 Si / 1000 Ang^3
#
#
#
# Elastic Constant Matrix: (Units=GPa)
#
#
# Indices 1 2 3 4 5 6 
#
# 1 77.1883 30.1496 40.5218 0.0000 0.0000 0.0000
# 2 30.1496 62.7313 41.3969 0.0000 0.0000 0.0000
# 3 40.5218 41.3969 112.3364 0.0000 0.0000 0.0000
# 4 0.0000 0.0000 0.0000 19.9631 0.0000 0.0000
# 5 0.0000 0.0000 0.0000 0.0000 25.4423 0.0000
# 6 0.0000 0.0000 0.0000 0.0000 0.0000 3.8001
#
#
#
# Elastic Compliance Matrix: (Units=1/GPa)
#
#
# Indices 1 2 3 4 5 6 
#
# 1 0.017333 -0.005555 -0.004205 0.000000 0.000000 0.000000
# 2 -0.005555 0.022844 -0.006414 0.000000 0.000000 0.000000
# 3 -0.004205 -0.006414 0.012782 0.000000 0.000000 0.000000
# 4 0.000000 0.000000 0.000000 0.050092 0.000000 0.000000
# 5 0.000000 0.000000 0.000000 0.000000 0.039305 0.000000
# 6 0.000000 0.000000 0.000000 0.000000 0.000000 0.263151
#
#
# Mechanical properties :
#
#
# Convention : Reuss Voigt Hill
#
# Bulk Modulus (GPa) = 48.52103 52.93251 50.72677
# Shear Modulus (GPa) = 11.24286 19.18694 15.21490
#
# Velocity S-wave (km/s) = 2.88701 3.77149 3.35849
# Velocity P-wave (km/s) = 6.86177 7.62933 7.25570
#
# Compressibility (1/GPa) = 0.02060962
#
# Stress axis : x y z
#
# Youngs Moduli (GPa) = 57.69402 43.77550 78.23292
#
# Poissons Ratio (x) = 0.24319 0.32897
# Poissons Ratio (y) = 0.32052 0.50180
# Poissons Ratio (z) = 0.24260 0.28078
#
# Static dielectric constant tensor:
#      x y z
#    x 2.641800 0.000000 0.000000 
#    y 0.000000 2.639100 0.000000 
#    z 0.000000 0.000000 2.887940 
# 
# 
# High freq. dielectric constant tensor:
#      x y z
#    x 1.485970 0.000000 0.000000 
#    y 0.000000 1.480700 0.000000 
#    z 0.000000 0.000000 1.535320 
# 
# From -- ./inp_files/11415.got.cif
#   From: 2010.03.12/outbox.cif.g09.slc.cpg/sg47_6_cif.got.tgz:11415.got - 2010.04.14 03:12:58.
