data_PCOD8194093
_publ_section_title
;
Structure prediction by ZEFSAII (Michael W. Deem and Ramdas Pophale) SiO2 
 PCOD8194093
Probable space group: P M M M
;
_chemical_formula_sum "Si O2"
_cell_formula_units_Z 52
_cell_length_a 9.487307
_cell_length_b 10.758118
_cell_length_c 29.583864
_cell_angle_alpha 90.000000
_cell_angle_beta 90.000000
_cell_angle_gamma 90.000000
_cell_volume 3019.493889
_symmetry_space_group_name_H-M "P M M M"
_symmetry_group_IT_number 47
_symmetry_cell_setting 'orthorhombic'
loop_
_space_group_symop_operation_xyz
x,y,z
-x,-y,z
x,-y,-z
-x,y,-z
-x,-y,-z
x,y,-z
-x,y,z
x,-y,z
loop_
_atom_site_type_symbol
_atom_site_label
_atom_site_fract_x
_atom_site_fract_y
_atom_site_fract_z
Si Si1 0.653656 0.356434 0.048876
Si Si2 0.166016 0.856363 0.617390
Si Si3 0.833696 0.776628 0.887433
Si Si4 0.832401 0.000000 0.050672
Si Si5 0.160161 0.147755 0.788903
Si Si6 0.341642 0.146551 0.294234
Si Si7 0.167020 0.638544 0.550719
O O1 0.500000 0.296030 0.059534
O O2 0.631981 0.500000 0.042932
O O3 0.760461 0.342607 0.090969
O O4 0.710702 0.304048 0.000000
O O5 0.251387 0.818863 0.661895
O O6 0.220030 0.755639 0.580516
O O7 0.000000 0.842232 0.627335
O O8 0.198445 0.000000 0.602285
O O9 0.777759 0.883204 0.921022
O O10 0.783273 0.798179 0.836186
O O11 0.000000 0.763093 0.888329
O O12 0.000000 0.000000 0.049109
O O13 0.769262 0.000000 0.000000
O O14 0.261009 0.200938 0.749535
O O15 0.000000 0.191088 0.778983
O O16 0.165166 0.000000 0.791879
O O17 0.500000 0.202871 0.297499
O O18 0.351078 0.000000 0.289272
O O19 0.225969 0.658304 0.500000
O O20 0.215452 0.500000 0.568352
O O21 0.000000 0.641661 0.549866
#
# Coordination Sequence:
#
# PCOD8194093 Si02
#       7
#     8   8   8   4   8   8   8
#     4   9  19  35  50  63  84 116 151 186 225 266
#     4   9  16  26  43  68  94 120 154 196 239 275
#     4  10  18  29  47  71  93 116 146 181 221 268
#     4   9  16  26  41  65  97 123 139 165 214 269
#     4   9  16  28  45  66  94 122 148 179 222 274
#     4   9  17  28  43  64  90 120 153 188 227 269
#     4   8  14  25  42  66  96 127 157 190 230 277
#
# _framework density 17.221429000000001
#
# number of rings (size 3 to 8) (size 9 to 14) (size 15 to 20)
#    0.000    3.000    0.769    1.846    0.000    4.000 
#    0.000    2.692    0.000    3.231    0.000    5.385 
#    0.000    0.000    0.000    0.000    0.000    0.000 
#
# Total GULP energy -644193.798882 kJ/mol
# GULP energy per Si atom -12388.342286 kJ/mol
# Density = 1.718223 g / cm^3
# Si number density = 17.221429 Si / 1000 Ang^3
#
#
#
# Elastic Constant Matrix: (Units=GPa)
#
#
# Indices 1 2 3 4 5 6 
#
# 1 52.9158 24.7611 54.9191 0.0000 0.0000 0.0000
# 2 24.7611 62.0517 57.0177 0.0000 0.0000 0.0000
# 3 54.9191 57.0177 151.1290 0.0000 0.0000 0.0000
# 4 0.0000 0.0000 0.0000 18.3093 0.0000 0.0000
# 5 0.0000 0.0000 0.0000 0.0000 12.6516 0.0000
# 6 0.0000 0.0000 0.0000 0.0000 0.0000 12.4501
#
#
#
# Elastic Compliance Matrix: (Units=1/GPa)
#
#
# Indices 1 2 3 4 5 6 
#
# 1 0.030716 -0.003062 -0.010007 0.000000 0.000000 0.000000
# 2 -0.003062 0.024972 -0.008309 0.000000 0.000000 0.000000
# 3 -0.010007 -0.008309 0.013388 0.000000 0.000000 0.000000
# 4 0.000000 0.000000 0.000000 0.054617 0.000000 0.000000
# 5 0.000000 0.000000 0.000000 0.000000 0.079041 0.000000
# 6 0.000000 0.000000 0.000000 0.000000 0.000000 0.080320
#
#
# Mechanical properties :
#
#
# Convention : Reuss Voigt Hill
#
# Bulk Modulus (GPa) = 37.99200 59.94357 48.96779
# Shear Modulus (GPa) = 14.94393 17.30880 16.12637
#
# Velocity S-wave (km/s) = 2.94896 3.17373 3.06341
# Velocity P-wave (km/s) = 5.80551 6.95077 6.40379
#
# Compressibility (1/GPa) = 0.02632133
#
# Stress axis : x y z
#
# Youngs Moduli (GPa) = 32.55582 40.04461 74.69380
#
# Poissons Ratio (x) = 0.12262 0.74745
# Poissons Ratio (y) = 0.09969 0.62061
# Poissons Ratio (z) = 0.32578 0.33272
#
# Static dielectric constant tensor:
#      x y z
#    x 3.066760 0.000000 0.000000 
#    y 0.000000 3.078080 0.000000 
#    z 0.000000 0.000000 3.407560 
# 
# 
# High freq. dielectric constant tensor:
#      x y z
#    x 1.641850 0.000000 0.000000 
#    y 0.000000 1.633080 0.000000 
#    z 0.000000 0.000000 1.669120 
# 
# From -- ./inp_files/14138.got.cif
#   From: 2010.03.12/outbox.cif.g09.slc.cpg/sg47_8_cif.got.tgz:14138.got - 2010.04.14 03:12:58.
