data_PCOD8194270
_publ_section_title
;
Structure prediction by ZEFSAII (Michael W. Deem and Ramdas Pophale) SiO2 
 PCOD8194270
Probable space group: P M M M
;
_chemical_formula_sum "Si O2"
_cell_formula_units_Z 56
_cell_length_a 20.432057
_cell_length_b 15.402694
_cell_length_c 9.222684
_cell_angle_alpha 90.000000
_cell_angle_beta 90.000000
_cell_angle_gamma 90.000000
_cell_volume 2902.459093
_symmetry_space_group_name_H-M "P M M M"
_symmetry_group_IT_number 47
_symmetry_cell_setting 'orthorhombic'
loop_
_space_group_symop_operation_xyz
x,y,z
-x,-y,z
x,-y,-z
-x,y,-z
-x,-y,-z
x,y,-z
-x,y,z
x,-y,z
loop_
_atom_site_type_symbol
_atom_site_label
_atom_site_fract_x
_atom_site_fract_y
_atom_site_fract_z
Si Si1 0.883369 0.593006 0.335534
Si Si2 0.802868 0.174701 0.836160
Si Si3 0.071813 0.778797 0.330620
Si Si4 0.328549 0.095829 0.827333
Si Si5 0.759440 0.369900 0.164799
Si Si6 0.371970 0.402305 0.331462
Si Si7 0.425730 0.243667 0.832965
O O1 0.858078 0.606943 0.500000
O O2 0.921839 0.500000 0.323762
O O3 0.927023 0.675845 0.291388
O O4 0.822533 0.583561 0.228786
O O5 0.870143 0.168265 0.746213
O O6 0.746546 0.110832 0.774497
O O7 0.768729 0.267443 0.826256
O O8 0.822256 0.150930 0.000000
O O9 0.080964 0.794031 0.500000
O O10 0.000000 0.812615 0.280337
O O11 0.378716 0.168485 0.766747
O O12 0.350417 0.000000 0.773619
O O13 0.329954 0.101187 0.000000
O O14 0.698819 0.398347 0.260282
O O15 0.748689 0.400673 0.000000
O O16 0.366035 0.378406 0.500000
O O17 0.400420 0.500000 0.311561
O O18 0.419323 0.332969 0.255369
O O19 0.500000 0.210125 0.819777
O O20 0.406964 0.262965 0.000000
#
# Coordination Sequence:
#
# PCOD8194270 Si02
#       7
#     8   8   8   8   8   8   8
#     4   9  17  28  42  64  96 132 173 220 270 323
#     4   9  17  31  52  77 105 136 171 214 264 317
#     4   9  18  31  47  69  98 136 179 220 266 318
#     4   9  17  33  59  89 116 139 170 216 270 327
#     4  10  18  30  49  73 102 135 176 225 273 318
#     4  11  23  36  52  75 106 147 191 230 269 314
#     4  10  21  38  59  84 114 145 179 220 268 321
#
# _framework density 19.293983999999998
#
# number of rings (size 3 to 8) (size 9 to 14) (size 15 to 20)
#    0.000    2.429    1.429    1.286    0.000    5.143 
#    0.000    4.286    0.000    2.143    0.000    8.000 
#    0.000    0.000    0.000    0.000    0.000    0.000 
#
# Total GULP energy -694021.826584 kJ/mol
# GULP energy per Si atom -12393.246903 kJ/mol
# Density = 1.925007 g / cm^3
# Si number density = 19.293984 Si / 1000 Ang^3
#
#
#
# Elastic Constant Matrix: (Units=GPa)
#
#
# Indices 1 2 3 4 5 6 
#
# 1 119.4596 47.5536 43.3850 0.0000 0.0000 0.0000
# 2 47.5536 87.9119 31.7859 0.0000 0.0000 0.0000
# 3 43.3850 31.7859 72.6196 0.0000 0.0000 0.0000
# 4 0.0000 0.0000 0.0000 14.3576 0.0000 0.0000
# 5 0.0000 0.0000 0.0000 0.0000 25.4172 0.0000
# 6 0.0000 0.0000 0.0000 0.0000 0.0000 -8.6005
#
#
#
# Elastic Compliance Matrix: (Units=1/GPa)
#
#
# Indices 1 2 3 4 5 6 
#
# 1 0.012119 -0.004678 -0.005193 0.000000 0.000000 0.000000
# 2 -0.004678 0.015319 -0.003911 0.000000 0.000000 0.000000
# 3 -0.005193 -0.003911 0.018584 0.000000 0.000000 0.000000
# 4 0.000000 0.000000 0.000000 0.069650 0.000000 0.000000
# 5 0.000000 0.000000 0.000000 0.000000 0.039343 0.000000
# 6 0.000000 0.000000 0.000000 0.000000 0.000000 -0.116272
#
#
# Mechanical properties :
#
#
# Convention : Reuss Voigt Hill
#
# Bulk Modulus (GPa) = 54.17050 58.38223 56.27636
# Shear Modulus (GPa) = 69.00396 16.71929 42.86162
#
# Velocity S-wave (km/s) = 5.98683 2.94692 4.71839
# Velocity P-wave (km/s) = 8.71360 6.47334 7.67564
#
# Compressibility (1/GPa) = 0.01846023
#
# Stress axis : x y z
#
# Youngs Moduli (GPa) = 82.51454 65.27668 53.80875
#
# Poissons Ratio (x) = 0.30536 0.27941
# Poissons Ratio (y) = 0.38600 0.21042
# Poissons Ratio (z) = 0.42847 0.25527
#
# Static dielectric constant tensor:
#      x y z
#    x 3.481770 0.000000 0.000000 
#    y 0.000000 3.583800 0.000000 
#    z 0.000000 0.000000 3.409400 
# 
# 
# High freq. dielectric constant tensor:
#      x y z
#    x 1.743980 0.000000 0.000000 
#    y 0.000000 1.740170 0.000000 
#    z 0.000000 0.000000 1.728220 
# 
# From -- ./inp_files/7217.got.cif
#   From: 2010.03.12/outbox.cif.g09.slc.cpg/sg47_4_cif.got.tgz:7217.got - 2010.04.14 03:12:58.
