data_PCOD8194426
_publ_section_title
;
Structure prediction by ZEFSAII (Michael W. Deem and Ramdas Pophale) SiO2 
 PCOD8194426
Probable space group: P M M M
;
_chemical_formula_sum "Si O2"
_cell_formula_units_Z 64
_cell_length_a 19.193902
_cell_length_b 14.060934
_cell_length_c 14.367468
_cell_angle_alpha 90.000000
_cell_angle_beta 90.000000
_cell_angle_gamma 90.000000
_cell_volume 3877.552452
_symmetry_space_group_name_H-M "P M M M"
_symmetry_group_IT_number 47
_symmetry_cell_setting 'orthorhombic'
loop_
_space_group_symop_operation_xyz
x,y,z
-x,-y,z
x,-y,-z
-x,y,-z
-x,-y,-z
x,y,-z
-x,y,z
x,-y,z
loop_
_atom_site_type_symbol
_atom_site_label
_atom_site_fract_x
_atom_site_fract_y
_atom_site_fract_z
Si Si1 0.821651 0.803658 0.889279
Si Si2 0.807086 0.887720 0.603997
Si Si3 0.225693 0.397704 0.109925
Si Si4 0.577922 0.247312 0.751683
Si Si5 0.704332 0.887809 0.235605
Si Si6 0.078688 0.112828 0.253742
Si Si7 0.582864 0.395160 0.603727
Si Si8 0.382251 0.607030 0.892382
O O1 0.821701 0.691594 0.861185
O O2 0.752039 0.853406 0.850153
O O3 0.890420 0.847081 0.842678
O O4 0.824474 0.819572 0.000000
O O5 0.802596 0.842250 0.500000
O O6 0.740064 0.859740 0.665903
O O7 0.876382 0.851026 0.657693
O O8 0.811484 0.000000 0.594367
O O9 0.195630 0.500000 0.146813
O O10 0.303848 0.382895 0.147790
O O11 0.231769 0.403130 0.000000
O O12 0.500000 0.208901 0.728616
O O13 0.628208 0.158570 0.770077
O O14 0.611054 0.311238 0.669023
O O15 0.570452 0.316218 0.840461
O O16 0.694481 0.000000 0.226806
O O17 0.000000 0.149634 0.266226
O O18 0.082099 0.000000 0.246505
O O19 0.610682 0.375332 0.500000
O O20 0.500000 0.393955 0.605829
O O21 0.608848 0.500000 0.637139
O O22 0.410284 0.500000 0.874974
O O23 0.385815 0.633239 0.000000
#
# Coordination Sequence:
#
# PCOD8194426 Si02
#       8
#     8   8   8   8   8   8   8   8
#     4  10  18  31  51  69  91 128 163 190 231 280
#     4   8  15  30  51  70  89 118 152 188 234 277
#     4   8  14  26  46  69  89 113 150 193 234 277
#     4  11  21  31  46  66  89 122 159 195 245 297
#     4  10  21  34  46  64  89 120 165 210 236 268
#     4   9  18  30  45  73 107 129 153 189 223 265
#     4   8  15  29  47  66  88 111 137 175 227 291
#     4   9  17  30  47  68  93 116 144 190 245 296
#
# _framework density 16.505257
#
# number of rings (size 3 to 8) (size 9 to 14) (size 15 to 20)
#    0.000    2.875    1.250    2.625    0.000    3.250 
#    0.000    2.500    0.000    0.375    0.000    7.000 
#    0.000    4.500    0.000    4.500    0.000    0.500 
#
# Total GULP energy -793098.180508 kJ/mol
# GULP energy per Si atom -12392.159070 kJ/mol
# Density = 1.646769 g / cm^3
# Si number density = 16.505257 Si / 1000 Ang^3
#
#
#
# Elastic Constant Matrix: (Units=GPa)
#
#
# Indices 1 2 3 4 5 6 
#
# 1 80.9455 35.7496 31.0946 0.0000 0.0000 0.0000
# 2 35.7496 73.7897 32.4332 0.0000 0.0000 0.0000
# 3 31.0946 32.4332 95.8612 0.0000 0.0000 0.0000
# 4 0.0000 0.0000 0.0000 17.0700 0.0000 0.0000
# 5 0.0000 0.0000 0.0000 0.0000 13.9347 0.0000
# 6 0.0000 0.0000 0.0000 0.0000 0.0000 17.6647
#
#
#
# Elastic Compliance Matrix: (Units=1/GPa)
#
#
# Indices 1 2 3 4 5 6 
#
# 1 0.016467 -0.006614 -0.003104 0.000000 0.000000 0.000000
# 2 -0.006614 0.018576 -0.004139 0.000000 0.000000 0.000000
# 3 -0.003104 -0.004139 0.012839 0.000000 0.000000 0.000000
# 4 0.000000 0.000000 0.000000 0.058582 0.000000 0.000000
# 5 0.000000 0.000000 0.000000 0.000000 0.071764 0.000000
# 6 0.000000 0.000000 0.000000 0.000000 0.000000 0.056610
#
#
# Mechanical properties :
#
#
# Convention : Reuss Voigt Hill
#
# Bulk Modulus (GPa) = 49.58390 49.90568 49.74479
# Shear Modulus (GPa) = 18.56837 19.82180 19.19508
#
# Velocity S-wave (km/s) = 3.35774 3.46922 3.41393
# Velocity P-wave (km/s) = 6.71856 6.80802 6.76344
#
# Compressibility (1/GPa) = 0.02016784
#
# Stress axis : x y z
#
# Youngs Moduli (GPa) = 60.72641 53.83367 77.88725
#
# Poissons Ratio (x) = 0.35605 0.24175
# Poissons Ratio (y) = 0.40163 0.32241
# Poissons Ratio (z) = 0.18848 0.22284
#
# Static dielectric constant tensor:
#      x y z
#    x 2.936320 0.000000 0.000000 
#    y 0.000000 3.252310 0.000000 
#    z 0.000000 0.000000 3.232630 
# 
# 
# High freq. dielectric constant tensor:
#      x y z
#    x 1.607050 0.000000 0.000000 
#    y 0.000000 1.620830 0.000000 
#    z 0.000000 0.000000 1.631980 
# 
# From -- ./inp_files/24800.got.cif
#   From: 2010.03.12/outbox.cif.g09.slc.cpg/sg47_13_cif.got.tgz:24800.got - 2010.04.14 03:12:58.
