data_PCOD8194345
_publ_section_title
;
Structure prediction by ZEFSAII (Michael W. Deem and Ramdas Pophale) SiO2 
 PCOD8194345
Probable space group: P M M M
;
_chemical_formula_sum "Si O2"
_cell_formula_units_Z 56
_cell_length_a 9.048249
_cell_length_b 15.455469
_cell_length_c 20.412733
_cell_angle_alpha 90.000000
_cell_angle_beta 90.000000
_cell_angle_gamma 90.000000
_cell_volume 2854.617257
_symmetry_space_group_name_H-M "P M M M"
_symmetry_group_IT_number 47
_symmetry_cell_setting 'orthorhombic'
loop_
_space_group_symop_operation_xyz
x,y,z
-x,-y,z
x,-y,-z
-x,y,-z
-x,-y,-z
x,y,-z
-x,y,z
x,-y,z
loop_
_atom_site_type_symbol
_atom_site_label
_atom_site_fract_x
_atom_site_fract_y
_atom_site_fract_z
Si Si1 0.328915 0.404145 0.622631
Si Si2 0.830254 0.637489 0.749710
Si Si3 0.329270 0.903236 0.663832
Si Si4 0.326157 0.234151 0.929788
Si Si5 0.171178 0.763128 0.425710
Si Si6 0.168279 0.595052 0.104488
Si Si7 0.670531 0.805682 0.788929
O O1 0.500000 0.377655 0.625279
O O2 0.309343 0.500000 0.590504
O O3 0.266126 0.411089 0.695866
O O4 0.244523 0.331039 0.581698
O O5 0.810011 0.588183 0.817675
O O6 0.773562 0.735092 0.755506
O O7 0.000000 0.639255 0.726847
O O8 0.500000 0.892759 0.644151
O O9 0.238738 0.834468 0.622134
O O10 0.310783 0.889428 0.742680
O O11 0.272521 0.000000 0.648231
O O12 0.500000 0.237047 0.931561
O O13 0.272624 0.333048 0.926335
O O14 0.276000 0.179411 0.865061
O O15 0.269148 0.194442 0.000000
O O16 0.195054 0.794766 0.500000
O O17 0.000000 0.753409 0.408165
O O18 0.206267 0.500000 0.075478
O O19 0.000000 0.620791 0.087715
O O20 0.500000 0.774067 0.789373
#
# Coordination Sequence:
#
# PCOD8194345 Si02
#       7
#     8   8   8   8   8   8   8
#     4  11  23  37  56  83 115 153 195 236 280 333
#     4  10  18  30  51  77 106 141 184 233 285 333
#     4  10  21  38  63  92 118 147 186 233 286 345
#     4   9  18  31  47  69  99 139 184 228 276 329
#     4  11  25  43  62  86 118 154 190 234 285 334
#     4   9  18  30  43  64  97 136 179 229 281 331
#     4   9  17  32  54  78 108 144 183 227 278 334
#
# _framework density 19.617339999999999
#
# number of rings (size 3 to 8) (size 9 to 14) (size 15 to 20)
#    0.000    2.143    1.429    1.714    0.000    5.143 
#    0.000    4.286    0.000    0.429    0.000    3.000 
#    0.000    0.000    0.000    8.429    0.000    8.857 
#
# Total GULP energy -693945.859371 kJ/mol
# GULP energy per Si atom -12391.890346 kJ/mol
# Density = 1.957269 g / cm^3
# Si number density = 19.617340 Si / 1000 Ang^3
#
#
#
# Elastic Constant Matrix: (Units=GPa)
#
#
# Indices 1 2 3 4 5 6 
#
# 1 72.9038 41.3903 37.7194 0.0000 0.0000 0.0000
# 2 41.3903 95.4870 46.5243 0.0000 0.0000 0.0000
# 3 37.7194 46.5243 118.8119 0.0000 0.0000 0.0000
# 4 0.0000 0.0000 0.0000 1.2186 0.0000 0.0000
# 5 0.0000 0.0000 0.0000 0.0000 20.8374 0.0000
# 6 0.0000 0.0000 0.0000 0.0000 0.0000 9.5998
#
#
#
# Elastic Compliance Matrix: (Units=1/GPa)
#
#
# Indices 1 2 3 4 5 6 
#
# 1 0.019321 -0.006656 -0.003527 0.000000 0.000000 0.000000
# 2 -0.006656 0.015235 -0.003853 0.000000 0.000000 0.000000
# 3 -0.003527 -0.003853 0.011045 0.000000 0.000000 0.000000
# 4 0.000000 0.000000 0.000000 0.820626 0.000000 0.000000
# 5 0.000000 0.000000 0.000000 0.000000 0.047991 0.000000
# 6 0.000000 0.000000 0.000000 0.000000 0.000000 0.104169
#
#
# Mechanical properties :
#
#
# Convention : Reuss Voigt Hill
#
# Bulk Modulus (GPa) = 57.04981 59.83007 58.43994
# Shear Modulus (GPa) = 4.75149 17.10240 10.92694
#
# Velocity S-wave (km/s) = 1.55799 2.95583 2.36265
# Velocity P-wave (km/s) = 5.69042 6.49723 6.10716
#
# Compressibility (1/GPa) = 0.01752854
#
# Stress axis : x y z
#
# Youngs Moduli (GPa) = 51.75798 65.63858 90.53812
#
# Poissons Ratio (x) = 0.43690 0.31936
# Poissons Ratio (y) = 0.34451 0.34880
# Poissons Ratio (z) = 0.18257 0.25288
#
# Static dielectric constant tensor:
#      x y z
#    x 3.576040 0.000000 0.000000 
#    y 0.000000 3.342630 0.000000 
#    z 0.000000 0.000000 4.058380 
# 
# 
# High freq. dielectric constant tensor:
#      x y z
#    x 1.761040 0.000000 0.000000 
#    y 0.000000 1.734980 0.000000 
#    z 0.000000 0.000000 1.774850 
# 
# From -- ./inp_files/7340.got.cif
#   From: 2010.03.12/outbox.cif.g09.slc.cpg/sg47_4_cif.got.tgz:7340.got - 2010.04.14 03:12:58.
