data_PCOD8194869
_publ_section_title
;
Structure prediction by ZEFSAII (Michael W. Deem and Ramdas Pophale) SiO2 
 PCOD8194869
Probable space group: P M M M
;
_chemical_formula_sum "Si O2"
_cell_formula_units_Z 64
_cell_length_a 9.359667
_cell_length_b 28.420798
_cell_length_c 14.387932
_cell_angle_alpha 90.000000
_cell_angle_beta 90.000000
_cell_angle_gamma 90.000000
_cell_volume 3827.322355
_symmetry_space_group_name_H-M "P M M M"
_symmetry_group_IT_number 47
_symmetry_cell_setting 'orthorhombic'
loop_
_space_group_symop_operation_xyz
x,y,z
-x,-y,z
x,-y,-z
-x,y,-z
-x,-y,-z
x,y,-z
-x,y,z
x,-y,z
loop_
_atom_site_type_symbol
_atom_site_label
_atom_site_fract_x
_atom_site_fract_y
_atom_site_fract_z
Si Si1 0.839532 0.448390 0.389650
Si Si2 0.332265 0.640538 0.392448
Si Si3 0.663755 0.946603 0.226834
Si Si4 0.838018 0.192781 0.393766
Si Si5 0.164345 0.127796 0.108868
Si Si6 0.334919 0.731433 0.286667
Si Si7 0.163018 0.915496 0.606798
Si Si8 0.335855 0.220603 0.104417
O O1 0.835776 0.448331 0.500000
O O2 0.787634 0.500000 0.353916
O O3 0.737871 0.407105 0.352331
O O4 0.000000 0.438767 0.354154
O O5 0.290410 0.650302 0.500000
O O6 0.500000 0.634064 0.381169
O O7 0.271666 0.683131 0.328923
O O8 0.500000 0.929039 0.229582
O O9 0.755440 0.914629 0.158423
O O10 0.729597 0.945286 0.330280
O O11 0.671816 0.000000 0.190213
O O12 0.790916 0.198887 0.500000
O O13 0.735213 0.223215 0.331285
O O14 0.822760 0.138821 0.363180
O O15 0.000000 0.210026 0.379964
O O16 0.236109 0.177394 0.134788
O O17 0.000000 0.129368 0.142221
O O18 0.176425 0.118256 0.000000
O O19 0.500000 0.733261 0.313600
O O20 0.310470 0.735659 0.175174
O O21 0.207645 0.922793 0.500000
O O22 0.000000 0.932389 0.621870
O O23 0.500000 0.203418 0.110160
O O24 0.298399 0.237930 0.000000
#
# Coordination Sequence:
#
# PCOD8194869 Si02
#       8
#     8   8   8   8   8   8   8   8
#     4   8  14  25  40  57  79 111 152 193 228 264
#     4   9  17  27  38  57  88 122 154 187 222 262
#     4  11  24  38  52  73  99 124 150 183 225 273
#     4   9  18  31  46  66  91 118 149 183 218 259
#     4  10  21  37  57  78  97 118 147 185 228 275
#     4  10  19  29  43  65  93 123 153 185 222 265
#     4   9  19  36  55  73  94 122 157 194 228 264
#     4   9  18  33  52  72  94 121 152 185 224 271
#
# _framework density 16.721874
#
# number of rings (size 3 to 8) (size 9 to 14) (size 15 to 20)
#    0.000    2.625    0.000    3.000    0.000    7.000 
#    0.000    6.250    0.000    0.000    0.000    0.000 
#    0.000    0.500    0.000    6.250    0.000    1.250 
#
# Total GULP energy -793455.021398 kJ/mol
# GULP energy per Si atom -12397.734709 kJ/mol
# Density = 1.668381 g / cm^3
# Si number density = 16.721874 Si / 1000 Ang^3
#
#
#
# Elastic Constant Matrix: (Units=GPa)
#
#
# Indices 1 2 3 4 5 6 
#
# 1 75.0186 46.1424 35.3685 0.0000 0.0000 0.0000
# 2 46.1424 93.2698 49.7248 0.0000 0.0000 0.0000
# 3 35.3685 49.7248 59.6211 0.0000 0.0000 0.0000
# 4 0.0000 0.0000 0.0000 16.0137 0.0000 0.0000
# 5 0.0000 0.0000 0.0000 0.0000 21.2282 0.0000
# 6 0.0000 0.0000 0.0000 0.0000 0.0000 21.7871
#
#
#
# Elastic Compliance Matrix: (Units=1/GPa)
#
#
# Indices 1 2 3 4 5 6 
#
# 1 0.020539 -0.006600 -0.006680 0.000000 0.000000 0.000000
# 2 -0.006600 0.021426 -0.013955 0.000000 0.000000 0.000000
# 3 -0.006680 -0.013955 0.032373 0.000000 0.000000 0.000000
# 4 0.000000 0.000000 0.000000 0.062447 0.000000 0.000000
# 5 0.000000 0.000000 0.000000 0.000000 0.047107 0.000000
# 6 0.000000 0.000000 0.000000 0.000000 0.000000 0.045899
#
#
# Mechanical properties :
#
#
# Convention : Reuss Voigt Hill
#
# Bulk Modulus (GPa) = 50.32664 54.48676 52.40670
# Shear Modulus (GPa) = 17.18908 18.25071 17.71990
#
# Velocity S-wave (km/s) = 3.20963 3.30726 3.25881
# Velocity P-wave (km/s) = 6.62550 6.87305 6.75041
#
# Compressibility (1/GPa) = 0.01987019
#
# Stress axis : x y z
#
# Youngs Moduli (GPa) = 48.68883 46.67177 30.88950
#
# Poissons Ratio (x) = 0.30802 0.20633
# Poissons Ratio (y) = 0.32133 0.43105
# Poissons Ratio (z) = 0.32522 0.65129
#
# Static dielectric constant tensor:
#      x y z
#    x 3.196310 0.000000 0.000000 
#    y 0.000000 3.201560 0.000000 
#    z 0.000000 0.000000 3.120510 
# 
# 
# High freq. dielectric constant tensor:
#      x y z
#    x 1.646960 0.000000 0.000000 
#    y 0.000000 1.629570 0.000000 
#    z 0.000000 0.000000 1.626880 
# 
# From -- ./inp_files/14297.got.cif
#   From: 2010.03.12/outbox.cif.g09.slc.cpg/sg47_8_cif.got.tgz:14297.got - 2010.04.14 03:12:58.
