data_PCOD8194169
_publ_section_title
;
Structure prediction by ZEFSAII (Michael W. Deem and Ramdas Pophale) SiO2 
 PCOD8194169
Probable space group: P M M M
;
_chemical_formula_sum "Si O2"
_cell_formula_units_Z 64
_cell_length_a 18.481173
_cell_length_b 26.095796
_cell_length_c 9.334686
_cell_angle_alpha 90.000000
_cell_angle_beta 90.000000
_cell_angle_gamma 90.000000
_cell_volume 4501.940956
_symmetry_space_group_name_H-M "P M M M"
_symmetry_group_IT_number 47
_symmetry_cell_setting 'orthorhombic'
loop_
_space_group_symop_operation_xyz
x,y,z
-x,-y,z
x,-y,-z
-x,y,-z
-x,-y,-z
x,y,-z
-x,y,z
x,-y,z
loop_
_atom_site_type_symbol
_atom_site_label
_atom_site_fract_x
_atom_site_fract_y
_atom_site_fract_z
Si Si1 0.084088 0.655881 0.332475
Si Si2 0.192578 0.709144 0.157856
Si Si3 0.344739 0.743269 0.169473
Si Si4 0.315690 0.442875 0.336106
Si Si5 0.583448 0.350144 0.667622
Si Si6 0.583916 0.847803 0.166637
Si Si7 0.586005 0.943867 0.661625
Si Si8 0.811363 0.596076 0.159434
O O1 0.100354 0.650953 0.500000
O O2 0.125343 0.706825 0.269973
O O3 0.114269 0.604917 0.251067
O O4 0.000000 0.661926 0.299283
O O5 0.259275 0.744089 0.210260
O O6 0.226562 0.651815 0.146504
O O7 0.164569 0.726637 0.000000
O O8 0.387276 0.698656 0.248685
O O9 0.375348 0.797490 0.223118
O O10 0.355910 0.735858 0.000000
O O11 0.293317 0.431756 0.500000
O O12 0.348804 0.500000 0.319940
O O13 0.374902 0.401783 0.284313
O O14 0.243101 0.441252 0.241165
O O15 0.594293 0.339621 0.500000
O O16 0.500000 0.358652 0.707114
O O17 0.500000 0.840679 0.204917
O O18 0.617759 0.898072 0.242047
O O19 0.596557 0.855910 0.000000
O O20 0.612672 0.934927 0.500000
O O21 0.500000 0.942857 0.669401
O O22 0.613127 0.000000 0.715891
O O23 0.829148 0.574318 0.000000
#
# Coordination Sequence:
#
# PCOD8194169 Si02
#       8
#     8   8   8   8   8   8   8   8
#     4   9  16  26  43  66  88 107 127 153 184 223
#     4   8  16  27  42  61  81 106 133 159 189 228
#     4  10  18  30  44  59  81 108 136 165 200 241
#     4  10  20  33  48  62  77 100 129 162 200 242
#     4  10  20  31  43  60  79 100 129 165 205 245
#     4   9  17  26  37  56  79 104 136 173 209 241
#     4   8  14  25  39  53  72 100 133 170 210 247
#     4   9  17  29  45  64  81 100 125 153 185 226
#
# _framework density 14.216091
#
# number of rings (size 3 to 8) (size 9 to 14) (size 15 to 20)
#    0.750    2.125    1.250    1.125    0.000    3.500 
#    0.000    3.750    0.000    0.375    0.000    4.375 
#    0.000    0.000    0.000    0.000    0.000    0.625 
#
# Total GULP energy -792922.837997 kJ/mol
# GULP energy per Si atom -12389.419344 kJ/mol
# Density = 1.418373 g / cm^3
# Si number density = 14.216091 Si / 1000 Ang^3
#
#
#
# Elastic Constant Matrix: (Units=GPa)
#
#
# Indices 1 2 3 4 5 6 
#
# 1 81.2342 42.1900 47.3541 0.0000 0.0000 0.0000
# 2 42.1900 99.8057 40.3227 0.0000 0.0000 0.0000
# 3 47.3541 40.3227 69.3170 0.0000 0.0000 0.0000
# 4 0.0000 0.0000 0.0000 19.8244 0.0000 0.0000
# 5 0.0000 0.0000 0.0000 0.0000 18.8254 0.0000
# 6 0.0000 0.0000 0.0000 0.0000 0.0000 11.5200
#
#
#
# Elastic Compliance Matrix: (Units=1/GPa)
#
#
# Indices 1 2 3 4 5 6 
#
# 1 0.021704 -0.004163 -0.012405 0.000000 0.000000 0.000000
# 2 -0.004163 0.013896 -0.005240 0.000000 0.000000 0.000000
# 3 -0.012405 -0.005240 0.025949 0.000000 0.000000 0.000000
# 4 0.000000 0.000000 0.000000 0.050443 0.000000 0.000000
# 5 0.000000 0.000000 0.000000 0.000000 0.053120 0.000000
# 6 0.000000 0.000000 0.000000 0.000000 0.000000 0.086805
#
#
# Mechanical properties :
#
#
# Convention : Reuss Voigt Hill
#
# Bulk Modulus (GPa) = 55.76232 56.67674 56.21953
# Shear Modulus (GPa) = 16.58319 18.06663 17.32491
#
# Velocity S-wave (km/s) = 3.41912 3.56878 3.49475
# Velocity P-wave (km/s) = 7.40926 7.54560 7.47774
#
# Compressibility (1/GPa) = 0.01793326
#
# Stress axis : x y z
#
# Youngs Moduli (GPa) = 46.07552 71.96284 38.53666
#
# Poissons Ratio (x) = 0.29955 0.47806
# Poissons Ratio (y) = 0.19180 0.20193
# Poissons Ratio (z) = 0.57158 0.37707
#
# Static dielectric constant tensor:
#      x y z
#    x 2.554390 0.000000 0.000000 
#    y 0.000000 2.781570 0.000000 
#    z 0.000000 0.000000 2.847740 
# 
# 
# High freq. dielectric constant tensor:
#      x y z
#    x 1.511620 0.000000 0.000000 
#    y 0.000000 1.518550 0.000000 
#    z 0.000000 0.000000 1.549590 
# 
# From -- ./inp_files/11984.got.cif
#   From: 2010.03.12/outbox.cif.g09.slc.cpg/sg47_6_cif.got.tgz:11984.got - 2010.04.14 03:12:58.
