data_PCOD8194072
_publ_section_title
;
Structure prediction by ZEFSAII (Michael W. Deem and Ramdas Pophale) SiO2 
 PCOD8194072
Probable space group: P M M M
;
_chemical_formula_sum "Si O2"
_cell_formula_units_Z 64
_cell_length_a 25.422706
_cell_length_b 8.729412
_cell_length_c 15.555059
_cell_angle_alpha 90.000000
_cell_angle_beta 90.000000
_cell_angle_gamma 90.000000
_cell_volume 3452.060744
_symmetry_space_group_name_H-M "P M M M"
_symmetry_group_IT_number 47
_symmetry_cell_setting 'orthorhombic'
loop_
_space_group_symop_operation_xyz
x,y,z
-x,-y,z
x,-y,-z
-x,y,-z
-x,-y,-z
x,y,-z
-x,y,z
x,-y,z
loop_
_atom_site_type_symbol
_atom_site_label
_atom_site_fract_x
_atom_site_fract_y
_atom_site_fract_z
Si Si1 0.743686 0.322234 0.815906
Si Si2 0.386904 0.676169 0.406328
Si Si3 0.851677 0.817717 0.779006
Si Si4 0.830718 0.176516 0.408107
Si Si5 0.441523 0.317819 0.765399
Si Si6 0.058730 0.817823 0.096200
Si Si7 0.715225 0.824966 0.355035
Si Si8 0.359798 0.317994 0.095098
O O1 0.757511 0.500000 0.824719
O O2 0.797810 0.228948 0.826455
O O3 0.716487 0.289664 0.725130
O O4 0.700512 0.268714 0.885982
O O5 0.414859 0.693408 0.500000
O O6 0.371331 0.500000 0.389205
O O7 0.424622 0.735905 0.330234
O O8 0.334379 0.777737 0.411682
O O9 0.854059 0.750099 0.680600
O O10 0.900376 0.750515 0.833987
O O11 0.852948 0.000000 0.775276
O O12 0.851222 0.248974 0.500000
O O13 0.767967 0.195118 0.410087
O O14 0.847129 0.000000 0.407777
O O15 0.500000 0.253159 0.783734
O O16 0.442107 0.500000 0.770488
O O17 0.401234 0.248474 0.836148
O O18 0.000000 0.761246 0.120530
O O19 0.060747 0.000000 0.097733
O O20 0.073419 0.760223 0.000000
O O21 0.710360 0.000000 0.322778
O O22 0.363185 0.500000 0.100357
O O23 0.374844 0.258440 0.000000
#
# Coordination Sequence:
#
# PCOD8194072 Si02
#       8
#     8   8   8   8   8   8   8   8
#     4  10  18  30  47  68  99 128 151 186 239 294
#     4  10  19  30  46  70  97 123 152 189 236 286
#     4   9  17  28  45  70  94 122 161 197 230 278
#     4   8  14  24  38  59  88 118 147 180 218 261
#     4   9  17  30  47  67  92 121 155 196 237 280
#     4   8  14  26  45  68  94 125 162 205 246 279
#     4  10  18  29  47  68  91 123 162 195 228 274
#     4   9  17  29  46  68  93 120 150 188 237 290
#
# _framework density 18.539650999999999
#
# number of rings (size 3 to 8) (size 9 to 14) (size 15 to 20)
#    0.000    2.875    1.250    2.250    0.000    1.750 
#    0.000    2.500    0.000    5.625    0.000    4.375 
#    0.000    1.000    0.000    4.500    0.000    5.000 
#
# Total GULP energy -792927.612104 kJ/mol
# GULP energy per Si atom -12389.493939 kJ/mol
# Density = 1.849745 g / cm^3
# Si number density = 18.539651 Si / 1000 Ang^3
#
#
#
# Elastic Constant Matrix: (Units=GPa)
#
#
# Indices 1 2 3 4 5 6 
#
# 1 121.3835 10.7205 89.6132 0.0000 0.0000 0.0000
# 2 10.7205 11.9125 8.6942 0.0000 0.0000 0.0000
# 3 89.6132 8.6942 159.4989 0.0000 0.0000 0.0000
# 4 0.0000 0.0000 0.0000 11.0407 0.0000 0.0000
# 5 0.0000 0.0000 0.0000 0.0000 19.1596 0.0000
# 6 0.0000 0.0000 0.0000 0.0000 0.0000 16.7103
#
#
#
# Elastic Compliance Matrix: (Units=1/GPa)
#
#
# Indices 1 2 3 4 5 6 
#
# 1 0.014693 -0.007496 -0.007847 0.000000 0.000000 0.000000
# 2 -0.007496 0.091248 -0.000762 0.000000 0.000000 0.000000
# 3 -0.007847 -0.000762 0.010720 0.000000 0.000000 0.000000
# 4 0.000000 0.000000 0.000000 0.090574 0.000000 0.000000
# 5 0.000000 0.000000 0.000000 0.000000 0.052193 0.000000
# 6 0.000000 0.000000 0.000000 0.000000 0.000000 0.059843
#
#
# Mechanical properties :
#
#
# Convention : Reuss Voigt Hill
#
# Bulk Modulus (GPa) = 11.84126 56.76117 34.30121
# Shear Modulus (GPa) = 13.17067 21.63326 17.40197
#
# Velocity S-wave (km/s) = 2.66823 3.41965 3.06704
# Velocity P-wave (km/s) = 3.98666 6.80254 5.57530
#
# Compressibility (1/GPa) = 0.08445050
#
# Stress axis : x y z
#
# Youngs Moduli (GPa) = 68.05780 10.95920 93.28514
#
# Poissons Ratio (x) = 0.08215 0.73199
# Poissons Ratio (y) = 0.51017 0.07110
# Poissons Ratio (z) = 0.53403 0.00835
#
# Static dielectric constant tensor:
#      x y z
#    x 3.446690 0.000000 0.000000 
#    y 0.000000 2.899220 0.000000 
#    z 0.000000 0.000000 3.766160 
# 
# 
# High freq. dielectric constant tensor:
#      x y z
#    x 1.699890 0.000000 0.000000 
#    y 0.000000 1.663500 0.000000 
#    z 0.000000 0.000000 1.729450 
# 
# From -- ./inp_files/28932.got.cif
#   From: 2010.03.12/outbox.cif.g09.slc.cpg/sg47_15_cif.got.tgz:28932.got - 2010.04.14 03:12:58.
