data_PCOD8194876
_publ_section_title
;
Structure prediction by ZEFSAII (Michael W. Deem and Ramdas Pophale) SiO2 
 PCOD8194876
Probable space group: P M M M
;
_chemical_formula_sum "Si O2"
_cell_formula_units_Z 46
_cell_length_a 7.597330
_cell_length_b 29.182389
_cell_length_c 11.725773
_cell_angle_alpha 90.000000
_cell_angle_beta 90.000000
_cell_angle_gamma 90.000000
_cell_volume 2599.700488
_symmetry_space_group_name_H-M "P M M M"
_symmetry_group_IT_number 47
_symmetry_cell_setting 'orthorhombic'
loop_
_space_group_symop_operation_xyz
x,y,z
-x,-y,z
x,-y,-z
-x,y,-z
-x,-y,-z
x,y,-z
-x,y,z
x,-y,z
loop_
_atom_site_type_symbol
_atom_site_label
_atom_site_fract_x
_atom_site_fract_y
_atom_site_fract_z
Si Si1 0.695347 0.949350 0.634990
Si Si2 0.291162 0.334071 0.500000
Si Si3 0.000000 0.785047 0.740600
Si Si4 0.000000 0.261010 0.500000
Si Si5 0.000000 0.118152 0.363166
Si Si6 0.300028 0.360439 0.741766
Si Si7 0.707576 0.270491 0.134247
Si Si8 0.792395 0.449399 0.127190
O O1 0.698358 0.951800 0.500000
O O2 0.500000 0.935856 0.678375
O O3 0.830490 0.910860 0.675171
O O4 0.747212 0.000000 0.682158
O O5 0.500000 0.323636 0.500000
O O6 0.227882 0.361904 0.612266
O O7 0.184475 0.287430 0.500000
O O8 0.823552 0.769129 0.807132
O O9 0.000000 0.768388 0.612236
O O10 0.000000 0.839378 0.723801
O O11 0.000000 0.129964 0.500000
O O12 0.500000 0.346439 0.736280
O O13 0.217332 0.319515 0.817658
O O14 0.281724 0.410953 0.791008
O O15 0.500000 0.262334 0.160395
O O16 0.742950 0.270643 0.000000
O O17 0.732851 0.500000 0.169970
O O18 0.000000 0.446194 0.125491
O O19 0.718260 0.441094 0.000000
#
# Coordination Sequence:
#
# PCOD8194876 Si02
#       8
#     8   4   4   2   4   8   8   8
#     4   8  14  26  44  66  96 139 186 224 259 303
#     4  10  22  38  53  77 107 135 176 219 255 309
#     4  12  23  35  53  80 109 145 185 218 263 326
#     4  12  22  36  56  74 104 154 182 208 266 312
#     4  10  19  29  43  70 107 143 181 218 259 309
#     4  10  20  35  55  76  99 130 168 211 257 309
#     4  10  22  39  57  78 103 133 177 230 274 315
#     4   9  19  34  51  75 105 131 159 204 261 318
#
# _framework density 17.694344999999998
#
# number of rings (size 3 to 8) (size 9 to 14) (size 15 to 20)
#    0.000    2.261    2.174    2.087    2.435    3.130 
#    0.000    1.304    0.000    2.609    0.000    0.000 
#    0.000    5.565    0.000   15.304    0.000    0.696 
#
# Total GULP energy -569955.512720 kJ/mol
# GULP energy per Si atom -12390.337233 kJ/mol
# Density = 1.765407 g / cm^3
# Si number density = 17.694345 Si / 1000 Ang^3
#
#
#
# Elastic Constant Matrix: (Units=GPa)
#
#
# Indices 1 2 3 4 5 6 
#
# 1 74.0615 48.8712 40.0329 0.0000 0.0000 0.0000
# 2 48.8712 140.6524 64.4145 0.0000 0.0000 0.0000
# 3 40.0329 64.4145 112.9693 0.0000 0.0000 0.0000
# 4 0.0000 0.0000 0.0000 23.1650 0.0000 0.0000
# 5 0.0000 0.0000 0.0000 0.0000 24.5445 0.0000
# 6 0.0000 0.0000 0.0000 0.0000 0.0000 16.0182
#
#
#
# Elastic Compliance Matrix: (Units=1/GPa)
#
#
# Indices 1 2 3 4 5 6 
#
# 1 0.018745 -0.004698 -0.003964 0.000000 0.000000 0.000000
# 2 -0.004698 0.010800 -0.004493 0.000000 0.000000 0.000000
# 3 -0.003964 -0.004493 0.012819 0.000000 0.000000 0.000000
# 4 0.000000 0.000000 0.000000 0.043169 0.000000 0.000000
# 5 0.000000 0.000000 0.000000 0.000000 0.040742 0.000000
# 6 0.000000 0.000000 0.000000 0.000000 0.000000 0.062429
#
#
# Mechanical properties :
#
#
# Convention : Reuss Voigt Hill
#
# Bulk Modulus (GPa) = 62.29200 70.48005 66.38602
# Shear Modulus (GPa) = 22.68970 24.36985 23.52977
#
# Velocity S-wave (km/s) = 3.58483 3.71518 3.65059
# Velocity P-wave (km/s) = 7.23986 7.63688 7.44101
#
# Compressibility (1/GPa) = 0.01605343
#
# Stress axis : x y z
#
# Youngs Moduli (GPa) = 53.34785 92.59464 78.01100
#
# Poissons Ratio (x) = 0.43498 0.30924
# Poissons Ratio (y) = 0.25061 0.35052
# Poissons Ratio (z) = 0.21147 0.41605
#
# Static dielectric constant tensor:
#      x y z
#    x 3.499750 0.000000 0.000000 
#    y 0.000000 -1.578130 0.000000 
#    z 0.000000 0.000000 3.418220 
# 
# 
# High freq. dielectric constant tensor:
#      x y z
#    x 1.693070 0.000000 0.000000 
#    y 0.000000 1.673870 0.000000 
#    z 0.000000 0.000000 1.659270 
# 
# From -- ./inp_files/15430.got.cif
#   From: 2010.03.12/outbox.cif.g09.slc.cpg/sg47_8_cif.got.tgz:15430.got - 2010.04.14 03:12:58.
