data_PCOD8194222
_publ_section_title
;
Structure prediction by ZEFSAII (Michael W. Deem and Ramdas Pophale) SiO2 
 PCOD8194222
Probable space group: P M M M
;
_chemical_formula_sum "Si O2"
_cell_formula_units_Z 52
_cell_length_a 21.751397
_cell_length_b 9.290652
_cell_length_c 14.294181
_cell_angle_alpha 90.000000
_cell_angle_beta 90.000000
_cell_angle_gamma 90.000000
_cell_volume 2888.634708
_symmetry_space_group_name_H-M "P M M M"
_symmetry_group_IT_number 47
_symmetry_cell_setting 'orthorhombic'
loop_
_space_group_symop_operation_xyz
x,y,z
-x,-y,z
x,-y,-z
-x,y,-z
-x,-y,-z
x,y,-z
-x,y,z
x,-y,z
loop_
_atom_site_type_symbol
_atom_site_label
_atom_site_fract_x
_atom_site_fract_y
_atom_site_fract_z
Si Si1 0.878184 0.829496 0.289729
Si Si2 0.000000 0.829038 0.394880
Si Si3 0.431832 0.671755 0.218278
Si Si4 0.757072 0.331454 0.715887
Si Si5 0.068355 0.829454 0.898990
Si Si6 0.683773 0.328860 0.895103
Si Si7 0.637255 0.330340 0.396634
O O1 0.937796 0.772581 0.345889
O O2 0.816368 0.752543 0.322691
O O3 0.886484 0.778122 0.182302
O O4 0.870526 0.000000 0.301490
O O5 0.000000 0.770296 0.500000
O O6 0.000000 0.000000 0.390159
O O7 0.500000 0.730244 0.193968
O O8 0.430866 0.500000 0.219446
O O9 0.383077 0.727050 0.140701
O O10 0.412574 0.728651 0.321814
O O11 0.771751 0.500000 0.717262
O O12 0.735744 0.279592 0.820255
O O13 0.704825 0.292657 0.641164
O O14 0.000000 0.765769 0.883045
O O15 0.063016 0.000000 0.895390
O O16 0.094165 0.778035 0.000000
O O17 0.682504 0.500000 0.897763
O O18 0.696749 0.267242 0.000000
O O19 0.627411 0.260865 0.500000
O O20 0.630006 0.500000 0.404517
#
# Coordination Sequence:
#
# PCOD8194222 Si02
#       7
#     8   4   8   8   8   8   8
#     4  10  18  30  48  67  85 108 139 174 214 256
#     4   9  18  32  48  66  88 111 135 169 216 266
#     4   8  13  20  32  55  84 111 144 182 213 246
#     4   9  18  30  43  61  85 114 146 176 206 248
#     4   8  13  23  41  63  83 102 127 161 201 246
#     4   8  14  25  39  55  81 118 150 172 204 252
#     4   8  14  25  39  54  77 111 145 175 212 256
#
# _framework density 18.001584000000001
#
# number of rings (size 3 to 8) (size 9 to 14) (size 15 to 20)
#    0.000    3.462    0.769    2.308    0.000    1.846 
#    0.000    3.462    0.000    0.462    0.000    1.077 
#    0.000    9.846    0.000   11.077    0.000   12.308 
#
# Total GULP energy -644187.134546 kJ/mol
# GULP energy per Si atom -12388.214126 kJ/mol
# Density = 1.796061 g / cm^3
# Si number density = 18.001584 Si / 1000 Ang^3
#
#
#
# Elastic Constant Matrix: (Units=GPa)
#
#
# Indices 1 2 3 4 5 6 
#
# 1 109.3201 18.5161 25.9798 0.0000 0.0000 0.0000
# 2 18.5161 11.9612 7.0850 0.0000 0.0000 0.0000
# 3 25.9798 7.0850 98.2304 0.0000 0.0000 0.0000
# 4 0.0000 0.0000 0.0000 6.9841 0.0000 0.0000
# 5 0.0000 0.0000 0.0000 0.0000 15.0655 0.0000
# 6 0.0000 0.0000 0.0000 0.0000 0.0000 -1.5049
#
#
#
# Elastic Compliance Matrix: (Units=1/GPa)
#
#
# Indices 1 2 3 4 5 6 
#
# 1 0.012778 -0.018572 -0.002040 0.000000 0.000000 0.000000
# 2 -0.018572 0.114328 -0.003334 0.000000 0.000000 0.000000
# 3 -0.002040 -0.003334 0.010960 0.000000 0.000000 0.000000
# 4 0.000000 0.000000 0.000000 0.143182 0.000000 0.000000
# 5 0.000000 0.000000 0.000000 0.000000 0.066377 0.000000
# 6 0.000000 0.000000 0.000000 0.000000 0.000000 -0.664498
#
#
# Mechanical properties :
#
#
# Convention : Reuss Voigt Hill
#
# Bulk Modulus (GPa) = 11.08971 35.85261 23.47116
# Shear Modulus (GPa) = -20.92720 15.30434 -2.81143
#
# Velocity S-wave (km/s) = -3.41327 2.91892 -1.25106
# Velocity P-wave (km/s) = 3.05943 5.59641 3.31358
#
# Compressibility (1/GPa) = 0.09017367
#
# Stress axis : x y z
#
# Youngs Moduli (GPa) = 78.26053 8.74679 91.23962
#
# Poissons Ratio (x) = 0.16244 0.18612
# Poissons Ratio (y) = 1.45344 0.30421
# Poissons Ratio (z) = 0.15965 0.02916
#
# Static dielectric constant tensor:
#      x y z
#    x 3.378360 0.000000 0.000000 
#    y 0.000000 2.523460 0.000000 
#    z 0.000000 0.000000 3.868010 
# 
# 
# High freq. dielectric constant tensor:
#      x y z
#    x 1.698320 0.000000 0.000000 
#    y 0.000000 1.609560 0.000000 
#    z 0.000000 0.000000 1.708370 
# 
# From -- ./inp_files/17942.got.cif
#   From: 2010.03.12/outbox.cif.g09.slc.cpg/sg47_9_cif.got.tgz:17942.got - 2010.04.14 03:12:58.
