data_PCOD8194033
_publ_section_title
;
Structure prediction by ZEFSAII (Michael W. Deem and Ramdas Pophale) SiO2 
 PCOD8194033
Probable space group: P M M M
;
_chemical_formula_sum "Si O2"
_cell_formula_units_Z 64
_cell_length_a 22.669512
_cell_length_b 8.948219
_cell_length_c 19.982032
_cell_angle_alpha 90.000000
_cell_angle_beta 90.000000
_cell_angle_gamma 90.000000
_cell_volume 4053.390320
_symmetry_space_group_name_H-M "P M M M"
_symmetry_group_IT_number 47
_symmetry_cell_setting 'orthorhombic'
loop_
_space_group_symop_operation_xyz
x,y,z
-x,-y,z
x,-y,-z
-x,y,-z
-x,-y,-z
x,y,-z
-x,y,z
x,-y,z
loop_
_atom_site_type_symbol
_atom_site_label
_atom_site_fract_x
_atom_site_fract_y
_atom_site_fract_z
Si Si1 0.381274 0.170829 0.072295
Si Si2 0.269234 0.333500 0.891677
Si Si3 0.246100 0.667622 0.746306
Si Si4 0.566638 0.672299 0.578506
Si Si5 0.348696 0.822907 0.679376
Si Si6 0.835193 0.176280 0.158665
Si Si7 0.068818 0.327622 0.075964
Si Si8 0.435894 0.177513 0.793393
O O1 0.321411 0.263497 0.065941
O O2 0.422006 0.234586 0.131390
O O3 0.364230 0.000000 0.088352
O O4 0.413714 0.184142 0.000000
O O5 0.255567 0.500000 0.918511
O O6 0.287182 0.337898 0.812827
O O7 0.210680 0.231193 0.898920
O O8 0.230581 0.500000 0.721357
O O9 0.283169 0.752290 0.688116
O O10 0.185161 0.752310 0.769058
O O11 0.574967 0.695027 0.500000
O O12 0.500000 0.723989 0.599067
O O13 0.575462 0.500000 0.598531
O O14 0.617755 0.769960 0.612815
O O15 0.388137 0.764063 0.741026
O O16 0.341410 0.000000 0.677549
O O17 0.898723 0.231025 0.133181
O O18 0.834702 0.000000 0.166895
O O19 0.086723 0.500000 0.085192
O O20 0.000000 0.304474 0.089174
O O21 0.084283 0.275658 0.000000
O O22 0.500000 0.242358 0.773660
O O23 0.437452 0.000000 0.791957
#
# Coordination Sequence:
#
# PCOD8194033 Si02
#       8
#     8   8   8   8   8   8   8   8
#     4  10  19  30  44  59  77 102 133 174 222 268
#     4   9  18  31  46  60  78 105 135 172 218 270
#     4   9  18  31  47  65  85 111 144 177 216 271
#     4   9  19  35  51  68  95 129 159 187 223 272
#     4  11  19  29  49  71  92 115 142 186 232 267
#     4  10  18  29  45  64  86 108 136 180 228 267
#     4   9  18  32  47  62  84 117 155 191 229 279
#     4   9  17  28  41  59  81 102 129 167 213 264
#
# _framework density 15.789251999999999
#
# number of rings (size 3 to 8) (size 9 to 14) (size 15 to 20)
#    0.750    1.750    1.250    3.000    0.000    2.500 
#    0.000    2.500    0.000    1.125    0.000    0.875 
#    0.000    0.000    0.000    0.000    0.000    0.625 
#
# Total GULP energy -792885.275623 kJ/mol
# GULP energy per Si atom -12388.832432 kJ/mol
# Density = 1.575331 g / cm^3
# Si number density = 15.789252 Si / 1000 Ang^3
#
#
#
# Elastic Constant Matrix: (Units=GPa)
#
#
# Indices 1 2 3 4 5 6 
#
# 1 67.3779 36.8902 21.9395 0.0000 0.0000 0.0000
# 2 36.8902 92.7605 23.7932 0.0000 0.0000 0.0000
# 3 21.9395 23.7932 47.2398 0.0000 0.0000 0.0000
# 4 0.0000 0.0000 0.0000 17.7463 0.0000 0.0000
# 5 0.0000 0.0000 0.0000 0.0000 26.2804 0.0000
# 6 0.0000 0.0000 0.0000 0.0000 0.0000 22.2847
#
#
#
# Elastic Compliance Matrix: (Units=1/GPa)
#
#
# Indices 1 2 3 4 5 6 
#
# 1 0.020440 -0.006539 -0.006200 0.000000 0.000000 0.000000
# 2 -0.006539 0.014472 -0.004252 0.000000 0.000000 0.000000
# 3 -0.006200 -0.004252 0.026190 0.000000 0.000000 0.000000
# 4 0.000000 0.000000 0.000000 0.056350 0.000000 0.000000
# 5 0.000000 0.000000 0.000000 0.000000 0.038051 0.000000
# 6 0.000000 0.000000 0.000000 0.000000 0.000000 0.044874
#
#
# Mechanical properties :
#
#
# Convention : Reuss Voigt Hill
#
# Bulk Modulus (GPa) = 36.87264 41.40266 39.13765
# Shear Modulus (GPa) = 20.54253 21.57932 21.06093
#
# Velocity S-wave (km/s) = 3.61091 3.70091 3.65619
# Velocity P-wave (km/s) = 6.38660 6.67393 6.53184
#
# Compressibility (1/GPa) = 0.02712038
#
# Stress axis : x y z
#
# Youngs Moduli (GPa) = 48.92252 69.10110 38.18318
#
# Poissons Ratio (x) = 0.45184 0.23673
# Poissons Ratio (y) = 0.31989 0.16236
# Poissons Ratio (z) = 0.30331 0.29382
#
# Static dielectric constant tensor:
#      x y z
#    x 2.812190 0.000000 0.000000 
#    y 0.000000 2.894040 0.000000 
#    z 0.000000 0.000000 2.738360 
# 
# 
# High freq. dielectric constant tensor:
#      x y z
#    x 1.581250 0.000000 0.000000 
#    y 0.000000 1.604760 0.000000 
#    z 0.000000 0.000000 1.570620 
# 
# From -- ./inp_files/31585.got.cif
#   From: 2010.03.12/outbox.cif.g09.slc.cpg/sg47_16_cif.got.tgz:31585.got - 2010.04.14 03:12:58.
