data_PCOD8194872
_publ_section_title
;
Structure prediction by ZEFSAII (Michael W. Deem and Ramdas Pophale) SiO2 
 PCOD8194872
Probable space group: P M M M
;
_chemical_formula_sum "Si O2"
_cell_formula_units_Z 52
_cell_length_a 13.567176
_cell_length_b 26.129495
_cell_length_c 9.355713
_cell_angle_alpha 90.000000
_cell_angle_beta 90.000000
_cell_angle_gamma 90.000000
_cell_volume 3316.632605
_symmetry_space_group_name_H-M "P M M M"
_symmetry_group_IT_number 47
_symmetry_cell_setting 'orthorhombic'
loop_
_space_group_symop_operation_xyz
x,y,z
-x,-y,z
x,-y,-z
-x,y,-z
-x,-y,-z
x,y,-z
-x,y,z
x,-y,z
loop_
_atom_site_type_symbol
_atom_site_label
_atom_site_fract_x
_atom_site_fract_y
_atom_site_fract_z
Si Si1 0.386302 0.000000 0.169253
Si Si2 0.612122 0.798092 0.664271
Si Si3 0.298926 0.907104 0.662553
Si Si4 0.887286 0.348325 0.833547
Si Si5 0.117135 0.443953 0.661306
Si Si6 0.111291 0.154321 0.335808
Si Si7 0.211242 0.242680 0.169037
O O1 0.332122 0.950282 0.228700
O O2 0.500000 0.000000 0.218294
O O3 0.376449 0.000000 0.000000
O O4 0.634392 0.783810 0.500000
O O5 0.500000 0.786365 0.705938
O O6 0.632968 0.857877 0.689163
O O7 0.679957 0.763894 0.766323
O O8 0.310420 0.926994 0.500000
O O9 0.185078 0.892699 0.696107
O O10 0.840112 0.398122 0.757548
O O11 0.824590 0.299066 0.789202
O O12 0.000000 0.338818 0.785520
O O13 0.880939 0.359198 0.000000
O O14 0.153121 0.434725 0.500000
O O15 0.154717 0.500000 0.714647
O O16 0.000000 0.443271 0.669810
O O17 0.125767 0.172090 0.500000
O O18 0.135180 0.202267 0.235627
O O19 0.000000 0.135614 0.306161
O O20 0.213916 0.234068 0.000000
#
# Coordination Sequence:
#
# PCOD8194872 Si02
#       7
#     4   8   8   8   8   8   8
#     4  11  23  35  48  69  94 116 141 177 220 265
#     4   9  18  33  51  69  89 114 146 182 219 262
#     4   9  18  33  52  71  89 113 145 178 214 257
#     4   9  17  27  38  56  85 119 151 180 211 251
#     4   8  14  24  37  54  77 107 145 186 223 256
#     4   9  18  33  51  69  90 118 152 185 216 255
#     4  10  19  29  43  66  94 120 148 182 219 262
#
# _framework density 15.678553000000001
#
# number of rings (size 3 to 8) (size 9 to 14) (size 15 to 20)
#    0.000    2.846    0.000    3.000    0.000    6.462 
#    0.000    3.462    0.000    2.308    0.000    0.000 
#    0.000    0.615    0.000    6.769    0.000    5.231 
#
# Total GULP energy -644686.402748 kJ/mol
# GULP energy per Si atom -12397.815437 kJ/mol
# Density = 1.564287 g / cm^3
# Si number density = 15.678553 Si / 1000 Ang^3
#
#
#
# Elastic Constant Matrix: (Units=GPa)
#
#
# Indices 1 2 3 4 5 6 
#
# 1 100.4609 54.5751 44.4476 0.0000 0.0000 0.0000
# 2 54.5751 119.6107 65.3944 0.0000 0.0000 0.0000
# 3 44.4476 65.3944 73.9797 0.0000 0.0000 0.0000
# 4 0.0000 0.0000 0.0000 31.6172 0.0000 0.0000
# 5 0.0000 0.0000 0.0000 0.0000 21.9242 0.0000
# 6 0.0000 0.0000 0.0000 0.0000 0.0000 15.6819
#
#
#
# Elastic Compliance Matrix: (Units=1/GPa)
#
#
# Indices 1 2 3 4 5 6 
#
# 1 0.014291 -0.003534 -0.005462 0.000000 0.000000 0.000000
# 2 -0.003534 0.017054 -0.012951 0.000000 0.000000 0.000000
# 3 -0.005462 -0.012951 0.028247 0.000000 0.000000 0.000000
# 4 0.000000 0.000000 0.000000 0.031628 0.000000 0.000000
# 5 0.000000 0.000000 0.000000 0.000000 0.045612 0.000000
# 6 0.000000 0.000000 0.000000 0.000000 0.000000 0.063768
#
#
# Mechanical properties :
#
#
# Convention : Reuss Voigt Hill
#
# Bulk Modulus (GPa) = 63.70765 69.20949 66.45857
# Shear Modulus (GPa) = 20.02188 22.48693 21.25441
#
# Velocity S-wave (km/s) = 3.57742 3.79126 3.68589
# Velocity P-wave (km/s) = 7.60170 7.96263 7.78425
#
# Compressibility (1/GPa) = 0.01569670
#
# Stress axis : x y z
#
# Youngs Moduli (GPa) = 69.97595 58.63739 35.40189
#
# Poissons Ratio (x) = 0.20724 0.19336
# Poissons Ratio (y) = 0.24732 0.45850
# Poissons Ratio (z) = 0.38219 0.75944
#
# Static dielectric constant tensor:
#      x y z
#    x 2.943940 0.000000 0.000000 
#    y 0.000000 3.031140 0.000000 
#    z 0.000000 0.000000 3.006110 
# 
# 
# High freq. dielectric constant tensor:
#      x y z
#    x 1.579190 0.000000 0.000000 
#    y 0.000000 1.593030 0.000000 
#    z 0.000000 0.000000 1.604940 
# 
# From -- ./inp_files/7673.got.cif
#   From: 2010.03.12/outbox.cif.g09.slc.cpg/sg47_4_cif.got.tgz:7673.got - 2010.04.14 03:12:58.
