data_PCOD8194241
_publ_section_title
;
Structure prediction by ZEFSAII (Michael W. Deem and Ramdas Pophale) SiO2 
 PCOD8194241
Probable space group: P M M M
;
_chemical_formula_sum "Si O2"
_cell_formula_units_Z 64
_cell_length_a 9.295702
_cell_length_b 14.296154
_cell_length_c 31.590382
_cell_angle_alpha 90.000000
_cell_angle_beta 90.000000
_cell_angle_gamma 90.000000
_cell_volume 4198.133917
_symmetry_space_group_name_H-M "P M M M"
_symmetry_group_IT_number 47
_symmetry_cell_setting 'orthorhombic'
loop_
_space_group_symop_operation_xyz
x,y,z
-x,-y,z
x,-y,-z
-x,y,-z
-x,-y,-z
x,y,-z
-x,y,z
x,-y,z
loop_
_atom_site_type_symbol
_atom_site_label
_atom_site_fract_x
_atom_site_fract_y
_atom_site_fract_z
Si Si1 0.333544 0.267821 0.952616
Si Si2 0.166637 0.106703 0.915131
Si Si3 0.831432 0.391239 0.716632
Si Si4 0.338266 0.388384 0.364722
Si Si5 0.666229 0.705834 0.791360
Si Si6 0.336462 0.895857 0.169651
Si Si7 0.329075 0.395281 0.455182
Si Si8 0.329596 0.395740 0.876947
O O1 0.500000 0.245770 0.943301
O O2 0.245833 0.171551 0.949083
O O3 0.272481 0.342704 0.918817
O O4 0.312677 0.308197 0.000000
O O5 0.231130 0.124764 0.868895
O O6 0.000000 0.133191 0.913405
O O7 0.190484 0.000000 0.929467
O O8 0.793608 0.500000 0.723782
O O9 0.766335 0.353973 0.672438
O O10 0.763774 0.331819 0.754047
O O11 0.000000 0.373381 0.715532
O O12 0.500000 0.352444 0.354924
O O13 0.338299 0.500000 0.367896
O O14 0.280068 0.347932 0.410463
O O15 0.500000 0.680436 0.782209
O O16 0.689590 0.817987 0.794259
O O17 0.719483 0.659197 0.835073
O O18 0.500000 0.886471 0.152596
O O19 0.309210 0.000000 0.188598
O O20 0.281728 0.344595 0.500000
O O21 0.500000 0.399724 0.453033
O O22 0.266364 0.500000 0.457053
O O23 0.500000 0.401642 0.878819
O O24 0.262821 0.500000 0.876131
#
# Coordination Sequence:
#
# PCOD8194241 Si02
#       8
#     8   8   8   8   8   8   8   8
#     4  10  20  34  51  70  91 115 143 172 204 242
#     4  10  20  33  50  71  94 117 137 162 200 244
#     4  10  20  30  39  56  84 115 146 181 218 250
#     4   8  13  22  36  52  72 102 140 179 218 258
#     4  10  18  30  49  68  86 109 137 169 205 248
#     4   9  17  31  52  74  93 110 131 163 202 246
#     4   7   9  14  27  48  70  92 126 175 222 257
#     4   9  17  30  48  70  91 109 135 172 208 240
#
# _framework density 15.244869
#
# number of rings (size 3 to 8) (size 9 to 14) (size 15 to 20)
#    0.000    2.875    1.250    2.250    0.000    3.250 
#    0.000    2.500    0.000    0.750    0.000    3.500 
#    0.000    0.000    0.000    0.000    0.000    0.625 
#
# Total GULP energy -793027.519392 kJ/mol
# GULP energy per Si atom -12391.054990 kJ/mol
# Density = 1.521017 g / cm^3
# Si number density = 15.244869 Si / 1000 Ang^3
#
#
#
# Elastic Constant Matrix: (Units=GPa)
#
#
# Indices 1 2 3 4 5 6 
#
# 1 52.2676 28.0497 43.6232 0.0000 0.0000 0.0000
# 2 28.0497 70.5421 47.7374 0.0000 0.0000 0.0000
# 3 43.6232 47.7374 139.3738 0.0000 0.0000 0.0000
# 4 0.0000 0.0000 0.0000 6.9750 0.0000 0.0000
# 5 0.0000 0.0000 0.0000 0.0000 6.6111 0.0000
# 6 0.0000 0.0000 0.0000 0.0000 0.0000 13.6209
#
#
#
# Elastic Compliance Matrix: (Units=1/GPa)
#
#
# Indices 1 2 3 4 5 6 
#
# 1 0.028214 -0.006825 -0.006493 0.000000 0.000000 0.000000
# 2 -0.006825 0.020104 -0.004750 0.000000 0.000000 0.000000
# 3 -0.006493 -0.004750 0.010834 0.000000 0.000000 0.000000
# 4 0.000000 0.000000 0.000000 0.143368 0.000000 0.000000
# 5 0.000000 0.000000 0.000000 0.000000 0.151261 0.000000
# 6 0.000000 0.000000 0.000000 0.000000 0.000000 0.073417
#
#
# Mechanical properties :
#
#
# Convention : Reuss Voigt Hill
#
# Bulk Modulus (GPa) = 43.44660 55.66712 49.55686
# Shear Modulus (GPa) = 10.61557 14.95962 12.78759
#
# Velocity S-wave (km/s) = 2.64168 3.13595 2.89937
# Velocity P-wave (km/s) = 6.15351 7.05031 6.61712
#
# Compressibility (1/GPa) = 0.02301676
#
# Stress axis : x y z
#
# Youngs Moduli (GPa) = 35.44315 49.74166 92.30033
#
# Poissons Ratio (x) = 0.33947 0.59934
# Poissons Ratio (y) = 0.24189 0.43841
# Poissons Ratio (z) = 0.23015 0.23626
#
# Static dielectric constant tensor:
#      x y z
#    x 2.762800 0.000000 0.000000 
#    y 0.000000 2.832010 0.000000 
#    z 0.000000 0.000000 3.163480 
# 
# 
# High freq. dielectric constant tensor:
#      x y z
#    x 1.563470 0.000000 0.000000 
#    y 0.000000 1.545570 0.000000 
#    z 0.000000 0.000000 1.584090 
# 
# From -- ./inp_files/22187.got.cif
#   From: 2010.03.12/outbox.cif.g09.slc.cpg/sg47_12_cif.got.tgz:22187.got - 2010.04.14 03:12:58.
