data_PCOD8194258
_publ_section_title
;
Structure prediction by ZEFSAII (Michael W. Deem and Ramdas Pophale) SiO2 
 PCOD8194258
Probable space group: P M M M
;
_chemical_formula_sum "Si O2"
_cell_formula_units_Z 64
_cell_length_a 8.846143
_cell_length_b 19.836149
_cell_length_c 20.339444
_cell_angle_alpha 90.000000
_cell_angle_beta 90.000000
_cell_angle_gamma 90.000000
_cell_volume 3569.031609
_symmetry_space_group_name_H-M "P M M M"
_symmetry_group_IT_number 47
_symmetry_cell_setting 'orthorhombic'
loop_
_space_group_symop_operation_xyz
x,y,z
-x,-y,z
x,-y,-z
-x,y,-z
-x,-y,-z
x,y,-z
-x,y,z
x,-y,z
loop_
_atom_site_type_symbol
_atom_site_label
_atom_site_fract_x
_atom_site_fract_y
_atom_site_fract_z
Si Si1 0.330250 0.573732 0.274346
Si Si2 0.826858 0.077944 0.575680
Si Si3 0.176735 0.077471 0.800688
Si Si4 0.821777 0.291302 0.269925
Si Si5 0.320135 0.286013 0.871835
Si Si6 0.677185 0.161697 0.685452
Si Si7 0.826905 0.159571 0.926813
Si Si8 0.330623 0.429115 0.118030
O O1 0.500000 0.585309 0.301007
O O2 0.270273 0.500000 0.298977
O O3 0.225527 0.635333 0.298542
O O4 0.332101 0.574057 0.196238
O O5 0.799878 0.096998 0.500000
O O6 0.714955 0.122140 0.619045
O O7 0.000000 0.092311 0.595980
O O8 0.788547 0.000000 0.588146
O O9 0.270728 0.119710 0.748625
O O10 0.217569 0.102732 0.874042
O O11 0.000000 0.086629 0.785262
O O12 0.225915 0.000000 0.795778
O O13 0.754347 0.274258 0.198717
O O14 0.760399 0.233763 0.318546
O O15 0.000000 0.287675 0.265475
O O16 0.500000 0.289779 0.862311
O O17 0.276040 0.225713 0.919673
O O18 0.259550 0.357288 0.904388
O O19 0.500000 0.173984 0.690442
O O20 0.000000 0.181863 0.916744
O O21 0.800411 0.129849 0.000000
O O22 0.500000 0.433479 0.090435
O O23 0.247420 0.500000 0.095780
#
# Coordination Sequence:
#
# PCOD8194258 Si02
#       8
#     8   8   8   8   8   8   8   8
#     4   8  14  26  43  65  97 134 169 207 254 307
#     4   9  19  37  59  81 108 144 181 214 254 308
#     4  10  21  37  56  76  99 129 165 208 261 320
#     4  11  20  30  47  71 102 137 174 216 259 305
#     4  10  18  30  49  71  94 124 162 205 258 312
#     4  12  23  34  52  79 110 142 176 215 258 304
#     4  10  21  36  53  72  95 127 166 209 260 319
#     4   7  11  21  39  63  89 117 151 191 236 290
#
# _framework density 17.932034999999999
#
# number of rings (size 3 to 8) (size 9 to 14) (size 15 to 20)
#    0.000    2.375    1.250    4.875    0.000    3.000 
#    0.000    1.875    0.000    1.500    0.000    4.375 
#    0.000    0.500    0.000    5.250    0.000    2.375 
#
# Total GULP energy -793093.101087 kJ/mol
# GULP energy per Si atom -12392.079704 kJ/mol
# Density = 1.789122 g / cm^3
# Si number density = 17.932035 Si / 1000 Ang^3
#
#
#
# Elastic Constant Matrix: (Units=GPa)
#
#
# Indices 1 2 3 4 5 6 
#
# 1 84.8168 47.0434 25.9239 0.0000 0.0000 0.0000
# 2 47.0434 125.7408 34.1988 0.0000 0.0000 0.0000
# 3 25.9239 34.1988 61.2610 0.0000 0.0000 0.0000
# 4 0.0000 0.0000 0.0000 13.5757 0.0000 0.0000
# 5 0.0000 0.0000 0.0000 0.0000 11.4703 0.0000
# 6 0.0000 0.0000 0.0000 0.0000 0.0000 29.1031
#
#
#
# Elastic Compliance Matrix: (Units=1/GPa)
#
#
# Indices 1 2 3 4 5 6 
#
# 1 0.015650 -0.004780 -0.003954 0.000000 0.000000 0.000000
# 2 -0.004780 0.010836 -0.004027 0.000000 0.000000 0.000000
# 3 -0.003954 -0.004027 0.020245 0.000000 0.000000 0.000000
# 4 0.000000 0.000000 0.000000 0.073661 0.000000 0.000000
# 5 0.000000 0.000000 0.000000 0.000000 0.087182 0.000000
# 6 0.000000 0.000000 0.000000 0.000000 0.000000 0.034361
#
#
# Mechanical properties :
#
#
# Convention : Reuss Voigt Hill
#
# Bulk Modulus (GPa) = 47.14850 54.01676 50.58263
# Shear Modulus (GPa) = 18.21328 21.80666 20.00997
#
# Velocity S-wave (km/s) = 3.19044 3.49101 3.34410
# Velocity P-wave (km/s) = 6.31837 6.81454 6.57114
#
# Compressibility (1/GPa) = 0.02120958
#
# Stress axis : x y z
#
# Youngs Moduli (GPa) = 63.89898 92.28318 49.39526
#
# Poissons Ratio (x) = 0.44107 0.19533
# Poissons Ratio (y) = 0.30541 0.19890
# Poissons Ratio (z) = 0.25268 0.37160
#
# Static dielectric constant tensor:
#      x y z
#    x 3.177290 0.000000 0.000000 
#    y 0.000000 3.872840 0.000000 
#    z 0.000000 0.000000 2.933030 
# 
# 
# High freq. dielectric constant tensor:
#      x y z
#    x 1.676960 0.000000 0.000000 
#    y 0.000000 1.714480 0.000000 
#    z 0.000000 0.000000 1.645430 
# 
# From -- ./inp_files/26987.got.cif
#   From: 2010.03.12/outbox.cif.g09.slc.cpg/sg47_14_cif.got.tgz:26987.got - 2010.04.14 03:12:58.
