data_PCOD8194930
_publ_section_title
;
Structure prediction by ZEFSAII (Michael W. Deem and Ramdas Pophale) SiO2 
 PCOD8194930
Probable space group: P M M M
;
_chemical_formula_sum "Si O2"
_cell_formula_units_Z 52
_cell_length_a 15.185310
_cell_length_b 9.499367
_cell_length_c 21.897669
_cell_angle_alpha 90.000000
_cell_angle_beta 90.000000
_cell_angle_gamma 90.000000
_cell_volume 3158.756987
_symmetry_space_group_name_H-M "P M M M"
_symmetry_group_IT_number 47
_symmetry_cell_setting 'orthorhombic'
loop_
_space_group_symop_operation_xyz
x,y,z
-x,-y,z
x,-y,-z
-x,y,-z
-x,-y,-z
x,y,-z
-x,y,z
x,-y,z
loop_
_atom_site_type_symbol
_atom_site_label
_atom_site_fract_x
_atom_site_fract_y
_atom_site_fract_z
Si Si1 0.395338 0.340507 0.000000
Si Si2 0.602207 0.340026 0.429349
Si Si3 0.257133 0.838067 0.213457
Si Si4 0.261578 0.834357 0.354508
Si Si5 0.601341 0.162674 0.885272
Si Si6 0.903556 0.658055 0.210209
Si Si7 0.902606 0.658331 0.355293
O O1 0.361614 0.258661 0.940105
O O2 0.358558 0.500000 0.000000
O O3 0.500000 0.339143 0.000000
O O4 0.624508 0.315041 0.500000
O O5 0.500000 0.311291 0.416633
O O6 0.626557 0.500000 0.410718
O O7 0.656030 0.229496 0.389669
O O8 0.275411 0.796864 0.283422
O O9 0.344251 0.800403 0.175441
O O10 0.174000 0.755967 0.184629
O O11 0.231749 0.000000 0.207958
O O12 0.171190 0.765529 0.380223
O O13 0.257055 0.000000 0.366458
O O14 0.500000 0.197450 0.870370
O O15 0.612684 0.000000 0.904505
O O16 0.885856 0.500000 0.187147
O O17 0.903343 0.663477 0.282795
O O18 0.000000 0.709311 0.186736
O O19 0.880066 0.500000 0.377601
O O20 0.000000 0.702358 0.379605
#
# Coordination Sequence:
#
# PCOD8194930 Si02
#       7
#     4   8   8   8   8   8   8
#     4   9  17  29  45  65  86 109 146 193 229 256
#     4   9  19  36  54  68  84 113 155 195 226 264
#     4   9  18  29  42  66  96 123 150 179 216 264
#     4  10  19  29  45  71  99 122 145 182 231 273
#     4   9  17  30  46  62  86 122 156 181 211 258
#     4   8  14  25  41  61  86 117 151 185 220 258
#     4   8  14  26  44  64  88 121 156 184 214 260
#
# _framework density 16.462171999999999
#
# number of rings (size 3 to 8) (size 9 to 14) (size 15 to 20)
#    0.000    3.154    0.000    2.077    0.000    4.000 
#    0.000    5.385    0.000    2.308    0.000    3.769 
#    0.000    4.308    0.000    0.000    0.000    0.000 
#
# Total GULP energy -644582.016259 kJ/mol
# GULP energy per Si atom -12395.808005 kJ/mol
# Density = 1.642470 g / cm^3
# Si number density = 16.462172 Si / 1000 Ang^3
#
#
#
# Elastic Constant Matrix: (Units=GPa)
#
#
# Indices 1 2 3 4 5 6 
#
# 1 111.6796 69.2069 49.0159 0.0000 0.0000 0.0000
# 2 69.2069 99.1738 46.3414 0.0000 0.0000 0.0000
# 3 49.0159 46.3414 53.8531 0.0000 0.0000 0.0000
# 4 0.0000 0.0000 0.0000 20.8002 0.0000 0.0000
# 5 0.0000 0.0000 0.0000 0.0000 1.6466 0.0000
# 6 0.0000 0.0000 0.0000 0.0000 0.0000 30.9825
#
#
#
# Elastic Compliance Matrix: (Units=1/GPa)
#
#
# Indices 1 2 3 4 5 6 
#
# 1 0.018266 -0.008326 -0.009461 0.000000 0.000000 0.000000
# 2 -0.008326 0.020659 -0.010200 0.000000 0.000000 0.000000
# 3 -0.009461 -0.010200 0.035957 0.000000 0.000000 0.000000
# 4 0.000000 0.000000 0.000000 0.048077 0.000000 0.000000
# 5 0.000000 0.000000 0.000000 0.000000 0.607307 0.000000
# 6 0.000000 0.000000 0.000000 0.000000 0.000000 0.032276
#
#
# Mechanical properties :
#
#
# Convention : Reuss Voigt Hill
#
# Bulk Modulus (GPa) = 52.88279 65.98164 59.43222
# Shear Modulus (GPa) = 6.06194 17.36202 11.71198
#
# Velocity S-wave (km/s) = 1.92103 3.25108 2.67019
# Velocity P-wave (km/s) = 6.09213 7.36617 6.75923
#
# Compressibility (1/GPa) = 0.01890974
#
# Stress axis : x y z
#
# Youngs Moduli (GPa) = 54.74670 48.40399 27.81091
#
# Poissons Ratio (x) = 0.40300 0.26311
# Poissons Ratio (y) = 0.45581 0.28367
# Poissons Ratio (z) = 0.51795 0.49371
#
# Static dielectric constant tensor:
#      x y z
#    x 3.293540 0.000000 0.000000 
#    y 0.000000 3.198110 0.000000 
#    z 0.000000 0.000000 2.795870 
# 
# 
# High freq. dielectric constant tensor:
#      x y z
#    x 1.633770 0.000000 0.000000 
#    y 0.000000 1.637090 0.000000 
#    z 0.000000 0.000000 1.593030 
# 
# From -- ./inp_files/7099.got.cif
#   From: 2010.03.12/outbox.cif.g09.slc.cpg/sg47_4_cif.got.tgz:7099.got - 2010.04.14 03:12:58.
