data_PCOD8194758
_publ_section_title
;
Structure prediction by ZEFSAII (Michael W. Deem and Ramdas Pophale) SiO2 
 PCOD8194758
Probable space group: P M M M
;
_chemical_formula_sum "Si O2"
_cell_formula_units_Z 48
_cell_length_a 9.015173
_cell_length_b 22.274102
_cell_length_c 18.054499
_cell_angle_alpha 90.000000
_cell_angle_beta 90.000000
_cell_angle_gamma 90.000000
_cell_volume 3625.431558
_symmetry_space_group_name_H-M "P M M M"
_symmetry_group_IT_number 47
_symmetry_cell_setting 'orthorhombic'
loop_
_space_group_symop_operation_xyz
x,y,z
-x,-y,z
x,-y,-z
-x,y,-z
-x,-y,-z
x,y,-z
-x,y,z
x,-y,z
loop_
_atom_site_type_symbol
_atom_site_label
_atom_site_fract_x
_atom_site_fract_y
_atom_site_fract_z
Si Si1 0.333807 0.071187 0.918679
Si Si2 0.676281 0.500000 0.418823
Si Si3 0.323718 0.932967 0.500000
Si Si4 0.171725 0.070548 0.226055
Si Si5 0.666200 0.628304 0.588286
Si Si6 0.173639 0.746507 0.585971
Si Si7 0.323821 0.861099 0.357655
O O1 0.500000 0.094512 0.900753
O O2 0.220560 0.093232 0.855514
O O3 0.334666 0.000000 0.920512
O O4 0.283086 0.095203 0.000000
O O5 0.500000 0.500000 0.427081
O O6 0.750863 0.500000 0.500000
O O7 0.721113 0.436818 0.378598
O O8 0.500000 0.934886 0.500000
O O9 0.264501 0.899200 0.427480
O O10 0.257269 0.000000 0.500000
O O11 0.268713 0.106929 0.284077
O O12 0.000000 0.085648 0.237291
O O13 0.204050 0.000000 0.236480
O O14 0.665798 0.622447 0.500000
O O15 0.500000 0.643710 0.616220
O O16 0.776539 0.680785 0.614231
O O17 0.218369 0.755649 0.500000
O O18 0.257782 0.794626 0.636410
O O19 0.000000 0.753481 0.598243
O O20 0.500000 0.857098 0.356370
#
# Coordination Sequence:
#
# PCOD8194758 Si02
#       7
#     8   4   4   8   8   8   8
#     4   8  14  26  44  63  80  98 120 144 172 212
#     4   7  10  18  33  53  71  87 109 143 178 211
#     4   9  18  30  43  57  67  80 113 160 201 233
#     4  10  20  31  42  59  81 100 118 146 190 236
#     4   8  13  22  37  53  69  89 116 145 178 218
#     4  10  19  29  39  52  72  94 119 153 193 231
#     4  11  20  31  45  56  70  93 126 162 194 229
#
# _framework density 13.239803
#
# number of rings (size 3 to 8) (size 9 to 14) (size 15 to 20)
#    0.000    2.833    0.833    3.500    0.000    2.667 
#    0.000    2.083    0.000    4.500    0.000    0.000 
#    0.000    0.000    0.000    0.000    0.000    0.000 
#
# Total GULP energy -594829.322201 kJ/mol
# GULP energy per Si atom -12392.277546 kJ/mol
# Density = 1.320967 g / cm^3
# Si number density = 13.239803 Si / 1000 Ang^3
#
#
#
# Elastic Constant Matrix: (Units=GPa)
#
#
# Indices 1 2 3 4 5 6 
#
# 1 58.4394 34.5023 26.2120 0.0000 0.0000 0.0000
# 2 34.5023 88.7669 30.7031 0.0000 0.0000 0.0000
# 3 26.2120 30.7031 62.1303 0.0000 0.0000 0.0000
# 4 0.0000 0.0000 0.0000 2.2367 0.0000 0.0000
# 5 0.0000 0.0000 0.0000 0.0000 16.0729 0.0000
# 6 0.0000 0.0000 0.0000 0.0000 0.0000 15.4609
#
#
#
# Elastic Compliance Matrix: (Units=1/GPa)
#
#
# Indices 1 2 3 4 5 6 
#
# 1 0.024348 -0.007129 -0.006749 0.000000 0.000000 0.000000
# 2 -0.007129 0.015676 -0.004739 0.000000 0.000000 0.000000
# 3 -0.006749 -0.004739 0.021284 0.000000 0.000000 0.000000
# 4 0.000000 0.000000 0.000000 0.447082 0.000000 0.000000
# 5 0.000000 0.000000 0.000000 0.000000 0.062216 0.000000
# 6 0.000000 0.000000 0.000000 0.000000 0.000000 0.064679
#
#
# Mechanical properties :
#
#
# Convention : Reuss Voigt Hill
#
# Bulk Modulus (GPa) = 41.53887 43.57459 42.55673
# Shear Modulus (GPa) = 7.34706 14.61538 10.98122
#
# Velocity S-wave (km/s) = 2.35823 3.32610 2.88307
# Velocity P-wave (km/s) = 6.23357 6.90897 6.57994
#
# Compressibility (1/GPa) = 0.02407384
#
# Stress axis : x y z
#
# Youngs Moduli (GPa) = 41.07113 63.79359 46.98318
#
# Poissons Ratio (x) = 0.45481 0.31709
# Poissons Ratio (y) = 0.29281 0.22264
# Poissons Ratio (z) = 0.27719 0.30230
#
# Static dielectric constant tensor:
#      x y z
#    x 2.593930 0.000000 0.000000 
#    y 0.000000 2.758400 0.000000 
#    z 0.000000 0.000000 2.515930 
# 
# 
# High freq. dielectric constant tensor:
#      x y z
#    x 1.502830 0.000000 0.000000 
#    y 0.000000 1.489540 0.000000 
#    z 0.000000 0.000000 1.459690 
# 
# From -- ./inp_files/11414.got.cif
#   From: 2010.03.12/outbox.cif.g09.slc.cpg/sg47_6_cif.got.tgz:11414.got - 2010.04.14 03:12:58.
