data_PCOD8194634
_publ_section_title
;
Structure prediction by ZEFSAII (Michael W. Deem and Ramdas Pophale) SiO2 
 PCOD8194634
Probable space group: P M M M
;
_chemical_formula_sum "Si O2"
_cell_formula_units_Z 44
_cell_length_a 11.836707
_cell_length_b 14.791958
_cell_length_c 13.566697
_cell_angle_alpha 90.000000
_cell_angle_beta 90.000000
_cell_angle_gamma 90.000000
_cell_volume 2375.366832
_symmetry_space_group_name_H-M "P M M M"
_symmetry_group_IT_number 47
_symmetry_cell_setting 'orthorhombic'
loop_
_space_group_symop_operation_xyz
x,y,z
-x,-y,z
x,-y,-z
-x,y,-z
-x,-y,-z
x,y,-z
-x,y,z
x,-y,z
loop_
_atom_site_type_symbol
_atom_site_label
_atom_site_fract_x
_atom_site_fract_y
_atom_site_fract_z
Si Si1 0.500000 0.897841 0.819911
Si Si2 0.733811 0.255399 0.389373
Si Si3 0.500000 0.848489 0.607627
Si Si4 0.868703 0.000000 0.110084
Si Si5 0.625450 0.601456 0.269800
Si Si6 0.666779 0.254108 0.113642
Si Si7 0.132437 0.816194 0.213760
O O1 0.500000 0.914222 0.701410
O O2 0.609534 0.840819 0.853377
O O3 0.500000 0.000000 0.865956
O O4 0.781868 0.260154 0.500000
O O5 0.610235 0.212895 0.384288
O O6 0.717105 0.355982 0.345210
O O7 0.823151 0.197469 0.325436
O O8 0.500000 0.898744 0.500000
O O9 0.835001 0.084294 0.177143
O O10 0.000000 0.000000 0.089533
O O11 0.810469 0.000000 0.000000
O O12 0.500000 0.599116 0.317388
O O13 0.666168 0.500000 0.244288
O O14 0.615623 0.660789 0.170584
O O15 0.800192 0.249945 0.139558
O O16 0.645278 0.271337 0.000000
O O17 0.000000 0.794662 0.207801
#
# Coordination Sequence:
#
# PCOD8194634 Si02
#       7
#     4   8   4   4   8   8   8
#     4  12  23  37  56  83 117 153 192 230 279 340
#     4  10  19  35  58  81 111 144 177 225 284 343
#     4  10  18  36  57  76 105 143 183 223 273 331
#     4   9  18  34  55  78 105 140 191 246 285 318
#     4  10  19  34  57  85 115 145 180 228 285 346
#     4  11  22  37  55  80 117 153 188 232 282 339
#     4  10  21  36  55  80 110 148 195 241 280 329
#
# _framework density 18.523453
#
# number of rings (size 3 to 8) (size 9 to 14) (size 15 to 20)
#    0.000    1.727    5.455    0.818    1.273    3.091 
#    0.000    2.273    0.000   10.364    0.000   10.182 
#    0.000    0.000    0.000    0.000    0.000    0.000 
#
# Total GULP energy -545216.543264 kJ/mol
# GULP energy per Si atom -12391.285074 kJ/mol
# Density = 1.848129 g / cm^3
# Si number density = 18.523453 Si / 1000 Ang^3
#
#
#
# Elastic Constant Matrix: (Units=GPa)
#
#
# Indices 1 2 3 4 5 6 
#
# 1 94.9473 29.5005 28.1154 0.0000 0.0000 0.0000
# 2 29.5005 122.0344 51.1413 0.0000 0.0000 0.0000
# 3 28.1154 51.1413 150.9677 0.0000 0.0000 0.0000
# 4 0.0000 0.0000 0.0000 16.9916 0.0000 0.0000
# 5 0.0000 0.0000 0.0000 0.0000 20.8133 0.0000
# 6 0.0000 0.0000 0.0000 0.0000 0.0000 21.4892
#
#
#
# Elastic Compliance Matrix: (Units=1/GPa)
#
#
# Indices 1 2 3 4 5 6 
#
# 1 0.011641 -0.002221 -0.001416 0.000000 0.000000 0.000000
# 2 -0.002221 0.009974 -0.002965 0.000000 0.000000 0.000000
# 3 -0.001416 -0.002965 0.007892 0.000000 0.000000 0.000000
# 4 0.000000 0.000000 0.000000 0.058853 0.000000 0.000000
# 5 0.000000 0.000000 0.000000 0.000000 0.048046 0.000000
# 6 0.000000 0.000000 0.000000 0.000000 0.000000 0.046535
#
#
# Mechanical properties :
#
#
# Convention : Reuss Voigt Hill
#
# Bulk Modulus (GPa) = 61.33494 65.05154 63.19324
# Shear Modulus (GPa) = 24.80413 29.13829 26.97121
#
# Velocity S-wave (km/s) = 3.66330 3.97047 3.81997
# Velocity P-wave (km/s) = 7.14681 7.49761 7.32431
#
# Compressibility (1/GPa) = 0.01630392
#
# Stress axis : x y z
#
# Youngs Moduli (GPa) = 85.90019 100.26176 126.71009
#
# Poissons Ratio (x) = 0.22267 0.17938
# Poissons Ratio (y) = 0.19078 0.37571
# Poissons Ratio (z) = 0.12161 0.29729
#
# Static dielectric constant tensor:
#      x y z
#    x 3.299180 0.000000 0.000000 
#    y 0.000000 3.337930 0.000000 
#    z 0.000000 0.000000 3.643120 
# 
# 
# High freq. dielectric constant tensor:
#      x y z
#    x 1.705700 0.000000 0.000000 
#    y 0.000000 1.699620 0.000000 
#    z 0.000000 0.000000 1.723950 
# 
# From -- ./inp_files/22657.got.cif
#   From: 2010.03.12/outbox.cif.g09.slc.cpg/sg47_12_cif.got.tgz:22657.got - 2010.04.14 03:12:58.
