data_PCOD8194293
_publ_section_title
;
Structure prediction by ZEFSAII (Michael W. Deem and Ramdas Pophale) SiO2 
 PCOD8194293
Probable space group: P M M M
;
_chemical_formula_sum "Si O2"
_cell_formula_units_Z 64
_cell_length_a 9.393477
_cell_length_b 30.674885
_cell_length_c 14.248158
_cell_angle_alpha 90.000000
_cell_angle_beta 90.000000
_cell_angle_gamma 90.000000
_cell_volume 4105.518770
_symmetry_space_group_name_H-M "P M M M"
_symmetry_group_IT_number 47
_symmetry_cell_setting 'orthorhombic'
loop_
_space_group_symop_operation_xyz
x,y,z
-x,-y,z
x,-y,-z
-x,y,-z
-x,-y,-z
x,y,-z
-x,y,z
x,-y,z
loop_
_atom_site_type_symbol
_atom_site_label
_atom_site_fract_x
_atom_site_fract_y
_atom_site_fract_z
Si Si1 0.831044 0.214678 0.220158
Si Si2 0.665297 0.762409 0.393565
Si Si3 0.339455 0.047796 0.888466
Si Si4 0.664745 0.712088 0.890669
Si Si5 0.666590 0.377217 0.208543
Si Si6 0.835450 0.549917 0.893117
Si Si7 0.331097 0.662917 0.601797
Si Si8 0.834317 0.871045 0.892380
O O1 0.763700 0.209661 0.323709
O O2 0.764617 0.255719 0.166797
O O3 0.787768 0.171309 0.164734
O O4 0.000000 0.220848 0.226417
O O5 0.689812 0.778789 0.500000
O O6 0.500000 0.767431 0.365410
O O7 0.716953 0.712596 0.382886
O O8 0.500000 0.056093 0.854166
O O9 0.242197 0.086543 0.848012
O O10 0.287309 0.000000 0.852502
O O11 0.331425 0.048241 0.000000
O O12 0.500000 0.722809 0.867932
O O13 0.700532 0.662807 0.860638
O O14 0.698978 0.717176 0.000000
O O15 0.500000 0.387286 0.210705
O O16 0.744514 0.420372 0.175366
O O17 0.726258 0.366558 0.313072
O O18 0.809311 0.500000 0.863852
O O19 0.000000 0.562320 0.882374
O O20 0.785741 0.557452 0.000000
O O21 0.274562 0.645921 0.500000
O O22 0.500000 0.662375 0.601947
O O23 0.000000 0.880234 0.883808
O O24 0.788472 0.863127 0.000000
#
# Coordination Sequence:
#
# PCOD8194293 Si02
#       8
#     8   8   8   8   8   8   8   8
#     4  11  21  31  44  64  94 126 156 192 228 268
#     4   9  17  32  52  68  86 117 155 192 231 274
#     4   8  14  25  41  61  83 108 145 194 239 272
#     4  10  20  32  45  64  92 124 157 191 225 266
#     4  10  18  30  50  73  93 113 148 192 226 261
#     4   9  19  35  51  67  91 122 151 180 221 273
#     4   8  14  27  48  70  91 115 143 180 225 268
#     4   9  18  30  41  57  86 125 162 189 220 266
#
# _framework density 15.588772000000001
#
# number of rings (size 3 to 8) (size 9 to 14) (size 15 to 20)
#    0.000    2.750    1.250    2.625    0.000    3.750 
#    0.000    3.125    0.000    0.750    0.000    2.625 
#    0.000    0.500    0.000    5.500    0.000    4.250 
#
# Total GULP energy -793368.975193 kJ/mol
# GULP energy per Si atom -12396.390237 kJ/mol
# Density = 1.555329 g / cm^3
# Si number density = 15.588772 Si / 1000 Ang^3
#
#
#
# Elastic Constant Matrix: (Units=GPa)
#
#
# Indices 1 2 3 4 5 6 
#
# 1 53.4807 45.5466 39.2272 0.0000 0.0000 0.0000
# 2 45.5466 90.2828 45.3410 0.0000 0.0000 0.0000
# 3 39.2272 45.3410 93.5477 0.0000 0.0000 0.0000
# 4 0.0000 0.0000 0.0000 8.0261 0.0000 0.0000
# 5 0.0000 0.0000 0.0000 0.0000 20.6393 0.0000
# 6 0.0000 0.0000 0.0000 0.0000 0.0000 29.4494
#
#
#
# Elastic Compliance Matrix: (Units=1/GPa)
#
#
# Indices 1 2 3 4 5 6 
#
# 1 0.037419 -0.014535 -0.008646 0.000000 0.000000 0.000000
# 2 -0.014535 0.020286 -0.003737 0.000000 0.000000 0.000000
# 3 -0.008646 -0.003737 0.016127 0.000000 0.000000 0.000000
# 4 0.000000 0.000000 0.000000 0.124593 0.000000 0.000000
# 5 0.000000 0.000000 0.000000 0.000000 0.048451 0.000000
# 6 0.000000 0.000000 0.000000 0.000000 0.000000 0.033956
#
#
# Mechanical properties :
#
#
# Convention : Reuss Voigt Hill
#
# Bulk Modulus (GPa) = 50.01310 55.28229 52.64770
# Shear Modulus (GPa) = 14.64841 18.76941 16.70891
#
# Velocity S-wave (km/s) = 3.06874 3.47368 3.27747
# Velocity P-wave (km/s) = 6.68645 7.18530 6.94036
#
# Compressibility (1/GPa) = 0.01999476
#
# Stress axis : x y z
#
# Youngs Moduli (GPa) = 26.72456 49.29482 62.00972
#
# Poissons Ratio (x) = 0.71652 0.53612
# Poissons Ratio (y) = 0.38845 0.23175
# Poissons Ratio (z) = 0.23105 0.18423
#
# Static dielectric constant tensor:
#      x y z
#    x 2.855820 0.000000 0.000000 
#    y 0.000000 2.986420 0.000000 
#    z 0.000000 0.000000 3.126130 
# 
# 
# High freq. dielectric constant tensor:
#      x y z
#    x 1.587020 0.000000 0.000000 
#    y 0.000000 1.585260 0.000000 
#    z 0.000000 0.000000 1.584850 
# 
# From -- ./inp_files/8329.got.cif
#   From: 2010.03.12/outbox.cif.g09.slc.cpg/sg47_5_cif.got.tgz:8329.got - 2010.04.14 03:12:58.
