data_PCOD8194379
_publ_section_title
;
Structure prediction by ZEFSAII (Michael W. Deem and Ramdas Pophale) SiO2 
 PCOD8194379
Probable space group: P M M M
;
_chemical_formula_sum "Si O2"
_cell_formula_units_Z 60
_cell_length_a 21.700862
_cell_length_b 17.746128
_cell_length_c 9.407268
_cell_angle_alpha 90.000000
_cell_angle_beta 90.000000
_cell_angle_gamma 90.000000
_cell_volume 3622.797935
_symmetry_space_group_name_H-M "P M M M"
_symmetry_group_IT_number 47
_symmetry_cell_setting 'orthorhombic'
loop_
_space_group_symop_operation_xyz
x,y,z
-x,-y,z
x,-y,-z
-x,y,-z
-x,-y,-z
x,y,-z
-x,y,z
x,-y,z
loop_
_atom_site_type_symbol
_atom_site_label
_atom_site_fract_x
_atom_site_fract_y
_atom_site_fract_z
Si Si1 0.364569 0.190842 0.727547
Si Si2 0.572969 0.087376 0.500000
Si Si3 0.832296 0.822599 0.828564
Si Si4 0.277589 0.919955 0.841478
Si Si5 0.072346 0.914032 0.337178
Si Si6 0.432685 0.667620 0.166646
Si Si7 0.752381 0.712278 0.338345
Si Si8 0.311842 0.412769 0.833590
O O1 0.400264 0.131630 0.632408
O O2 0.334453 0.137824 0.846697
O O3 0.413417 0.247968 0.792791
O O4 0.308497 0.235303 0.652684
O O5 0.500000 0.092610 0.500000
O O6 0.594364 0.000000 0.500000
O O7 0.782750 0.883510 0.771704
O O8 0.896898 0.852895 0.768181
O O9 0.809714 0.745719 0.752274
O O10 0.834812 0.811437 0.000000
O O11 0.293130 0.000000 0.764270
O O12 0.258635 0.937720 0.000000
O O13 0.092619 0.898765 0.500000
O O14 0.000000 0.901920 0.320490
O O15 0.089770 0.000000 0.294143
O O16 0.500000 0.649604 0.235656
O O17 0.381538 0.607514 0.217351
O O18 0.439356 0.663035 0.000000
O O19 0.773949 0.696402 0.500000
O O20 0.736271 0.634077 0.259690
O O21 0.299605 0.500000 0.804877
O O22 0.303723 0.391740 0.000000
#
# Coordination Sequence:
#
# PCOD8194379 Si02
#       8
#     8   4   8   8   8   8   8   8
#     4  10  18  31  44  60  81 111 145 191 234 287
#     4  11  22  32  42  56  77 109 148 192 239 286
#     4  10  19  30  47  70  97 126 164 209 249 291
#     4   9  17  28  43  62  84 110 143 191 247 293
#     4   9  18  32  48  68 100 142 182 217 252 289
#     4   9  17  29  47  68  87 112 147 184 228 287
#     4  10  19  32  50  70  92 122 157 193 239 292
#     4   9  18  32  50  72  98 123 148 185 236 293
#
# _framework density 16.561783999999999
#
# number of rings (size 3 to 8) (size 9 to 14) (size 15 to 20)
#    0.000    2.467    0.667    2.800    0.000    4.800 
#    0.000    2.000    0.000    0.000    0.000    7.467 
#    0.000    0.533    0.000    5.600    0.000    2.400 
#
# Total GULP energy -743323.266014 kJ/mol
# GULP energy per Si atom -12388.721100 kJ/mol
# Density = 1.652409 g / cm^3
# Si number density = 16.561784 Si / 1000 Ang^3
#
#
#
# Elastic Constant Matrix: (Units=GPa)
#
#
# Indices 1 2 3 4 5 6 
#
# 1 66.9091 36.3043 35.4228 0.0000 0.0000 0.0000
# 2 36.3043 103.4543 37.0003 0.0000 0.0000 0.0000
# 3 35.4228 37.0003 61.4739 0.0000 0.0000 0.0000
# 4 0.0000 0.0000 0.0000 26.5400 0.0000 0.0000
# 5 0.0000 0.0000 0.0000 0.0000 13.3110 0.0000
# 6 0.0000 0.0000 0.0000 0.0000 0.0000 24.4474
#
#
#
# Elastic Compliance Matrix: (Units=1/GPa)
#
#
# Indices 1 2 3 4 5 6 
#
# 1 0.022867 -0.004220 -0.010636 0.000000 0.000000 0.000000
# 2 -0.004220 0.013097 -0.005451 0.000000 0.000000 0.000000
# 3 -0.010636 -0.005451 0.025677 0.000000 0.000000 0.000000
# 4 0.000000 0.000000 0.000000 0.037679 0.000000 0.000000
# 5 0.000000 0.000000 0.000000 0.000000 0.075126 0.000000
# 6 0.000000 0.000000 0.000000 0.000000 0.000000 0.040904
#
#
# Mechanical properties :
#
#
# Convention : Reuss Voigt Hill
#
# Bulk Modulus (GPa) = 47.56187 49.92135 48.74161
# Shear Modulus (GPa) = 19.01346 21.06700 20.04023
#
# Velocity S-wave (km/s) = 3.39194 3.57041 3.48232
# Velocity P-wave (km/s) = 6.64233 6.87060 6.75743
#
# Compressibility (1/GPa) = 0.02102524
#
# Stress axis : x y z
#
# Youngs Moduli (GPa) = 43.73210 76.35585 38.94596
#
# Poissons Ratio (x) = 0.32225 0.41423
# Poissons Ratio (y) = 0.18456 0.21229
# Poissons Ratio (z) = 0.46514 0.41620
#
# Static dielectric constant tensor:
#      x y z
#    x 3.026680 0.000000 0.000000 
#    y 0.000000 3.208870 0.000000 
#    z 0.000000 0.000000 3.047650 
# 
# 
# High freq. dielectric constant tensor:
#      x y z
#    x 1.618060 0.000000 0.000000 
#    y 0.000000 1.629010 0.000000 
#    z 0.000000 0.000000 1.628520 
# 
# From -- ./inp_files/11608.got.cif
#   From: 2010.03.12/outbox.cif.g09.slc.cpg/sg47_6_cif.got.tgz:11608.got - 2010.04.14 03:12:58.
