data_PCOD8194263
_publ_section_title
;
Structure prediction by ZEFSAII (Michael W. Deem and Ramdas Pophale) SiO2 
 PCOD8194263
Probable space group: P M M M
;
_chemical_formula_sum "Si O2"
_cell_formula_units_Z 52
_cell_length_a 23.476073
_cell_length_b 14.360301
_cell_length_c 9.193149
_cell_angle_alpha 90.000000
_cell_angle_beta 90.000000
_cell_angle_gamma 90.000000
_cell_volume 3099.226333
_symmetry_space_group_name_H-M "P M M M"
_symmetry_group_IT_number 47
_symmetry_cell_setting 'orthorhombic'
loop_
_space_group_symop_operation_xyz
x,y,z
-x,-y,z
x,-y,-z
-x,y,-z
-x,-y,-z
x,y,-z
-x,y,z
x,-y,z
loop_
_atom_site_type_symbol
_atom_site_label
_atom_site_fract_x
_atom_site_fract_y
_atom_site_fract_z
Si Si1 0.240756 0.605349 0.670002
Si Si2 0.279046 0.777546 0.171726
Si Si3 0.389440 0.107468 0.830593
Si Si4 0.170664 0.104667 0.173404
Si Si5 0.062322 0.214439 0.171304
Si Si6 0.500000 0.110753 0.335831
Si Si7 0.124398 0.396278 0.166309
O O1 0.240379 0.626851 0.500000
O O2 0.261803 0.500000 0.701995
O O3 0.282663 0.677381 0.750193
O O4 0.177526 0.620259 0.729768
O O5 0.334400 0.835145 0.218472
O O6 0.223638 0.833692 0.228140
O O7 0.276633 0.761998 0.000000
O O8 0.443592 0.148083 0.744243
O O9 0.377548 0.000000 0.791924
O O10 0.402577 0.119560 0.000000
O O11 0.111689 0.147875 0.235653
O O12 0.176958 0.000000 0.234219
O O13 0.170240 0.104089 0.000000
O O14 0.075902 0.322244 0.207763
O O15 0.000000 0.190407 0.238732
O O16 0.059744 0.199146 0.000000
O O17 0.500000 0.148398 0.500000
O O18 0.500000 0.000000 0.329037
O O19 0.098951 0.500000 0.186453
O O20 0.145187 0.380217 0.000000
#
# Coordination Sequence:
#
# PCOD8194263 Si02
#       7
#     8   8   8   8   8   4   8
#     4  10  20  32  47  68  93 120 150 188 236 287
#     4  10  18  30  49  72  95 122 157 195 235 278
#     4   9  17  29  47  72 101 132 165 199 233 271
#     4   9  16  26  41  63  92 121 150 190 236 277
#     4   9  16  25  39  63  91 117 149 189 235 285
#     4   9  17  29  45  67 100 139 172 199 229 268
#     4   9  16  28  46  65  86 113 146 188 238 289
#
# _framework density 16.778381
#
# number of rings (size 3 to 8) (size 9 to 14) (size 15 to 20)
#    0.000    2.692    1.538    1.154    0.000    4.923 
#    0.000    3.077    0.000    1.846    0.000    2.692 
#    0.000    5.538    0.000    0.000    0.000    0.000 
#
# Total GULP energy -644640.424554 kJ/mol
# GULP energy per Si atom -12396.931241 kJ/mol
# Density = 1.674019 g / cm^3
# Si number density = 16.778381 Si / 1000 Ang^3
#
#
#
# Elastic Constant Matrix: (Units=GPa)
#
#
# Indices 1 2 3 4 5 6 
#
# 1 138.1764 63.0744 42.1570 0.0000 0.0000 0.0000
# 2 63.0744 107.2975 35.0803 0.0000 0.0000 0.0000
# 3 42.1570 35.0803 43.2241 0.0000 0.0000 0.0000
# 4 0.0000 0.0000 0.0000 15.7210 0.0000 0.0000
# 5 0.0000 0.0000 0.0000 0.0000 7.2593 0.0000
# 6 0.0000 0.0000 0.0000 0.0000 0.0000 20.9136
#
#
#
# Elastic Compliance Matrix: (Units=1/GPa)
#
#
# Indices 1 2 3 4 5 6 
#
# 1 0.011562 -0.004233 -0.007841 0.000000 0.000000 0.000000
# 2 -0.004233 0.014236 -0.007425 0.000000 0.000000 0.000000
# 3 -0.007841 -0.007425 0.036809 0.000000 0.000000 0.000000
# 4 0.000000 0.000000 0.000000 0.063609 0.000000 0.000000
# 5 0.000000 0.000000 0.000000 0.000000 0.137754 0.000000
# 6 0.000000 0.000000 0.000000 0.000000 0.000000 0.047816
#
#
# Mechanical properties :
#
#
# Convention : Reuss Voigt Hill
#
# Bulk Modulus (GPa) = 42.35810 63.25795 52.80803
# Shear Modulus (GPa) = 13.94109 18.67121 16.30615
#
# Velocity S-wave (km/s) = 2.88565 3.33950 3.12084
# Velocity P-wave (km/s) = 6.03350 7.25628 6.67296
#
# Compressibility (1/GPa) = 0.02360824
#
# Stress axis : x y z
#
# Youngs Moduli (GPa) = 86.49384 70.24536 27.16759
#
# Poissons Ratio (x) = 0.29734 0.21301
# Poissons Ratio (y) = 0.36612 0.20173
# Poissons Ratio (z) = 0.67817 0.52159
#
# Static dielectric constant tensor:
#      x y z
#    x 3.184100 0.000000 0.000000 
#    y 0.000000 3.286920 0.000000 
#    z 0.000000 0.000000 2.859040 
# 
# 
# High freq. dielectric constant tensor:
#      x y z
#    x 1.635000 0.000000 0.000000 
#    y 0.000000 1.642390 0.000000 
#    z 0.000000 0.000000 1.611100 
# 
# From -- ./inp_files/12567.got.cif
#   From: 2010.03.12/outbox.cif.g09.slc.cpg/sg47_7_cif.got.tgz:12567.got - 2010.04.14 03:12:58.
