data_PCOD8194415
_publ_section_title
;
Structure prediction by ZEFSAII (Michael W. Deem and Ramdas Pophale) SiO2 
 PCOD8194415
Probable space group: P M M M
;
_chemical_formula_sum "Si O2"
_cell_formula_units_Z 56
_cell_length_a 14.284909
_cell_length_b 12.973046
_cell_length_c 17.323290
_cell_angle_alpha 90.000000
_cell_angle_beta 90.000000
_cell_angle_gamma 90.000000
_cell_volume 3210.330995
_symmetry_space_group_name_H-M "P M M M"
_symmetry_group_IT_number 47
_symmetry_cell_setting 'orthorhombic'
loop_
_space_group_symop_operation_xyz
x,y,z
-x,-y,z
x,-y,-z
-x,y,-z
-x,-y,-z
x,y,-z
-x,y,z
x,-y,z
loop_
_atom_site_type_symbol
_atom_site_label
_atom_site_fract_x
_atom_site_fract_y
_atom_site_fract_z
Si Si1 0.391908 0.618660 0.751395
Si Si2 0.109757 0.615146 0.201206
Si Si3 0.767675 0.246688 0.298453
Si Si4 0.609804 0.709157 0.086461
Si Si5 0.106659 0.118842 0.590783
Si Si6 0.102553 0.789579 0.911476
Si Si7 0.271305 0.115512 0.847946
O O1 0.500000 0.650240 0.739814
O O2 0.375245 0.500000 0.729919
O O3 0.330643 0.690306 0.693047
O O4 0.361528 0.634061 0.842070
O O5 0.149528 0.500000 0.189226
O O6 0.156629 0.667717 0.274781
O O7 0.138218 0.683404 0.127200
O O8 0.000000 0.612308 0.215399
O O9 0.812127 0.191280 0.373011
O O10 0.747773 0.157386 0.237183
O O11 0.500000 0.724621 0.086162
O O12 0.654343 0.820176 0.102876
O O13 0.641440 0.669674 0.000000
O O14 0.114909 0.134366 0.500000
O O15 0.000000 0.147975 0.617592
O O16 0.126237 0.000000 0.613398
O O17 0.172218 0.882700 0.892937
O O18 0.000000 0.820988 0.879853
O O19 0.098698 0.763376 0.000000
O O20 0.309304 0.000000 0.842487
#
# Coordination Sequence:
#
# PCOD8194415 Si02
#       7
#     8   8   8   8   8   8   8
#     4   9  18  32  50  72  97 128 168 210 249 289
#     4   9  17  28  43  64  88 116 151 189 232 283
#     4  10  18  31  50  71  96 125 155 192 236 283
#     4   9  18  31  46  66  91 119 157 207 257 298
#     4   9  18  33  55  83 109 130 154 186 228 281
#     4   9  18  30  41  56  80 111 151 196 235 272
#     4  10  20  31  43  61  86 118 155 192 233 284
#
# _framework density 17.443684999999999
#
# number of rings (size 3 to 8) (size 9 to 14) (size 15 to 20)
#    0.000    2.714    0.000    2.143    0.000    2.857 
#    0.000    4.286    0.000    8.571    0.000    7.000 
#    0.000    0.000    0.000    0.000    0.000    0.000 
#
# Total GULP energy -693844.020328 kJ/mol
# GULP energy per Si atom -12390.071792 kJ/mol
# Density = 1.740398 g / cm^3
# Si number density = 17.443685 Si / 1000 Ang^3
#
#
#
# Elastic Constant Matrix: (Units=GPa)
#
#
# Indices 1 2 3 4 5 6 
#
# 1 52.2339 32.9324 29.9253 0.0000 0.0000 0.0000
# 2 32.9324 88.0015 22.5570 0.0000 0.0000 0.0000
# 3 29.9253 22.5570 52.4601 0.0000 0.0000 0.0000
# 4 0.0000 0.0000 0.0000 18.2862 0.0000 0.0000
# 5 0.0000 0.0000 0.0000 0.0000 25.9105 0.0000
# 6 0.0000 0.0000 0.0000 0.0000 0.0000 27.4948
#
#
#
# Elastic Compliance Matrix: (Units=1/GPa)
#
#
# Indices 1 2 3 4 5 6 
#
# 1 0.033309 -0.008536 -0.015331 0.000000 0.000000 0.000000
# 2 -0.008536 0.014958 -0.001563 0.000000 0.000000 0.000000
# 3 -0.015331 -0.001563 0.028479 0.000000 0.000000 0.000000
# 4 0.000000 0.000000 0.000000 0.054686 0.000000 0.000000
# 5 0.000000 0.000000 0.000000 0.000000 0.038594 0.000000
# 6 0.000000 0.000000 0.000000 0.000000 0.000000 0.036371
#
#
# Mechanical properties :
#
#
# Convention : Reuss Voigt Hill
#
# Bulk Modulus (GPa) = 38.62694 40.39166 39.50930
# Shear Modulus (GPa) = 18.80508 21.49035 20.14772
#
# Velocity S-wave (km/s) = 3.28692 3.51377 3.40224
# Velocity P-wave (km/s) = 6.04955 6.29824 6.17515
#
# Compressibility (1/GPa) = 0.02588867
#
# Stress axis : x y z
#
# Youngs Moduli (GPa) = 30.02166 66.85276 35.11309
#
# Poissons Ratio (x) = 0.57062 0.53831
# Poissons Ratio (y) = 0.25625 0.05488
# Poissons Ratio (z) = 0.46026 0.10448
#
# Static dielectric constant tensor:
#      x y z
#    x 3.486610 0.000000 0.000000 
#    y 0.000000 3.202460 0.000000 
#    z 0.000000 0.000000 2.951040 
# 
# 
# High freq. dielectric constant tensor:
#      x y z
#    x 1.684790 0.000000 0.000000 
#    y 0.000000 1.667590 0.000000 
#    z 0.000000 0.000000 1.635220 
# 
# From -- ./inp_files/17677.got.cif
#   From: 2010.03.12/outbox.cif.g09.slc.cpg/sg47_9_cif.got.tgz:17677.got - 2010.04.14 03:12:58.
