data_PCOD8194611
_publ_section_title
;
Structure prediction by ZEFSAII (Michael W. Deem and Ramdas Pophale) SiO2 
 PCOD8194611
Probable space group: P M M M
;
_chemical_formula_sum "Si O2"
_cell_formula_units_Z 52
_cell_length_a 13.543315
_cell_length_b 9.180821
_cell_length_c 23.964697
_cell_angle_alpha 90.000000
_cell_angle_beta 90.000000
_cell_angle_gamma 90.000000
_cell_volume 2979.740487
_symmetry_space_group_name_H-M "P M M M"
_symmetry_group_IT_number 47
_symmetry_cell_setting 'orthorhombic'
loop_
_space_group_symop_operation_xyz
x,y,z
-x,-y,z
x,-y,-z
-x,y,-z
-x,-y,-z
x,y,-z
-x,y,z
x,-y,z
loop_
_atom_site_type_symbol
_atom_site_label
_atom_site_fract_x
_atom_site_fract_y
_atom_site_fract_z
Si Si1 0.108008 0.326716 0.147426
Si Si2 0.610575 0.173015 0.561601
Si Si3 0.111747 0.335479 0.273056
Si Si4 0.389305 0.337076 0.760145
Si Si5 0.316607 0.666054 0.881648
Si Si6 0.277341 0.827799 0.668822
Si Si7 0.500000 0.167948 0.065651
O O1 0.106633 0.500000 0.150926
O O2 0.120315 0.268026 0.210769
O O3 0.202076 0.279539 0.108300
O O4 0.000000 0.273038 0.123772
O O5 0.645551 0.225637 0.500000
O O6 0.500000 0.232445 0.573799
O O7 0.685945 0.230968 0.608571
O O8 0.607630 0.000000 0.563592
O O9 0.154064 0.500000 0.273394
O O10 0.171781 0.240640 0.317442
O O11 0.000000 0.332939 0.294037
O O12 0.500000 0.300596 0.778619
O O13 0.380669 0.500000 0.735096
O O14 0.324013 0.323869 0.815193
O O15 0.356269 0.220246 0.715000
O O16 0.331892 0.500000 0.902472
O O17 0.398648 0.762877 0.911700
O O18 0.268193 0.000000 0.669626
O O19 0.500000 0.000000 0.083423
O O20 0.500000 0.189370 0.000000
#
# Coordination Sequence:
#
# PCOD8194611 Si02
#       7
#     8   8   8   8   8   8   4
#     4   8  14  27  50  77 102 130 165 205 247 293
#     4   8  15  29  46  63  88 125 166 204 244 294
#     4   9  17  31  49  67  95 135 168 194 238 302
#     4  10  19  31  46  69 103 137 164 195 243 301
#     4  10  18  33  56  78 102 134 175 212 242 293
#     4  11  20  28  45  73 100 124 159 208 257 303
#     4  11  25  41  55  75 107 143 176 213 258 301
#
# _framework density 17.451184000000001
#
# number of rings (size 3 to 8) (size 9 to 14) (size 15 to 20)
#    0.000    2.538    2.308    2.538    0.000    2.462 
#    0.000    0.000    0.000    3.231    0.000   11.846 
#    0.000    0.000    0.000    0.000    0.000    0.000 
#
# Total GULP energy -644293.783626 kJ/mol
# GULP energy per Si atom -12390.265070 kJ/mol
# Density = 1.741146 g / cm^3
# Si number density = 17.451184 Si / 1000 Ang^3
#
#
#
# Elastic Constant Matrix: (Units=GPa)
#
#
# Indices 1 2 3 4 5 6 
#
# 1 154.2425 40.7696 43.0910 0.0000 0.0000 0.0000
# 2 40.7696 58.0207 30.4932 0.0000 0.0000 0.0000
# 3 43.0910 30.4932 59.0343 0.0000 0.0000 0.0000
# 4 0.0000 0.0000 0.0000 -7.5879 0.0000 0.0000
# 5 0.0000 0.0000 0.0000 0.0000 13.5634 0.0000
# 6 0.0000 0.0000 0.0000 0.0000 0.0000 22.3189
#
#
#
# Elastic Compliance Matrix: (Units=1/GPa)
#
#
# Indices 1 2 3 4 5 6 
#
# 1 0.008720 -0.003819 -0.004392 0.000000 0.000000 0.000000
# 2 -0.003819 0.025330 -0.010296 0.000000 0.000000 0.000000
# 3 -0.004392 -0.010296 0.025464 0.000000 0.000000 0.000000
# 4 0.000000 0.000000 0.000000 -0.131789 0.000000 0.000000
# 5 0.000000 0.000000 0.000000 0.000000 0.073728 0.000000
# 6 0.000000 0.000000 0.000000 0.000000 0.000000 0.044805
#
#
# Mechanical properties :
#
#
# Convention : Reuss Voigt Hill
#
# Bulk Modulus (GPa) = 44.44706 55.55613 50.00160
# Shear Modulus (GPa) = 55.08302 16.12179 35.60241
#
# Velocity S-wave (km/s) = 5.62429 3.04274 4.52166
# Velocity P-wave (km/s) = 8.22809 6.65197 7.48165
#
# Compressibility (1/GPa) = 0.02249868
#
# Stress axis : x y z
#
# Youngs Moduli (GPa) = 114.68199 39.47917 39.27149
#
# Poissons Ratio (x) = 0.15076 0.17249
# Poissons Ratio (y) = 0.43794 0.40435
# Poissons Ratio (z) = 0.50372 0.40649
#
# Static dielectric constant tensor:
#      x y z
#    x 3.659400 0.000000 0.000000 
#    y 0.000000 2.939700 0.000000 
#    z 0.000000 0.000000 3.113450 
# 
# 
# High freq. dielectric constant tensor:
#      x y z
#    x 1.692050 0.000000 0.000000 
#    y 0.000000 1.638900 0.000000 
#    z 0.000000 0.000000 1.643740 
# 
# From -- ./inp_files/32676.got.cif
#   From: 2010.03.12/outbox.cif.g09.slc.cpg/sg47_17_cif.got.tgz:32676.got - 2010.04.14 03:12:58.
