data_PCOD8194314
_publ_section_title
;
Structure prediction by ZEFSAII (Michael W. Deem and Ramdas Pophale) SiO2 
 PCOD8194314
Probable space group: P M M M
;
_chemical_formula_sum "Si O2"
_cell_formula_units_Z 52
_cell_length_a 11.923200
_cell_length_b 27.189366
_cell_length_c 9.437581
_cell_angle_alpha 90.000000
_cell_angle_beta 90.000000
_cell_angle_gamma 90.000000
_cell_volume 3059.515106
_symmetry_space_group_name_H-M "P M M M"
_symmetry_group_IT_number 47
_symmetry_cell_setting 'orthorhombic'
loop_
_space_group_symop_operation_xyz
x,y,z
-x,-y,z
x,-y,-z
-x,y,-z
-x,-y,-z
x,y,-z
-x,y,z
x,-y,z
loop_
_atom_site_type_symbol
_atom_site_label
_atom_site_fract_x
_atom_site_fract_y
_atom_site_fract_z
Si Si1 0.000000 0.554886 0.833133
Si Si2 0.367400 0.500000 0.666722
Si Si3 0.371998 0.316340 0.835695
Si Si4 0.500000 0.944556 0.331293
Si Si5 0.630777 0.777448 0.337320
Si Si6 0.755840 0.414823 0.833123
Si Si7 0.710242 0.882754 0.332379
Si Si8 0.868005 0.945231 0.840922
O O1 0.886801 0.583255 0.786102
O O2 0.000000 0.500000 0.766095
O O3 0.000000 0.549966 0.000000
O O4 0.500000 0.500000 0.692340
O O5 0.338392 0.500000 0.500000
O O6 0.315447 0.547559 0.740688
O O7 0.500000 0.329462 0.791260
O O8 0.326948 0.268866 0.752753
O O9 0.290591 0.361094 0.796660
O O10 0.365748 0.303494 0.000000
O O11 0.500000 0.944671 0.500000
O O12 0.608134 0.915732 0.274077
O O13 0.500000 0.000000 0.270860
O O14 0.656687 0.765509 0.500000
O O15 0.500000 0.787660 0.313225
O O16 0.695739 0.826099 0.286278
O O17 0.741093 0.427373 0.000000
O O18 0.719275 0.886797 0.500000
O O19 0.822209 0.903656 0.263265
O O20 0.000000 0.940478 0.837304
O O21 0.831797 0.000000 0.790138
O O22 0.823525 0.936068 0.000000
#
# Coordination Sequence:
#
# PCOD8194314 Si02
#       8
#     4   4   8   4   8   8   8   8
#     4   9  16  30  54  80 100 128 170 208 241 286
#     4  11  23  34  47  74 110 139 166 203 250 301
#     4   9  18  31  49  74  99 126 167 211 249 291
#     4   9  16  26  43  71 105 131 155 196 245 290
#     4   9  17  31  50  72 100 133 164 198 246 301
#     4  10  19  34  55  76 101 134 171 210 248 291
#     4  10  18  30  50  75  99 128 167 204 242 292
#     4   9  19  35  51  68  95 130 164 202 251 300
#
# _framework density 16.996157
#
# number of rings (size 3 to 8) (size 9 to 14) (size 15 to 20)
#    0.000    2.538    1.538    1.615    0.000    3.692 
#    0.000    3.462    1.692    1.385    0.000    0.000 
#    0.000    0.000    0.000    0.000    0.000    0.000 
#
# Total GULP energy -644725.913312 kJ/mol
# GULP energy per Si atom -12398.575256 kJ/mol
# Density = 1.695747 g / cm^3
# Si number density = 16.996157 Si / 1000 Ang^3
#
#
#
# Elastic Constant Matrix: (Units=GPa)
#
#
# Indices 1 2 3 4 5 6 
#
# 1 89.0135 69.3544 37.9546 0.0000 0.0000 0.0000
# 2 69.3544 161.3377 62.5630 0.0000 0.0000 0.0000
# 3 37.9546 62.5630 52.0541 0.0000 0.0000 0.0000
# 4 0.0000 0.0000 0.0000 30.7737 0.0000 0.0000
# 5 0.0000 0.0000 0.0000 0.0000 21.6018 0.0000
# 6 0.0000 0.0000 0.0000 0.0000 0.0000 27.3938
#
#
#
# Elastic Compliance Matrix: (Units=1/GPa)
#
#
# Indices 1 2 3 4 5 6 
#
# 1 0.018249 -0.005028 -0.007262 0.000000 0.000000 0.000000
# 2 -0.005028 0.012994 -0.011951 0.000000 0.000000 0.000000
# 3 -0.007262 -0.011951 0.038870 0.000000 0.000000 0.000000
# 4 0.000000 0.000000 0.000000 0.032495 0.000000 0.000000
# 5 0.000000 0.000000 0.000000 0.000000 0.046292 0.000000
# 6 0.000000 0.000000 0.000000 0.000000 0.000000 0.036505
#
#
# Mechanical properties :
#
#
# Convention : Reuss Voigt Hill
#
# Bulk Modulus (GPa) = 46.23383 71.34993 58.79188
# Shear Modulus (GPa) = 20.73850 24.78941 22.76396
#
# Velocity S-wave (km/s) = 3.49691 3.82321 3.66370
# Velocity P-wave (km/s) = 6.60046 7.84605 7.25005
#
# Compressibility (1/GPa) = 0.02162918
#
# Stress axis : x y z
#
# Youngs Moduli (GPa) = 54.79838 76.95820 25.72707
#
# Poissons Ratio (x) = 0.38698 0.18683
# Poissons Ratio (y) = 0.27555 0.30746
# Poissons Ratio (z) = 0.39796 0.91972
#
# Static dielectric constant tensor:
#      x y z
#    x 3.157490 0.000000 0.000000 
#    y 0.000000 3.290830 0.000000 
#    z 0.000000 0.000000 3.025540 
# 
# 
# High freq. dielectric constant tensor:
#      x y z
#    x 1.645040 0.000000 0.000000 
#    y 0.000000 1.659510 0.000000 
#    z 0.000000 0.000000 1.637600 
# 
# From -- ./inp_files/4640.got.cif
#   From: 2010.03.12/outbox.cif.g09.slc.cpg/sg47_3_cif.got.tgz:4640.got - 2010.04.14 03:12:58.
