data_PCOD8194313
_publ_section_title
;
Structure prediction by ZEFSAII (Michael W. Deem and Ramdas Pophale) SiO2 
 PCOD8194313
Probable space group: P M M M
;
_chemical_formula_sum "Si O2"
_cell_formula_units_Z 52
_cell_length_a 24.259474
_cell_length_b 12.957992
_cell_length_c 9.891441
_cell_angle_alpha 90.000000
_cell_angle_beta 90.000000
_cell_angle_gamma 90.000000
_cell_volume 3109.414737
_symmetry_space_group_name_H-M "P M M M"
_symmetry_group_IT_number 47
_symmetry_cell_setting 'orthorhombic'
loop_
_space_group_symop_operation_xyz
x,y,z
-x,-y,z
x,-y,-z
-x,y,-z
-x,-y,-z
x,y,-z
-x,y,z
x,-y,z
loop_
_atom_site_type_symbol
_atom_site_label
_atom_site_fract_x
_atom_site_fract_y
_atom_site_fract_z
Si Si1 0.172427 0.118324 0.352562
Si Si2 0.618612 0.209061 0.158260
Si Si3 0.938426 0.212159 0.656036
Si Si4 0.264203 0.880529 0.153566
Si Si5 0.065251 0.387035 0.148412
Si Si6 0.562468 0.000000 0.840038
Si Si7 0.435696 0.380571 0.343558
O O1 0.182140 0.170678 0.500000
O O2 0.107453 0.125565 0.313898
O O3 0.214286 0.166079 0.243471
O O4 0.187550 0.000000 0.361249
O O5 0.683635 0.192764 0.178914
O O6 0.599614 0.307238 0.245404
O O7 0.589804 0.105042 0.215089
O O8 0.604177 0.228073 0.000000
O O9 0.941345 0.242803 0.500000
O O10 0.914796 0.310326 0.735982
O O11 0.000000 0.176630 0.704707
O O12 0.279469 0.000000 0.186767
O O13 0.243951 0.872378 0.000000
O O14 0.090581 0.500000 0.177771
O O15 0.000000 0.394363 0.151826
O O16 0.084581 0.348268 0.000000
O O17 0.500000 0.000000 0.790616
O O18 0.569279 0.000000 0.000000
O O19 0.421681 0.355843 0.500000
O O20 0.500000 0.360227 0.315519
O O21 0.421213 0.500000 0.311467
#
# Coordination Sequence:
#
# PCOD8194313 Si02
#       7
#     8   8   8   8   8   4   8
#     4   9  18  31  46  65  90 121 157 192 227 274
#     4  10  18  30  50  75  99 126 162 202 241 285
#     4   9  17  28  43  65  91 117 147 186 231 277
#     4   9  17  31  49  69  94 122 154 192 236 284
#     4   8  14  25  41  61  85 112 140 171 212 266
#     4   9  16  26  43  71 105 131 148 179 234 288
#     4   9  19  35  51  69  99 137 171 203 242 286
#
# _framework density 16.723403999999999
#
# number of rings (size 3 to 8) (size 9 to 14) (size 15 to 20)
#    0.000    3.000    0.769    1.385    0.000    3.077 
#    0.000    4.231    0.000    2.308    0.000    4.308 
#    0.000    0.000    0.000    0.000    0.000    0.000 
#
# Total GULP energy -644287.683328 kJ/mol
# GULP energy per Si atom -12390.147756 kJ/mol
# Density = 1.668534 g / cm^3
# Si number density = 16.723404 Si / 1000 Ang^3
#
#
#
# Elastic Constant Matrix: (Units=GPa)
#
#
# Indices 1 2 3 4 5 6 
#
# 1 97.3222 40.4223 56.1347 0.0000 0.0000 0.0000
# 2 40.4223 69.9422 47.1381 0.0000 0.0000 0.0000
# 3 56.1347 47.1381 77.1502 0.0000 0.0000 0.0000
# 4 0.0000 0.0000 0.0000 26.2509 0.0000 0.0000
# 5 0.0000 0.0000 0.0000 0.0000 25.8684 0.0000
# 6 0.0000 0.0000 0.0000 0.0000 0.0000 17.6028
#
#
#
# Elastic Compliance Matrix: (Units=1/GPa)
#
#
# Indices 1 2 3 4 5 6 
#
# 1 0.017996 -0.002679 -0.011457 0.000000 0.000000 0.000000
# 2 -0.002679 0.024705 -0.013145 0.000000 0.000000 0.000000
# 3 -0.011457 -0.013145 0.029330 0.000000 0.000000 0.000000
# 4 0.000000 0.000000 0.000000 0.038094 0.000000 0.000000
# 5 0.000000 0.000000 0.000000 0.000000 0.038657 0.000000
# 6 0.000000 0.000000 0.000000 0.000000 0.000000 0.056809
#
#
# Mechanical properties :
#
#
# Convention : Reuss Voigt Hill
#
# Bulk Modulus (GPa) = 57.24786 59.08942 58.16864
# Shear Modulus (GPa) = 18.79853 20.65904 19.72878
#
# Velocity S-wave (km/s) = 3.35637 3.51855 3.43842
# Velocity P-wave (km/s) = 7.02331 7.20534 7.11491
#
# Compressibility (1/GPa) = 0.01746790
#
# Stress axis : x y z
#
# Youngs Moduli (GPa) = 55.56677 40.47715 34.09494
#
# Poissons Ratio (x) = 0.10844 0.39064
# Poissons Ratio (y) = 0.14886 0.44819
# Poissons Ratio (z) = 0.63665 0.53209
#
# Static dielectric constant tensor:
#      x y z
#    x 3.058310 0.000000 0.000000 
#    y 0.000000 3.146750 0.000000 
#    z 0.000000 0.000000 3.282820 
# 
# 
# High freq. dielectric constant tensor:
#      x y z
#    x 1.630790 0.000000 0.000000 
#    y 0.000000 1.622580 0.000000 
#    z 0.000000 0.000000 1.639960 
# 
# From -- ./inp_files/12504.got.cif
#   From: 2010.03.12/outbox.cif.g09.slc.cpg/sg47_7_cif.got.tgz:12504.got - 2010.04.14 03:12:58.
