data_PCOD8194036
_publ_section_title
;
Structure prediction by ZEFSAII (Michael W. Deem and Ramdas Pophale) SiO2 
 PCOD8194036
Probable space group: P M M M
;
_chemical_formula_sum "Si O2"
_cell_formula_units_Z 52
_cell_length_a 13.262311
_cell_length_b 23.652650
_cell_length_c 10.171359
_cell_angle_alpha 90.000000
_cell_angle_beta 90.000000
_cell_angle_gamma 90.000000
_cell_volume 3190.641402
_symmetry_space_group_name_H-M "P M M M"
_symmetry_group_IT_number 47
_symmetry_cell_setting 'orthorhombic'
loop_
_space_group_symop_operation_xyz
x,y,z
-x,-y,z
x,-y,-z
-x,y,-z
-x,-y,-z
x,y,-z
-x,y,z
x,-y,z
loop_
_atom_site_type_symbol
_atom_site_label
_atom_site_fract_x
_atom_site_fract_y
_atom_site_fract_z
Si Si1 0.882037 0.843775 0.349109
Si Si2 0.880360 0.937061 0.853073
Si Si3 0.119769 0.437271 0.500000
Si Si4 0.386496 0.650541 0.351460
Si Si5 0.803045 0.276662 0.349072
Si Si6 0.302070 0.565096 0.145467
Si Si7 0.885461 0.619507 0.234051
O O1 0.863964 0.861987 0.500000
O O2 0.839434 0.893329 0.255542
O O3 0.816968 0.788626 0.311456
O O4 0.000000 0.831076 0.324174
O O5 0.000000 0.938227 0.846374
O O6 0.838843 0.000000 0.821016
O O7 0.845602 0.918750 0.000000
O O8 0.165461 0.500000 0.500000
O O9 0.157625 0.404891 0.371813
O O10 0.000000 0.438829 0.500000
O O11 0.371680 0.627206 0.500000
O O12 0.500000 0.673013 0.330660
O O13 0.312515 0.703829 0.326550
O O14 0.367531 0.599653 0.250071
O O15 0.838378 0.285606 0.500000
O O16 0.874438 0.312935 0.250587
O O17 0.296067 0.500000 0.190731
O O18 0.189108 0.591503 0.129172
O O19 0.351172 0.569633 0.000000
O O20 0.000000 0.602826 0.199257
#
# Coordination Sequence:
#
# PCOD8194036 Si02
#       7
#     8   8   4   8   8   8   8
#     4   9  16  24  38  62  90 120 151 178 207 250
#     4   8  14  25  39  55  81 120 159 189 216 242
#     4   9  16  24  38  62  83 105 144 186 217 244
#     4   9  19  36  56  73  86 106 141 185 229 272
#     4   9  16  28  45  66  92 117 142 178 225 271
#     4  10  22  36  48  66  91 117 143 175 223 277
#     4  10  18  29  45  64  89 121 152 181 213 258
#
# _framework density 16.297663
#
# number of rings (size 3 to 8) (size 9 to 14) (size 15 to 20)
#    0.000    2.846    0.769    1.385    1.077    3.077 
#    0.000    6.923    0.000    3.692    0.000    0.000 
#    0.000    0.615    0.000    7.692    0.000    1.538 
#
# Total GULP energy -644494.705785 kJ/mol
# GULP energy per Si atom -12394.128957 kJ/mol
# Density = 1.626057 g / cm^3
# Si number density = 16.297663 Si / 1000 Ang^3
#
#
#
# Elastic Constant Matrix: (Units=GPa)
#
#
# Indices 1 2 3 4 5 6 
#
# 1 57.4172 23.8294 21.9318 0.0000 0.0000 0.0000
# 2 23.8294 125.6998 61.3093 0.0000 0.0000 0.0000
# 3 21.9318 61.3093 80.1003 0.0000 0.0000 0.0000
# 4 0.0000 0.0000 0.0000 22.2720 0.0000 0.0000
# 5 0.0000 0.0000 0.0000 0.0000 9.8061 0.0000
# 6 0.0000 0.0000 0.0000 0.0000 0.0000 13.1131
#
#
#
# Elastic Compliance Matrix: (Units=1/GPa)
#
#
# Indices 1 2 3 4 5 6 
#
# 1 0.019692 -0.001761 -0.004044 0.000000 0.000000 0.000000
# 2 -0.001761 0.012852 -0.009355 0.000000 0.000000 0.000000
# 3 -0.004044 -0.009355 0.020752 0.000000 0.000000 0.000000
# 4 0.000000 0.000000 0.000000 0.044899 0.000000 0.000000
# 5 0.000000 0.000000 0.000000 0.000000 0.101978 0.000000
# 6 0.000000 0.000000 0.000000 0.000000 0.000000 0.076259
#
#
# Mechanical properties :
#
#
# Convention : Reuss Voigt Hill
#
# Bulk Modulus (GPa) = 43.52277 53.03980 48.28129
# Shear Modulus (GPa) = 15.90275 19.44802 17.67539
#
# Velocity S-wave (km/s) = 3.12712 3.45817 3.29680
# Velocity P-wave (km/s) = 6.30883 6.96852 6.64687
#
# Compressibility (1/GPa) = 0.02297648
#
# Stress axis : x y z
#
# Youngs Moduli (GPa) = 50.78250 77.80856 48.18806
#
# Poissons Ratio (x) = 0.13698 0.19488
# Poissons Ratio (y) = 0.08940 0.45080
# Poissons Ratio (z) = 0.20537 0.72790
#
# Static dielectric constant tensor:
#      x y z
#    x 2.815310 0.000000 0.000000 
#    y 0.000000 3.113220 0.000000 
#    z 0.000000 0.000000 3.110690 
# 
# 
# High freq. dielectric constant tensor:
#      x y z
#    x 1.590110 0.000000 0.000000 
#    y 0.000000 1.614000 0.000000 
#    z 0.000000 0.000000 1.624120 
# 
# From -- ./inp_files/7666.got.cif
#   From: 2010.03.12/outbox.cif.g09.slc.cpg/sg47_4_cif.got.tgz:7666.got - 2010.04.14 03:12:58.
