data_PCOD8194833
_publ_section_title
;
Structure prediction by ZEFSAII (Michael W. Deem and Ramdas Pophale) SiO2 
 PCOD8194833
Probable space group: P M M M
;
_chemical_formula_sum "Si O2"
_cell_formula_units_Z 36
_cell_length_a 12.548879
_cell_length_b 19.588415
_cell_length_c 9.092685
_cell_angle_alpha 90.000000
_cell_angle_beta 90.000000
_cell_angle_gamma 90.000000
_cell_volume 2235.096992
_symmetry_space_group_name_H-M "P M M M"
_symmetry_group_IT_number 47
_symmetry_cell_setting 'orthorhombic'
loop_
_space_group_symop_operation_xyz
x,y,z
-x,-y,z
x,-y,-z
-x,y,-z
-x,-y,-z
x,y,-z
-x,y,z
x,-y,z
loop_
_atom_site_type_symbol
_atom_site_label
_atom_site_fract_x
_atom_site_fract_y
_atom_site_fract_z
Si Si1 0.375505 0.792563 0.671600
Si Si2 0.701850 0.338366 0.825731
Si Si3 0.876434 0.578279 0.668740
Si Si4 0.500000 0.576385 0.174720
Si Si5 0.373546 0.925057 0.165150
O O1 0.353723 0.785988 0.500000
O O2 0.500000 0.783152 0.710345
O O3 0.307281 0.736154 0.755904
O O4 0.332587 0.866396 0.724944
O O5 0.811393 0.372614 0.775731
O O6 0.604330 0.384665 0.767432
O O7 0.700417 0.331039 0.000000
O O8 0.844293 0.592090 0.500000
O O9 0.851948 0.500000 0.710598
O O10 0.000000 0.594655 0.693575
O O11 0.500000 0.500000 0.240753
O O12 0.500000 0.573713 0.000000
O O13 0.500000 0.926463 0.167314
O O14 0.330933 0.000000 0.215542
O O15 0.333336 0.908951 0.000000
#
# Coordination Sequence:
#
# PCOD8194833 Si02
#       5
#     8   8   8   4   8
#     4  10  19  29  42  62  92 126 159 192 229 277
#     4  11  20  31  48  68  94 124 156 195 234 278
#     4   9  19  36  54  70  91 119 151 192 242 289
#     4   9  18  30  43  63  90 119 150 187 231 274
#     4   8  14  25  41  60  84 117 156 193 228 269
#
# _framework density 16.106684000000001
#
# number of rings (size 3 to 8) (size 9 to 14) (size 15 to 20)
#    0.000    2.556    1.111    3.333    0.000    3.111 
#    0.000    3.333    0.000    2.667    0.000    0.000 
#    0.000    0.889    0.000    9.333    0.000    4.444 
#
# Total GULP energy -446358.271609 kJ/mol
# GULP energy per Si atom -12398.840878 kJ/mol
# Density = 1.607002 g / cm^3
# Si number density = 16.106684 Si / 1000 Ang^3
#
#
#
# Elastic Constant Matrix: (Units=GPa)
#
#
# Indices 1 2 3 4 5 6 
#
# 1 51.5884 41.9698 31.9244 0.0000 0.0000 0.0000
# 2 41.9698 137.5664 59.7757 0.0000 0.0000 0.0000
# 3 31.9244 59.7757 80.1159 0.0000 0.0000 0.0000
# 4 0.0000 0.0000 0.0000 30.1071 0.0000 0.0000
# 5 0.0000 0.0000 0.0000 0.0000 21.3097 0.0000
# 6 0.0000 0.0000 0.0000 0.0000 0.0000 15.3637
#
#
#
# Elastic Compliance Matrix: (Units=1/GPa)
#
#
# Indices 1 2 3 4 5 6 
#
# 1 0.028310 -0.005527 -0.007157 0.000000 0.000000 0.000000
# 2 -0.005527 0.011836 -0.006628 0.000000 0.000000 0.000000
# 3 -0.007157 -0.006628 0.020279 0.000000 0.000000 0.000000
# 4 0.000000 0.000000 0.000000 0.033215 0.000000 0.000000
# 5 0.000000 0.000000 0.000000 0.000000 0.046927 0.000000
# 6 0.000000 0.000000 0.000000 0.000000 0.000000 0.065089
#
#
# Mechanical properties :
#
#
# Convention : Reuss Voigt Hill
#
# Bulk Modulus (GPa) = 45.87176 59.62339 52.74757
# Shear Modulus (GPa) = 19.87707 22.39615 21.13661
#
# Velocity S-wave (km/s) = 3.51677 3.73297 3.62648
# Velocity P-wave (km/s) = 6.71059 7.46179 7.09613
#
# Compressibility (1/GPa) = 0.02179991
#
# Stress axis : x y z
#
# Youngs Moduli (GPa) = 35.32364 84.49075 49.31144
#
# Poissons Ratio (x) = 0.46699 0.35292
# Poissons Ratio (y) = 0.19524 0.32685
# Poissons Ratio (z) = 0.25281 0.56003
#
# Static dielectric constant tensor:
#      x y z
#    x 2.662760 0.000000 0.000000 
#    y 0.000000 3.321560 0.000000 
#    z 0.000000 0.000000 2.970480 
# 
# 
# High freq. dielectric constant tensor:
#      x y z
#    x 1.568680 0.000000 0.000000 
#    y 0.000000 1.629540 0.000000 
#    z 0.000000 0.000000 1.617500 
# 
# From -- ./inp_files/3719.got.cif
#   From: 2010.03.12/outbox.cif.g09.slc.cpg/sg47_2_cif.got.tgz:3719.got - 2010.04.14 03:12:58.
