data_PCOD8194814
_publ_section_title
;
Structure prediction by ZEFSAII (Michael W. Deem and Ramdas Pophale) SiO2 
 PCOD8194814
Probable space group: P M M M
;
_chemical_formula_sum "Si O2"
_cell_formula_units_Z 64
_cell_length_a 14.432149
_cell_length_b 29.175182
_cell_length_c 9.515986
_cell_angle_alpha 90.000000
_cell_angle_beta 90.000000
_cell_angle_gamma 90.000000
_cell_volume 4006.806525
_symmetry_space_group_name_H-M "P M M M"
_symmetry_group_IT_number 47
_symmetry_cell_setting 'orthorhombic'
loop_
_space_group_symop_operation_xyz
x,y,z
-x,-y,z
x,-y,-z
-x,y,-z
-x,-y,-z
x,y,-z
-x,y,z
x,-y,z
loop_
_atom_site_type_symbol
_atom_site_label
_atom_site_fract_x
_atom_site_fract_y
_atom_site_fract_z
Si Si1 0.105024 0.774656 0.162667
Si Si2 0.108075 0.136613 0.338267
Si Si3 0.603458 0.899448 0.662428
Si Si4 0.218189 0.950079 0.335511
Si Si5 0.395756 0.548328 0.666551
Si Si6 0.608698 0.648091 0.665902
Si Si7 0.393176 0.186991 0.160995
Si Si8 0.283529 0.723064 0.837289
O O1 0.137482 0.818612 0.251465
O O2 0.174078 0.731963 0.193100
O O3 0.000000 0.759643 0.202203
O O4 0.112324 0.789013 0.000000
O O5 0.137797 0.144639 0.500000
O O6 0.157843 0.091627 0.272440
O O7 0.000000 0.127317 0.323966
O O8 0.604882 0.885489 0.500000
O O9 0.500000 0.913990 0.710729
O O10 0.672747 0.941295 0.692979
O O11 0.640216 0.855464 0.746095
O O12 0.197209 0.952142 0.500000
O O13 0.193182 0.000000 0.268816
O O14 0.396844 0.549253 0.500000
O O15 0.500000 0.546545 0.723544
O O16 0.345982 0.500000 0.717095
O O17 0.354448 0.597321 0.715431
O O18 0.620825 0.655122 0.500000
O O19 0.500000 0.655175 0.706462
O O20 0.677077 0.682283 0.744345
O O21 0.500000 0.198376 0.189090
O O22 0.336231 0.231079 0.207630
O O23 0.374014 0.174105 0.000000
O O24 0.301261 0.711006 0.000000
#
# Coordination Sequence:
#
# PCOD8194814 Si02
#       8
#     8   8   8   8   8   8   8   8
#     4   9  18  32  48  64  82 107 140 174 208 250
#     4   9  17  29  46  66  83 100 126 160 198 241
#     4   9  17  28  42  59  76  97 129 164 192 221
#     4   9  17  28  42  61  83 103 123 152 192 236
#     4   7  10  19  36  56  79 110 147 181 208 237
#     4   9  17  27  40  62  90 118 148 179 209 242
#     4   9  17  28  41  57  78 105 134 160 191 237
#     4  10  19  29  42  60  84 114 142 170 210 255
#
# _framework density 15.97282
#
# number of rings (size 3 to 8) (size 9 to 14) (size 15 to 20)
#    0.000    3.125    0.000    2.250    0.000    2.250 
#    0.000    3.750    0.000    1.875    0.000    5.250 
#    0.000    0.500    0.000    6.250    0.000    0.250 
#
# Total GULP energy -792890.492391 kJ/mol
# GULP energy per Si atom -12388.913944 kJ/mol
# Density = 1.593647 g / cm^3
# Si number density = 15.972820 Si / 1000 Ang^3
#
#
#
# Elastic Constant Matrix: (Units=GPa)
#
#
# Indices 1 2 3 4 5 6 
#
# 1 61.9921 53.7489 22.4544 0.0000 0.0000 0.0000
# 2 53.7489 125.1090 42.4178 0.0000 0.0000 0.0000
# 3 22.4544 42.4178 34.6252 0.0000 0.0000 0.0000
# 4 0.0000 0.0000 0.0000 -0.4467 0.0000 0.0000
# 5 0.0000 0.0000 0.0000 0.0000 16.2174 0.0000
# 6 0.0000 0.0000 0.0000 0.0000 0.0000 16.9855
#
#
#
# Elastic Compliance Matrix: (Units=1/GPa)
#
#
# Indices 1 2 3 4 5 6 
#
# 1 0.026305 -0.009437 -0.005498 0.000000 0.000000 0.000000
# 2 -0.009437 0.017057 -0.014776 0.000000 0.000000 0.000000
# 3 -0.005498 -0.014776 0.050547 0.000000 0.000000 0.000000
# 4 0.000000 0.000000 0.000000 -2.238866 0.000000 0.000000
# 5 0.000000 0.000000 0.000000 0.000000 0.061662 0.000000
# 6 0.000000 0.000000 0.000000 0.000000 0.000000 0.058874
#
#
# Mechanical properties :
#
#
# Convention : Reuss Voigt Hill
#
# Bulk Modulus (GPa) = 28.99587 50.99652 39.99619
# Shear Modulus (GPa) = -2.55950 13.42494 5.43272
#
# Velocity S-wave (km/s) = -1.26724 2.90226 1.84624
# Velocity P-wave (km/s) = 4.00643 6.57474 5.44420
#
# Compressibility (1/GPa) = 0.03448767
#
# Stress axis : x y z
#
# Youngs Moduli (GPa) = 38.01630 58.62684 19.78340
#
# Poissons Ratio (x) = 0.55325 0.10876
# Poissons Ratio (y) = 0.35875 0.29232
# Poissons Ratio (z) = 0.20900 0.86627
#
# Static dielectric constant tensor:
#      x y z
#    x 3.042430 0.000000 0.000000 
#    y 0.000000 3.378840 0.000000 
#    z 0.000000 0.000000 2.829010 
# 
# 
# High freq. dielectric constant tensor:
#      x y z
#    x 1.599220 0.000000 0.000000 
#    y 0.000000 1.607780 0.000000 
#    z 0.000000 0.000000 1.586420 
# 
# From -- ./inp_files/8313.got.cif
#   From: 2010.03.12/outbox.cif.g09.slc.cpg/sg47_5_cif.got.tgz:8313.got - 2010.04.14 03:12:58.
