data_PCOD8194770
_publ_section_title
;
Structure prediction by ZEFSAII (Michael W. Deem and Ramdas Pophale) SiO2 
 PCOD8194770
Probable space group: P M M M
;
_chemical_formula_sum "Si O2"
_cell_formula_units_Z 36
_cell_length_a 20.670917
_cell_length_b 9.112175
_cell_length_c 13.731678
_cell_angle_alpha 90.000000
_cell_angle_beta 90.000000
_cell_angle_gamma 90.000000
_cell_volume 2586.457853
_symmetry_space_group_name_H-M "P M M M"
_symmetry_group_IT_number 47
_symmetry_cell_setting 'orthorhombic'
loop_
_space_group_symop_operation_xyz
x,y,z
-x,-y,z
x,-y,-z
-x,y,-z
-x,-y,-z
x,y,-z
-x,y,z
x,-y,z
loop_
_atom_site_type_symbol
_atom_site_label
_atom_site_fract_x
_atom_site_fract_y
_atom_site_fract_z
Si Si1 0.678885 0.169250 0.114907
Si Si2 0.805947 0.664539 0.884002
Si Si3 0.500000 0.826747 0.612858
Si Si4 0.928767 0.164965 0.115802
Si Si5 0.428645 0.666126 0.765467
O O1 0.745905 0.238595 0.152931
O O2 0.619703 0.252498 0.163310
O O3 0.677907 0.000000 0.145717
O O4 0.671852 0.189256 0.000000
O O5 0.798226 0.500000 0.843548
O O6 0.872670 0.731222 0.841095
O O7 0.808218 0.664982 0.000000
O O8 0.500000 0.786005 0.500000
O O9 0.435862 0.754618 0.662832
O O10 0.500000 0.000000 0.630918
O O11 0.000000 0.221401 0.149187
O O12 0.917322 0.000000 0.154362
O O13 0.925138 0.164881 0.000000
O O14 0.500000 0.664099 0.815807
O O15 0.404511 0.500000 0.745528
#
# Coordination Sequence:
#
# PCOD8194770 Si02
#       5
#     8   8   4   8   8
#     4  10  19  29  41  55  75 104 135 166 197 232
#     4   9  16  24  34  48  67  92 123 158 195 233
#     4   9  17  31  50  67  82  99 121 152 188 229
#     4   8  13  21  32  45  62  85 116 155 194 229
#     4   9  19  31  44  62  81 101 126 159 194 232
#
# _framework density 13.918647999999999
#
# number of rings (size 3 to 8) (size 9 to 14) (size 15 to 20)
#    0.667    2.333    0.000    2.667    0.000    5.778 
#    0.000    4.444    0.000    0.000    0.000    0.000 
#    0.000    0.000    0.000    0.000    0.000    1.111 
#
# Total GULP energy -446070.236446 kJ/mol
# GULP energy per Si atom -12390.839901 kJ/mol
# Density = 1.388697 g / cm^3
# Si number density = 13.918648 Si / 1000 Ang^3
#
#
#
# Elastic Constant Matrix: (Units=GPa)
#
#
# Indices 1 2 3 4 5 6 
#
# 1 104.4798 64.4257 24.3668 0.0000 0.0000 0.0000
# 2 64.4257 127.9970 30.1597 0.0000 0.0000 0.0000
# 3 24.3668 30.1597 22.6691 0.0000 0.0000 0.0000
# 4 0.0000 0.0000 0.0000 13.2278 0.0000 0.0000
# 5 0.0000 0.0000 0.0000 0.0000 -0.3262 0.0000
# 6 0.0000 0.0000 0.0000 0.0000 0.0000 28.3596
#
#
#
# Elastic Compliance Matrix: (Units=1/GPa)
#
#
# Indices 1 2 3 4 5 6 
#
# 1 0.015008 -0.005467 -0.008859 0.000000 0.000000 0.000000
# 2 -0.005467 0.013372 -0.011914 0.000000 0.000000 0.000000
# 3 -0.008859 -0.011914 0.069486 0.000000 0.000000 0.000000
# 4 0.000000 0.000000 0.000000 0.075598 0.000000 0.000000
# 5 0.000000 0.000000 0.000000 0.000000 -3.065468 0.000000
# 6 0.000000 0.000000 0.000000 0.000000 0.000000 0.035261
#
#
# Mechanical properties :
#
#
# Convention : Reuss Voigt Hill
#
# Bulk Modulus (GPa) = 22.03295 54.78338 38.40816
# Shear Modulus (GPa) = -1.79267 17.33183 7.76958
#
# Velocity S-wave (km/s) = -1.13612 3.53260 2.36522
# Velocity P-wave (km/s) = 3.76074 7.48894 5.92568
#
# Compressibility (1/GPa) = 0.04538657
#
# Stress axis : x y z
#
# Youngs Moduli (GPa) = 66.62948 74.78561 14.39138
#
# Poissons Ratio (x) = 0.40884 0.12750
# Poissons Ratio (y) = 0.36425 0.17146
# Poissons Ratio (z) = 0.59028 0.89098
#
# Static dielectric constant tensor:
#      x y z
#    x 2.889240 0.000000 0.000000 
#    y 0.000000 2.962080 0.000000 
#    z 0.000000 0.000000 2.170720 
# 
# 
# High freq. dielectric constant tensor:
#      x y z
#    x 1.536240 0.000000 0.000000 
#    y 0.000000 1.551160 0.000000 
#    z 0.000000 0.000000 1.451680 
# 
# From -- ./inp_files/18859.got.cif
#   From: 2010.03.12/outbox.cif.g09.slc.cpg/sg47_10_cif.got.tgz:18859.got - 2010.04.14 03:12:58.
