data_PCOD8194179
_publ_section_title
;
Structure prediction by ZEFSAII (Michael W. Deem and Ramdas Pophale) SiO2 
 PCOD8194179
Probable space group: P M M M
;
_chemical_formula_sum "Si O2"
_cell_formula_units_Z 36
_cell_length_a 19.614483
_cell_length_b 9.418846
_cell_length_c 12.924116
_cell_angle_alpha 90.000000
_cell_angle_beta 90.000000
_cell_angle_gamma 90.000000
_cell_volume 2387.676082
_symmetry_space_group_name_H-M "P M M M"
_symmetry_group_IT_number 47
_symmetry_cell_setting 'orthorhombic'
loop_
_space_group_symop_operation_xyz
x,y,z
-x,-y,z
x,-y,-z
-x,y,-z
-x,-y,-z
x,y,-z
-x,y,z
x,-y,z
loop_
_atom_site_type_symbol
_atom_site_label
_atom_site_fract_x
_atom_site_fract_y
_atom_site_fract_z
Si Si1 0.074670 0.839586 0.623012
Si Si2 0.348767 0.332316 0.684006
Si Si3 0.423784 0.331684 0.113472
Si Si4 0.580704 0.165893 0.500000
Si Si5 0.799953 0.336437 0.618943
O O1 0.076513 0.829580 0.500000
O O2 0.136142 0.746357 0.669433
O O3 0.000000 0.785662 0.661633
O O4 0.086057 0.000000 0.660282
O O5 0.362207 0.500000 0.663873
O O6 0.373264 0.279440 0.796729
O O7 0.389430 0.241955 0.600492
O O8 0.268560 0.298121 0.680373
O O9 0.500000 0.273945 0.136046
O O10 0.425417 0.500000 0.112878
O O11 0.399081 0.276969 0.000000
O O12 0.500000 0.185518 0.500000
O O13 0.601283 0.000000 0.500000
O O14 0.787476 0.292822 0.500000
O O15 0.818714 0.500000 0.628647
#
# Coordination Sequence:
#
# PCOD8194179 Si02
#       5
#     8   8   8   4   8
#     4   8  14  24  37  53  74 104 140 169 195 235
#     4  10  18  30  46  63  85 113 143 174 211 257
#     4   8  14  25  43  66  85 103 136 181 220 251
#     4  11  23  33  41  59  86 113 144 179 211 250
#     4   9  16  25  36  55  82 108 136 166 200 245
#
# _framework density 15.077420999999999
#
# number of rings (size 3 to 8) (size 9 to 14) (size 15 to 20)
#    0.000    3.000    1.111    2.333    0.000    3.111 
#    0.000    2.222    0.000    0.667    0.000    3.111 
#    0.000    0.889    0.000   11.111    0.000    2.222 
#
# Total GULP energy -446134.593892 kJ/mol
# GULP energy per Si atom -12392.627608 kJ/mol
# Density = 1.504310 g / cm^3
# Si number density = 15.077421 Si / 1000 Ang^3
#
#
#
# Elastic Constant Matrix: (Units=GPa)
#
#
# Indices 1 2 3 4 5 6 
#
# 1 141.0807 54.6915 64.8263 0.0000 0.0000 0.0000
# 2 54.6915 51.4421 32.5344 0.0000 0.0000 0.0000
# 3 64.8263 32.5344 90.4321 0.0000 0.0000 0.0000
# 4 0.0000 0.0000 0.0000 4.2073 0.0000 0.0000
# 5 0.0000 0.0000 0.0000 0.0000 11.0803 0.0000
# 6 0.0000 0.0000 0.0000 0.0000 0.0000 24.4105
#
#
#
# Elastic Compliance Matrix: (Units=1/GPa)
#
#
# Indices 1 2 3 4 5 6 
#
# 1 0.014317 -0.011302 -0.006197 0.000000 0.000000 0.000000
# 2 -0.011302 0.034087 -0.004162 0.000000 0.000000 0.000000
# 3 -0.006197 -0.004162 0.016998 0.000000 0.000000 0.000000
# 4 0.000000 0.000000 0.000000 0.237685 0.000000 0.000000
# 5 0.000000 0.000000 0.000000 0.000000 0.090250 0.000000
# 6 0.000000 0.000000 0.000000 0.000000 0.000000 0.040966
#
#
# Mechanical properties :
#
#
# Convention : Reuss Voigt Hill
#
# Bulk Modulus (GPa) = 45.28882 65.22881 55.25881
# Shear Modulus (GPa) = 10.30961 16.66646 13.48803
#
# Velocity S-wave (km/s) = 2.61775 3.32835 2.99421
# Velocity P-wave (km/s) = 6.26415 7.62411 6.97734
#
# Compressibility (1/GPa) = 0.02208051
#
# Stress axis : x y z
#
# Youngs Moduli (GPa) = 69.84660 29.33642 58.83187
#
# Poissons Ratio (x) = 0.33156 0.36459
# Poissons Ratio (y) = 0.78942 0.24483
# Poissons Ratio (z) = 0.43285 0.12208
#
# Static dielectric constant tensor:
#      x y z
#    x 3.212090 0.000000 0.000000 
#    y 0.000000 2.791050 0.000000 
#    z 0.000000 0.000000 2.874590 
# 
# 
# High freq. dielectric constant tensor:
#      x y z
#    x 1.586210 0.000000 0.000000 
#    y 0.000000 1.557560 0.000000 
#    z 0.000000 0.000000 1.534540 
# 
# From -- ./inp_files/3720.got.cif
#   From: 2010.03.12/outbox.cif.g09.slc.cpg/sg47_2_cif.got.tgz:3720.got - 2010.04.14 03:12:58.
