data_PCOD8194841
_publ_section_title
;
Structure prediction by ZEFSAII (Michael W. Deem and Ramdas Pophale) SiO2 
 PCOD8194841
Probable space group: P M M M
;
_chemical_formula_sum "Si O2"
_cell_formula_units_Z 36
_cell_length_a 8.793473
_cell_length_b 11.981487
_cell_length_c 20.335227
_cell_angle_alpha 90.000000
_cell_angle_beta 90.000000
_cell_angle_gamma 90.000000
_cell_volume 2142.496791
_symmetry_space_group_name_H-M "P M M M"
_symmetry_group_IT_number 47
_symmetry_cell_setting 'orthorhombic'
loop_
_space_group_symop_operation_xyz
x,y,z
-x,-y,z
x,-y,-z
-x,y,-z
-x,-y,-z
x,y,-z
-x,y,z
x,-y,z
loop_
_atom_site_type_symbol
_atom_site_label
_atom_site_fract_x
_atom_site_fract_y
_atom_site_fract_z
Si Si1 0.171369 0.366587 0.000000
Si Si2 0.175147 0.868745 0.500000
Si Si3 0.336651 0.500000 0.575040
Si Si4 0.681813 0.268070 0.615473
Si Si5 0.820765 0.370912 0.733951
Si Si6 0.669115 0.631298 0.869779
O O1 0.255380 0.318171 0.935479
O O2 0.171837 0.500000 0.000000
O O3 0.000000 0.320987 0.000000
O O4 0.250808 0.825705 0.567654
O O5 0.000000 0.833301 0.500000
O O6 0.197837 0.000000 0.500000
O O7 0.500000 0.500000 0.613241
O O8 0.374867 0.500000 0.500000
O O9 0.248260 0.613276 0.591304
O O10 0.500000 0.258567 0.611628
O O11 0.741363 0.272167 0.690459
O O12 0.768382 0.500000 0.716358
O O13 0.774136 0.339825 0.807749
O O14 0.000000 0.360891 0.726629
O O15 0.500000 0.681949 0.860209
O O16 0.656999 0.500000 0.878588
#
# Coordination Sequence:
#
# PCOD8194841 Si02
#       6
#     4   4   4   8   8   8
#     4   9  15  23  35  51  75 111 154 197 234 269
#     4  11  25  42  55  70  94 122 155 195 238 283
#     4   9  16  28  46  72  96 115 140 183 234 276
#     4  11  20  33  53  73  95 121 154 193 235 284
#     4  10  19  29  42  65  95 123 152 189 236 285
#     4   9  16  25  37  54  79 115 157 195 229 270
#
# _framework density 16.802826
#
# number of rings (size 3 to 8) (size 9 to 14) (size 15 to 20)
#    0.000    2.111    2.222    2.667    0.000    5.778 
#    0.000    0.556    0.000    0.000    0.000    0.000 
#    0.000    0.000    0.000    1.000    0.000   18.556 
#
# Total GULP energy -446000.004297 kJ/mol
# GULP energy per Si atom -12388.889008 kJ/mol
# Density = 1.676458 g / cm^3
# Si number density = 16.802826 Si / 1000 Ang^3
#
#
#
# Elastic Constant Matrix: (Units=GPa)
#
#
# Indices 1 2 3 4 5 6 
#
# 1 108.0174 27.3557 51.2165 0.0000 0.0000 0.0000
# 2 27.3557 37.8770 29.1080 0.0000 0.0000 0.0000
# 3 51.2165 29.1080 126.1349 0.0000 0.0000 0.0000
# 4 0.0000 0.0000 0.0000 6.0676 0.0000 0.0000
# 5 0.0000 0.0000 0.0000 0.0000 33.8555 0.0000
# 6 0.0000 0.0000 0.0000 0.0000 0.0000 14.5376
#
#
#
# Elastic Compliance Matrix: (Units=1/GPa)
#
#
# Indices 1 2 3 4 5 6 
#
# 1 0.012583 -0.006274 -0.003661 0.000000 0.000000 0.000000
# 2 -0.006274 0.035221 -0.005580 0.000000 0.000000 0.000000
# 3 -0.003661 -0.005580 0.010702 0.000000 0.000000 0.000000
# 4 0.000000 0.000000 0.000000 0.164810 0.000000 0.000000
# 5 0.000000 0.000000 0.000000 0.000000 0.029537 0.000000
# 6 0.000000 0.000000 0.000000 0.000000 0.000000 0.068787
#
#
# Mechanical properties :
#
#
# Convention : Reuss Voigt Hill
#
# Bulk Modulus (GPa) = 36.39695 54.15442 45.27568
# Shear Modulus (GPa) = 13.81866 21.84874 17.83370
#
# Velocity S-wave (km/s) = 2.87086 3.60988 3.26137
# Velocity P-wave (km/s) = 5.71816 7.04800 6.41762
#
# Compressibility (1/GPa) = 0.02747483
#
# Stress axis : x y z
#
# Youngs Moduli (GPa) = 79.47451 28.39229 93.43632
#
# Poissons Ratio (x) = 0.17813 0.34210
# Poissons Ratio (y) = 0.49861 0.52141
# Poissons Ratio (z) = 0.29098 0.15844
#
# Static dielectric constant tensor:
#      x y z
#    x 3.285430 0.000000 0.000000 
#    y 0.000000 2.579190 0.000000 
#    z 0.000000 0.000000 3.384170 
# 
# 
# High freq. dielectric constant tensor:
#      x y z
#    x 1.659910 0.000000 0.000000 
#    y 0.000000 1.564230 0.000000 
#    z 0.000000 0.000000 1.664060 
# 
# From -- ./inp_files/29282.got.cif
#   From: 2010.03.12/outbox.cif.g09.slc.cpg/sg47_15_cif.got.tgz:29282.got - 2010.04.14 03:12:58.
