data_PCOD8194539
_publ_section_title
;
Structure prediction by ZEFSAII (Michael W. Deem and Ramdas Pophale) SiO2 
 PCOD8194539
Probable space group: P M M M
;
_chemical_formula_sum "Si O2"
_cell_formula_units_Z 52
_cell_length_a 29.462688
_cell_length_b 11.854148
_cell_length_c 7.968782
_cell_angle_alpha 90.000000
_cell_angle_beta 90.000000
_cell_angle_gamma 90.000000
_cell_volume 2783.137468
_symmetry_space_group_name_H-M "P M M M"
_symmetry_group_IT_number 47
_symmetry_cell_setting 'orthorhombic'
loop_
_space_group_symop_operation_xyz
x,y,z
-x,-y,z
x,-y,-z
-x,y,-z
-x,-y,-z
x,y,-z
-x,y,z
x,-y,z
loop_
_atom_site_type_symbol
_atom_site_label
_atom_site_fract_x
_atom_site_fract_y
_atom_site_fract_z
Si Si1 0.198730 0.238890 0.700079
Si Si2 0.112033 0.369427 0.190436
Si Si3 0.551638 0.627104 0.197482
Si Si4 0.286387 0.375139 0.699357
Si Si5 0.768493 0.000000 0.307341
Si Si6 0.632199 0.773524 0.307237
Si Si7 0.331866 0.000000 0.187401
Si Si8 0.050390 0.366858 0.500000
O O1 0.191910 0.243583 0.500000
O O2 0.155370 0.289552 0.792270
O O3 0.241226 0.312904 0.758650
O O4 0.208518 0.112450 0.769244
O O5 0.125573 0.500000 0.225226
O O6 0.075578 0.328003 0.328983
O O7 0.092643 0.356549 0.000000
O O8 0.500000 0.652809 0.250331
O O9 0.564810 0.500000 0.254790
O O10 0.582799 0.718775 0.288090
O O11 0.557743 0.638769 0.000000
O O12 0.288815 0.380649 0.500000
O O13 0.286504 0.500000 0.777447
O O14 0.330088 0.309766 0.771209
O O15 0.713764 0.000000 0.297732
O O16 0.781139 0.000000 0.500000
O O17 0.642937 0.796235 0.500000
O O18 0.635629 0.893178 0.216362
O O19 0.313418 0.000000 0.000000
O O20 0.046368 0.500000 0.500000
O O21 0.000000 0.312667 0.500000
#
# Coordination Sequence:
#
# PCOD8194539 Si02
#       8
#     8   8   8   8   4   8   4   4
#     4  10  18  32  53  75 109 148 185 226 276 332
#     4  10  20  33  52  81 115 148 187 235 283 334
#     4   9  19  37  59  83 113 144 172 211 269 333
#     4   9  17  28  48  77 105 137 173 212 264 324
#     4  10  20  36  56  79 105 145 193 236 275 318
#     4  11  21  36  56  78 107 139 181 229 272 320
#     4  12  24  38  55  75 106 146 185 228 278 330
#     4   9  18  34  56  81 113 153 191 228 282 345
#
# _framework density 18.683951
#
# number of rings (size 3 to 8) (size 9 to 14) (size 15 to 20)
#    0.000    2.077    2.308    2.538    0.000    2.769 
#    0.000    2.692    0.000    5.077    0.000    1.077 
#    0.000    1.231    0.000    0.000    0.000    0.000 
#
# Total GULP energy -644721.696869 kJ/mol
# GULP energy per Si atom -12398.494171 kJ/mol
# Density = 1.864143 g / cm^3
# Si number density = 18.683951 Si / 1000 Ang^3
#
#
#
# Elastic Constant Matrix: (Units=GPa)
#
#
# Indices 1 2 3 4 5 6 
#
# 1 123.6035 62.0897 32.8691 0.0000 0.0000 0.0000
# 2 62.0897 142.2873 28.6892 0.0000 0.0000 0.0000
# 3 32.8691 28.6892 64.8362 0.0000 0.0000 0.0000
# 4 0.0000 0.0000 0.0000 15.5911 0.0000 0.0000
# 5 0.0000 0.0000 0.0000 0.0000 15.5325 0.0000
# 6 0.0000 0.0000 0.0000 0.0000 0.0000 14.2182
#
#
#
# Elastic Compliance Matrix: (Units=1/GPa)
#
#
# Indices 1 2 3 4 5 6 
#
# 1 0.011174 -0.004099 -0.003851 0.000000 0.000000 0.000000
# 2 -0.004099 0.009221 -0.002002 0.000000 0.000000 0.000000
# 3 -0.003851 -0.002002 0.018261 0.000000 0.000000 0.000000
# 4 0.000000 0.000000 0.000000 0.064139 0.000000 0.000000
# 5 0.000000 0.000000 0.000000 0.000000 0.064381 0.000000
# 6 0.000000 0.000000 0.000000 0.000000 0.000000 0.070332
#
#
# Mechanical properties :
#
#
# Convention : Reuss Voigt Hill
#
# Bulk Modulus (GPa) = 53.32784 64.22478 58.77631
# Shear Modulus (GPa) = 18.96366 22.87363 20.91865
#
# Velocity S-wave (km/s) = 3.18932 3.50271 3.34968
# Velocity P-wave (km/s) = 6.49356 7.12794 6.81813
#
# Compressibility (1/GPa) = 0.01875193
#
# Stress axis : x y z
#
# Youngs Moduli (GPa) = 89.49660 108.45393 54.76068
#
# Poissons Ratio (x) = 0.44460 0.21086
# Poissons Ratio (y) = 0.36688 0.10962
# Poissons Ratio (z) = 0.34461 0.21710
#
# Static dielectric constant tensor:
#      x y z
#    x 3.385730 0.000000 0.000000 
#    y 0.000000 3.569080 0.000000 
#    z 0.000000 0.000000 3.277530 
# 
# 
# High freq. dielectric constant tensor:
#      x y z
#    x 1.710180 0.000000 0.000000 
#    y 0.000000 1.717240 0.000000 
#    z 0.000000 0.000000 1.716140 
# 
# From -- ./inp_files/13330.got.cif
#   From: 2010.03.12/outbox.cif.g09.slc.cpg/sg47_7_cif.got.tgz:13330.got - 2010.04.14 03:12:58.
