data_PCOD8194570
_publ_section_title
;
Structure prediction by ZEFSAII (Michael W. Deem and Ramdas Pophale) SiO2 
 PCOD8194570
Probable space group: P M M M
;
_chemical_formula_sum "Si O2"
_cell_formula_units_Z 44
_cell_length_a 14.790188
_cell_length_b 13.508425
_cell_length_c 11.947321
_cell_angle_alpha 90.000000
_cell_angle_beta 90.000000
_cell_angle_gamma 90.000000
_cell_volume 2386.980894
_symmetry_space_group_name_H-M "P M M M"
_symmetry_group_IT_number 47
_symmetry_cell_setting 'orthorhombic'
loop_
_space_group_symop_operation_xyz
x,y,z
-x,-y,z
x,-y,-z
-x,y,-z
-x,-y,-z
x,y,-z
-x,y,z
x,-y,z
loop_
_atom_site_type_symbol
_atom_site_label
_atom_site_fract_x
_atom_site_fract_y
_atom_site_fract_z
Si Si1 0.896030 0.815260 0.500000
Si Si2 0.687924 0.388875 0.710893
Si Si3 0.817023 0.712880 0.867577
Si Si4 0.780775 0.886725 0.708376
Si Si5 0.182467 0.390017 0.500000
Si Si6 0.000000 0.389368 0.867414
Si Si7 0.399767 0.795467 0.630764
O O1 0.846750 0.859482 0.607548
O O2 0.892871 0.695400 0.500000
O O3 0.000000 0.849046 0.500000
O O4 0.648984 0.500000 0.718107
O O5 0.739197 0.361714 0.825701
O O6 0.757429 0.375239 0.609597
O O7 0.606892 0.311914 0.690543
O O8 0.805536 0.821645 0.816097
O O9 0.912407 0.669334 0.825511
O O10 0.810836 0.721581 0.000000
O O11 0.675920 0.870299 0.675803
O O12 0.794432 0.000000 0.742493
O O13 0.138146 0.500000 0.500000
O O14 0.000000 0.500000 0.815377
O O15 0.000000 0.397223 0.000000
O O16 0.384617 0.779886 0.500000
O O17 0.500000 0.838373 0.656144
#
# Coordination Sequence:
#
# PCOD8194570 Si02
#       7
#     4   8   8   8   4   4   8
#     4  12  23  39  58  83 117 151 189 226 277 347
#     4  10  18  32  54  80 116 151 180 218 273 340
#     4  10  21  36  55  81 111 149 196 241 278 324
#     4  11  23  40  59  80 112 149 188 237 287 338
#     4  10  18  34  55  80 113 149 183 220 270 327
#     4   9  18  34  55  80 109 142 187 236 278 321
#     4  10  19  34  57  85 115 143 179 231 287 343
#
# _framework density 18.433329000000001
#
# number of rings (size 3 to 8) (size 9 to 14) (size 15 to 20)
#    0.000    1.727    5.455    0.818    1.273    3.091 
#    0.000    1.818    0.000   10.364    0.000   10.182 
#    0.000    0.000    0.000    0.000    0.000    0.000 
#
# Total GULP energy -545554.193744 kJ/mol
# GULP energy per Si atom -12398.958949 kJ/mol
# Density = 1.839137 g / cm^3
# Si number density = 18.433329 Si / 1000 Ang^3
#
#
#
# Elastic Constant Matrix: (Units=GPa)
#
#
# Indices 1 2 3 4 5 6 
#
# 1 100.3802 39.4461 34.9495 0.0000 0.0000 0.0000
# 2 39.4461 119.3852 24.6406 0.0000 0.0000 0.0000
# 3 34.9495 24.6406 85.7451 0.0000 0.0000 0.0000
# 4 0.0000 0.0000 0.0000 21.0826 0.0000 0.0000
# 5 0.0000 0.0000 0.0000 0.0000 20.6590 0.0000
# 6 0.0000 0.0000 0.0000 0.0000 0.0000 11.7295
#
#
#
# Elastic Compliance Matrix: (Units=1/GPa)
#
#
# Indices 1 2 3 4 5 6 
#
# 1 0.012749 -0.003338 -0.004237 0.000000 0.000000 0.000000
# 2 -0.003338 0.009778 -0.001449 0.000000 0.000000 0.000000
# 3 -0.004237 -0.001449 0.013806 0.000000 0.000000 0.000000
# 4 0.000000 0.000000 0.000000 0.047433 0.000000 0.000000
# 5 0.000000 0.000000 0.000000 0.000000 0.048405 0.000000
# 6 0.000000 0.000000 0.000000 0.000000 0.000000 0.085255
#
#
# Mechanical properties :
#
#
# Convention : Reuss Voigt Hill
#
# Bulk Modulus (GPa) = 54.69200 55.95365 55.32283
# Shear Modulus (GPa) = 20.69792 24.45916 22.57854
#
# Velocity S-wave (km/s) = 3.35454 3.64661 3.50362
# Velocity P-wave (km/s) = 6.68868 6.93908 6.81503
#
# Compressibility (1/GPa) = 0.01828421
#
# Stress axis : x y z
#
# Youngs Moduli (GPa) = 78.43680 102.26742 72.43156
#
# Poissons Ratio (x) = 0.34136 0.30692
# Poissons Ratio (y) = 0.26181 0.10499
# Poissons Ratio (z) = 0.33236 0.14823
#
# Static dielectric constant tensor:
#      x y z
#    x 3.393690 0.000000 0.000000 
#    y 0.000000 3.516790 0.000000 
#    z 0.000000 0.000000 3.235910 
# 
# 
# High freq. dielectric constant tensor:
#      x y z
#    x 1.703490 0.000000 0.000000 
#    y 0.000000 1.719220 0.000000 
#    z 0.000000 0.000000 1.700550 
# 
# From -- ./inp_files/17462.got.cif
#   From: 2010.03.12/outbox.cif.g09.slc.cpg/sg47_9_cif.got.tgz:17462.got - 2010.04.14 03:12:58.
