data_PCOD8194910
_publ_section_title
;
Structure prediction by ZEFSAII (Michael W. Deem and Ramdas Pophale) SiO2 
 PCOD8194910
Probable space group: P M M M
;
_chemical_formula_sum "Si O2"
_cell_formula_units_Z 64
_cell_length_a 14.263476
_cell_length_b 14.049371
_cell_length_c 17.742601
_cell_angle_alpha 90.000000
_cell_angle_beta 90.000000
_cell_angle_gamma 90.000000
_cell_volume 3555.490666
_symmetry_space_group_name_H-M "P M M M"
_symmetry_group_IT_number 47
_symmetry_cell_setting 'orthorhombic'
loop_
_space_group_symop_operation_xyz
x,y,z
-x,-y,z
x,-y,-z
-x,y,-z
-x,-y,-z
x,y,-z
-x,y,z
x,-y,z
loop_
_atom_site_type_symbol
_atom_site_label
_atom_site_fract_x
_atom_site_fract_y
_atom_site_fract_z
Si Si1 0.107774 0.139829 0.080000
Si Si2 0.609041 0.892640 0.167396
Si Si3 0.275664 0.791883 0.706443
Si Si4 0.390417 0.708842 0.917446
Si Si5 0.893188 0.637076 0.083969
Si Si6 0.607781 0.108862 0.411563
Si Si7 0.106337 0.894861 0.242731
Si Si8 0.732836 0.605834 0.801308
O O1 0.120625 0.251421 0.082919
O O2 0.151589 0.099491 0.157538
O O3 0.000000 0.109191 0.079532
O O4 0.152202 0.102234 0.000000
O O5 0.500000 0.884837 0.189092
O O6 0.666946 0.862288 0.239915
O O7 0.634432 0.818903 0.100853
O O8 0.634632 0.000000 0.142124
O O9 0.324719 0.810827 0.626030
O O10 0.167580 0.826183 0.704780
O O11 0.272178 0.681232 0.732104
O O12 0.500000 0.691458 0.915472
O O13 0.347332 0.634608 0.859689
O O14 0.348607 0.688130 0.000000
O O15 0.829910 0.598852 0.152206
O O16 0.000000 0.608395 0.102550
O O17 0.866704 0.597316 0.000000
O O18 0.622551 0.120355 0.500000
O O19 0.500000 0.130085 0.389566
O O20 0.633386 0.000000 0.387184
O O21 0.000000 0.854145 0.239973
O O22 0.107457 0.000000 0.277821
O O23 0.712403 0.500000 0.768712
#
# Coordination Sequence:
#
# PCOD8194910 Si02
#       8
#     8   8   8   8   8   8   8   8
#     4   8  14  26  42  59  85 124 167 211 256 297
#     4   9  17  29  47  71  95 120 153 194 245 304
#     4  11  20  33  52  71 102 135 163 197 246 297
#     4   9  19  34  48  63  87 122 164 209 253 295
#     4   9  17  31  50  69  92 125 170 230 290 324
#     4   9  18  34  60  93 118 132 152 185 230 292
#     4  10  19  29  44  69 100 137 176 206 241 297
#     4  11  23  35  49  69  93 127 174 221 260 301
#
# _framework density 18.000329000000001
#
# number of rings (size 3 to 8) (size 9 to 14) (size 15 to 20)
#    0.000    2.500    1.250    3.000    0.000    3.500 
#    0.000    3.750    0.000    2.250    0.000    2.625 
#    0.000    0.000    0.000    2.250    0.000    0.125 
#
# Total GULP energy -792887.531852 kJ/mol
# GULP energy per Si atom -12388.867685 kJ/mol
# Density = 1.795936 g / cm^3
# Si number density = 18.000329 Si / 1000 Ang^3
#
#
#
# Elastic Constant Matrix: (Units=GPa)
#
#
# Indices 1 2 3 4 5 6 
#
# 1 55.0975 37.8076 33.6015 0.0000 0.0000 0.0000
# 2 37.8076 122.3602 36.2083 0.0000 0.0000 0.0000
# 3 33.6015 36.2083 64.0070 0.0000 0.0000 0.0000
# 4 0.0000 0.0000 0.0000 -4.4817 0.0000 0.0000
# 5 0.0000 0.0000 0.0000 0.0000 25.8562 0.0000
# 6 0.0000 0.0000 0.0000 0.0000 0.0000 5.6742
#
#
#
# Elastic Compliance Matrix: (Units=1/GPa)
#
#
# Indices 1 2 3 4 5 6 
#
# 1 0.029422 -0.005429 -0.012374 0.000000 0.000000 0.000000
# 2 -0.005429 0.010818 -0.003269 0.000000 0.000000 0.000000
# 3 -0.012374 -0.003269 0.023969 0.000000 0.000000 0.000000
# 4 0.000000 0.000000 0.000000 -0.223129 0.000000 0.000000
# 5 0.000000 0.000000 0.000000 0.000000 0.038675 0.000000
# 6 0.000000 0.000000 0.000000 0.000000 0.000000 0.176235
#
#
# Mechanical properties :
#
#
# Convention : Reuss Voigt Hill
#
# Bulk Modulus (GPa) = 45.32534 50.74439 48.03486
# Shear Modulus (GPa) = 47.39856 14.33290 30.86573
#
# Velocity S-wave (km/s) = 5.13704 2.82487 4.14542
# Velocity P-wave (km/s) = 7.77307 6.23633 7.04672
#
# Compressibility (1/GPa) = 0.02206271
#
# Stress axis : x y z
#
# Youngs Moduli (GPa) = 33.98869 92.44235 41.72107
#
# Poissons Ratio (x) = 0.50188 0.51626
# Poissons Ratio (y) = 0.18453 0.13640
# Poissons Ratio (z) = 0.42058 0.30222
#
# Static dielectric constant tensor:
#      x y z
#    x 3.439280 0.000000 0.000000 
#    y 0.000000 3.250810 0.000000 
#    z 0.000000 0.000000 3.110800 
# 
# 
# High freq. dielectric constant tensor:
#      x y z
#    x 1.700330 0.000000 0.000000 
#    y 0.000000 1.686070 0.000000 
#    z 0.000000 0.000000 1.647600 
# 
# From -- ./inp_files/24134.got.cif
#   From: 2010.03.12/outbox.cif.g09.slc.cpg/sg47_13_cif.got.tgz:24134.got - 2010.04.14 03:12:58.
