data_PCOD8194247
_publ_section_title
;
Structure prediction by ZEFSAII (Michael W. Deem and Ramdas Pophale) SiO2 
 PCOD8194247
Probable space group: P M M M
;
_chemical_formula_sum "Si O2"
_cell_formula_units_Z 36
_cell_length_a 8.965436
_cell_length_b 20.644036
_cell_length_c 11.779138
_cell_angle_alpha 90.000000
_cell_angle_beta 90.000000
_cell_angle_gamma 90.000000
_cell_volume 2180.115649
_symmetry_space_group_name_H-M "P M M M"
_symmetry_group_IT_number 47
_symmetry_cell_setting 'orthorhombic'
loop_
_space_group_symop_operation_xyz
x,y,z
-x,-y,z
x,-y,-z
-x,y,-z
-x,-y,-z
x,y,-z
-x,y,z
x,-y,z
loop_
_atom_site_type_symbol
_atom_site_label
_atom_site_fract_x
_atom_site_fract_y
_atom_site_fract_z
Si Si1 0.168420 0.000000 0.364438
Si Si2 0.322860 0.500000 0.373664
Si Si3 0.332534 0.127160 0.365313
Si Si4 0.676346 0.572889 0.000000
Si Si5 0.176182 0.258405 0.630415
Si Si6 0.323180 0.625271 0.760290
O O1 0.251611 0.063461 0.316194
O O2 0.169360 0.000000 0.500000
O O3 0.000000 0.000000 0.318209
O O4 0.500000 0.500000 0.374882
O O5 0.255976 0.500000 0.500000
O O6 0.265315 0.436312 0.310370
O O7 0.336452 0.122748 0.500000
O O8 0.500000 0.130711 0.316004
O O9 0.241931 0.190331 0.326914
O O10 0.726966 0.613374 0.110015
O O11 0.745417 0.500000 0.000000
O O12 0.500000 0.564741 0.000000
O O13 0.223695 0.272804 0.500000
O O14 0.241055 0.312306 0.713020
O O15 0.000000 0.255447 0.642329
O O16 0.500000 0.634977 0.748475
#
# Coordination Sequence:
#
# PCOD8194247 Si02
#       6
#     4   4   8   4   8   8
#     4   9  15  23  37  59  89 124 157 188 225 269
#     4   9  16  25  42  68  91 113 146 185 222 268
#     4   9  16  26  41  61  86 119 159 196 227 266
#     4   9  16  30  51  73  91 112 147 194 241 279
#     4  10  20  32  44  62  92 126 156 190 236 284
#     4  10  18  30  49  69  90 116 151 192 233 280
#
# _framework density 16.512886000000002
#
# number of rings (size 3 to 8) (size 9 to 14) (size 15 to 20)
#    0.000    2.556    1.111    2.333    0.000    6.222 
#    0.000    1.111    0.000    2.667    0.000    0.000 
#    0.000    0.889    0.000    9.556    0.000    7.333 
#
# Total GULP energy -446354.064549 kJ/mol
# GULP energy per Si atom -12398.724015 kJ/mol
# Density = 1.647530 g / cm^3
# Si number density = 16.512886 Si / 1000 Ang^3
#
#
#
# Elastic Constant Matrix: (Units=GPa)
#
#
# Indices 1 2 3 4 5 6 
#
# 1 80.4385 60.5077 32.0786 0.0000 0.0000 0.0000
# 2 60.5077 169.8536 61.3898 0.0000 0.0000 0.0000
# 3 32.0786 61.3898 89.2470 0.0000 0.0000 0.0000
# 4 0.0000 0.0000 0.0000 0.8254 0.0000 0.0000
# 5 0.0000 0.0000 0.0000 0.0000 12.0188 0.0000
# 6 0.0000 0.0000 0.0000 0.0000 0.0000 1.2503
#
#
#
# Elastic Compliance Matrix: (Units=1/GPa)
#
#
# Indices 1 2 3 4 5 6 
#
# 1 0.017443 -0.005254 -0.002656 0.000000 0.000000 0.000000
# 2 -0.005254 0.009418 -0.004590 0.000000 0.000000 0.000000
# 3 -0.002656 -0.004590 0.015317 0.000000 0.000000 0.000000
# 4 0.000000 0.000000 0.000000 1.211501 0.000000 0.000000
# 5 0.000000 0.000000 0.000000 0.000000 0.083203 0.000000
# 6 0.000000 0.000000 0.000000 0.000000 0.000000 0.799819
#
#
# Mechanical properties :
#
#
# Convention : Reuss Voigt Hill
#
# Bulk Modulus (GPa) = 58.21155 71.94348 65.07751
# Shear Modulus (GPa) = 2.30688 15.18976 8.74832
#
# Velocity S-wave (km/s) = 1.18324 3.03623 2.30421
# Velocity P-wave (km/s) = 6.09881 7.48026 6.82458
#
# Compressibility (1/GPa) = 0.01717872
#
# Stress axis : x y z
#
# Youngs Moduli (GPa) = 57.32921 106.18006 65.28882
#
# Poissons Ratio (x) = 0.55787 0.17338
# Poissons Ratio (y) = 0.30121 0.29966
# Poissons Ratio (z) = 0.15225 0.48735
#
# Static dielectric constant tensor:
#      x y z
#    x 2.997840 0.000000 0.000000 
#    y 0.000000 3.253720 0.000000 
#    z 0.000000 0.000000 2.884120 
# 
# 
# High freq. dielectric constant tensor:
#      x y z
#    x 1.624550 0.000000 0.000000 
#    y 0.000000 1.648540 0.000000 
#    z 0.000000 0.000000 1.585710 
# 
# From -- ./inp_files/15049.got.cif
#   From: 2010.03.12/outbox.cif.g09.slc.cpg/sg47_8_cif.got.tgz:15049.got - 2010.04.14 03:12:58.
