data_PCOD8194944
_publ_section_title
;
Structure prediction by ZEFSAII (Michael W. Deem and Ramdas Pophale) SiO2 
 PCOD8194944
Probable space group: P M M M
;
_chemical_formula_sum "Si O2"
_cell_formula_units_Z 40
_cell_length_a 16.452274
_cell_length_b 9.640814
_cell_length_c 13.448599
_cell_angle_alpha 90.000000
_cell_angle_beta 90.000000
_cell_angle_gamma 90.000000
_cell_volume 2133.126849
_symmetry_space_group_name_H-M "P M M M"
_symmetry_group_IT_number 47
_symmetry_cell_setting 'orthorhombic'
loop_
_space_group_symop_operation_xyz
x,y,z
-x,-y,z
x,-y,-z
-x,y,-z
-x,-y,-z
x,y,-z
-x,y,z
x,-y,z
loop_
_atom_site_type_symbol
_atom_site_label
_atom_site_fract_x
_atom_site_fract_y
_atom_site_fract_z
Si Si1 0.500000 0.838354 0.610183
Si Si2 0.903703 0.846174 0.390533
Si Si3 0.095404 0.660861 0.789447
Si Si4 0.380717 0.839915 0.781184
Si Si5 0.781052 0.156529 0.111795
Si Si6 0.500000 0.348647 0.114292
O O1 0.500000 0.766112 0.500000
O O2 0.417578 0.798260 0.672230
O O3 0.500000 0.000000 0.591829
O O4 0.869169 0.808512 0.500000
O O5 0.874386 0.730427 0.313379
O O6 0.000000 0.847927 0.394704
O O7 0.872411 0.000000 0.358865
O O8 0.118459 0.500000 0.785922
O O9 0.144441 0.736526 0.876942
O O10 0.000000 0.682934 0.808630
O O11 0.284831 0.816864 0.799888
O O12 0.420819 0.739349 0.860526
O O13 0.403625 0.000000 0.803383
O O14 0.814610 0.000000 0.122622
O O15 0.744868 0.177252 0.000000
O O16 0.500000 0.500000 0.168714
O O17 0.500000 0.378649 0.000000
#
# Coordination Sequence:
#
# PCOD8194944 Si02
#       6
#     4   8   8   8   8   4
#     4   8  14  28  54  85 112 137 165 198 240 296
#     4   8  14  27  49  74  97 123 159 205 255 307
#     4  10  21  35  51  73 102 137 177 224 279 336
#     4   9  18  33  53  76 103 136 173 212 252 300
#     4  10  21  36  53  73  99 134 178 228 278 324
#     4  10  19  29  46  75 106 133 163 202 250 304
#
# _framework density 18.751815000000001
#
# number of rings (size 3 to 8) (size 9 to 14) (size 15 to 20)
#    0.000    2.800    0.000    2.700    0.000    4.800 
#    0.000    5.000    0.000    8.400    0.000    0.000 
#    0.000    0.000    0.000    0.000    0.000    0.000 
#
# Total GULP energy -495526.603980 kJ/mol
# GULP energy per Si atom -12388.165100 kJ/mol
# Density = 1.870913 g / cm^3
# Si number density = 18.751815 Si / 1000 Ang^3
#
#
#
# Elastic Constant Matrix: (Units=GPa)
#
#
# Indices 1 2 3 4 5 6 
#
# 1 72.4562 51.1221 44.2578 0.0000 0.0000 0.0000
# 2 51.1221 115.8534 44.8087 0.0000 0.0000 0.0000
# 3 44.2578 44.8087 112.6111 0.0000 0.0000 0.0000
# 4 0.0000 0.0000 0.0000 22.3882 0.0000 0.0000
# 5 0.0000 0.0000 0.0000 0.0000 23.1838 0.0000
# 6 0.0000 0.0000 0.0000 0.0000 0.0000 -43.2346
#
#
#
# Elastic Compliance Matrix: (Units=1/GPa)
#
#
# Indices 1 2 3 4 5 6 
#
# 1 0.022933 -0.007840 -0.005893 0.000000 0.000000 0.000000
# 2 -0.007840 0.012882 -0.002045 0.000000 0.000000 0.000000
# 3 -0.005893 -0.002045 0.012010 0.000000 0.000000 0.000000
# 4 0.000000 0.000000 0.000000 0.044666 0.000000 0.000000
# 5 0.000000 0.000000 0.000000 0.000000 0.043134 0.000000
# 6 0.000000 0.000000 0.000000 0.000000 0.000000 -0.023130
#
#
# Mechanical properties :
#
#
# Convention : Reuss Voigt Hill
#
# Bulk Modulus (GPa) = 61.46777 64.58865 63.02821
# Shear Modulus (GPa) = 33.45068 11.18294 22.31681
#
# Velocity S-wave (km/s) = 4.22816 2.44471 3.45355
# Velocity P-wave (km/s) = 7.52910 6.51825 7.04183
#
# Compressibility (1/GPa) = 0.01626869
#
# Stress axis : x y z
#
# Youngs Moduli (GPa) = 43.60555 77.62813 83.26522
#
# Poissons Ratio (x) = 0.60861 0.49071
# Poissons Ratio (y) = 0.34187 0.17024
# Poissons Ratio (z) = 0.25698 0.15871
#
# Static dielectric constant tensor:
#      x y z
#    x 3.233960 0.000000 0.000000 
#    y 0.000000 3.413550 0.000000 
#    z 0.000000 0.000000 3.644230 
# 
# 
# High freq. dielectric constant tensor:
#      x y z
#    x 1.700840 0.000000 0.000000 
#    y 0.000000 1.719050 0.000000 
#    z 0.000000 0.000000 1.724500 
# 
# From -- ./inp_files/20681.got.cif
#   From: 2010.03.12/outbox.cif.g09.slc.cpg/sg47_11_cif.got.tgz:20681.got - 2010.04.14 03:12:58.
