data_PCOD8194593
_publ_section_title
;
Structure prediction by ZEFSAII (Michael W. Deem and Ramdas Pophale) SiO2 
 PCOD8194593
Probable space group: P M M M
;
_chemical_formula_sum "Si O2"
_cell_formula_units_Z 64
_cell_length_a 15.346658
_cell_length_b 9.214398
_cell_length_c 23.874391
_cell_angle_alpha 90.000000
_cell_angle_beta 90.000000
_cell_angle_gamma 90.000000
_cell_volume 3376.082759
_symmetry_space_group_name_H-M "P M M M"
_symmetry_group_IT_number 47
_symmetry_cell_setting 'orthorhombic'
loop_
_space_group_symop_operation_xyz
x,y,z
-x,-y,z
x,-y,-z
-x,y,-z
-x,-y,-z
x,y,-z
-x,y,z
x,-y,z
loop_
_atom_site_type_symbol
_atom_site_label
_atom_site_fract_x
_atom_site_fract_y
_atom_site_fract_z
Si Si1 0.252034 0.827912 0.936564
Si Si2 0.850702 0.668566 0.751016
Si Si3 0.401285 0.666433 0.873198
Si Si4 0.400789 0.833360 0.640500
Si Si5 0.352674 0.332443 0.749537
Si Si6 0.904132 0.327623 0.370369
Si Si7 0.263532 0.671447 0.564629
Si Si8 0.903021 0.832810 0.141272
O O1 0.340175 0.765444 0.910812
O O2 0.167754 0.770542 0.902502
O O3 0.258244 0.000000 0.934332
O O4 0.242232 0.772230 0.000000
O O5 0.872414 0.500000 0.757435
O O6 0.748917 0.699975 0.754331
O O7 0.885771 0.730264 0.692116
O O8 0.899627 0.750025 0.800307
O O9 0.500000 0.688417 0.894182
O O10 0.370982 0.500000 0.879848
O O11 0.396213 0.711330 0.808176
O O12 0.500000 0.820709 0.619441
O O13 0.394632 0.766741 0.702228
O O14 0.341578 0.747497 0.596937
O O15 0.370331 0.000000 0.642852
O O16 0.370672 0.500000 0.734159
O O17 0.901156 0.500000 0.369704
O O18 0.829511 0.270574 0.412359
O O19 0.000000 0.273201 0.390137
O O20 0.269661 0.714307 0.500000
O O21 0.272499 0.500000 0.574315
O O22 0.000000 0.812931 0.115616
O O23 0.882634 0.000000 0.153648
#
# Coordination Sequence:
#
# PCOD8194593 Si02
#       8
#     8   8   8   8   8   8   8   8
#     4  10  22  39  57  78 107 146 191 235 277 324
#     4  10  18  32  57  84 112 145 178 220 275 332
#     4  10  21  37  58  84 112 144 181 224 279 337
#     4  11  24  39  57  83 114 148 184 226 280 336
#     4  10  19  35  60  86 113 144 180 224 273 330
#     4   9  17  31  53  83 115 143 175 219 271 325
#     4  10  21  38  59  82 109 146 193 237 276 323
#     4  10  21  36  55  81 112 145 183 228 276 327
#
# _framework density 18.956880999999999
#
# number of rings (size 3 to 8) (size 9 to 14) (size 15 to 20)
#    0.000    2.000    2.500    1.125    0.000    5.000 
#    0.000    5.000    0.000    0.375    0.000    2.625 
#    0.000    0.000    0.000    0.000    0.000    0.000 
#
# Total GULP energy -793694.939882 kJ/mol
# GULP energy per Si atom -12401.483436 kJ/mol
# Density = 1.891373 g / cm^3
# Si number density = 18.956881 Si / 1000 Ang^3
#
#
#
# Elastic Constant Matrix: (Units=GPa)
#
#
# Indices 1 2 3 4 5 6 
#
# 1 114.8801 32.0506 56.3522 0.0000 0.0000 0.0000
# 2 32.0506 37.0363 36.1961 0.0000 0.0000 0.0000
# 3 56.3522 36.1961 122.3733 0.0000 0.0000 0.0000
# 4 0.0000 0.0000 0.0000 13.4337 0.0000 0.0000
# 5 0.0000 0.0000 0.0000 0.0000 16.1503 0.0000
# 6 0.0000 0.0000 0.0000 0.0000 0.0000 23.9996
#
#
#
# Elastic Compliance Matrix: (Units=1/GPa)
#
#
# Indices 1 2 3 4 5 6 
#
# 1 0.012509 -0.007308 -0.003599 0.000000 0.000000 0.000000
# 2 -0.007308 0.042249 -0.009131 0.000000 0.000000 0.000000
# 3 -0.003599 -0.009131 0.012530 0.000000 0.000000 0.000000
# 4 0.000000 0.000000 0.000000 0.074440 0.000000 0.000000
# 5 0.000000 0.000000 0.000000 0.000000 0.061918 0.000000
# 6 0.000000 0.000000 0.000000 0.000000 0.000000 0.041667
#
#
# Mechanical properties :
#
#
# Convention : Reuss Voigt Hill
#
# Bulk Modulus (GPa) = 36.74890 58.16526 47.45708
# Shear Modulus (GPa) = 16.98027 20.69609 18.83818
#
# Velocity S-wave (km/s) = 2.99612 3.30774 3.15578
# Velocity P-wave (km/s) = 5.60327 6.73333 6.19412
#
# Compressibility (1/GPa) = 0.02721170
#
# Stress axis : x y z
#
# Youngs Moduli (GPa) = 79.94355 23.66932 79.80985
#
# Poissons Ratio (x) = 0.17297 0.28721
# Poissons Ratio (y) = 0.58422 0.72877
# Poissons Ratio (z) = 0.28769 0.21613
#
# Static dielectric constant tensor:
#      x y z
#    x 3.685650 0.000000 0.000000 
#    y 0.000000 3.251700 0.000000 
#    z 0.000000 0.000000 3.502330 
# 
# 
# High freq. dielectric constant tensor:
#      x y z
#    x 1.754020 0.000000 0.000000 
#    y 0.000000 1.711250 0.000000 
#    z 0.000000 0.000000 1.734380 
# 
# From -- ./inp_files/7843.got.cif
#   From: 2010.03.12/outbox.cif.g09.slc.cpg/sg47_4_cif.got.tgz:7843.got - 2010.04.14 03:12:58.
