data_PCOD8194381
_publ_section_title
;
Structure prediction by ZEFSAII (Michael W. Deem and Ramdas Pophale) SiO2 
 PCOD8194381
Probable space group: P M M M
;
_chemical_formula_sum "Si O2"
_cell_formula_units_Z 64
_cell_length_a 13.314192
_cell_length_b 27.633072
_cell_length_c 10.117470
_cell_angle_alpha 90.000000
_cell_angle_beta 90.000000
_cell_angle_gamma 90.000000
_cell_volume 3722.338887
_symmetry_space_group_name_H-M "P M M M"
_symmetry_group_IT_number 47
_symmetry_cell_setting 'orthorhombic'
loop_
_space_group_symop_operation_xyz
x,y,z
-x,-y,z
x,-y,-z
-x,y,-z
-x,-y,-z
x,y,-z
-x,y,z
x,-y,z
loop_
_atom_site_type_symbol
_atom_site_label
_atom_site_fract_x
_atom_site_fract_y
_atom_site_fract_z
Si Si1 0.112422 0.052951 0.656458
Si Si2 0.609261 0.617942 0.848411
Si Si3 0.209455 0.556271 0.844638
Si Si4 0.887025 0.373715 0.646942
Si Si5 0.791618 0.150416 0.342679
Si Si6 0.261257 0.702826 0.750670
Si Si7 0.112980 0.777880 0.853761
Si Si8 0.609710 0.788818 0.348244
O O1 0.108376 0.051473 0.500000
O O2 0.189937 0.094776 0.700846
O O3 0.000000 0.064326 0.709964
O O4 0.148116 0.000000 0.709499
O O5 0.500000 0.617077 0.774994
O O6 0.680312 0.574400 0.797222
O O7 0.664190 0.669192 0.833439
O O8 0.588433 0.608973 0.000000
O O9 0.198897 0.500000 0.814139
O O10 0.128615 0.585080 0.757724
O O11 0.191403 0.567683 0.000000
O O12 0.873575 0.396200 0.500000
O O13 0.809050 0.329431 0.656726
O O14 0.000000 0.353691 0.665331
O O15 0.809551 0.158511 0.500000
O O16 0.869378 0.183305 0.261917
O O17 0.679052 0.166309 0.298886
O O18 0.189396 0.732948 0.847353
O O19 0.331351 0.738608 0.667219
O O20 0.000000 0.758102 0.836532
O O21 0.126715 0.801393 0.000000
O O22 0.588412 0.796715 0.500000
O O23 0.500000 0.788942 0.275327
#
# Coordination Sequence:
#
# PCOD8194381 Si02
#       8
#     8   8   8   8   8   8   8   8
#     4   8  13  22  39  64  90 115 149 194 237 275
#     4   9  17  29  47  70  92 115 147 188 228 263
#     4   9  19  35  53  73  96 122 152 184 221 270
#     4  10  21  35  51  72  96 121 151 189 229 266
#     4   9  17  29  46  66  89 120 157 195 232 273
#     4  10  18  31  47  65  90 123 156 186 218 269
#     4  10  20  31  44  65  95 128 156 186 227 272
#     4   9  17  28  43  64  89 118 152 189 229 272
#
# _framework density 17.193490000000001
#
# number of rings (size 3 to 8) (size 9 to 14) (size 15 to 20)
#    0.000    2.750    0.000    2.250    0.000    2.750 
#    0.000    2.500    0.000    7.500    0.000    7.875 
#    0.000    0.000    0.000    4.500    0.000    4.000 
#
# Total GULP energy -792940.544097 kJ/mol
# GULP energy per Si atom -12389.696002 kJ/mol
# Density = 1.715436 g / cm^3
# Si number density = 17.193490 Si / 1000 Ang^3
#
#
#
# Elastic Constant Matrix: (Units=GPa)
#
#
# Indices 1 2 3 4 5 6 
#
# 1 123.5998 54.6464 27.8266 0.0000 0.0000 0.0000
# 2 54.6464 117.0752 25.0649 0.0000 0.0000 0.0000
# 3 27.8266 25.0649 50.3284 0.0000 0.0000 0.0000
# 4 0.0000 0.0000 0.0000 16.4378 0.0000 0.0000
# 5 0.0000 0.0000 0.0000 0.0000 15.7420 0.0000
# 6 0.0000 0.0000 0.0000 0.0000 0.0000 267.8609
#
#
#
# Elastic Compliance Matrix: (Units=1/GPa)
#
#
# Indices 1 2 3 4 5 6 
#
# 1 0.010833 -0.004225 -0.003886 0.000000 0.000000 0.000000
# 2 -0.004225 0.011208 -0.003246 0.000000 0.000000 0.000000
# 3 -0.003886 -0.003246 0.023635 0.000000 0.000000 0.000000
# 4 0.000000 0.000000 0.000000 0.060836 0.000000 0.000000
# 5 0.000000 0.000000 0.000000 0.000000 0.063524 0.000000
# 6 0.000000 0.000000 0.000000 0.000000 0.000000 0.003733
#
#
# Mechanical properties :
#
#
# Convention : Reuss Voigt Hill
#
# Bulk Modulus (GPa) = 43.54827 56.23100 49.88964
# Shear Modulus (GPa) = 24.49333 72.23916 48.36625
#
# Velocity S-wave (km/s) = 3.77844 6.48896 5.30958
# Velocity P-wave (km/s) = 6.66475 9.42963 8.16507
#
# Compressibility (1/GPa) = 0.02296302
#
# Stress axis : x y z
#
# Youngs Moduli (GPa) = 92.30836 89.21844 42.31074
#
# Poissons Ratio (x) = 0.37692 0.16441
# Poissons Ratio (y) = 0.38997 0.13735
# Poissons Ratio (z) = 0.35868 0.28963
#
# Static dielectric constant tensor:
#      x y z
#    x 3.676530 0.000000 0.000000 
#    y 0.000000 3.313420 0.000000 
#    z 0.000000 0.000000 2.971500 
# 
# 
# High freq. dielectric constant tensor:
#      x y z
#    x 1.670310 0.000000 0.000000 
#    y 0.000000 1.653090 0.000000 
#    z 0.000000 0.000000 1.633910 
# 
# From -- ./inp_files/16875.got.cif
#   From: 2010.03.12/outbox.cif.g09.slc.cpg/sg47_9_cif.got.tgz:16875.got - 2010.04.14 03:12:58.
