data_PCOD8194532
_publ_section_title
;
Structure prediction by ZEFSAII (Michael W. Deem and Ramdas Pophale) SiO2 
 PCOD8194532
Probable space group: P M M M
;
_chemical_formula_sum "Si O2"
_cell_formula_units_Z 52
_cell_length_a 9.584766
_cell_length_b 28.395449
_cell_length_c 11.487692
_cell_angle_alpha 90.000000
_cell_angle_beta 90.000000
_cell_angle_gamma 90.000000
_cell_volume 3126.533151
_symmetry_space_group_name_H-M "P M M M"
_symmetry_group_IT_number 47
_symmetry_cell_setting 'orthorhombic'
loop_
_space_group_symop_operation_xyz
x,y,z
-x,-y,z
x,-y,-z
-x,y,-z
-x,-y,-z
x,y,-z
-x,y,z
x,-y,z
loop_
_atom_site_type_symbol
_atom_site_label
_atom_site_fract_x
_atom_site_fract_y
_atom_site_fract_z
Si Si1 0.663078 0.404392 0.250702
Si Si2 0.338803 0.366179 0.500000
Si Si3 0.343420 0.948067 0.138269
Si Si4 0.837502 0.138064 0.136311
Si Si5 0.157725 0.324591 0.863176
Si Si6 0.836626 0.270625 0.500000
Si Si7 0.665223 0.500000 0.867538
Si Si8 0.163938 0.231422 0.255663
O O1 0.500000 0.397972 0.224583
O O2 0.695268 0.398314 0.387768
O O3 0.744807 0.366311 0.177004
O O4 0.717294 0.454871 0.205440
O O5 0.500000 0.350174 0.500000
O O6 0.246010 0.319472 0.500000
O O7 0.500000 0.937084 0.181828
O O8 0.239800 0.908135 0.186216
O O9 0.296599 0.000000 0.183179
O O10 0.339011 0.947879 0.000000
O O11 0.773582 0.182833 0.205567
O O12 0.000000 0.130638 0.161741
O O13 0.808952 0.146247 0.000000
O O14 0.222906 0.276132 0.814656
O O15 0.000000 0.332378 0.815343
O O16 0.157395 0.321736 0.000000
O O17 0.796063 0.238366 0.609687
O O18 0.000000 0.283834 0.500000
O O19 0.500000 0.500000 0.874707
O O20 0.726309 0.500000 0.000000
O O21 0.000000 0.229063 0.234700
#
# Coordination Sequence:
#
# PCOD8194532 Si02
#       8
#     8   4   8   8   8   4   4   8
#     4  10  20  34  52  72  96 125 157 194 235 279
#     4  10  20  33  50  74  98 119 153 202 241 269
#     4   8  14  25  40  59  87 122 155 186 224 273
#     4   9  16  26  41  63  92 120 148 187 230 273
#     4  10  19  31  49  72  97 125 157 191 231 283
#     4  10  18  32  53  69  88 125 164 193 227 282
#     4   9  18  33  52  72  95 125 158 191 232 286
#     4   9  17  29  46  68  91 120 155 190 231 277
#
# _framework density 16.631838999999999
#
# number of rings (size 3 to 8) (size 9 to 14) (size 15 to 20)
#    0.000    2.692    1.538    1.385    0.000    3.385 
#    0.000    5.000    0.000    3.231    0.000    2.154 
#    0.000    4.308    0.000    0.000    0.000    0.000 
#
# Total GULP energy -644612.337814 kJ/mol
# GULP energy per Si atom -12396.391112 kJ/mol
# Density = 1.659398 g / cm^3
# Si number density = 16.631839 Si / 1000 Ang^3
#
#
#
# Elastic Constant Matrix: (Units=GPa)
#
#
# Indices 1 2 3 4 5 6 
#
# 1 43.8653 54.9810 28.4924 0.0000 0.0000 0.0000
# 2 54.9810 177.6288 61.0842 0.0000 0.0000 0.0000
# 3 28.4924 61.0842 84.5462 0.0000 0.0000 0.0000
# 4 0.0000 0.0000 0.0000 8.5430 0.0000 0.0000
# 5 0.0000 0.0000 0.0000 0.0000 15.6008 0.0000
# 6 0.0000 0.0000 0.0000 0.0000 0.0000 25.2941
#
#
#
# Elastic Compliance Matrix: (Units=1/GPa)
#
#
# Indices 1 2 3 4 5 6 
#
# 1 0.039368 -0.010143 -0.005939 0.000000 0.000000 0.000000
# 2 -0.010143 0.010104 -0.003882 0.000000 0.000000 0.000000
# 3 -0.005939 -0.003882 0.016634 0.000000 0.000000 0.000000
# 4 0.000000 0.000000 0.000000 0.117055 0.000000 0.000000
# 5 0.000000 0.000000 0.000000 0.000000 0.064099 0.000000
# 6 0.000000 0.000000 0.000000 0.000000 0.000000 0.039535
#
#
# Mechanical properties :
#
#
# Convention : Reuss Voigt Hill
#
# Bulk Modulus (GPa) = 38.19943 66.12839 52.16391
# Shear Modulus (GPa) = 14.90539 20.65311 17.77925
#
# Velocity S-wave (km/s) = 2.99690 3.52771 3.27309
# Velocity P-wave (km/s) = 5.91547 7.51262 6.76137
#
# Compressibility (1/GPa) = 0.02617840
#
# Stress axis : x y z
#
# Youngs Moduli (GPa) = 25.40123 98.96762 60.11805
#
# Poissons Ratio (x) = 1.00386 0.35702
# Poissons Ratio (y) = 0.25765 0.23338
# Poissons Ratio (z) = 0.15085 0.38419
#
# Static dielectric constant tensor:
#      x y z
#    x 3.005600 0.000000 0.000000 
#    y 0.000000 3.445610 0.000000 
#    z 0.000000 0.000000 3.106070 
# 
# 
# High freq. dielectric constant tensor:
#      x y z
#    x 1.615280 0.000000 0.000000 
#    y 0.000000 1.647910 0.000000 
#    z 0.000000 0.000000 1.625930 
# 
# From -- ./inp_files/15547.got.cif
#   From: 2010.03.12/outbox.cif.g09.slc.cpg/sg47_8_cif.got.tgz:15547.got - 2010.04.14 03:12:58.
