data_PCOD8194446
_publ_section_title
;
Structure prediction by ZEFSAII (Michael W. Deem and Ramdas Pophale) SiO2 
 PCOD8194446
Probable space group: P M M M
;
_chemical_formula_sum "Si O2"
_cell_formula_units_Z 48
_cell_length_a 13.030416
_cell_length_b 15.498902
_cell_length_c 12.975556
_cell_angle_alpha 90.000000
_cell_angle_beta 90.000000
_cell_angle_gamma 90.000000
_cell_volume 2620.506187
_symmetry_space_group_name_H-M "P M M M"
_symmetry_group_IT_number 47
_symmetry_cell_setting 'orthorhombic'
loop_
_space_group_symop_operation_xyz
x,y,z
-x,-y,z
x,-y,-z
-x,y,-z
-x,-y,-z
x,y,-z
-x,y,z
x,-y,z
loop_
_atom_site_type_symbol
_atom_site_label
_atom_site_fract_x
_atom_site_fract_y
_atom_site_fract_z
Si Si1 0.500000 0.101944 0.112114
Si Si2 0.697214 0.097468 0.235566
Si Si3 0.883613 0.340445 0.790085
Si Si4 0.885355 0.157810 0.119961
Si Si5 0.112657 0.400947 0.000000
Si Si6 0.733804 0.401663 0.381285
Si Si7 0.383849 0.233013 0.619955
O O1 0.603047 0.132249 0.167739
O O2 0.500000 0.000000 0.102645
O O3 0.500000 0.145699 0.000000
O O4 0.800032 0.093671 0.165743
O O5 0.697460 0.166219 0.329024
O O6 0.678930 0.000000 0.277262
O O7 0.879115 0.237955 0.801825
O O8 0.829862 0.376498 0.688928
O O9 0.000000 0.374650 0.783181
O O10 0.828564 0.375887 0.894752
O O11 0.000000 0.116746 0.126749
O O12 0.861326 0.181564 0.000000
O O13 0.092129 0.500000 0.000000
O O14 0.000000 0.352255 0.000000
O O15 0.769150 0.393489 0.500000
O O16 0.696631 0.500000 0.358156
O O17 0.643775 0.333180 0.356523
O O18 0.375860 0.213978 0.500000
O O19 0.500000 0.216981 0.659307
#
# Coordination Sequence:
#
# PCOD8194446 Si02
#       7
#     4   8   8   8   4   8   8
#     4   9  18  32  51  79 110 137 171 221 277 328
#     4  11  21  35  57  83 111 144 184 230 278 330
#     4  10  18  31  51  76 107 143 182 226 272 320
#     4  10  20  35  55  80 113 152 191 228 270 325
#     4   9  16  26  44  72 102 134 173 216 264 314
#     4  10  21  36  55  80 108 140 179 221 270 330
#     4  10  21  38  59  82 108 138 177 227 281 333
#
# _framework density 18.317072
#
# number of rings (size 3 to 8) (size 9 to 14) (size 15 to 20)
#    0.000    2.000    3.333    1.000    0.000    3.333 
#    0.000    4.167    0.000    0.500    0.000    1.167 
#    0.000    4.000    0.000    0.000    0.000    0.000 
#
# Total GULP energy -594778.733479 kJ/mol
# GULP energy per Si atom -12391.223614 kJ/mol
# Density = 1.827538 g / cm^3
# Si number density = 18.317072 Si / 1000 Ang^3
#
#
#
# Elastic Constant Matrix: (Units=GPa)
#
#
# Indices 1 2 3 4 5 6 
#
# 1 94.0141 30.7950 44.3011 0.0000 0.0000 0.0000
# 2 30.7950 94.8979 40.6262 0.0000 0.0000 0.0000
# 3 44.3011 40.6262 85.1153 0.0000 0.0000 0.0000
# 4 0.0000 0.0000 0.0000 26.3602 0.0000 0.0000
# 5 0.0000 0.0000 0.0000 0.0000 29.8489 0.0000
# 6 0.0000 0.0000 0.0000 0.0000 0.0000 20.0988
#
#
#
# Elastic Compliance Matrix: (Units=1/GPa)
#
#
# Indices 1 2 3 4 5 6 
#
# 1 0.014342 -0.001833 -0.006590 0.000000 0.000000 0.000000
# 2 -0.001833 0.013478 -0.005479 0.000000 0.000000 0.000000
# 3 -0.006590 -0.005479 0.017794 0.000000 0.000000 0.000000
# 4 0.000000 0.000000 0.000000 0.037936 0.000000 0.000000
# 5 0.000000 0.000000 0.000000 0.000000 0.033502 0.000000
# 6 0.000000 0.000000 0.000000 0.000000 0.000000 0.049754
#
#
# Mechanical properties :
#
#
# Convention : Reuss Voigt Hill
#
# Bulk Modulus (GPa) = 56.14788 56.16355 56.15572
# Shear Modulus (GPa) = 24.93167 25.81525 25.37346
#
# Velocity S-wave (km/s) = 3.69333 3.75821 3.72591
# Velocity P-wave (km/s) = 6.99339 7.03993 7.01670
#
# Compressibility (1/GPa) = 0.01781011
#
# Stress axis : x y z
#
# Youngs Moduli (GPa) = 69.72291 74.19435 56.19845
#
# Poissons Ratio (x) = 0.13600 0.37036
# Poissons Ratio (y) = 0.12780 0.30792
# Poissons Ratio (z) = 0.45948 0.40652
#
# Static dielectric constant tensor:
#      x y z
#    x 3.314750 0.000000 0.000000 
#    y 0.000000 3.285090 0.000000 
#    z 0.000000 0.000000 3.459600 
# 
# 
# High freq. dielectric constant tensor:
#      x y z
#    x 1.688530 0.000000 0.000000 
#    y 0.000000 1.707280 0.000000 
#    z 0.000000 0.000000 1.710020 
# 
# From -- ./inp_files/22702.got.cif
#   From: 2010.03.12/outbox.cif.g09.slc.cpg/sg47_12_cif.got.tgz:22702.got - 2010.04.14 03:12:58.
