data_PCOD8194714
_publ_section_title
;
Structure prediction by ZEFSAII (Michael W. Deem and Ramdas Pophale) SiO2 
 PCOD8194714
Probable space group: P M M M
;
_chemical_formula_sum "Si O2"
_cell_formula_units_Z 64
_cell_length_a 15.347011
_cell_length_b 9.247910
_cell_length_c 30.065746
_cell_angle_alpha 90.000000
_cell_angle_beta 90.000000
_cell_angle_gamma 90.000000
_cell_volume 4267.164479
_symmetry_space_group_name_H-M "P M M M"
_symmetry_group_IT_number 47
_symmetry_cell_setting 'orthorhombic'
loop_
_space_group_symop_operation_xyz
x,y,z
-x,-y,z
x,-y,-z
-x,y,-z
-x,-y,-z
x,y,-z
-x,y,z
x,-y,z
loop_
_atom_site_type_symbol
_atom_site_label
_atom_site_fract_x
_atom_site_fract_y
_atom_site_fract_z
Si Si1 0.096657 0.671872 0.450443
Si Si2 0.405097 0.162049 0.615551
Si Si3 0.103485 0.662148 0.132148
Si Si4 0.596426 0.837001 0.278821
Si Si5 0.102169 0.169457 0.219677
Si Si6 0.240734 0.668507 0.615571
Si Si7 0.234909 0.329918 0.719133
Si Si8 0.896369 0.837601 0.049186
O O1 0.125890 0.720404 0.500000
O O2 0.095058 0.500000 0.447623
O O3 0.162085 0.735448 0.413469
O O4 0.000000 0.732251 0.440109
O O5 0.500000 0.215853 0.598544
O O6 0.404428 0.165927 0.668442
O O7 0.329961 0.264297 0.596696
O O8 0.387640 0.000000 0.598589
O O9 0.141103 0.500000 0.137751
O O10 0.133128 0.761166 0.173207
O O11 0.142141 0.730914 0.086713
O O12 0.000000 0.657361 0.129518
O O13 0.500000 0.787440 0.261501
O O14 0.672821 0.730205 0.261758
O O15 0.616045 0.000000 0.261970
O O16 0.154310 0.248228 0.258651
O O17 0.000000 0.196744 0.228099
O O18 0.124127 0.000000 0.218783
O O19 0.249172 0.500000 0.607569
O O20 0.224971 0.705000 0.667038
O O21 0.230062 0.500000 0.729217
O O22 0.000000 0.838340 0.051803
O O23 0.861889 0.000000 0.058082
O O24 0.866456 0.784940 0.000000
#
# Coordination Sequence:
#
# PCOD8194714 Si02
#       8
#     8   8   8   8   8   8   8   8
#     4   8  14  26  44  63  81 102 129 160 195 237
#     4   8  14  25  41  60  82 108 132 152 181 224
#     4   9  16  25  37  52  70  94 127 168 211 248
#     4   8  14  26  43  60  79 104 132 160 190 229
#     4  10  20  32  43  53  71 105 145 176 201 238
#     4   9  17  27  42  65  85 101 125 160 198 231
#     4  10  19  28  40  61  86 106 127 162 205 243
#     4   8  13  21  33  49  69  93 123 161 203 245
#
# _framework density 14.998250000000001
#
# number of rings (size 3 to 8) (size 9 to 14) (size 15 to 20)
#    0.000    3.250    0.000    2.625    0.000    4.000 
#    0.000    5.000    0.000    1.125    0.000    3.500 
#    0.000    0.000    0.000    0.000    0.000    0.625 
#
# Total GULP energy -793106.848628 kJ/mol
# GULP energy per Si atom -12392.294510 kJ/mol
# Density = 1.496411 g / cm^3
# Si number density = 14.998250 Si / 1000 Ang^3
#
#
#
# Elastic Constant Matrix: (Units=GPa)
#
#
# Indices 1 2 3 4 5 6 
#
# 1 86.4126 47.4996 49.4088 0.0000 0.0000 0.0000
# 2 47.4996 81.6603 44.8477 0.0000 0.0000 0.0000
# 3 49.4088 44.8477 68.9092 0.0000 0.0000 0.0000
# 4 0.0000 0.0000 0.0000 15.3135 0.0000 0.0000
# 5 0.0000 0.0000 0.0000 0.0000 1.5101 0.0000
# 6 0.0000 0.0000 0.0000 0.0000 0.0000 22.6240
#
#
#
# Elastic Compliance Matrix: (Units=1/GPa)
#
#
# Indices 1 2 3 4 5 6 
#
# 1 0.021506 -0.006288 -0.011327 0.000000 0.000000 0.000000
# 2 -0.006288 0.020896 -0.009091 0.000000 0.000000 0.000000
# 3 -0.011327 -0.009091 0.028550 0.000000 0.000000 0.000000
# 4 0.000000 0.000000 0.000000 0.065302 0.000000 0.000000
# 5 0.000000 0.000000 0.000000 0.000000 0.662226 0.000000
# 6 0.000000 0.000000 0.000000 0.000000 0.000000 0.044201
#
#
# Mechanical properties :
#
#
# Convention : Reuss Voigt Hill
#
# Bulk Modulus (GPa) = 57.01548 57.83270 57.42409
# Shear Modulus (GPa) = 5.54360 14.23791 9.89076
#
# Velocity S-wave (km/s) = 1.92463 3.08442 2.57078
# Velocity P-wave (km/s) = 6.56020 7.16437 6.86893
#
# Compressibility (1/GPa) = 0.01753910
#
# Stress axis : x y z
#
# Youngs Moduli (GPa) = 46.49951 47.85515 35.02601
#
# Poissons Ratio (x) = 0.30093 0.39675
# Poissons Ratio (y) = 0.29241 0.31842
# Poissons Ratio (z) = 0.52671 0.43505
#
# Static dielectric constant tensor:
#      x y z
#    x 2.974410 0.000000 0.000000 
#    y 0.000000 2.944980 0.000000 
#    z 0.000000 0.000000 2.832610 
# 
# 
# High freq. dielectric constant tensor:
#      x y z
#    x 1.546140 0.000000 0.000000 
#    y 0.000000 1.571260 0.000000 
#    z 0.000000 0.000000 1.548550 
# 
# From -- ./inp_files/22201.got.cif
#   From: 2010.03.12/outbox.cif.g09.slc.cpg/sg47_12_cif.got.tgz:22201.got - 2010.04.14 03:12:58.
