data_PCOD8194900
_publ_section_title
;
Structure prediction by ZEFSAII (Michael W. Deem and Ramdas Pophale) SiO2 
 PCOD8194900
Probable space group: P M M M
;
_chemical_formula_sum "Si O2"
_cell_formula_units_Z 64
_cell_length_a 19.035343
_cell_length_b 9.043354
_cell_length_c 23.668008
_cell_angle_alpha 90.000000
_cell_angle_beta 90.000000
_cell_angle_gamma 90.000000
_cell_volume 4074.290073
_symmetry_space_group_name_H-M "P M M M"
_symmetry_group_IT_number 47
_symmetry_cell_setting 'orthorhombic'
loop_
_space_group_symop_operation_xyz
x,y,z
-x,-y,z
x,-y,-z
-x,y,-z
-x,-y,-z
x,y,-z
-x,y,z
x,-y,z
loop_
_atom_site_type_symbol
_atom_site_label
_atom_site_fract_x
_atom_site_fract_y
_atom_site_fract_z
Si Si1 0.419479 0.170817 0.770794
Si Si2 0.077113 0.674525 0.765360
Si Si3 0.921110 0.828584 0.115120
Si Si4 0.353445 0.676392 0.666657
Si Si5 0.781449 0.332138 0.275706
Si Si6 0.304073 0.669036 0.163463
Si Si7 0.418916 0.170261 0.435659
Si Si8 0.206387 0.671094 0.936149
O O1 0.500000 0.192119 0.788900
O O2 0.407316 0.257102 0.712101
O O3 0.372020 0.233050 0.821811
O O4 0.400906 0.000000 0.760629
O O5 0.086970 0.500000 0.775620
O O6 0.086486 0.752246 0.824747
O O7 0.139006 0.734525 0.723324
O O8 0.000000 0.709548 0.739251
O O9 0.865897 0.759723 0.071634
O O10 0.000000 0.804776 0.091094
O O11 0.903966 0.000000 0.123011
O O12 0.356977 0.500000 0.671925
O O13 0.274973 0.739888 0.681187
O O14 0.372090 0.726018 0.603727
O O15 0.787117 0.500000 0.294812
O O16 0.753850 0.315263 0.212083
O O17 0.329437 0.500000 0.157517
O O18 0.268139 0.727169 0.105694
O O19 0.395457 0.198782 0.500000
O O20 0.500000 0.213278 0.427734
O O21 0.407109 0.000000 0.419028
O O22 0.190428 0.500000 0.923183
O O23 0.232958 0.695554 0.000000
#
# Coordination Sequence:
#
# PCOD8194900 Si02
#       8
#     8   8   8   8   8   8   8   8
#     4  10  20  32  47  68  92 117 146 180 218 265
#     4   9  15  26  46  65  84 116 153 182 214 263
#     4  10  20  31  43  63  91 118 145 181 221 260
#     4  10  19  29  44  67  96 124 151 187 224 259
#     4   8  14  26  42  63  89 113 140 180 224 259
#     4   9  17  31  48  66  88 110 138 180 227 271
#     4   9  18  32  47  63  89 125 160 193 225 258
#     4  10  20  34  51  67  84 110 146 185 222 267
#
# _framework density 15.708259
#
# number of rings (size 3 to 8) (size 9 to 14) (size 15 to 20)
#    0.000    2.625    1.250    2.625    0.000    4.750 
#    0.000    2.500    0.000    0.375    0.000    2.625 
#    0.000    0.500    0.000    6.250    0.000    1.000 
#
# Total GULP energy -793216.338688 kJ/mol
# GULP energy per Si atom -12394.005292 kJ/mol
# Density = 1.567251 g / cm^3
# Si number density = 15.708259 Si / 1000 Ang^3
#
#
#
# Elastic Constant Matrix: (Units=GPa)
#
#
# Indices 1 2 3 4 5 6 
#
# 1 107.5101 39.9891 50.8157 0.0000 0.0000 0.0000
# 2 39.9891 58.7198 30.7915 0.0000 0.0000 0.0000
# 3 50.8157 30.7915 80.8682 0.0000 0.0000 0.0000
# 4 0.0000 0.0000 0.0000 15.7855 0.0000 0.0000
# 5 0.0000 0.0000 0.0000 0.0000 25.0431 0.0000
# 6 0.0000 0.0000 0.0000 0.0000 0.0000 20.1103
#
#
#
# Elastic Compliance Matrix: (Units=1/GPa)
#
#
# Indices 1 2 3 4 5 6 
#
# 1 0.015035 -0.006603 -0.006933 0.000000 0.000000 0.000000
# 2 -0.006603 0.024179 -0.005057 0.000000 0.000000 0.000000
# 3 -0.006933 -0.005057 0.018648 0.000000 0.000000 0.000000
# 4 0.000000 0.000000 0.000000 0.063349 0.000000 0.000000
# 5 0.000000 0.000000 0.000000 0.000000 0.039931 0.000000
# 6 0.000000 0.000000 0.000000 0.000000 0.000000 0.049726
#
#
# Mechanical properties :
#
#
# Convention : Reuss Voigt Hill
#
# Bulk Modulus (GPa) = 48.36875 54.47676 51.42276
# Shear Modulus (GPa) = 19.61202 20.55456 20.08329
#
# Velocity S-wave (km/s) = 3.53727 3.62127 3.57952
# Velocity P-wave (km/s) = 6.89506 7.22775 7.06336
#
# Compressibility (1/GPa) = 0.02067451
#
# Stress axis : x y z
#
# Youngs Moduli (GPa) = 66.51339 41.35873 53.62520
#
# Poissons Ratio (x) = 0.27310 0.37179
# Poissons Ratio (y) = 0.43920 0.27119
# Poissons Ratio (z) = 0.46115 0.20915
#
# Static dielectric constant tensor:
#      x y z
#    x 3.256940 0.000000 0.000000 
#    y 0.000000 2.955270 0.000000 
#    z 0.000000 0.000000 2.796260 
# 
# 
# High freq. dielectric constant tensor:
#      x y z
#    x 1.603890 0.000000 0.000000 
#    y 0.000000 1.597170 0.000000 
#    z 0.000000 0.000000 1.569630 
# 
# From -- ./inp_files/32885.got.cif
#   From: 2010.03.12/outbox.cif.g09.slc.cpg/sg47_17_cif.got.tgz:32885.got - 2010.04.14 03:12:58.
