data_PCOD8194870
_publ_section_title
;
Structure prediction by ZEFSAII (Michael W. Deem and Ramdas Pophale) SiO2 
 PCOD8194870
Probable space group: P M M M
;
_chemical_formula_sum "Si O2"
_cell_formula_units_Z 52
_cell_length_a 13.697940
_cell_length_b 9.171625
_cell_length_c 26.203939
_cell_angle_alpha 90.000000
_cell_angle_beta 90.000000
_cell_angle_gamma 90.000000
_cell_volume 3292.062932
_symmetry_space_group_name_H-M "P M M M"
_symmetry_group_IT_number 47
_symmetry_cell_setting 'orthorhombic'
loop_
_space_group_symop_operation_xyz
x,y,z
-x,-y,z
x,-y,-z
-x,y,-z
-x,-y,-z
x,y,-z
-x,y,z
x,-y,z
loop_
_atom_site_type_symbol
_atom_site_label
_atom_site_fract_x
_atom_site_fract_y
_atom_site_fract_z
Si Si1 0.111929 0.174038 0.610491
Si Si2 0.611631 0.667511 0.941244
Si Si3 0.387487 0.830520 0.753533
Si Si4 0.888391 0.330224 0.197622
Si Si5 0.778021 0.329087 0.300184
Si Si6 0.722975 0.829876 0.144222
Si Si7 0.115093 0.158451 0.500000
O O1 0.183193 0.252063 0.649464
O O2 0.142700 0.235477 0.553827
O O3 0.000000 0.216494 0.622873
O O4 0.124977 0.000000 0.613147
O O5 0.500000 0.715890 0.932396
O O6 0.625381 0.500000 0.924917
O O7 0.682140 0.767696 0.908309
O O8 0.640818 0.689344 0.000000
O O9 0.500000 0.786724 0.748720
O O10 0.328333 0.735018 0.712750
O O11 0.352886 0.792760 0.810702
O O12 0.369666 0.000000 0.741477
O O13 0.874900 0.500000 0.185953
O O14 0.852122 0.292567 0.254416
O O15 0.827489 0.241665 0.155849
O O16 0.000000 0.280459 0.193228
O O17 0.768555 0.500000 0.310187
O O18 0.739435 0.000000 0.137552
O O19 0.000000 0.135222 0.500000
O O20 0.165889 0.000000 0.500000
#
# Coordination Sequence:
#
# PCOD8194870 Si02
#       7
#     8   8   8   8   8   8   4
#     4   9  16  27  44  64  88 119 152 184 218 258
#     4   9  18  32  49  69  93 121 151 180 213 260
#     4   9  18  32  47  64  89 119 150 182 216 260
#     4   9  18  32  47  63  88 123 157 184 213 256
#     4  10  19  29  43  66  93 118 147 183 222 264
#     4  10  19  30  47  71  95 117 144 182 226 265
#     4   7  12  24  41  61  84 113 150 185 215 254
#
# _framework density 15.795566000000001
#
# number of rings (size 3 to 8) (size 9 to 14) (size 15 to 20)
#    0.000    2.846    0.000    3.231    0.000    4.000 
#    0.000    1.154    0.000    1.846    0.000    3.769 
#    0.000    4.308    0.000    0.000    0.000    0.000 
#
# Total GULP energy -644664.674184 kJ/mol
# GULP energy per Si atom -12397.397580 kJ/mol
# Density = 1.575962 g / cm^3
# Si number density = 15.795566 Si / 1000 Ang^3
#
#
#
# Elastic Constant Matrix: (Units=GPa)
#
#
# Indices 1 2 3 4 5 6 
#
# 1 112.5514 49.5710 58.9110 0.0000 0.0000 0.0000
# 2 49.5710 59.3090 47.0706 0.0000 0.0000 0.0000
# 3 58.9110 47.0706 100.9557 0.0000 0.0000 0.0000
# 4 0.0000 0.0000 0.0000 19.7460 0.0000 0.0000
# 5 0.0000 0.0000 0.0000 0.0000 26.1988 0.0000
# 6 0.0000 0.0000 0.0000 0.0000 0.0000 22.0044
#
#
#
# Elastic Compliance Matrix: (Units=1/GPa)
#
#
# Indices 1 2 3 4 5 6 
#
# 1 0.015361 -0.009088 -0.004727 0.000000 0.000000 0.000000
# 2 -0.009088 0.032141 -0.009683 0.000000 0.000000 0.000000
# 3 -0.004727 -0.009683 0.017178 0.000000 0.000000 0.000000
# 4 0.000000 0.000000 0.000000 0.050643 0.000000 0.000000
# 5 0.000000 0.000000 0.000000 0.000000 0.038170 0.000000
# 6 0.000000 0.000000 0.000000 0.000000 0.000000 0.045445
#
#
# Mechanical properties :
#
#
# Convention : Reuss Voigt Hill
#
# Bulk Modulus (GPa) = 56.54150 64.88015 60.71082
# Shear Modulus (GPa) = 19.85472 21.40740 20.63106
#
# Velocity S-wave (km/s) = 3.54924 3.68541 3.61796
# Velocity P-wave (km/s) = 7.25738 7.69894 7.48142
#
# Compressibility (1/GPa) = 0.01768613
#
# Stress axis : x y z
#
# Youngs Moduli (GPa) = 65.09815 31.11260 58.21357
#
# Poissons Ratio (x) = 0.28275 0.27516
# Poissons Ratio (y) = 0.59160 0.56367
# Poissons Ratio (z) = 0.30770 0.30126
#
# Static dielectric constant tensor:
#      x y z
#    x 2.897910 0.000000 0.000000 
#    y 0.000000 2.912870 0.000000 
#    z 0.000000 0.000000 3.032760 
# 
# 
# High freq. dielectric constant tensor:
#      x y z
#    x 1.588320 0.000000 0.000000 
#    y 0.000000 1.602630 0.000000 
#    z 0.000000 0.000000 1.601470 
# 
# From -- ./inp_files/7626.got.cif
#   From: 2010.03.12/outbox.cif.g09.slc.cpg/sg47_4_cif.got.tgz:7626.got - 2010.04.14 03:12:58.
