data_PCOD8194334
_publ_section_title
;
Structure prediction by ZEFSAII (Michael W. Deem and Ramdas Pophale) SiO2 
 PCOD8194334
Probable space group: P M M M
;
_chemical_formula_sum "Si O2"
_cell_formula_units_Z 64
_cell_length_a 20.118805
_cell_length_b 9.014686
_cell_length_c 19.925148
_cell_angle_alpha 90.000000
_cell_angle_beta 90.000000
_cell_angle_gamma 90.000000
_cell_volume 3613.718684
_symmetry_space_group_name_H-M "P M M M"
_symmetry_group_IT_number 47
_symmetry_cell_setting 'orthorhombic'
loop_
_space_group_symop_operation_xyz
x,y,z
-x,-y,z
x,-y,-z
-x,y,-z
-x,-y,-z
x,y,-z
-x,y,z
x,-y,z
loop_
_atom_site_type_symbol
_atom_site_label
_atom_site_fract_x
_atom_site_fract_y
_atom_site_fract_z
Si Si1 0.391802 0.170230 0.245721
Si Si2 0.074611 0.323881 0.574927
Si Si3 0.188168 0.676829 0.673668
Si Si4 0.426826 0.824629 0.388288
Si Si5 0.426773 0.824850 0.896668
Si Si6 0.699356 0.667902 0.573391
Si Si7 0.756311 0.828030 0.797117
Si Si8 0.706167 0.328957 0.074338
O O1 0.418572 0.245486 0.313448
O O2 0.428151 0.233853 0.180071
O O3 0.313388 0.195177 0.239656
O O4 0.411017 0.000000 0.250631
O O5 0.093800 0.265000 0.500000
O O6 0.078980 0.500000 0.573558
O O7 0.123675 0.264125 0.633030
O O8 0.000000 0.271551 0.593109
O O9 0.187286 0.500000 0.681847
O O10 0.251165 0.731801 0.629658
O O11 0.189863 0.750140 0.747962
O O12 0.500000 0.782208 0.416048
O O13 0.369224 0.757321 0.433475
O O14 0.417143 0.000000 0.388035
O O15 0.500000 0.793602 0.928376
O O16 0.368043 0.738428 0.933573
O O17 0.409757 0.000000 0.900193
O O18 0.734161 0.677071 0.500000
O O19 0.681485 0.500000 0.591898
O O20 0.752470 0.754652 0.871257
O O21 0.774945 0.000000 0.806482
O O22 0.700466 0.500000 0.096226
O O23 0.738829 0.314228 0.000000
#
# Coordination Sequence:
#
# PCOD8194334 Si02
#       8
#     8   8   8   8   8   8   8   8
#     4   8  14  27  45  63  83 108 143 191 242 287
#     4   8  14  26  47  77 111 145 179 210 240 281
#     4  10  18  30  51  76 101 129 165 207 245 283
#     4  10  19  31  47  63  81 109 150 200 249 296
#     4   9  17  29  46  67  90 119 156 195 239 299
#     4  10  21  34  46  63  90 122 154 194 246 297
#     4  10  19  32  52  73  94 122 159 201 244 293
#     4  10  21  35  49  67  95 127 157 197 250 301
#
# _framework density 17.710287999999998
#
# number of rings (size 3 to 8) (size 9 to 14) (size 15 to 20)
#    0.000    2.625    1.250    2.625    0.000    5.250 
#    0.000    2.500    0.000    3.000    0.000    0.875 
#    0.000    0.500    0.000    5.750    0.000    1.625 
#
# Total GULP energy -792989.934756 kJ/mol
# GULP energy per Si atom -12390.467731 kJ/mol
# Density = 1.766998 g / cm^3
# Si number density = 17.710288 Si / 1000 Ang^3
#
#
#
# Elastic Constant Matrix: (Units=GPa)
#
#
# Indices 1 2 3 4 5 6 
#
# 1 79.7811 30.1288 43.8841 0.0000 0.0000 0.0000
# 2 30.1288 57.0991 36.8045 0.0000 0.0000 0.0000
# 3 43.8841 36.8045 114.7893 0.0000 0.0000 0.0000
# 4 0.0000 0.0000 0.0000 18.5196 0.0000 0.0000
# 5 0.0000 0.0000 0.0000 0.0000 88.0174 0.0000
# 6 0.0000 0.0000 0.0000 0.0000 0.0000 11.9853
#
#
#
# Elastic Compliance Matrix: (Units=1/GPa)
#
#
# Indices 1 2 3 4 5 6 
#
# 1 0.017449 -0.006186 -0.004687 0.000000 0.000000 0.000000
# 2 -0.006186 0.024269 -0.005416 0.000000 0.000000 0.000000
# 3 -0.004687 -0.005416 0.012240 0.000000 0.000000 0.000000
# 4 0.000000 0.000000 0.000000 0.053997 0.000000 0.000000
# 5 0.000000 0.000000 0.000000 0.000000 0.011361 0.000000
# 6 0.000000 0.000000 0.000000 0.000000 0.000000 0.083435
#
#
# Mechanical properties :
#
#
# Convention : Reuss Voigt Hill
#
# Bulk Modulus (GPa) = 46.77550 52.58940 49.68245
# Shear Modulus (GPa) = 20.62234 33.09462 26.85848
#
# Velocity S-wave (km/s) = 3.41607 4.32750 3.89851
# Velocity P-wave (km/s) = 6.48292 7.39786 6.95545
#
# Compressibility (1/GPa) = 0.02137871
#
# Stress axis : x y z
#
# Youngs Moduli (GPa) = 57.31144 41.20568 81.69775
#
# Poissons Ratio (x) = 0.25488 0.38295
# Poissons Ratio (y) = 0.35450 0.44251
# Poissons Ratio (z) = 0.26864 0.22319
#
# Static dielectric constant tensor:
#      x y z
#    x 3.150550 0.000000 0.000000 
#    y 0.000000 3.002040 0.000000 
#    z 0.000000 0.000000 3.471250 
# 
# 
# High freq. dielectric constant tensor:
#      x y z
#    x 1.644060 0.000000 0.000000 
#    y 0.000000 1.655630 0.000000 
#    z 0.000000 0.000000 1.692780 
# 
# From -- ./inp_files/31500.got.cif
#   From: 2010.03.12/outbox.cif.g09.slc.cpg/sg47_16_cif.got.tgz:31500.got - 2010.04.14 03:12:58.
