data_PCOD8194985
_publ_section_title
;
Structure prediction by ZEFSAII (Michael W. Deem and Ramdas Pophale) SiO2 
 PCOD8194985
Probable space group: P M M M
;
_chemical_formula_sum "Si O2"
_cell_formula_units_Z 44
_cell_length_a 8.941596
_cell_length_b 18.427780
_cell_length_c 19.321532
_cell_angle_alpha 90.000000
_cell_angle_beta 90.000000
_cell_angle_gamma 90.000000
_cell_volume 3183.681553
_symmetry_space_group_name_H-M "P M M M"
_symmetry_group_IT_number 47
_symmetry_cell_setting 'orthorhombic'
loop_
_space_group_symop_operation_xyz
x,y,z
-x,-y,z
x,-y,-z
-x,y,-z
-x,-y,-z
x,y,-z
-x,y,z
x,-y,z
loop_
_atom_site_type_symbol
_atom_site_label
_atom_site_fract_x
_atom_site_fract_y
_atom_site_fract_z
Si Si1 0.326790 0.266107 0.582380
Si Si2 0.327369 0.914527 0.211885
Si Si3 0.167907 0.086132 0.924145
Si Si4 0.823670 0.133626 0.653277
Si Si5 0.322760 0.423324 0.422698
Si Si6 0.669145 0.000000 0.581793
O O1 0.303239 0.260613 0.500000
O O2 0.500000 0.250084 0.600612
O O3 0.220904 0.210458 0.621506
O O4 0.274397 0.346251 0.610787
O O5 0.500000 0.895821 0.221772
O O6 0.277474 0.886030 0.136163
O O7 0.232270 0.870984 0.268089
O O8 0.295898 0.000000 0.221176
O O9 0.000000 0.114290 0.909427
O O10 0.168649 0.000000 0.924661
O O11 0.222264 0.114268 0.000000
O O12 0.750992 0.071317 0.607345
O O13 0.000000 0.124101 0.651492
O O14 0.256944 0.425750 0.500000
O O15 0.500000 0.421069 0.426969
O O16 0.272273 0.500000 0.385034
O O17 0.500000 0.000000 0.611254
O O18 0.668982 0.000000 0.500000
#
# Coordination Sequence:
#
# PCOD8194985 Si02
#       6
#     8   8   8   8   8   4
#     4   9  17  29  44  60  79 102 128 163 203 240
#     4  10  19  30  44  58  75  99 130 167 201 235
#     4   8  14  25  41  60  81 101 121 150 190 234
#     4  12  23  32  43  57  76 102 132 167 205 245
#     4   7  10  19  38  62  81  96 119 152 190 233
#     4  11  23  37  49  57  68  91 128 173 215 249
#
# _framework density 13.820477
#
# number of rings (size 3 to 8) (size 9 to 14) (size 15 to 20)
#    0.000    2.636    0.909    5.182    0.000    4.364 
#    0.000    1.818    0.000    0.545    0.000    2.545 
#    0.000    0.000    0.000    0.000    0.000    0.909 
#
# Total GULP energy -545098.229673 kJ/mol
# GULP energy per Si atom -12388.596129 kJ/mol
# Density = 1.378902 g / cm^3
# Si number density = 13.820477 Si / 1000 Ang^3
#
#
#
# Elastic Constant Matrix: (Units=GPa)
#
#
# Indices 1 2 3 4 5 6 
#
# 1 84.7225 37.9481 39.9892 0.0000 0.0000 0.0000
# 2 37.9481 94.2517 32.7551 0.0000 0.0000 0.0000
# 3 39.9892 32.7551 70.6500 0.0000 0.0000 0.0000
# 4 0.0000 0.0000 0.0000 -7.7594 0.0000 0.0000
# 5 0.0000 0.0000 0.0000 0.0000 22.2208 0.0000
# 6 0.0000 0.0000 0.0000 0.0000 0.0000 -3.8070
#
#
#
# Elastic Compliance Matrix: (Units=1/GPa)
#
#
# Indices 1 2 3 4 5 6 
#
# 1 0.017445 -0.004282 -0.007889 0.000000 0.000000 0.000000
# 2 -0.004282 0.013699 -0.003927 0.000000 0.000000 0.000000
# 3 -0.007889 -0.003927 0.020440 0.000000 0.000000 0.000000
# 4 0.000000 0.000000 0.000000 -0.128876 0.000000 0.000000
# 5 0.000000 0.000000 0.000000 0.000000 0.045003 0.000000
# 6 0.000000 0.000000 0.000000 0.000000 0.000000 -0.262677
#
#
# Mechanical properties :
#
#
# Convention : Reuss Voigt Hill
#
# Bulk Modulus (GPa) = 51.57989 52.33433 51.95711
# Shear Modulus (GPa) = -19.50779 11.39302 -4.05739
#
# Velocity S-wave (km/s) = -3.76109 2.87428 -1.71527
# Velocity P-wave (km/s) = 4.30596 6.99748 5.80974
#
# Compressibility (1/GPa) = 0.01938740
#
# Stress axis : x y z
#
# Youngs Moduli (GPa) = 57.32379 72.99884 48.92300
#
# Poissons Ratio (x) = 0.31259 0.38594
# Poissons Ratio (y) = 0.24547 0.19214
# Poissons Ratio (z) = 0.45221 0.28669
#
# Static dielectric constant tensor:
#      x y z
#    x 2.683380 0.000000 0.000000 
#    y 0.000000 2.881700 0.000000 
#    z 0.000000 0.000000 2.758010 
# 
# 
# High freq. dielectric constant tensor:
#      x y z
#    x 1.521790 0.000000 0.000000 
#    y 0.000000 1.500520 0.000000 
#    z 0.000000 0.000000 1.503510 
# 
# From -- ./inp_files/26662.got.cif
#   From: 2010.03.12/outbox.cif.g09.slc.cpg/sg47_14_cif.got.tgz:26662.got - 2010.04.14 03:12:58.
