data_PCOD8194855
_publ_section_title
;
Structure prediction by ZEFSAII (Michael W. Deem and Ramdas Pophale) SiO2 
 PCOD8194855
Probable space group: P M M M
;
_chemical_formula_sum "Si O2"
_cell_formula_units_Z 64
_cell_length_a 9.545067
_cell_length_b 27.836959
_cell_length_c 14.411790
_cell_angle_alpha 90.000000
_cell_angle_beta 90.000000
_cell_angle_gamma 90.000000
_cell_volume 3829.293867
_symmetry_space_group_name_H-M "P M M M"
_symmetry_group_IT_number 47
_symmetry_cell_setting 'orthorhombic'
loop_
_space_group_symop_operation_xyz
x,y,z
-x,-y,z
x,-y,-z
-x,y,-z
-x,-y,-z
x,y,-z
-x,y,z
x,-y,z
loop_
_atom_site_type_symbol
_atom_site_label
_atom_site_fract_x
_atom_site_fract_y
_atom_site_fract_z
Si Si1 0.168085 0.874481 0.729863
Si Si2 0.656458 0.363385 0.187680
Si Si3 0.843420 0.446108 0.109527
Si Si4 0.658714 0.164942 0.894016
Si Si5 0.152896 0.301637 0.711820
Si Si6 0.833418 0.212319 0.397497
Si Si7 0.660000 0.943354 0.394457
Si Si8 0.245253 0.271663 0.896785
O O1 0.232756 0.865474 0.831595
O O2 0.219732 0.830129 0.667383
O O3 0.233402 0.921025 0.680416
O O4 0.000000 0.879738 0.737218
O O5 0.500000 0.377288 0.215856
O O6 0.728483 0.410786 0.149447
O O7 0.741154 0.346513 0.280226
O O8 0.655208 0.319045 0.113807
O O9 0.814571 0.500000 0.146577
O O10 0.000000 0.429424 0.139196
O O11 0.831122 0.445508 0.000000
O O12 0.500000 0.150542 0.867338
O O13 0.670399 0.222397 0.882071
O O14 0.692246 0.150519 0.000000
O O15 0.220101 0.263390 0.641001
O O16 0.132009 0.275993 0.813692
O O17 0.000000 0.319155 0.678288
O O18 0.771227 0.204578 0.500000
O O19 0.000000 0.212719 0.398327
O O20 0.701659 0.928410 0.500000
O O21 0.500000 0.927112 0.374121
O O22 0.673495 0.000000 0.383222
O O23 0.176328 0.272639 0.000000
#
# Coordination Sequence:
#
# PCOD8194855 Si02
#       8
#     8   8   8   8   8   8   8   8
#     4  11  20  32  51  77 106 133 165 204 248 294
#     4  10  19  29  43  63  89 118 154 196 238 278
#     4   9  18  31  44  59  83 117 156 195 234 279
#     4  10  20  34  51  70  98 136 173 206 242 287
#     4   9  18  31  44  63  90 124 161 194 231 277
#     4   9  17  30  47  69  99 131 161 195 235 281
#     4   9  19  36  56  78 104 133 166 204 246 295
#     4   9  18  28  43  65  91 122 159 200 239 274
#
# _framework density 16.713263999999999
#
# number of rings (size 3 to 8) (size 9 to 14) (size 15 to 20)
#    0.750    1.750    1.250    2.625    0.000    3.250 
#    0.000    2.500    0.000    2.250    0.000    2.625 
#    0.000    0.500    0.000    5.750    0.000    1.625 
#
# Total GULP energy -792892.736215 kJ/mol
# GULP energy per Si atom -12388.949003 kJ/mol
# Density = 1.667522 g / cm^3
# Si number density = 16.713264 Si / 1000 Ang^3
#
#
#
# Elastic Constant Matrix: (Units=GPa)
#
#
# Indices 1 2 3 4 5 6 
#
# 1 103.0998 47.3651 35.4675 0.0000 0.0000 0.0000
# 2 47.3651 72.5097 30.9202 0.0000 0.0000 0.0000
# 3 35.4675 30.9202 72.4934 0.0000 0.0000 0.0000
# 4 0.0000 0.0000 0.0000 20.9415 0.0000 0.0000
# 5 0.0000 0.0000 0.0000 0.0000 15.0340 0.0000
# 6 0.0000 0.0000 0.0000 0.0000 0.0000 22.9777
#
#
#
# Elastic Compliance Matrix: (Units=1/GPa)
#
#
# Indices 1 2 3 4 5 6 
#
# 1 0.014657 -0.007965 -0.003774 0.000000 0.000000 0.000000
# 2 -0.007965 0.021186 -0.005139 0.000000 0.000000 0.000000
# 3 -0.003774 -0.005139 0.017833 0.000000 0.000000 0.000000
# 4 0.000000 0.000000 0.000000 0.047752 0.000000 0.000000
# 5 0.000000 0.000000 0.000000 0.000000 0.066516 0.000000
# 6 0.000000 0.000000 0.000000 0.000000 0.000000 0.043520
#
#
# Mechanical properties :
#
#
# Convention : Reuss Voigt Hill
#
# Bulk Modulus (GPa) = 50.20253 52.84537 51.52395
# Shear Modulus (GPa) = 19.85239 20.74733 20.29986
#
# Velocity S-wave (km/s) = 3.45022 3.52713 3.48889
# Velocity P-wave (km/s) = 6.78047 6.94802 6.86476
#
# Compressibility (1/GPa) = 0.01991931
#
# Stress axis : x y z
#
# Youngs Moduli (GPa) = 68.22844 47.20161 56.07702
#
# Poissons Ratio (x) = 0.37596 0.21161
# Poissons Ratio (y) = 0.54343 0.28820
# Poissons Ratio (z) = 0.25746 0.24259
#
# Static dielectric constant tensor:
#      x y z
#    x 2.967790 0.000000 0.000000 
#    y 0.000000 3.084250 0.000000 
#    z 0.000000 0.000000 3.063250 
# 
# 
# High freq. dielectric constant tensor:
#      x y z
#    x 1.632950 0.000000 0.000000 
#    y 0.000000 1.628930 0.000000 
#    z 0.000000 0.000000 1.621250 
# 
# From -- ./inp_files/22185.got.cif
#   From: 2010.03.12/outbox.cif.g09.slc.cpg/sg47_12_cif.got.tgz:22185.got - 2010.04.14 03:12:58.
