data_PCOD8194631
_publ_section_title
;
Structure prediction by ZEFSAII (Michael W. Deem and Ramdas Pophale) SiO2 
 PCOD8194631
Probable space group: P M M M
;
_chemical_formula_sum "Si O2"
_cell_formula_units_Z 52
_cell_length_a 11.938693
_cell_length_b 9.045823
_cell_length_c 25.435908
_cell_angle_alpha 90.000000
_cell_angle_beta 90.000000
_cell_angle_gamma 90.000000
_cell_volume 2746.958610
_symmetry_space_group_name_H-M "P M M M"
_symmetry_group_IT_number 47
_symmetry_cell_setting 'orthorhombic'
loop_
_space_group_symop_operation_xyz
x,y,z
-x,-y,z
x,-y,-z
-x,y,-z
-x,-y,-z
x,y,-z
-x,y,z
x,-y,z
loop_
_atom_site_type_symbol
_atom_site_label
_atom_site_fract_x
_atom_site_fract_y
_atom_site_fract_z
Si Si1 0.759735 0.325151 0.250732
Si Si2 0.213485 0.670148 0.059782
Si Si3 0.000000 0.673983 0.785455
Si Si4 0.628605 0.673007 0.648821
Si Si5 0.000000 0.173455 0.560405
Si Si6 0.000000 0.825007 0.897912
Si Si7 0.624905 0.324691 0.151006
Si Si8 0.241614 0.824880 0.439217
O O1 0.745665 0.500000 0.250579
O O2 0.890529 0.279997 0.248028
O O3 0.704266 0.261325 0.303809
O O4 0.694881 0.259421 0.200160
O O5 0.180468 0.500000 0.071862
O O6 0.314764 0.722458 0.097071
O O7 0.107263 0.772313 0.069819
O O8 0.254303 0.689350 0.000000
O O9 0.000000 0.500000 0.798170
O O10 0.000000 0.758149 0.840052
O O11 0.500000 0.708803 0.661888
O O12 0.648612 0.500000 0.641794
O O13 0.661368 0.750221 0.594447
O O14 0.880866 0.232771 0.582992
O O15 0.000000 0.216708 0.500000
O O16 0.000000 0.000000 0.567516
O O17 0.000000 0.000000 0.893791
O O18 0.500000 0.256714 0.151485
O O19 0.618298 0.500000 0.155414
O O20 0.257760 0.778908 0.500000
O O21 0.250543 0.000000 0.433471
#
# Coordination Sequence:
#
# PCOD8194631 Si02
#       8
#     8   8   4   8   4   4   8   8
#     4   9  17  31  53  78 104 134 170 211 260 318
#     4  10  20  34  54  80 108 139 178 222 265 311
#     4  10  18  34  60  83 104 134 174 219 267 317
#     4  10  21  35  51  76 110 143 176 217 264 313
#     4   7  12  27  51  75  97 125 164 210 256 301
#     4  12  23  35  53  78 109 141 176 217 267 324
#     4   9  16  28  51  80 106 134 171 216 262 309
#     4   9  18  34  56  79 104 139 182 221 261 314
#
# _framework density 18.930028
#
# number of rings (size 3 to 8) (size 9 to 14) (size 15 to 20)
#    0.000    2.538    1.538    2.308    0.000    4.923 
#    0.000    5.000    0.000    1.846    0.000    1.077 
#    0.000    0.000    0.000    0.000    0.000    0.000 
#
# Total GULP energy -644549.460151 kJ/mol
# GULP energy per Si atom -12395.181926 kJ/mol
# Density = 1.888694 g / cm^3
# Si number density = 18.930028 Si / 1000 Ang^3
#
#
#
# Elastic Constant Matrix: (Units=GPa)
#
#
# Indices 1 2 3 4 5 6 
#
# 1 154.7129 31.9256 77.5908 0.0000 0.0000 0.0000
# 2 31.9256 33.6393 28.7920 0.0000 0.0000 0.0000
# 3 77.5908 28.7920 134.3038 0.0000 0.0000 0.0000
# 4 0.0000 0.0000 0.0000 8.4259 0.0000 0.0000
# 5 0.0000 0.0000 0.0000 0.0000 38.5490 0.0000
# 6 0.0000 0.0000 0.0000 0.0000 0.0000 11.9555
#
#
#
# Elastic Compliance Matrix: (Units=1/GPa)
#
#
# Indices 1 2 3 4 5 6 
#
# 1 0.009865 -0.005492 -0.004522 0.000000 0.000000 0.000000
# 2 -0.005492 0.039465 -0.005288 0.000000 0.000000 0.000000
# 3 -0.004522 -0.005288 0.011192 0.000000 0.000000 0.000000
# 4 0.000000 0.000000 0.000000 0.118682 0.000000 0.000000
# 5 0.000000 0.000000 0.000000 0.000000 0.025941 0.000000
# 6 0.000000 0.000000 0.000000 0.000000 0.000000 0.083644
#
#
# Mechanical properties :
#
#
# Convention : Reuss Voigt Hill
#
# Bulk Modulus (GPa) = 33.42390 66.58588 50.00489
# Shear Modulus (GPa) = 15.18080 24.07591 19.62836
#
# Velocity S-wave (km/s) = 2.83493 3.57015 3.22357
# Velocity P-wave (km/s) = 5.33017 7.22812 6.35045
#
# Compressibility (1/GPa) = 0.02991871
#
# Stress axis : x y z
#
# Youngs Moduli (GPa) = 101.37332 25.33890 89.35236
#
# Poissons Ratio (x) = 0.13916 0.40402
# Poissons Ratio (y) = 0.55673 0.47247
# Poissons Ratio (z) = 0.45837 0.13398
#
# Static dielectric constant tensor:
#      x y z
#    x 3.804360 0.000000 0.000000 
#    y 0.000000 2.938730 0.000000 
#    z 0.000000 0.000000 3.502530 
# 
# 
# High freq. dielectric constant tensor:
#      x y z
#    x 1.750250 0.000000 0.000000 
#    y 0.000000 1.679470 0.000000 
#    z 0.000000 0.000000 1.736280 
# 
# From -- ./inp_files/33680.got.cif
#   From: 2010.03.12/outbox.cif.g09.slc.cpg/sg47_17_cif.got.tgz:33680.got - 2010.04.14 03:12:58.
