data_PCOD8194653
_publ_section_title
;
Structure prediction by ZEFSAII (Michael W. Deem and Ramdas Pophale) SiO2 
 PCOD8194653
Probable space group: P M M M
;
_chemical_formula_sum "Si O2"
_cell_formula_units_Z 52
_cell_length_a 9.258784
_cell_length_b 13.602047
_cell_length_c 26.213999
_cell_angle_alpha 90.000000
_cell_angle_beta 90.000000
_cell_angle_gamma 90.000000
_cell_volume 3301.349488
_symmetry_space_group_name_H-M "P M M M"
_symmetry_group_IT_number 47
_symmetry_cell_setting 'orthorhombic'
loop_
_space_group_symop_operation_xyz
x,y,z
-x,-y,z
x,-y,-z
-x,y,-z
-x,-y,-z
x,y,-z
-x,y,z
x,-y,z
loop_
_atom_site_type_symbol
_atom_site_label
_atom_site_fract_x
_atom_site_fract_y
_atom_site_fract_z
Si Si1 0.328387 0.210874 0.396242
Si Si2 0.164573 0.296895 0.245308
Si Si3 0.164978 0.889136 0.307190
Si Si4 0.167930 0.611996 0.647160
Si Si5 0.671059 0.889696 0.500000
Si Si6 0.837567 0.616734 0.944013
Si Si7 0.669295 0.613759 0.153253
O O1 0.500000 0.217539 0.392069
O O2 0.270947 0.136886 0.353288
O O3 0.262068 0.319487 0.389794
O O4 0.275700 0.169048 0.450396
O O5 0.191918 0.182772 0.259349
O O6 0.202637 0.364013 0.294032
O O7 0.270103 0.323704 0.199792
O O8 0.000000 0.315433 0.227885
O O9 0.000000 0.875600 0.326432
O O10 0.195608 0.000000 0.288869
O O11 0.211180 0.500000 0.635825
O O12 0.000000 0.632037 0.636024
O O13 0.500000 0.897122 0.500000
O O14 0.736906 0.000000 0.500000
O O15 0.832769 0.500000 0.944493
O O16 0.733607 0.656676 0.899575
O O17 0.000000 0.653406 0.932829
O O18 0.786879 0.655414 0.000000
O O19 0.500000 0.628509 0.150933
O O20 0.712649 0.500000 0.161019
#
# Coordination Sequence:
#
# PCOD8194653 Si02
#       7
#     8   8   8   8   4   8   8
#     4  10  19  31  49  71  92 115 145 180 217 260
#     4   9  17  29  45  63  83 111 145 177 211 255
#     4   9  18  33  50  67  89 115 143 178 221 266
#     4   9  18  33  50  66  88 119 151 182 218 259
#     4   9  18  32  48  67  92 118 143 175 218 267
#     4   8  14  25  40  56  76 108 149 185 215 251
#     4  10  19  27  37  58  88 118 146 179 216 250
#
# _framework density 15.751136000000001
#
# number of rings (size 3 to 8) (size 9 to 14) (size 15 to 20)
#    0.000    2.846    0.000    3.231    0.000    5.538 
#    0.000    3.462    0.000    5.077    0.000    0.000 
#    0.000    0.615    0.000    7.077    0.000    2.308 
#
# Total GULP energy -644691.300240 kJ/mol
# GULP energy per Si atom -12397.909620 kJ/mol
# Density = 1.571529 g / cm^3
# Si number density = 15.751136 Si / 1000 Ang^3
#
#
#
# Elastic Constant Matrix: (Units=GPa)
#
#
# Indices 1 2 3 4 5 6 
#
# 1 70.7809 43.1902 59.2160 0.0000 0.0000 0.0000
# 2 43.1902 106.2863 55.5894 0.0000 0.0000 0.0000
# 3 59.2160 55.5894 121.2776 0.0000 0.0000 0.0000
# 4 0.0000 0.0000 0.0000 15.6185 0.0000 0.0000
# 5 0.0000 0.0000 0.0000 0.0000 27.1843 0.0000
# 6 0.0000 0.0000 0.0000 0.0000 0.0000 21.2948
#
#
#
# Elastic Compliance Matrix: (Units=1/GPa)
#
#
# Indices 1 2 3 4 5 6 
#
# 1 0.025853 -0.005134 -0.010270 0.000000 0.000000 0.000000
# 2 -0.005134 0.013395 -0.003633 0.000000 0.000000 0.000000
# 3 -0.010270 -0.003633 0.014925 0.000000 0.000000 0.000000
# 4 0.000000 0.000000 0.000000 0.064026 0.000000 0.000000
# 5 0.000000 0.000000 0.000000 0.000000 0.036786 0.000000
# 6 0.000000 0.000000 0.000000 0.000000 0.000000 0.046960
#
#
# Mechanical properties :
#
#
# Convention : Reuss Voigt Hill
#
# Bulk Modulus (GPa) = 62.11521 68.25955 65.18738
# Shear Modulus (GPa) = 20.37614 22.17614 21.27614
#
# Velocity S-wave (km/s) = 3.60061 3.75628 3.67927
# Velocity P-wave (km/s) = 7.53703 7.88944 7.71525
#
# Compressibility (1/GPa) = 0.01609912
#
# Stress axis : x y z
#
# Youngs Moduli (GPa) = 38.68062 74.65503 67.00123
#
# Poissons Ratio (x) = 0.38330 0.68808
# Poissons Ratio (y) = 0.19860 0.24341
# Poissons Ratio (z) = 0.39724 0.27121
#
# Static dielectric constant tensor:
#      x y z
#    x 2.953760 0.000000 0.000000 
#    y 0.000000 2.959510 0.000000 
#    z 0.000000 0.000000 3.070330 
# 
# 
# High freq. dielectric constant tensor:
#      x y z
#    x 1.603110 0.000000 0.000000 
#    y 0.000000 1.581670 0.000000 
#    z 0.000000 0.000000 1.597030 
# 
# From -- ./inp_files/31976.got.cif
#   From: 2010.03.12/outbox.cif.g09.slc.cpg/sg47_16_cif.got.tgz:31976.got - 2010.04.14 03:12:58.
