data_PCOD8194810
_publ_section_title
;
Structure prediction by ZEFSAII (Michael W. Deem and Ramdas Pophale) SiO2 
 PCOD8194810
Probable space group: P M M M
;
_chemical_formula_sum "Si O2"
_cell_formula_units_Z 64
_cell_length_a 14.323913
_cell_length_b 9.267286
_cell_length_c 31.217511
_cell_angle_alpha 90.000000
_cell_angle_beta 90.000000
_cell_angle_gamma 90.000000
_cell_volume 4143.930987
_symmetry_space_group_name_H-M "P M M M"
_symmetry_group_IT_number 47
_symmetry_cell_setting 'orthorhombic'
loop_
_space_group_symop_operation_xyz
x,y,z
-x,-y,z
x,-y,-z
-x,y,-z
-x,-y,-z
x,y,-z
-x,y,z
x,-y,z
loop_
_atom_site_type_symbol
_atom_site_label
_atom_site_fract_x
_atom_site_fract_y
_atom_site_fract_z
Si Si1 0.891205 0.168138 0.214821
Si Si2 0.398777 0.171327 0.165915
Si Si3 0.394092 0.167682 0.735917
Si Si4 0.210268 0.170980 0.871281
Si Si5 0.106675 0.331084 0.628067
Si Si6 0.894990 0.171676 0.047190
Si Si7 0.780721 0.671280 0.288434
Si Si8 0.110924 0.162798 0.546861
O O1 0.858689 0.213247 0.167311
O O2 0.834945 0.262868 0.248372
O O3 0.000000 0.202970 0.219203
O O4 0.869535 0.000000 0.223368
O O5 0.500000 0.230865 0.150008
O O6 0.382050 0.216447 0.214909
O O7 0.314415 0.234489 0.137161
O O8 0.399796 0.000000 0.163514
O O9 0.500000 0.196592 0.720411
O O10 0.323728 0.264882 0.708216
O O11 0.368203 0.000000 0.730329
O O12 0.171331 0.237454 0.915756
O O13 0.216107 0.000000 0.875151
O O14 0.112517 0.500000 0.621031
O O15 0.166202 0.280716 0.668666
O O16 0.150685 0.260012 0.585341
O O17 0.000000 0.281040 0.635860
O O18 0.000000 0.229354 0.054414
O O19 0.895763 0.000000 0.050236
O O20 0.858823 0.219978 0.000000
O O21 0.777027 0.500000 0.283347
O O22 0.146638 0.217222 0.500000
O O23 0.000000 0.170473 0.547271
O O24 0.145348 0.000000 0.554496
#
# Coordination Sequence:
#
# PCOD8194810 Si02
#       8
#     8   8   8   8   8   8   8   8
#     4  10  19  29  42  60  81 110 150 186 212 248
#     4   8  13  22  38  57  74  95 127 168 210 251
#     4   9  17  31  49  65  82 107 143 183 219 258
#     4   9  14  22  37  55  75  99 134 176 213 253
#     4   9  18  30  41  56  83 121 156 178 205 252
#     4   8  13  20  30  47  73 103 131 163 210 261
#     4  11  21  31  43  61  90 121 146 177 218 262
#     4   8  14  25  41  61  83 107 141 187 229 255
#
# _framework density 15.444273000000001
#
# number of rings (size 3 to 8) (size 9 to 14) (size 15 to 20)
#    0.000    3.000    1.250    2.625    0.000    3.750 
#    0.000    2.500    0.000    0.375    0.000    2.625 
#    0.000    1.000    0.000    8.125    0.000   10.750 
#
# Total GULP energy -793149.457238 kJ/mol
# GULP energy per Si atom -12392.960269 kJ/mol
# Density = 1.540912 g / cm^3
# Si number density = 15.444273 Si / 1000 Ang^3
#
#
#
# Elastic Constant Matrix: (Units=GPa)
#
#
# Indices 1 2 3 4 5 6 
#
# 1 99.0643 28.4371 55.8047 0.0000 0.0000 0.0000
# 2 28.4371 30.3604 34.5997 0.0000 0.0000 0.0000
# 3 55.8047 34.5997 119.3177 0.0000 0.0000 0.0000
# 4 0.0000 0.0000 0.0000 5.3137 0.0000 0.0000
# 5 0.0000 0.0000 0.0000 0.0000 9.3351 0.0000
# 6 0.0000 0.0000 0.0000 0.0000 0.0000 15.0632
#
#
#
# Elastic Compliance Matrix: (Units=1/GPa)
#
#
# Indices 1 2 3 4 5 6 
#
# 1 0.015249 -0.009194 -0.004466 0.000000 0.000000 0.000000
# 2 -0.009194 0.054738 -0.011573 0.000000 0.000000 0.000000
# 3 -0.004466 -0.011573 0.013826 0.000000 0.000000 0.000000
# 4 0.000000 0.000000 0.000000 0.188194 0.000000 0.000000
# 5 0.000000 0.000000 0.000000 0.000000 0.107123 0.000000
# 6 0.000000 0.000000 0.000000 0.000000 0.000000 0.066387
#
#
# Mechanical properties :
#
#
# Convention : Reuss Voigt Hill
#
# Bulk Modulus (GPa) = 29.98729 54.04727 42.01728
# Shear Modulus (GPa) = 9.86002 14.60245 12.23123
#
# Velocity S-wave (km/s) = 2.52945 3.07822 2.81723
# Velocity P-wave (km/s) = 5.29050 6.90688 6.15201
#
# Compressibility (1/GPa) = 0.03334746
#
# Stress axis : x y z
#
# Youngs Moduli (GPa) = 65.57623 18.26887 72.32882
#
# Poissons Ratio (x) = 0.16796 0.32303
# Poissons Ratio (y) = 0.60288 0.83706
# Poissons Ratio (z) = 0.29288 0.21143
#
# Static dielectric constant tensor:
#      x y z
#    x 3.136610 0.000000 0.000000 
#    y 0.000000 2.628820 0.000000 
#    z 0.000000 0.000000 3.178090 
# 
# 
# High freq. dielectric constant tensor:
#      x y z
#    x 1.579520 0.000000 0.000000 
#    y 0.000000 1.554030 0.000000 
#    z 0.000000 0.000000 1.584750 
# 
# From -- ./inp_files/34714.got.cif
#   From: 2010.03.12/outbox.cif.g09.slc.cpg/sg47_18_cif.got.tgz:34714.got - 2010.04.14 03:12:58.
