data_PCOD8194180
_publ_section_title
;
Structure prediction by ZEFSAII (Michael W. Deem and Ramdas Pophale) SiO2 
 PCOD8194180
Probable space group: P M M M
;
_chemical_formula_sum "Si O2"
_cell_formula_units_Z 64
_cell_length_a 9.169289
_cell_length_b 14.163301
_cell_length_c 30.773325
_cell_angle_alpha 90.000000
_cell_angle_beta 90.000000
_cell_angle_gamma 90.000000
_cell_volume 3996.451709
_symmetry_space_group_name_H-M "P M M M"
_symmetry_group_IT_number 47
_symmetry_cell_setting 'orthorhombic'
loop_
_space_group_symop_operation_xyz
x,y,z
-x,-y,z
x,-y,-z
-x,y,-z
-x,-y,-z
x,y,-z
-x,y,z
x,-y,z
loop_
_atom_site_type_symbol
_atom_site_label
_atom_site_fract_x
_atom_site_fract_y
_atom_site_fract_z
Si Si1 0.830582 0.391875 0.658191
Si Si2 0.833034 0.108516 0.550396
Si Si3 0.666100 0.394421 0.746334
Si Si4 0.326966 0.105565 0.703234
Si Si5 0.331023 0.793105 0.209337
Si Si6 0.672944 0.775742 0.379193
Si Si7 0.171393 0.108995 0.131554
Si Si8 0.336259 0.112026 0.047650
O O1 0.803490 0.500000 0.644555
O O2 0.771432 0.372583 0.706417
O O3 0.744846 0.327660 0.623647
O O4 0.000000 0.365645 0.657602
O O5 0.808234 0.131020 0.500000
O O6 0.724393 0.174678 0.576886
O O7 0.000000 0.129404 0.563514
O O8 0.794137 0.000000 0.560390
O O9 0.500000 0.382400 0.729203
O O10 0.692577 0.500000 0.764888
O O11 0.694934 0.319256 0.784651
O O12 0.500000 0.102847 0.702043
O O13 0.273634 0.154404 0.747496
O O14 0.269609 0.163701 0.661892
O O15 0.261671 0.000000 0.701146
O O16 0.500000 0.816819 0.200505
O O17 0.237539 0.827149 0.169059
O O18 0.500000 0.765556 0.379908
O O19 0.229744 0.148628 0.085460
O O20 0.000000 0.120999 0.131757
O O21 0.217864 0.000000 0.138841
O O22 0.500000 0.147871 0.057508
O O23 0.333441 0.000000 0.046748
O O24 0.285282 0.149694 0.000000
#
# Coordination Sequence:
#
# PCOD8194180 Si02
#       8
#     8   8   8   8   8   8   8   8
#     4  10  20  33  50  72  97 125 157 194 239 290
#     4   9  19  36  55  75 102 134 163 192 232 282
#     4   9  17  31  50  70  91 116 153 200 244 282
#     4   9  17  28  42  64  93 123 155 189 224 265
#     4  10  18  30  46  63  88 125 159 188 228 276
#     4  11  20  32  51  75 100 126 160 201 240 277
#     4  10  20  30  40  60  91 125 159 194 232 271
#     4   8  14  26  44  63  82 110 152 196 234 275
#
# _framework density 16.014205
#
# number of rings (size 3 to 8) (size 9 to 14) (size 15 to 20)
#    0.000    2.500    1.250    2.625    0.000    3.750 
#    0.000    1.875    0.000    2.625    0.000    2.625 
#    0.000    0.500    0.000    5.750    0.000    1.875 
#
# Total GULP energy -793527.711362 kJ/mol
# GULP energy per Si atom -12398.870490 kJ/mol
# Density = 1.597776 g / cm^3
# Si number density = 16.014205 Si / 1000 Ang^3
#
#
#
# Elastic Constant Matrix: (Units=GPa)
#
#
# Indices 1 2 3 4 5 6 
#
# 1 77.8677 47.2407 51.1688 0.0000 0.0000 0.0000
# 2 47.2407 92.5720 51.0645 0.0000 0.0000 0.0000
# 3 51.1688 51.0645 102.0796 0.0000 0.0000 0.0000
# 4 0.0000 0.0000 0.0000 12.4816 0.0000 0.0000
# 5 0.0000 0.0000 0.0000 0.0000 23.6517 0.0000
# 6 0.0000 0.0000 0.0000 0.0000 0.0000 21.0705
#
#
#
# Elastic Compliance Matrix: (Units=1/GPa)
#
#
# Indices 1 2 3 4 5 6 
#
# 1 0.022109 -0.007139 -0.007511 0.000000 0.000000 0.000000
# 2 -0.007139 0.017225 -0.005038 0.000000 0.000000 0.000000
# 3 -0.007511 -0.005038 0.016081 0.000000 0.000000 0.000000
# 4 0.000000 0.000000 0.000000 0.080118 0.000000 0.000000
# 5 0.000000 0.000000 0.000000 0.000000 0.042280 0.000000
# 6 0.000000 0.000000 0.000000 0.000000 0.000000 0.047460
#
#
# Mechanical properties :
#
#
# Convention : Reuss Voigt Hill
#
# Bulk Modulus (GPa) = 62.34886 63.49635 62.92260
# Shear Modulus (GPa) = 18.51875 19.64378 19.08126
#
# Velocity S-wave (km/s) = 3.40427 3.50615 3.45559
# Velocity P-wave (km/s) = 7.38038 7.49179 7.43629
#
# Compressibility (1/GPa) = 0.01603879
#
# Stress axis : x y z
#
# Youngs Moduli (GPa) = 45.22953 58.05622 62.18331
#
# Poissons Ratio (x) = 0.41449 0.46707
# Poissons Ratio (y) = 0.32291 0.31327
# Poissons Ratio (z) = 0.33973 0.29247
#
# Static dielectric constant tensor:
#      x y z
#    x 2.975790 0.000000 0.000000 
#    y 0.000000 3.070230 0.000000 
#    z 0.000000 0.000000 3.039190 
# 
# 
# High freq. dielectric constant tensor:
#      x y z
#    x 1.610440 0.000000 0.000000 
#    y 0.000000 1.598810 0.000000 
#    z 0.000000 0.000000 1.601900 
# 
# From -- ./inp_files/8326.got.cif
#   From: 2010.03.12/outbox.cif.g09.slc.cpg/sg47_5_cif.got.tgz:8326.got - 2010.04.14 03:12:58.
