data_PCOD8194884
_publ_section_title
;
Structure prediction by ZEFSAII (Michael W. Deem and Ramdas Pophale) SiO2 
 PCOD8194884
Probable space group: P M M M
;
_chemical_formula_sum "Si O2"
_cell_formula_units_Z 52
_cell_length_a 14.020772
_cell_length_b 8.191922
_cell_length_c 27.992946
_cell_angle_alpha 90.000000
_cell_angle_beta 90.000000
_cell_angle_gamma 90.000000
_cell_volume 3215.187775
_symmetry_space_group_name_H-M "P M M M"
_symmetry_group_IT_number 47
_symmetry_cell_setting 'orthorhombic'
loop_
_space_group_symop_operation_xyz
x,y,z
-x,-y,z
x,-y,-z
-x,y,-z
-x,-y,-z
x,y,-z
-x,y,z
x,-y,z
loop_
_atom_site_type_symbol
_atom_site_label
_atom_site_fract_x
_atom_site_fract_y
_atom_site_fract_z
Si Si1 0.776040 0.811078 0.804364
Si Si2 0.278997 0.307103 0.947384
Si Si3 0.892791 0.689248 0.718760
Si Si4 0.605468 0.308609 0.857776
Si Si5 0.105930 0.806633 0.893598
Si Si6 0.113593 0.000000 0.554464
Si Si7 0.112964 0.681932 0.390085
O O1 0.816576 0.779735 0.751785
O O2 0.672533 0.728791 0.812184
O O3 0.850224 0.741418 0.843560
O O4 0.759917 0.000000 0.812334
O O5 0.285539 0.500000 0.946553
O O6 0.348395 0.232980 0.906443
O O7 0.170261 0.254602 0.937331
O O8 0.308449 0.241052 0.000000
O O9 0.892863 0.500000 0.731767
O O10 0.858815 0.717672 0.664565
O O11 0.000000 0.760477 0.726260
O O12 0.500000 0.232218 0.850063
O O13 0.596180 0.500000 0.863900
O O14 0.000000 0.732567 0.899105
O O15 0.101479 0.000000 0.893619
O O16 0.154280 0.832667 0.578517
O O17 0.148309 0.000000 0.500000
O O18 0.000000 0.000000 0.558640
O O19 0.151888 0.500000 0.405611
O O20 0.000000 0.676311 0.395055
#
# Coordination Sequence:
#
# PCOD8194884 Si02
#       7
#     8   8   8   8   8   4   8
#     4  10  19  29  44  65  85 107 137 172 210 254
#     4   9  18  31  46  65  84 101 129 168 206 246
#     4   9  17  28  42  61  86 115 145 179 218 257
#     4   9  18  33  50  64  81 106 133 165 207 255
#     4   9  18  31  43  58  83 111 137 163 196 244
#     4   9  16  24  36  54  76 110 155 197 234 267
#     4   8  15  26  37  53  79 110 147 191 232 267
#
# _framework density 16.173238999999999
#
# number of rings (size 3 to 8) (size 9 to 14) (size 15 to 20)
#    0.000    3.000    0.000    1.846    1.077    3.385 
#    0.000    4.615    0.000    0.000    0.000    4.308 
#    0.000    0.000    0.000    0.000    0.000    1.538 
#
# Total GULP energy -644450.175516 kJ/mol
# GULP energy per Si atom -12393.272606 kJ/mol
# Density = 1.613643 g / cm^3
# Si number density = 16.173239 Si / 1000 Ang^3
#
#
#
# Elastic Constant Matrix: (Units=GPa)
#
#
# Indices 1 2 3 4 5 6 
#
# 1 93.6711 20.5860 38.3793 0.0000 0.0000 0.0000
# 2 20.5860 51.8754 36.9176 0.0000 0.0000 0.0000
# 3 38.3793 36.9176 92.0422 0.0000 0.0000 0.0000
# 4 0.0000 0.0000 0.0000 22.9517 0.0000 0.0000
# 5 0.0000 0.0000 0.0000 0.0000 8.2086 0.0000
# 6 0.0000 0.0000 0.0000 0.0000 0.0000 12.6729
#
#
#
# Elastic Compliance Matrix: (Units=1/GPa)
#
#
# Indices 1 2 3 4 5 6 
#
# 1 0.012997 -0.001821 -0.004689 0.000000 0.000000 0.000000
# 2 -0.001821 0.027232 -0.010164 0.000000 0.000000 0.000000
# 3 -0.004689 -0.010164 0.016896 0.000000 0.000000 0.000000
# 4 0.000000 0.000000 0.000000 0.043570 0.000000 0.000000
# 5 0.000000 0.000000 0.000000 0.000000 0.121824 0.000000
# 6 0.000000 0.000000 0.000000 0.000000 0.000000 0.078908
#
#
# Mechanical properties :
#
#
# Convention : Reuss Voigt Hill
#
# Bulk Modulus (GPa) = 42.05374 47.70605 44.87990
# Shear Modulus (GPa) = 14.58998 18.21370 16.40184
#
# Velocity S-wave (km/s) = 3.00677 3.35948 3.18800
# Velocity P-wave (km/s) = 6.17355 6.67900 6.43124
#
# Compressibility (1/GPa) = 0.02377910
#
# Stress axis : x y z
#
# Youngs Moduli (GPa) = 76.94060 36.72086 59.18401
#
# Poissons Ratio (x) = 0.06685 0.27753
# Poissons Ratio (y) = 0.14007 0.60153
# Poissons Ratio (z) = 0.36079 0.37322
#
# Static dielectric constant tensor:
#      x y z
#    x 2.971000 0.000000 0.000000 
#    y 0.000000 3.102570 0.000000 
#    z 0.000000 0.000000 3.056790 
# 
# 
# High freq. dielectric constant tensor:
#      x y z
#    x 1.577410 0.000000 0.000000 
#    y 0.000000 1.623490 0.000000 
#    z 0.000000 0.000000 1.606910 
# 
# From -- ./inp_files/8048.got.cif
#   From: 2010.03.12/outbox.cif.g09.slc.cpg/sg47_5_cif.got.tgz:8048.got - 2010.04.14 03:12:58.
