data_PCOD8194549
_publ_section_title
;
Structure prediction by ZEFSAII (Michael W. Deem and Ramdas Pophale) SiO2 
 PCOD8194549
Probable space group: P M M M
;
_chemical_formula_sum "Si O2"
_cell_formula_units_Z 52
_cell_length_a 18.722343
_cell_length_b 9.260909
_cell_length_c 15.670772
_cell_angle_alpha 90.000000
_cell_angle_beta 90.000000
_cell_angle_gamma 90.000000
_cell_volume 2717.091139
_symmetry_space_group_name_H-M "P M M M"
_symmetry_group_IT_number 47
_symmetry_cell_setting 'orthorhombic'
loop_
_space_group_symop_operation_xyz
x,y,z
-x,-y,z
x,-y,-z
-x,y,-z
-x,-y,-z
x,y,-z
-x,y,z
x,-y,z
loop_
_atom_site_type_symbol
_atom_site_label
_atom_site_fract_x
_atom_site_fract_y
_atom_site_fract_z
Si Si1 0.318715 0.171125 0.403543
Si Si2 0.078599 0.831578 0.190669
Si Si3 0.159576 0.168946 0.640762
Si Si4 0.582483 0.166827 0.249702
Si Si5 0.346413 0.670122 0.099854
Si Si6 0.083611 0.659162 0.500000
Si Si7 0.789681 0.158963 0.902108
O O1 0.334867 0.230942 0.500000
O O2 0.240336 0.222486 0.373749
O O3 0.374404 0.228617 0.332176
O O4 0.322964 0.000000 0.406700
O O5 0.131424 0.787502 0.266694
O O6 0.128306 0.786320 0.110389
O O7 0.000000 0.754005 0.190174
O O8 0.062670 0.000000 0.191872
O O9 0.106020 0.253208 0.581788
O O10 0.153108 0.000000 0.620957
O O11 0.500000 0.184052 0.273387
O O12 0.596601 0.255199 0.162459
O O13 0.602899 0.000000 0.232356
O O14 0.348402 0.500000 0.114114
O O15 0.268988 0.728014 0.131258
O O16 0.362854 0.707383 0.000000
O O17 0.118843 0.500000 0.500000
O O18 0.000000 0.644459 0.500000
O O19 0.780049 0.000000 0.856726
O O20 0.775383 0.137439 0.000000
#
# Coordination Sequence:
#
# PCOD8194549 Si02
#       7
#     8   8   8   8   8   4   8
#     4   9  17  32  56  83 109 138 177 222 264 310
#     4   9  17  28  46  76 109 138 173 219 267 315
#     4  10  18  32  54  74  95 133 178 212 247 303
#     4  10  21  36  57  86 115 142 174 216 267 321
#     4  10  21  37  57  80 108 144 183 222 267 321
#     4  11  23  35  47  69 102 131 160 212 271 309
#     4   9  17  31  53  78 104 137 177 221 266 312
#
# _framework density 19.138114000000002
#
# number of rings (size 3 to 8) (size 9 to 14) (size 15 to 20)
#    0.000    2.385    0.769    2.077    0.000    5.846 
#    0.000    7.692    0.000    1.385    0.000    3.231 
#    0.000    0.000    0.000    0.000    0.000    0.000 
#
# Total GULP energy -644292.501511 kJ/mol
# GULP energy per Si atom -12390.240414 kJ/mol
# Density = 1.909456 g / cm^3
# Si number density = 19.138114 Si / 1000 Ang^3
#
#
#
# Elastic Constant Matrix: (Units=GPa)
#
#
# Indices 1 2 3 4 5 6 
#
# 1 114.6701 29.9020 45.9294 0.0000 0.0000 0.0000
# 2 29.9020 53.3831 32.4452 0.0000 0.0000 0.0000
# 3 45.9294 32.4452 73.4861 0.0000 0.0000 0.0000
# 4 0.0000 0.0000 0.0000 7.5538 0.0000 0.0000
# 5 0.0000 0.0000 0.0000 0.0000 36.1927 0.0000
# 6 0.0000 0.0000 0.0000 0.0000 0.0000 10.4305
#
#
#
# Elastic Compliance Matrix: (Units=1/GPa)
#
#
# Indices 1 2 3 4 5 6 
#
# 1 0.011963 -0.002947 -0.006175 0.000000 0.000000 0.000000
# 2 -0.002947 0.026329 -0.009782 0.000000 0.000000 0.000000
# 3 -0.006175 -0.009782 0.021787 0.000000 0.000000 0.000000
# 4 0.000000 0.000000 0.000000 0.132383 0.000000 0.000000
# 5 0.000000 0.000000 0.000000 0.000000 0.027630 0.000000
# 6 0.000000 0.000000 0.000000 0.000000 0.000000 0.095873
#
#
# Mechanical properties :
#
#
# Convention : Reuss Voigt Hill
#
# Bulk Modulus (GPa) = 44.90782 50.89917 47.90349
# Shear Modulus (GPa) = 13.84284 19.71959 16.78122
#
# Velocity S-wave (km/s) = 2.69236 3.21344 2.96437
# Velocity P-wave (km/s) = 5.76031 6.35781 6.06642
#
# Compressibility (1/GPa) = 0.02226784
#
# Stress axis : x y z
#
# Youngs Moduli (GPa) = 83.59266 37.98077 45.89923
#
# Poissons Ratio (x) = 0.11195 0.28345
# Poissons Ratio (y) = 0.24639 0.44901
# Poissons Ratio (z) = 0.51622 0.37155
#
# Static dielectric constant tensor:
#      x y z
#    x 3.630570 0.000000 0.000000 
#    y 0.000000 3.233530 0.000000 
#    z 0.000000 0.000000 3.309650 
# 
# 
# High freq. dielectric constant tensor:
#      x y z
#    x 1.751330 0.000000 0.000000 
#    y 0.000000 1.697000 0.000000 
#    z 0.000000 0.000000 1.750690 
# 
# From -- ./inp_files/28495.got.cif
#   From: 2010.03.12/outbox.cif.g09.slc.cpg/sg47_15_cif.got.tgz:28495.got - 2010.04.14 03:12:58.
