data_PCOD8194239
_publ_section_title
;
Structure prediction by ZEFSAII (Michael W. Deem and Ramdas Pophale) SiO2 
 PCOD8194239
Probable space group: P M M M
;
_chemical_formula_sum "Si O2"
_cell_formula_units_Z 40
_cell_length_a 11.939930
_cell_length_b 19.109273
_cell_length_c 9.908895
_cell_angle_alpha 90.000000
_cell_angle_beta 90.000000
_cell_angle_gamma 90.000000
_cell_volume 2260.846995
_symmetry_space_group_name_H-M "P M M M"
_symmetry_group_IT_number 47
_symmetry_cell_setting 'orthorhombic'
loop_
_space_group_symop_operation_xyz
x,y,z
-x,-y,z
x,-y,-z
-x,y,-z
-x,-y,-z
x,y,-z
-x,y,z
x,-y,z
loop_
_atom_site_type_symbol
_atom_site_label
_atom_site_fract_x
_atom_site_fract_y
_atom_site_fract_z
Si Si1 0.129378 0.919151 0.654639
Si Si2 0.211588 0.805508 0.842559
Si Si3 0.755286 0.420602 0.649987
Si Si4 0.628574 0.684218 0.843526
Si Si5 0.000000 0.422942 0.258629
Si Si6 0.000000 0.276508 0.848737
O O1 0.150262 0.896606 0.500000
O O2 0.210747 0.875695 0.753358
O O3 0.000000 0.905940 0.694261
O O4 0.160184 0.000000 0.674530
O O5 0.326024 0.762739 0.818418
O O6 0.112098 0.755856 0.784000
O O7 0.198106 0.825508 0.000000
O O8 0.714964 0.399249 0.500000
O O9 0.718988 0.500000 0.682926
O O10 0.697596 0.371867 0.759325
O O11 0.889891 0.414201 0.650332
O O12 0.500000 0.682735 0.798524
O O13 0.644232 0.663864 0.000000
O O14 0.000000 0.500000 0.187546
O O15 0.000000 0.360652 0.150356
O O16 0.000000 0.250248 0.000000
#
# Coordination Sequence:
#
# PCOD8194239 Si02
#       6
#     8   8   8   8   4   4
#     4   9  18  32  50  77 112 142 167 198 243 305
#     4  10  19  33  52  76 106 134 167 213 260 307
#     4  10  21  36  54  77 105 136 172 217 266 316
#     4  10  22  39  56  74 100 137 180 224 266 307
#     4  10  19  33  52  76 108 142 173 208 259 320
#     4  10  18  30  48  77 107 133 172 220 263 310
#
# _framework density 17.692484
#
# number of rings (size 3 to 8) (size 9 to 14) (size 15 to 20)
#    0.000    2.200    3.000    0.900    0.000    3.800 
#    0.000    5.000    0.000    0.600    0.000    4.200 
#    0.000    0.000    0.000    0.000    0.000    0.000 
#
# Total GULP energy -495826.071129 kJ/mol
# GULP energy per Si atom -12395.651778 kJ/mol
# Density = 1.765222 g / cm^3
# Si number density = 17.692484 Si / 1000 Ang^3
#
#
#
# Elastic Constant Matrix: (Units=GPa)
#
#
# Indices 1 2 3 4 5 6 
#
# 1 91.1491 42.9893 43.6079 0.0000 0.0000 0.0000
# 2 42.9893 105.6823 61.9501 0.0000 0.0000 0.0000
# 3 43.6079 61.9501 85.5384 0.0000 0.0000 0.0000
# 4 0.0000 0.0000 0.0000 34.3447 0.0000 0.0000
# 5 0.0000 0.0000 0.0000 0.0000 14.5000 0.0000
# 6 0.0000 0.0000 0.0000 0.0000 0.0000 14.5702
#
#
#
# Elastic Compliance Matrix: (Units=1/GPa)
#
#
# Indices 1 2 3 4 5 6 
#
# 1 0.014975 -0.002809 -0.005600 0.000000 0.000000 0.000000
# 2 -0.002809 0.016970 -0.010858 0.000000 0.000000 0.000000
# 3 -0.005600 -0.010858 0.022410 0.000000 0.000000 0.000000
# 4 0.000000 0.000000 0.000000 0.029117 0.000000 0.000000
# 5 0.000000 0.000000 0.000000 0.000000 0.068966 0.000000
# 6 0.000000 0.000000 0.000000 0.000000 0.000000 0.068633
#
#
# Mechanical properties :
#
#
# Convention : Reuss Voigt Hill
#
# Bulk Modulus (GPa) = 63.21060 64.38492 63.79776
# Shear Modulus (GPa) = 18.87662 21.60447 20.24054
#
# Velocity S-wave (km/s) = 3.26993 3.49823 3.38600
# Velocity P-wave (km/s) = 7.07542 7.26546 7.17107
#
# Compressibility (1/GPa) = 0.01582013
#
# Stress axis : x y z
#
# Youngs Moduli (GPa) = 66.77809 58.92771 44.62364
#
# Poissons Ratio (x) = 0.16551 0.24990
# Poissons Ratio (y) = 0.18756 0.48454
# Poissons Ratio (z) = 0.37396 0.63986
#
# Static dielectric constant tensor:
#      x y z
#    x 3.221660 0.000000 0.000000 
#    y 0.000000 3.211810 0.000000 
#    z 0.000000 0.000000 3.102380 
# 
# 
# High freq. dielectric constant tensor:
#      x y z
#    x 1.664340 0.000000 0.000000 
#    y 0.000000 1.682440 0.000000 
#    z 0.000000 0.000000 1.674540 
# 
# From -- ./inp_files/4108.got.cif
#   From: 2010.03.12/outbox.cif.g09.slc.cpg/sg47_3_cif.got.tgz:4108.got - 2010.04.14 03:12:58.
