data_PCOD8194341
_publ_section_title
;
Structure prediction by ZEFSAII (Michael W. Deem and Ramdas Pophale) SiO2 
 PCOD8194341
Probable space group: P M M M
;
_chemical_formula_sum "Si O2"
_cell_formula_units_Z 64
_cell_length_a 20.230050
_cell_length_b 20.276972
_cell_length_c 8.802552
_cell_angle_alpha 90.000000
_cell_angle_beta 90.000000
_cell_angle_gamma 90.000000
_cell_volume 3610.843426
_symmetry_space_group_name_H-M "P M M M"
_symmetry_group_IT_number 47
_symmetry_cell_setting 'orthorhombic'
loop_
_space_group_symop_operation_xyz
x,y,z
-x,-y,z
x,-y,-z
-x,y,-z
-x,-y,-z
x,y,-z
-x,y,z
x,-y,z
loop_
_atom_site_type_symbol
_atom_site_label
_atom_site_fract_x
_atom_site_fract_y
_atom_site_fract_z
Si Si1 0.287611 0.750933 0.820521
Si Si2 0.073941 0.926143 0.319413
Si Si3 0.926544 0.694685 0.326433
Si Si4 0.429024 0.711959 0.820634
Si Si5 0.382240 0.571598 0.825162
Si Si6 0.126891 0.427100 0.173924
Si Si7 0.744024 0.614934 0.323151
Si Si8 0.167888 0.188068 0.679918
O O1 0.364446 0.751683 0.758762
O O2 0.255853 0.681940 0.773431
O O3 0.242276 0.808744 0.748505
O O4 0.286576 0.759153 0.000000
O O5 0.073225 0.921817 0.500000
O O6 0.129164 0.875890 0.254942
O O7 0.000000 0.908076 0.259927
O O8 0.092914 0.000000 0.266048
O O9 0.910185 0.675983 0.500000
O O10 0.924528 0.628623 0.226087
O O11 0.873969 0.748202 0.267524
O O12 0.000000 0.725195 0.312840
O O13 0.500000 0.738797 0.755923
O O14 0.426746 0.634013 0.776664
O O15 0.429104 0.719415 0.000000
O O16 0.418356 0.500000 0.804027
O O17 0.317731 0.569674 0.720196
O O18 0.360168 0.580888 0.000000
O O19 0.094870 0.500000 0.192439
O O20 0.190642 0.424663 0.281421
O O21 0.147450 0.414515 0.000000
O O22 0.742928 0.632996 0.500000
O O23 0.173863 0.184377 0.500000
#
# Coordination Sequence:
#
# PCOD8194341 Si02
#       8
#     8   8   8   8   8   8   8   8
#     4  10  19  31  49  71  95 122 155 197 241 285
#     4   8  14  26  47  77 111 143 172 199 227 266
#     4  10  21  35  50  69  92 120 156 197 239 285
#     4   8  15  28  45  65  89 118 153 194 239 288
#     4   9  17  28  43  64  88 113 144 185 236 295
#     4  11  23  36  49  64  85 115 153 200 252 300
#     4  11  20  31  47  66  87 114 150 194 243 293
#     4  10  18  30  51  77 102 130 163 199 234 273
#
# _framework density 17.724392000000002
#
# number of rings (size 3 to 8) (size 9 to 14) (size 15 to 20)
#    0.000    2.375    1.250    3.750    0.000    5.000 
#    0.000    2.500    0.000   10.875    0.000    4.375 
#    0.000    0.500    0.000    6.250    0.000    0.000 
#
# Total GULP energy -793014.689517 kJ/mol
# GULP energy per Si atom -12390.854524 kJ/mol
# Density = 1.768405 g / cm^3
# Si number density = 17.724392 Si / 1000 Ang^3
#
#
#
# Elastic Constant Matrix: (Units=GPa)
#
#
# Indices 1 2 3 4 5 6 
#
# 1 132.1821 57.8548 22.5450 0.0000 0.0000 0.0000
# 2 57.8548 89.6253 17.6102 0.0000 0.0000 0.0000
# 3 22.5450 17.6102 36.3690 0.0000 0.0000 0.0000
# 4 0.0000 0.0000 0.0000 11.2237 0.0000 0.0000
# 5 0.0000 0.0000 0.0000 0.0000 17.4408 0.0000
# 6 0.0000 0.0000 0.0000 0.0000 0.0000 19.0746
#
#
#
# Elastic Compliance Matrix: (Units=1/GPa)
#
#
# Indices 1 2 3 4 5 6 
#
# 1 0.010984 -0.006357 -0.003731 0.000000 0.000000 0.000000
# 2 -0.006357 0.016010 -0.003811 0.000000 0.000000 0.000000
# 3 -0.003731 -0.003811 0.031654 0.000000 0.000000 0.000000
# 4 0.000000 0.000000 0.000000 0.089097 0.000000 0.000000
# 5 0.000000 0.000000 0.000000 0.000000 0.057337 0.000000
# 6 0.000000 0.000000 0.000000 0.000000 0.000000 0.052426
#
#
# Mechanical properties :
#
#
# Convention : Reuss Voigt Hill
#
# Bulk Modulus (GPa) = 32.41543 50.46625 41.44084
# Shear Modulus (GPa) = 16.91527 20.22557 18.57042
#
# Velocity S-wave (km/s) = 3.09261 3.38170 3.24038
# Velocity P-wave (km/s) = 5.57500 6.61683 6.11813
#
# Compressibility (1/GPa) = 0.03084951
#
# Stress axis : x y z
#
# Youngs Moduli (GPa) = 91.03945 62.45966 31.59148
#
# Poissons Ratio (x) = 0.39709 0.11786
# Poissons Ratio (y) = 0.57878 0.12041
# Poissons Ratio (z) = 0.33964 0.23806
#
# Static dielectric constant tensor:
#      x y z
#    x 3.566970 0.000000 0.000000 
#    y 0.000000 3.177170 0.000000 
#    z 0.000000 0.000000 3.050010 
# 
# 
# High freq. dielectric constant tensor:
#      x y z
#    x 1.683590 0.000000 0.000000 
#    y 0.000000 1.647130 0.000000 
#    z 0.000000 0.000000 1.659500 
# 
# From -- ./inp_files/11845.got.cif
#   From: 2010.03.12/outbox.cif.g09.slc.cpg/sg47_6_cif.got.tgz:11845.got - 2010.04.14 03:12:58.
