data_PCOD8194514
_publ_section_title
;
Structure prediction by ZEFSAII (Michael W. Deem and Ramdas Pophale) SiO2 
 PCOD8194514
Probable space group: P M M M
;
_chemical_formula_sum "Si O2"
_cell_formula_units_Z 60
_cell_length_a 12.704237
_cell_length_b 13.339918
_cell_length_c 19.624748
_cell_angle_alpha 90.000000
_cell_angle_beta 90.000000
_cell_angle_gamma 90.000000
_cell_volume 3325.874334
_symmetry_space_group_name_H-M "P M M M"
_symmetry_group_IT_number 47
_symmetry_cell_setting 'orthorhombic'
loop_
_space_group_symop_operation_xyz
x,y,z
-x,-y,z
x,-y,-z
-x,y,-z
-x,-y,-z
x,y,-z
-x,y,z
x,-y,z
loop_
_atom_site_type_symbol
_atom_site_label
_atom_site_fract_x
_atom_site_fract_y
_atom_site_fract_z
Si Si1 0.621479 0.724473 0.423161
Si Si2 0.743385 0.738132 0.171159
Si Si3 0.375680 0.112338 0.076317
Si Si4 0.000000 0.109408 0.577957
Si Si5 0.881016 0.110844 0.240430
Si Si6 0.623207 0.615443 0.286456
Si Si7 0.116257 0.618068 0.924113
Si Si8 0.217640 0.886351 0.620420
O O1 0.647652 0.684428 0.500000
O O2 0.500000 0.754804 0.418221
O O3 0.649040 0.641807 0.365687
O O4 0.684403 0.825762 0.407983
O O5 0.661211 0.806619 0.131060
O O6 0.845518 0.805660 0.187325
O O7 0.689128 0.687645 0.236906
O O8 0.788422 0.651828 0.123485
O O9 0.500000 0.115975 0.076146
O O10 0.337734 0.000000 0.096949
O O11 0.333840 0.137843 0.000000
O O12 0.891931 0.166514 0.596192
O O13 0.000000 0.086643 0.500000
O O14 0.000000 0.000000 0.617340
O O15 0.790632 0.114166 0.298210
O O16 0.000000 0.135111 0.267367
O O17 0.880284 0.000000 0.206837
O O18 0.500000 0.631182 0.271037
O O19 0.655921 0.500000 0.274806
O O20 0.121538 0.500000 0.926434
O O21 0.000000 0.651820 0.897802
O O22 0.134156 0.661773 0.000000
O O23 0.227766 0.000000 0.592061
#
# Coordination Sequence:
#
# PCOD8194514 Si02
#       8
#     8   8   8   4   8   8   8   8
#     4  10  21  37  55  76 102 136 177 216 263 325
#     4  12  19  32  56  81 103 135 176 217 265 311
#     4   9  19  35  53  76 108 144 180 214 250 303
#     4   9  16  26  46  72  97 131 172 205 237 291
#     4  10  20  33  49  74 109 141 169 207 253 304
#     4  10  22  38  54  76 104 132 170 225 277 317
#     4   9  19  35  53  76 106 137 172 214 259 311
#     4  10  18  32  50  73 105 137 169 208 256 308
#
# _framework density 18.040369999999999
#
# number of rings (size 3 to 8) (size 9 to 14) (size 15 to 20)
#    0.000    2.067    2.000    3.200    0.000    1.333 
#    0.000    2.000    0.000    0.000    0.000   11.200 
#    0.000    2.667    0.000    0.000    0.000    0.000 
#
# Total GULP energy -743532.261926 kJ/mol
# GULP energy per Si atom -12392.204365 kJ/mol
# Density = 1.799931 g / cm^3
# Si number density = 18.040370 Si / 1000 Ang^3
#
#
#
# Elastic Constant Matrix: (Units=GPa)
#
#
# Indices 1 2 3 4 5 6 
#
# 1 70.5754 41.6763 39.5050 0.0000 0.0000 0.0000
# 2 41.6763 85.1365 46.6536 0.0000 0.0000 0.0000
# 3 39.5050 46.6536 98.1049 0.0000 0.0000 0.0000
# 4 0.0000 0.0000 0.0000 23.0806 0.0000 0.0000
# 5 0.0000 0.0000 0.0000 0.0000 30.2241 0.0000
# 6 0.0000 0.0000 0.0000 0.0000 0.0000 27.1179
#
#
#
# Elastic Compliance Matrix: (Units=1/GPa)
#
#
# Indices 1 2 3 4 5 6 
#
# 1 0.021578 -0.007846 -0.004958 0.000000 0.000000 0.000000
# 2 -0.007846 0.018738 -0.005752 0.000000 0.000000 0.000000
# 3 -0.004958 -0.005752 0.014925 0.000000 0.000000 0.000000
# 4 0.000000 0.000000 0.000000 0.043326 0.000000 0.000000
# 5 0.000000 0.000000 0.000000 0.000000 0.033086 0.000000
# 6 0.000000 0.000000 0.000000 0.000000 0.000000 0.036876
#
#
# Mechanical properties :
#
#
# Convention : Reuss Voigt Hill
#
# Bulk Modulus (GPa) = 55.15688 56.60963 55.88326
# Shear Modulus (GPa) = 23.62019 24.48332 24.05175
#
# Velocity S-wave (km/s) = 3.62235 3.68794 3.65529
# Velocity P-wave (km/s) = 6.93799 7.04145 6.98991
#
# Compressibility (1/GPa) = 0.01813010
#
# Stress axis : x y z
#
# Youngs Moduli (GPa) = 46.34437 53.36632 67.00291
#
# Poissons Ratio (x) = 0.41871 0.33218
# Poissons Ratio (y) = 0.36362 0.38537
# Poissons Ratio (z) = 0.22976 0.30694
#
# Static dielectric constant tensor:
#      x y z
#    x 3.300980 0.000000 0.000000 
#    y 0.000000 3.168290 0.000000 
#    z 0.000000 0.000000 3.459370 
# 
# 
# High freq. dielectric constant tensor:
#      x y z
#    x 1.696280 0.000000 0.000000 
#    y 0.000000 1.679270 0.000000 
#    z 0.000000 0.000000 1.703740 
# 
# From -- ./inp_files/30561.got.cif
#   From: 2010.03.12/outbox.cif.g09.slc.cpg/sg47_16_cif.got.tgz:30561.got - 2010.04.14 03:12:58.
