data_PCOD8194113
_publ_section_title
;
Structure prediction by ZEFSAII (Michael W. Deem and Ramdas Pophale) SiO2 
 PCOD8194113
Probable space group: P M M M
;
_chemical_formula_sum "Si O2"
_cell_formula_units_Z 52
_cell_length_a 9.366191
_cell_length_b 12.816621
_cell_length_c 26.944393
_cell_angle_alpha 90.000000
_cell_angle_beta 90.000000
_cell_angle_gamma 90.000000
_cell_volume 3234.483620
_symmetry_space_group_name_H-M "P M M M"
_symmetry_group_IT_number 47
_symmetry_cell_setting 'orthorhombic'
loop_
_space_group_symop_operation_xyz
x,y,z
-x,-y,z
x,-y,-z
-x,y,-z
-x,-y,-z
x,y,-z
-x,y,z
x,-y,z
loop_
_atom_site_type_symbol
_atom_site_label
_atom_site_fract_x
_atom_site_fract_y
_atom_site_fract_z
Si Si1 0.661283 0.675671 0.236543
Si Si2 0.660716 0.885019 0.281041
Si Si3 0.830170 0.185360 0.373904
Si Si4 0.830837 0.000000 0.444562
Si Si5 0.156334 0.379447 0.856369
Si Si6 0.333381 0.617676 0.651526
Si Si7 0.340355 0.624005 0.945275
O O1 0.500000 0.642279 0.223012
O O2 0.679144 0.801255 0.237102
O O3 0.765029 0.629813 0.195836
O O4 0.703636 0.630502 0.290343
O O5 0.500000 0.872484 0.303697
O O6 0.777582 0.866176 0.323085
O O7 0.682883 0.000000 0.258238
O O8 0.757477 0.299400 0.380937
O O9 0.000000 0.199462 0.372362
O O10 0.780495 0.106225 0.417305
O O11 0.765920 0.000000 0.500000
O O12 0.000000 0.000000 0.446001
O O13 0.138659 0.500000 0.868894
O O14 0.242231 0.326311 0.901979
O O15 0.000000 0.326716 0.852666
O O16 0.500000 0.640249 0.642560
O O17 0.293077 0.500000 0.634940
O O18 0.500000 0.668185 0.938003
O O19 0.344376 0.500000 0.940676
O O20 0.282171 0.656070 0.000000
#
# Coordination Sequence:
#
# PCOD8194113 Si02
#       7
#     8   8   8   4   8   8   8
#     4   9  17  28  42  60  81 112 148 176 208 254
#     4   9  17  30  47  64  87 117 146 179 220 266
#     4  10  18  29  48  72  94 118 151 188 227 268
#     4   9  18  32  49  71  99 125 149 185 232 277
#     4  10  19  27  36  54  82 113 141 174 214 250
#     4   9  18  32  48  66  91 124 157 187 223 268
#     4   8  14  25  40  55  71  98 138 178 214 254
#
# _framework density 16.076754000000001
#
# number of rings (size 3 to 8) (size 9 to 14) (size 15 to 20)
#    0.000    2.846    0.769    2.769    0.000    4.615 
#    0.000    1.538    0.000    4.154    0.000    3.231 
#    0.000    0.615    0.000    7.077    0.000    2.308 
#
# Total GULP energy -644419.122491 kJ/mol
# GULP energy per Si atom -12392.675433 kJ/mol
# Density = 1.604016 g / cm^3
# Si number density = 16.076754 Si / 1000 Ang^3
#
#
#
# Elastic Constant Matrix: (Units=GPa)
#
#
# Indices 1 2 3 4 5 6 
#
# 1 83.3127 30.5203 45.5133 0.0000 0.0000 0.0000
# 2 30.5203 89.4268 22.0378 0.0000 0.0000 0.0000
# 3 45.5133 22.0378 78.4814 0.0000 0.0000 0.0000
# 4 0.0000 0.0000 0.0000 12.1670 0.0000 0.0000
# 5 0.0000 0.0000 0.0000 0.0000 18.8720 0.0000
# 6 0.0000 0.0000 0.0000 0.0000 0.0000 20.9731
#
#
#
# Elastic Compliance Matrix: (Units=1/GPa)
#
#
# Indices 1 2 3 4 5 6 
#
# 1 0.018819 -0.004011 -0.009787 0.000000 0.000000 0.000000
# 2 -0.004011 0.012868 -0.001288 0.000000 0.000000 0.000000
# 3 -0.009787 -0.001288 0.018779 0.000000 0.000000 0.000000
# 4 0.000000 0.000000 0.000000 0.082189 0.000000 0.000000
# 5 0.000000 0.000000 0.000000 0.000000 0.052989 0.000000
# 6 0.000000 0.000000 0.000000 0.000000 0.000000 0.047680
#
#
# Mechanical properties :
#
#
# Convention : Reuss Voigt Hill
#
# Bulk Modulus (GPa) = 49.27215 49.70707 49.48961
# Shear Modulus (GPa) = 18.50060 20.61240 19.55650
#
# Velocity S-wave (km/s) = 3.39598 3.58456 3.49154
# Velocity P-wave (km/s) = 6.78907 6.93670 6.86328
#
# Compressibility (1/GPa) = 0.02029544
#
# Stress axis : x y z
#
# Youngs Moduli (GPa) = 53.13771 77.70944 53.24997
#
# Poissons Ratio (x) = 0.31167 0.52118
# Poissons Ratio (y) = 0.21312 0.06856
# Poissons Ratio (z) = 0.52008 0.10006
#
# Static dielectric constant tensor:
#      x y z
#    x 3.157320 0.000000 0.000000 
#    y 0.000000 3.085330 0.000000 
#    z 0.000000 0.000000 2.921050 
# 
# 
# High freq. dielectric constant tensor:
#      x y z
#    x 1.618290 0.000000 0.000000 
#    y 0.000000 1.594800 0.000000 
#    z 0.000000 0.000000 1.590060 
# 
# From -- ./inp_files/33409.got.cif
#   From: 2010.03.12/outbox.cif.g09.slc.cpg/sg47_17_cif.got.tgz:33409.got - 2010.04.14 03:12:58.
