data_PCOD8194088
_publ_section_title
;
Structure prediction by ZEFSAII (Michael W. Deem and Ramdas Pophale) SiO2 
 PCOD8194088
Probable space group: P M M M
;
_chemical_formula_sum "Si O2"
_cell_formula_units_Z 64
_cell_length_a 25.211827
_cell_length_b 9.395451
_cell_length_c 15.273139
_cell_angle_alpha 90.000000
_cell_angle_beta 90.000000
_cell_angle_gamma 90.000000
_cell_volume 3617.847484
_symmetry_space_group_name_H-M "P M M M"
_symmetry_group_IT_number 47
_symmetry_cell_setting 'orthorhombic'
loop_
_space_group_symop_operation_xyz
x,y,z
-x,-y,z
x,-y,-z
-x,y,-z
-x,-y,-z
x,y,-z
-x,y,z
x,-y,z
loop_
_atom_site_type_symbol
_atom_site_label
_atom_site_fract_x
_atom_site_fract_y
_atom_site_fract_z
Si Si1 0.941161 0.830893 0.598216
Si Si2 0.559680 0.833230 0.273851
Si Si3 0.184145 0.162899 0.094659
Si Si4 0.846570 0.832462 0.716251
Si Si5 0.255104 0.339654 0.325087
Si Si6 0.285584 0.661593 0.128846
Si Si7 0.612102 0.161507 0.095897
Si Si8 0.363270 0.665153 0.400944
O O1 0.925897 0.780192 0.500000
O O2 0.898789 0.770571 0.668181
O O3 0.000000 0.773801 0.622828
O O4 0.941531 0.000000 0.601534
O O5 0.500000 0.782060 0.294328
O O6 0.571445 0.794913 0.172438
O O7 0.600036 0.755069 0.337392
O O8 0.565820 0.000000 0.291028
O O9 0.149011 0.206747 0.179803
O O10 0.235370 0.260208 0.088004
O O11 0.202424 0.000000 0.107593
O O12 0.153757 0.179800 0.000000
O O13 0.795219 0.763833 0.670588
O O14 0.841749 0.000000 0.701427
O O15 0.234879 0.500000 0.343773
O O16 0.284450 0.329604 0.232792
O O17 0.300915 0.292367 0.392982
O O18 0.284929 0.500000 0.095254
O O19 0.338017 0.735477 0.094777
O O20 0.631999 0.000000 0.111776
O O21 0.584250 0.174391 0.000000
O O22 0.381353 0.695290 0.500000
O O23 0.369800 0.500000 0.375655
#
# Coordination Sequence:
#
# PCOD8194088 Si02
#       8
#     8   8   8   8   8   8   8   8
#     4   8  14  26  45  69  96 124 157 201 247 285
#     4  10  22  39  57  76  99 127 161 205 249 289
#     4   9  17  28  41  61  94 131 161 192 234 282
#     4   9  17  28  46  71  95 125 164 200 234 282
#     4   9  18  32  48  70 101 131 157 192 240 290
#     4  10  18  29  47  70  96 126 161 199 236 280
#     4  10  20  33  51  74  99 128 160 195 241 295
#     4  10  21  38  58  77  99 130 164 197 243 303
#
# _framework density 17.690076999999999
#
# number of rings (size 3 to 8) (size 9 to 14) (size 15 to 20)
#    0.000    2.625    1.250    1.125    0.000    4.500 
#    0.000    2.500    0.000    0.750    0.000    5.250 
#    0.000    0.000    0.000    6.250    0.000    6.500 
#
# Total GULP energy -793183.151006 kJ/mol
# GULP energy per Si atom -12393.486734 kJ/mol
# Density = 1.764981 g / cm^3
# Si number density = 17.690077 Si / 1000 Ang^3
#
#
#
# Elastic Constant Matrix: (Units=GPa)
#
#
# Indices 1 2 3 4 5 6 
#
# 1 111.5051 38.6558 68.7189 0.0000 0.0000 0.0000
# 2 38.6558 49.2972 36.2540 0.0000 0.0000 0.0000
# 3 68.7189 36.2540 112.0806 0.0000 0.0000 0.0000
# 4 0.0000 0.0000 0.0000 14.9764 0.0000 0.0000
# 5 0.0000 0.0000 0.0000 0.0000 11.2446 0.0000
# 6 0.0000 0.0000 0.0000 0.0000 0.0000 5.0254
#
#
#
# Elastic Compliance Matrix: (Units=1/GPa)
#
#
# Indices 1 2 3 4 5 6 
#
# 1 0.016080 -0.007031 -0.007585 0.000000 0.000000 0.000000
# 2 -0.007031 0.029691 -0.005293 0.000000 0.000000 0.000000
# 3 -0.007585 -0.005293 0.015285 0.000000 0.000000 0.000000
# 4 0.000000 0.000000 0.000000 0.066772 0.000000 0.000000
# 5 0.000000 0.000000 0.000000 0.000000 0.088931 0.000000
# 6 0.000000 0.000000 0.000000 0.000000 0.000000 0.198987
#
#
# Mechanical properties :
#
#
# Convention : Reuss Voigt Hill
#
# Bulk Modulus (GPa) = 47.08536 62.23780 54.66158
# Shear Modulus (GPa) = 10.80747 14.86625 12.83686
#
# Velocity S-wave (km/s) = 2.47439 2.90206 2.69672
# Velocity P-wave (km/s) = 5.90238 6.81821 6.37676
#
# Compressibility (1/GPa) = 0.02123802
#
# Stress axis : x y z
#
# Youngs Moduli (GPa) = 62.18902 33.68013 65.42528
#
# Poissons Ratio (x) = 0.23681 0.49623
# Poissons Ratio (y) = 0.43725 0.34630
# Poissons Ratio (z) = 0.47168 0.17827
#
# Static dielectric constant tensor:
#      x y z
#    x 3.209130 0.000000 0.000000 
#    y 0.000000 3.166030 0.000000 
#    z 0.000000 0.000000 3.558140 
# 
# 
# High freq. dielectric constant tensor:
#      x y z
#    x 1.656770 0.000000 0.000000 
#    y 0.000000 1.667600 0.000000 
#    z 0.000000 0.000000 1.697520 
# 
# From -- ./inp_files/25574.got.cif
#   From: 2010.03.12/outbox.cif.g09.slc.cpg/sg47_13_cif.got.tgz:25574.got - 2010.04.14 03:12:58.
