data_PCOD8194690
_publ_section_title
;
Structure prediction by ZEFSAII (Michael W. Deem and Ramdas Pophale) SiO2 
 PCOD8194690
Probable space group: P M M M
;
_chemical_formula_sum "Si O2"
_cell_formula_units_Z 56
_cell_length_a 28.941972
_cell_length_b 13.644325
_cell_length_c 8.984511
_cell_angle_alpha 90.000000
_cell_angle_beta 90.000000
_cell_angle_gamma 90.000000
_cell_volume 3547.926541
_symmetry_space_group_name_H-M "P M M M"
_symmetry_group_IT_number 47
_symmetry_cell_setting 'orthorhombic'
loop_
_space_group_symop_operation_xyz
x,y,z
-x,-y,z
x,-y,-z
-x,y,-z
-x,-y,-z
x,y,-z
-x,y,z
x,-y,z
loop_
_atom_site_type_symbol
_atom_site_label
_atom_site_fract_x
_atom_site_fract_y
_atom_site_fract_z
Si Si1 0.777947 0.892739 0.824495
Si Si2 0.550685 0.616284 0.167031
Si Si3 0.184915 0.612644 0.328454
Si Si4 0.271439 0.701105 0.176475
Si Si5 0.641136 0.614999 0.672317
Si Si6 0.132648 0.777750 0.175503
Si Si7 0.053172 0.112170 0.671620
O O1 0.739590 0.813366 0.774722
O O2 0.828497 0.855979 0.774181
O O3 0.768087 0.000000 0.752201
O O4 0.777188 0.902814 0.000000
O O5 0.500000 0.655128 0.219156
O O6 0.549819 0.500000 0.167703
O O7 0.590530 0.653431 0.278203
O O8 0.561281 0.654021 0.000000
O O9 0.190349 0.643243 0.500000
O O10 0.170760 0.500000 0.311678
O O11 0.233902 0.629166 0.248270
O O12 0.143923 0.674554 0.253265
O O13 0.321970 0.674988 0.233230
O O14 0.268782 0.688151 0.000000
O O15 0.648032 0.638520 0.500000
O O16 0.647077 0.500000 0.706005
O O17 0.083031 0.816129 0.226421
O O18 0.132805 0.760729 0.000000
O O19 0.066776 0.127201 0.500000
O O20 0.000000 0.140120 0.697942
O O21 0.062012 0.000000 0.719383
#
# Coordination Sequence:
#
# PCOD8194690 Si02
#       7
#     8   8   8   8   8   8   8
#     4   8  15  28  44  63  87 112 139 173 213 256
#     4   8  14  25  40  57  78 106 141 180 219 257
#     4  10  20  33  48  65  88 119 152 185 221 262
#     4  10  19  29  44  65  87 114 147 183 221 258
#     4  10  19  28  39  57  84 118 150 180 215 255
#     4  10  19  30  48  72  94 118 148 183 222 263
#     4   9  18  32  49  70  97 126 152 180 218 264
#
# _framework density 15.783868
#
# number of rings (size 3 to 8) (size 9 to 14) (size 15 to 20)
#    0.000    2.714    0.000    4.286    0.000    5.143 
#    0.000    2.143    0.000    9.000    0.000    3.000 
#    0.000    0.571    0.000    6.571    0.000    2.143 
#
# Total GULP energy -694238.329670 kJ/mol
# GULP energy per Si atom -12397.113030 kJ/mol
# Density = 1.574794 g / cm^3
# Si number density = 15.783868 Si / 1000 Ang^3
#
#
#
# Elastic Constant Matrix: (Units=GPa)
#
#
# Indices 1 2 3 4 5 6 
#
# 1 105.6749 45.9075 48.8182 0.0000 0.0000 0.0000
# 2 45.9075 81.7969 42.7040 0.0000 0.0000 0.0000
# 3 48.8182 42.7040 83.9910 0.0000 0.0000 0.0000
# 4 0.0000 0.0000 0.0000 18.1984 0.0000 0.0000
# 5 0.0000 0.0000 0.0000 0.0000 29.2769 0.0000
# 6 0.0000 0.0000 0.0000 0.0000 0.0000 18.2994
#
#
#
# Elastic Compliance Matrix: (Units=1/GPa)
#
#
# Indices 1 2 3 4 5 6 
#
# 1 0.014306 -0.005021 -0.005762 0.000000 0.000000 0.000000
# 2 -0.005021 0.018405 -0.006440 0.000000 0.000000 0.000000
# 3 -0.005762 -0.006440 0.018530 0.000000 0.000000 0.000000
# 4 0.000000 0.000000 0.000000 0.054950 0.000000 0.000000
# 5 0.000000 0.000000 0.000000 0.000000 0.034157 0.000000
# 6 0.000000 0.000000 0.000000 0.000000 0.000000 0.054647
#
#
# Mechanical properties :
#
#
# Convention : Reuss Voigt Hill
#
# Bulk Modulus (GPa) = 59.54092 60.70247 60.12169
# Shear Modulus (GPa) = 21.27312 22.09045 21.68179
#
# Velocity S-wave (km/s) = 3.67519 3.74513 3.71032
# Velocity P-wave (km/s) = 7.47087 7.56593 7.51855
#
# Compressibility (1/GPa) = 0.01679517
#
# Stress axis : x y z
#
# Youngs Moduli (GPa) = 69.89987 54.33248 53.96790
#
# Poissons Ratio (x) = 0.27279 0.31099
# Poissons Ratio (y) = 0.35095 0.34753
# Poissons Ratio (z) = 0.40280 0.34988
#
# Static dielectric constant tensor:
#      x y z
#    x 3.069670 0.000000 0.000000 
#    y 0.000000 2.949540 0.000000 
#    z 0.000000 0.000000 2.995220 
# 
# 
# High freq. dielectric constant tensor:
#      x y z
#    x 1.601890 0.000000 0.000000 
#    y 0.000000 1.575930 0.000000 
#    z 0.000000 0.000000 1.607470 
# 
# From -- ./inp_files/14219.got.cif
#   From: 2010.03.12/outbox.cif.g09.slc.cpg/sg47_8_cif.got.tgz:14219.got - 2010.04.14 03:12:58.
