data_PCOD8194339
_publ_section_title
;
Structure prediction by ZEFSAII (Michael W. Deem and Ramdas Pophale) SiO2 
 PCOD8194339
Probable space group: P M M M
;
_chemical_formula_sum "Si O2"
_cell_formula_units_Z 56
_cell_length_a 9.357982
_cell_length_b 16.049446
_cell_length_c 19.351391
_cell_angle_alpha 90.000000
_cell_angle_beta 90.000000
_cell_angle_gamma 90.000000
_cell_volume 2906.393673
_symmetry_space_group_name_H-M "P M M M"
_symmetry_group_IT_number 47
_symmetry_cell_setting 'orthorhombic'
loop_
_space_group_symop_operation_xyz
x,y,z
-x,-y,z
x,-y,-z
-x,y,-z
-x,-y,-z
x,y,-z
-x,y,z
x,-y,z
loop_
_atom_site_type_symbol
_atom_site_label
_atom_site_fract_x
_atom_site_fract_y
_atom_site_fract_z
Si Si1 0.165211 0.591194 0.649888
Si Si2 0.336113 0.165747 0.204175
Si Si3 0.161848 0.098173 0.922188
Si Si4 0.335930 0.093418 0.347186
Si Si5 0.834951 0.676412 0.211552
Si Si6 0.830815 0.407282 0.924868
Si Si7 0.167046 0.241387 0.419143
O O1 0.234037 0.500000 0.630975
O O2 0.183992 0.603709 0.732143
O O3 0.232135 0.670486 0.609075
O O4 0.000000 0.587234 0.629394
O O5 0.500000 0.186383 0.188737
O O6 0.266504 0.140014 0.132046
O O7 0.319279 0.096659 0.263841
O O8 0.257849 0.245851 0.235989
O O9 0.000000 0.127983 0.907256
O O10 0.173194 0.000000 0.914298
O O11 0.205968 0.124839 0.000000
O O12 0.500000 0.110540 0.367802
O O13 0.240539 0.161477 0.385314
O O14 0.289629 0.000000 0.370007
O O15 0.770712 0.647891 0.137590
O O16 0.000000 0.703612 0.205959
O O17 0.766189 0.500000 0.919524
O O18 0.000000 0.412947 0.916868
O O19 0.789930 0.368419 0.000000
O O20 0.195711 0.238153 0.500000
O O21 0.000000 0.236118 0.400240
#
# Coordination Sequence:
#
# PCOD8194339 Si02
#       7
#     8   8   8   8   8   8   8
#     4   9  17  31  54  83 113 146 185 228 275 329
#     4  11  22  35  53  78 110 145 185 231 279 331
#     4   9  19  36  56  78 105 139 182 231 281 333
#     4  10  22  40  60  81 109 149 193 232 276 334
#     4  10  18  30  51  76 104 140 184 228 274 327
#     4   8  14  25  43  70 101 131 170 223 274 317
#     4  10  21  37  58  87 119 146 179 227 282 338
#
# _framework density 19.267865
#
# number of rings (size 3 to 8) (size 9 to 14) (size 15 to 20)
#    0.000    2.429    1.429    2.143    0.000    5.143 
#    0.000    5.000    0.000    3.000    0.000    2.000 
#    0.000    0.000    0.000    0.000    0.000    0.000 
#
# Total GULP energy -694050.398017 kJ/mol
# GULP energy per Si atom -12393.757107 kJ/mol
# Density = 1.922401 g / cm^3
# Si number density = 19.267865 Si / 1000 Ang^3
#
#
#
# Elastic Constant Matrix: (Units=GPa)
#
#
# Indices 1 2 3 4 5 6 
#
# 1 64.3797 46.8005 39.4241 0.0000 0.0000 0.0000
# 2 46.8005 137.7213 58.2946 0.0000 0.0000 0.0000
# 3 39.4241 58.2946 104.8154 0.0000 0.0000 0.0000
# 4 0.0000 0.0000 0.0000 27.1118 0.0000 0.0000
# 5 0.0000 0.0000 0.0000 0.0000 22.1264 0.0000
# 6 0.0000 0.0000 0.0000 0.0000 0.0000 9.7010
#
#
#
# Elastic Compliance Matrix: (Units=1/GPa)
#
#
# Indices 1 2 3 4 5 6 
#
# 1 0.022896 -0.005409 -0.005604 0.000000 0.000000 0.000000
# 2 -0.005409 0.010774 -0.003958 0.000000 0.000000 0.000000
# 3 -0.005604 -0.003958 0.013850 0.000000 0.000000 0.000000
# 4 0.000000 0.000000 0.000000 0.036884 0.000000 0.000000
# 5 0.000000 0.000000 0.000000 0.000000 0.045195 0.000000
# 6 0.000000 0.000000 0.000000 0.000000 0.000000 0.103082
#
#
# Mechanical properties :
#
#
# Convention : Reuss Voigt Hill
#
# Bulk Modulus (GPa) = 56.88496 66.21719 61.55108
# Shear Modulus (GPa) = 18.62323 22.61433 20.61878
#
# Velocity S-wave (km/s) = 3.11230 3.42962 3.27481
# Velocity P-wave (km/s) = 6.51940 7.07985 6.80540
#
# Compressibility (1/GPa) = 0.01757934
#
# Stress axis : x y z
#
# Youngs Moduli (GPa) = 43.67528 92.81322 72.20410
#
# Poissons Ratio (x) = 0.50199 0.40462
# Poissons Ratio (y) = 0.23622 0.28578
# Poissons Ratio (z) = 0.24475 0.36735
#
# Static dielectric constant tensor:
#      x y z
#    x 3.141590 0.000000 0.000000 
#    y 0.000000 3.668440 0.000000 
#    z 0.000000 0.000000 3.682650 
# 
# 
# High freq. dielectric constant tensor:
#      x y z
#    x 1.701530 0.000000 0.000000 
#    y 0.000000 1.755680 0.000000 
#    z 0.000000 0.000000 1.758330 
# 
# From -- ./inp_files/7322.got.cif
#   From: 2010.03.12/outbox.cif.g09.slc.cpg/sg47_4_cif.got.tgz:7322.got - 2010.04.14 03:12:58.
