data_PCOD8194671
_publ_section_title
;
Structure prediction by ZEFSAII (Michael W. Deem and Ramdas Pophale) SiO2 
 PCOD8194671
Probable space group: P M M M
;
_chemical_formula_sum "Si O2"
_cell_formula_units_Z 56
_cell_length_a 29.848883
_cell_length_b 8.991903
_cell_length_c 13.723826
_cell_angle_alpha 90.000000
_cell_angle_beta 90.000000
_cell_angle_gamma 90.000000
_cell_volume 3683.451027
_symmetry_space_group_name_H-M "P M M M"
_symmetry_group_IT_number 47
_symmetry_cell_setting 'orthorhombic'
loop_
_space_group_symop_operation_xyz
x,y,z
-x,-y,z
x,-y,-z
-x,y,-z
-x,-y,-z
x,y,-z
-x,y,z
x,-y,z
loop_
_atom_site_type_symbol
_atom_site_label
_atom_site_fract_x
_atom_site_fract_y
_atom_site_fract_z
Si Si1 0.643027 0.166928 0.116077
Si Si2 0.949479 0.826516 0.728195
Si Si3 0.452569 0.823243 0.109141
Si Si4 0.731757 0.674042 0.886923
Si Si5 0.865959 0.175435 0.393215
Si Si6 0.102511 0.671010 0.888384
Si Si7 0.184656 0.823516 0.795426
O O1 0.594758 0.227775 0.158582
O O2 0.682618 0.276157 0.149514
O O3 0.653498 0.000000 0.154134
O O4 0.638927 0.164707 0.000000
O O5 0.915506 0.776116 0.642919
O O6 0.938401 0.736208 0.825939
O O7 0.000000 0.790874 0.694377
O O8 0.942911 0.000000 0.752105
O O9 0.500000 0.774190 0.161896
O O10 0.450259 0.000000 0.104951
O O11 0.454617 0.758718 0.000000
O O12 0.737115 0.500000 0.870640
O O13 0.767049 0.758671 0.819869
O O14 0.739186 0.717529 0.000000
O O15 0.856806 0.247567 0.500000
O O16 0.828834 0.227019 0.314516
O O17 0.864259 0.000000 0.402936
O O18 0.110952 0.500000 0.860381
O O19 0.148313 0.760233 0.870412
O O20 0.088447 0.688783 0.000000
O O21 0.185602 0.000000 0.805795
#
# Coordination Sequence:
#
# PCOD8194671 Si02
#       7
#     8   8   8   8   8   8   8
#     4   8  13  21  33  49  69  95 130 169 203 235
#     4   9  18  31  47  68  89 108 132 159 186 219
#     4   7   9  14  26  44  64  87 120 164 207 238
#     4  10  19  28  38  54  79 109 136 164 200 237
#     4   8  15  29  48  68  86 101 121 154 194 233
#     4  10  20  32  45  61  83 111 138 162 191 226
#     4  10  19  30  46  65  81 100 129 162 195 233
#
# _framework density 15.203134
#
# number of rings (size 3 to 8) (size 9 to 14) (size 15 to 20)
#    0.000    3.143    0.000    3.857    0.000    4.571 
#    0.000    2.857    0.000   11.143    0.000    7.000 
#    0.000    0.000    0.000    0.000    0.000    0.714 
#
# Total GULP energy -693757.536716 kJ/mol
# GULP energy per Si atom -12388.527441 kJ/mol
# Density = 1.516853 g / cm^3
# Si number density = 15.203134 Si / 1000 Ang^3
#
#
#
# Elastic Constant Matrix: (Units=GPa)
#
#
# Indices 1 2 3 4 5 6 
#
# 1 138.1796 36.6942 41.5508 0.0000 0.0000 0.0000
# 2 36.6942 51.2749 25.8784 0.0000 0.0000 0.0000
# 3 41.5508 25.8784 68.8132 0.0000 0.0000 0.0000
# 4 0.0000 0.0000 0.0000 6.6665 0.0000 0.0000
# 5 0.0000 0.0000 0.0000 0.0000 8.7748 0.0000
# 6 0.0000 0.0000 0.0000 0.0000 0.0000 9.8818
#
#
#
# Elastic Compliance Matrix: (Units=1/GPa)
#
#
# Indices 1 2 3 4 5 6 
#
# 1 0.009765 -0.004952 -0.004034 0.000000 0.000000 0.000000
# 2 -0.004952 0.026583 -0.007007 0.000000 0.000000 0.000000
# 3 -0.004034 -0.007007 0.019603 0.000000 0.000000 0.000000
# 4 0.000000 0.000000 0.000000 0.150004 0.000000 0.000000
# 5 0.000000 0.000000 0.000000 0.000000 0.113962 0.000000
# 6 0.000000 0.000000 0.000000 0.000000 0.000000 0.101196
#
#
# Mechanical properties :
#
#
# Convention : Reuss Voigt Hill
#
# Bulk Modulus (GPa) = 41.72742 51.83494 46.78118
# Shear Modulus (GPa) = 10.84393 15.34091 13.09242
#
# Velocity S-wave (km/s) = 2.67361 3.18002 2.93775
# Velocity P-wave (km/s) = 6.08581 6.90306 6.50728
#
# Compressibility (1/GPa) = 0.02396506
#
# Stress axis : x y z
#
# Youngs Moduli (GPa) = 102.40566 37.61791 51.01294
#
# Poissons Ratio (x) = 0.18630 0.20578
# Poissons Ratio (y) = 0.50715 0.35743
# Poissons Ratio (z) = 0.41310 0.26358
#
# Static dielectric constant tensor:
#      x y z
#    x 3.298500 0.000000 0.000000 
#    y 0.000000 2.778620 0.000000 
#    z 0.000000 0.000000 2.739930 
# 
# 
# High freq. dielectric constant tensor:
#      x y z
#    x 1.594250 0.000000 0.000000 
#    y 0.000000 1.566330 0.000000 
#    z 0.000000 0.000000 1.527070 
# 
# From -- ./inp_files/25803.got.cif
#   From: 2010.03.12/outbox.cif.g09.slc.cpg/sg47_13_cif.got.tgz:25803.got - 2010.04.14 03:12:58.
