data_PCOD8194069
_publ_section_title
;
Structure prediction by ZEFSAII (Michael W. Deem and Ramdas Pophale) SiO2 
 PCOD8194069
Probable space group: P M M M
;
_chemical_formula_sum "Si O2"
_cell_formula_units_Z 64
_cell_length_a 9.360614
_cell_length_b 25.000649
_cell_length_c 15.548503
_cell_angle_alpha 90.000000
_cell_angle_beta 90.000000
_cell_angle_gamma 90.000000
_cell_volume 3638.682829
_symmetry_space_group_name_H-M "P M M M"
_symmetry_group_IT_number 47
_symmetry_cell_setting 'orthorhombic'
loop_
_space_group_symop_operation_xyz
x,y,z
-x,-y,z
x,-y,-z
-x,y,-z
-x,-y,-z
x,y,-z
-x,y,z
x,-y,z
loop_
_atom_site_type_symbol
_atom_site_label
_atom_site_fract_x
_atom_site_fract_y
_atom_site_fract_z
Si Si1 0.833731 0.359641 0.406308
Si Si2 0.333785 0.714007 0.134780
Si Si3 0.837220 0.262504 0.296328
Si Si4 0.836880 0.384805 0.092850
Si Si5 0.833255 0.142551 0.736671
Si Si6 0.665450 0.165270 0.904261
Si Si7 0.170232 0.559648 0.263744
Si Si8 0.169733 0.939717 0.595798
O O1 0.762407 0.369032 0.500000
O O2 0.812564 0.296885 0.382660
O O3 0.766249 0.400119 0.335970
O O4 0.000000 0.372971 0.412010
O O5 0.500000 0.700765 0.136318
O O6 0.272384 0.711749 0.230368
O O7 0.253917 0.669058 0.080786
O O8 0.302612 0.771642 0.093509
O O9 0.804480 0.199763 0.308718
O O10 0.000000 0.269994 0.262984
O O11 0.775925 0.421851 0.169323
O O12 0.000000 0.368783 0.113854
O O13 0.827429 0.414827 0.000000
O O14 0.756816 0.136793 0.829376
O O15 0.768736 0.099340 0.669670
O O16 0.000000 0.132866 0.753727
O O17 0.500000 0.154420 0.883396
O O18 0.704735 0.142932 0.000000
O O19 0.229163 0.500000 0.281504
O O20 0.000000 0.559729 0.265278
O O21 0.225010 0.923376 0.500000
O O22 0.000000 0.935989 0.595977
O O23 0.219783 0.000000 0.617206
#
# Coordination Sequence:
#
# PCOD8194069 Si02
#       8
#     8   8   8   8   8   8   8   8
#     4   9  16  26  43  66  91 117 143 178 226 272
#     4  10  18  29  47  68  91 120 154 185 220 270
#     4   9  16  28  44  66  98 123 146 183 229 272
#     4  10  19  30  46  67  90 116 145 182 229 273
#     4   9  17  27  45  72  96 122 158 196 230 269
#     4   9  18  31  45  64  94 129 159 188 228 278
#     4   9  17  29  44  63  89 117 147 185 224 268
#     4   8  14  26  45  70 100 130 159 194 236 280
#
# _framework density 17.588782999999999
#
# number of rings (size 3 to 8) (size 9 to 14) (size 15 to 20)
#    0.000    2.875    1.250    1.125    0.000    2.500 
#    0.000    5.000    0.000    1.875    0.000    7.875 
#    0.000    1.000    0.000    0.000    0.000    0.000 
#
# Total GULP energy -793051.963474 kJ/mol
# GULP energy per Si atom -12391.436929 kJ/mol
# Density = 1.754875 g / cm^3
# Si number density = 17.588783 Si / 1000 Ang^3
#
#
#
# Elastic Constant Matrix: (Units=GPa)
#
#
# Indices 1 2 3 4 5 6 
#
# 1 32.8045 19.5692 28.3058 0.0000 0.0000 0.0000
# 2 19.5692 95.2787 74.8155 0.0000 0.0000 0.0000
# 3 28.3058 74.8155 163.6534 0.0000 0.0000 0.0000
# 4 0.0000 0.0000 0.0000 20.6289 0.0000 0.0000
# 5 0.0000 0.0000 0.0000 0.0000 7.8281 0.0000
# 6 0.0000 0.0000 0.0000 0.0000 0.0000 9.9386
#
#
#
# Elastic Compliance Matrix: (Units=1/GPa)
#
#
# Indices 1 2 3 4 5 6 
#
# 1 0.036779 -0.003992 -0.004537 0.000000 0.000000 0.000000
# 2 -0.003992 0.016806 -0.006993 0.000000 0.000000 0.000000
# 3 -0.004537 -0.006993 0.010092 0.000000 0.000000 0.000000
# 4 0.000000 0.000000 0.000000 0.048476 0.000000 0.000000
# 5 0.000000 0.000000 0.000000 0.000000 0.127746 0.000000
# 6 0.000000 0.000000 0.000000 0.000000 0.000000 0.100618
#
#
# Mechanical properties :
#
#
# Convention : Reuss Voigt Hill
#
# Bulk Modulus (GPa) = 30.64161 59.67973 45.16067
# Shear Modulus (GPa) = 13.07405 18.94885 16.01145
#
# Velocity S-wave (km/s) = 2.72934 3.28583 3.02043
# Velocity P-wave (km/s) = 5.23367 6.95699 6.15594
#
# Compressibility (1/GPa) = 0.03263536
#
# Stress axis : x y z
#
# Youngs Moduli (GPa) = 27.18917 59.50160 99.08956
#
# Poissons Ratio (x) = 0.23752 0.44952
# Poissons Ratio (y) = 0.10854 0.69290
# Poissons Ratio (z) = 0.12334 0.41608
#
# Static dielectric constant tensor:
#      x y z
#    x 2.883790 0.000000 0.000000 
#    y 0.000000 3.280530 0.000000 
#    z 0.000000 0.000000 3.511430 
# 
# 
# High freq. dielectric constant tensor:
#      x y z
#    x 1.630670 0.000000 0.000000 
#    y 0.000000 1.661920 0.000000 
#    z 0.000000 0.000000 1.688370 
# 
# From -- ./inp_files/27163.got.cif
#   From: 2010.03.12/outbox.cif.g09.slc.cpg/sg47_14_cif.got.tgz:27163.got - 2010.04.14 03:12:58.
