data_PCOD8194971
_publ_section_title
;
Structure prediction by ZEFSAII (Michael W. Deem and Ramdas Pophale) SiO2 
 PCOD8194971
Probable space group: P M M M
;
_chemical_formula_sum "Si O2"
_cell_formula_units_Z 44
_cell_length_a 12.905376
_cell_length_b 24.802848
_cell_length_c 8.986515
_cell_angle_alpha 90.000000
_cell_angle_beta 90.000000
_cell_angle_gamma 90.000000
_cell_volume 2876.494299
_symmetry_space_group_name_H-M "P M M M"
_symmetry_group_IT_number 47
_symmetry_cell_setting 'orthorhombic'
loop_
_space_group_symop_operation_xyz
x,y,z
-x,-y,z
x,-y,-z
-x,y,-z
-x,-y,-z
x,y,-z
-x,y,z
x,-y,z
loop_
_atom_site_type_symbol
_atom_site_label
_atom_site_fract_x
_atom_site_fract_y
_atom_site_fract_z
Si Si1 0.000000 0.436223 0.827822
Si Si2 0.877943 0.270003 0.172058
Si Si3 0.187856 0.375923 0.677148
Si Si4 0.614224 0.560208 0.676519
Si Si5 0.876728 0.162717 0.333871
Si Si6 0.123212 0.940781 0.832671
O O1 0.899300 0.413012 0.749005
O O2 0.000000 0.500000 0.810092
O O3 0.000000 0.418085 0.000000
O O4 0.818636 0.314984 0.266091
O O5 0.839976 0.212112 0.231325
O O6 0.000000 0.278060 0.196858
O O7 0.847829 0.274655 0.000000
O O8 0.175286 0.377286 0.500000
O O9 0.298392 0.398672 0.733229
O O10 0.615833 0.558539 0.500000
O O11 0.500000 0.579103 0.732057
O O12 0.637783 0.500000 0.737600
O O13 0.833258 0.170897 0.500000
O O14 0.830478 0.106674 0.269888
O O15 0.000000 0.159995 0.335130
O O16 0.000000 0.937429 0.833040
O O17 0.158080 0.000000 0.773045
O O18 0.164611 0.932347 0.000000
#
# Coordination Sequence:
#
# PCOD8194971 Si02
#       6
#     4   8   8   8   8   8
#     4  11  23  35  45  61  89 119 140 165 208 257
#     4  10  19  30  42  55  79 112 141 169 209 257
#     4  11  20  30  48  69  87 108 140 178 210 248
#     4   8  15  29  48  69  90 109 132 167 212 257
#     4   9  16  24  35  51  71  96 132 175 212 245
#     4   8  13  21  32  46  66  94 129 167 208 252
#
# _framework density 15.296397000000001
#
# number of rings (size 3 to 8) (size 9 to 14) (size 15 to 20)
#    0.000    2.636    0.909    3.545    0.000    4.727 
#    0.000    1.818    0.000    2.182    0.000    6.364 
#    0.000    0.000    0.000    0.000    0.000    0.909 
#
# Total GULP energy -545403.818223 kJ/mol
# GULP energy per Si atom -12395.541323 kJ/mol
# Density = 1.526158 g / cm^3
# Si number density = 15.296397 Si / 1000 Ang^3
#
#
#
# Elastic Constant Matrix: (Units=GPa)
#
#
# Indices 1 2 3 4 5 6 
#
# 1 64.5331 44.9400 29.4569 0.0000 0.0000 0.0000
# 2 44.9400 128.9761 53.7372 0.0000 0.0000 0.0000
# 3 29.4569 53.7372 84.9358 0.0000 0.0000 0.0000
# 4 0.0000 0.0000 0.0000 30.0208 0.0000 0.0000
# 5 0.0000 0.0000 0.0000 0.0000 1.7580 0.0000
# 6 0.0000 0.0000 0.0000 0.0000 0.0000 7.9769
#
#
#
# Elastic Compliance Matrix: (Units=1/GPa)
#
#
# Indices 1 2 3 4 5 6 
#
# 1 0.021262 -0.005888 -0.003649 0.000000 0.000000 0.000000
# 2 -0.005888 0.012159 -0.005651 0.000000 0.000000 0.000000
# 3 -0.003649 -0.005651 0.016614 0.000000 0.000000 0.000000
# 4 0.000000 0.000000 0.000000 0.033310 0.000000 0.000000
# 5 0.000000 0.000000 0.000000 0.000000 0.568832 0.000000
# 6 0.000000 0.000000 0.000000 0.000000 0.000000 0.125362
#
#
# Mechanical properties :
#
#
# Convention : Reuss Voigt Hill
#
# Bulk Modulus (GPa) = 50.86445 59.41257 55.13851
# Shear Modulus (GPa) = 6.13897 17.97188 12.05543
#
# Velocity S-wave (km/s) = 2.00551 3.43141 2.81040
# Velocity P-wave (km/s) = 6.21993 7.39085 6.83053
#
# Compressibility (1/GPa) = 0.01966010
#
# Stress axis : x y z
#
# Youngs Moduli (GPa) = 47.03264 82.24026 60.18949
#
# Poissons Ratio (x) = 0.48425 0.21960
# Poissons Ratio (y) = 0.27694 0.34013
# Poissons Ratio (z) = 0.17160 0.46474
#
# Static dielectric constant tensor:
#      x y z
#    x 2.659290 0.000000 0.000000 
#    y 0.000000 3.196080 0.000000 
#    z 0.000000 0.000000 2.982140 
# 
# 
# High freq. dielectric constant tensor:
#      x y z
#    x 1.518980 0.000000 0.000000 
#    y 0.000000 1.599890 0.000000 
#    z 0.000000 0.000000 1.586450 
# 
# From -- ./inp_files/4345.got.cif
#   From: 2010.03.12/outbox.cif.g09.slc.cpg/sg47_3_cif.got.tgz:4345.got - 2010.04.14 03:12:58.
