data_PCOD8194302
_publ_section_title
;
Structure prediction by ZEFSAII (Michael W. Deem and Ramdas Pophale) SiO2 
 PCOD8194302
Probable space group: P M M M
;
_chemical_formula_sum "Si O2"
_cell_formula_units_Z 44
_cell_length_a 10.169025
_cell_length_b 26.571438
_cell_length_c 9.073213
_cell_angle_alpha 90.000000
_cell_angle_beta 90.000000
_cell_angle_gamma 90.000000
_cell_volume 2451.633120
_symmetry_space_group_name_H-M "P M M M"
_symmetry_group_IT_number 47
_symmetry_cell_setting 'orthorhombic'
loop_
_space_group_symop_operation_xyz
x,y,z
-x,-y,z
x,-y,-z
-x,y,-z
-x,-y,-z
x,y,-z
-x,y,z
x,-y,z
loop_
_atom_site_type_symbol
_atom_site_label
_atom_site_fract_x
_atom_site_fract_y
_atom_site_fract_z
Si Si1 0.347825 0.100525 0.326254
Si Si2 0.851357 0.709382 0.171060
Si Si3 0.344372 0.000000 0.165281
Si Si4 0.750113 0.617280 0.325390
Si Si5 0.152030 0.825056 0.828982
Si Si6 0.500000 0.443310 0.324473
Si Si7 0.000000 0.556305 0.675381
O O1 0.333381 0.094223 0.500000
O O2 0.500000 0.112185 0.283471
O O3 0.253035 0.144516 0.271366
O O4 0.296082 0.049370 0.251112
O O5 0.752399 0.673536 0.260132
O O6 0.814023 0.767003 0.201854
O O7 0.000000 0.699367 0.225629
O O8 0.838305 0.696916 0.000000
O O9 0.500000 0.000000 0.159502
O O10 0.284977 0.000000 0.000000
O O11 0.748492 0.622037 0.500000
O O12 0.624930 0.587182 0.265568
O O13 0.873669 0.585838 0.266098
O O14 0.000000 0.836587 0.786596
O O15 0.175267 0.838359 0.000000
O O16 0.500000 0.500000 0.260003
O O17 0.500000 0.446113 0.500000
O O18 0.000000 0.500000 0.741010
O O19 0.000000 0.553778 0.500000
#
# Coordination Sequence:
#
# PCOD8194302 Si02
#       7
#     8   8   4   8   8   4   4
#     4  10  20  34  53  81 113 142 174 218 268 312
#     4   9  18  34  54  74  99 131 166 209 258 304
#     4   9  17  31  54  79 106 145 186 220 256 305
#     4  10  18  30  50  74  97 126 164 204 247 298
#     4   9  19  36  56  76 101 138 181 219 260 313
#     4   9  18  32  49  71 101 133 161 198 251 302
#     4   9  16  26  45  73  97 119 159 208 243 286
#
# _framework density 17.947220999999999
#
# number of rings (size 3 to 8) (size 9 to 14) (size 15 to 20)
#    0.000    2.636    0.909    2.455    0.000    5.455 
#    1.636    2.727    0.000    6.000    0.000    0.000 
#    0.000    0.000    0.000    0.000    0.000    0.000 
#
# Total GULP energy -545549.430876 kJ/mol
# GULP energy per Si atom -12398.850702 kJ/mol
# Density = 1.790637 g / cm^3
# Si number density = 17.947221 Si / 1000 Ang^3
#
#
#
# Elastic Constant Matrix: (Units=GPa)
#
#
# Indices 1 2 3 4 5 6 
#
# 1 110.0368 66.7012 38.3152 0.0000 0.0000 0.0000
# 2 66.7012 133.2780 51.8406 0.0000 0.0000 0.0000
# 3 38.3152 51.8406 61.8670 0.0000 0.0000 0.0000
# 4 0.0000 0.0000 0.0000 26.2833 0.0000 0.0000
# 5 0.0000 0.0000 0.0000 0.0000 21.6207 0.0000
# 6 0.0000 0.0000 0.0000 0.0000 0.0000 31.4814
#
#
#
# Elastic Compliance Matrix: (Units=1/GPa)
#
#
# Indices 1 2 3 4 5 6 
#
# 1 0.013701 -0.005276 -0.004064 0.000000 0.000000 0.000000
# 2 -0.005276 0.013163 -0.007762 0.000000 0.000000 0.000000
# 3 -0.004064 -0.007762 0.025185 0.000000 0.000000 0.000000
# 4 0.000000 0.000000 0.000000 0.038047 0.000000 0.000000
# 5 0.000000 0.000000 0.000000 0.000000 0.046252 0.000000
# 6 0.000000 0.000000 0.000000 0.000000 0.000000 0.031765
#
#
# Mechanical properties :
#
#
# Convention : Reuss Voigt Hill
#
# Bulk Modulus (GPa) = 56.04122 68.76620 62.40371
# Shear Modulus (GPa) = 24.00778 25.76541 24.88660
#
# Velocity S-wave (km/s) = 3.66141 3.79307 3.72782
# Velocity P-wave (km/s) = 7.01198 7.58829 7.30582
#
# Compressibility (1/GPa) = 0.01784401
#
# Stress axis : x y z
#
# Youngs Moduli (GPa) = 72.98539 75.97153 39.70636
#
# Poissons Ratio (x) = 0.40084 0.16138
# Poissons Ratio (y) = 0.38508 0.30820
# Poissons Ratio (z) = 0.29664 0.58969
#
# Static dielectric constant tensor:
#      x y z
#    x 3.259060 0.000000 0.000000 
#    y 0.000000 3.417320 0.000000 
#    z 0.000000 0.000000 3.065360 
# 
# 
# High freq. dielectric constant tensor:
#      x y z
#    x 1.681160 0.000000 0.000000 
#    y 0.000000 1.706160 0.000000 
#    z 0.000000 0.000000 1.673440 
# 
# From -- ./inp_files/2371.got.cif
#   From: 2010.03.12/outbox.cif.g09.slc.cpg/sg47_2_cif.got.tgz:2371.got - 2010.04.14 03:12:58.
