data_PCOD8194562
_publ_section_title
;
Structure prediction by ZEFSAII (Michael W. Deem and Ramdas Pophale) SiO2 
 PCOD8194562
Probable space group: P M M M
;
_chemical_formula_sum "Si O2"
_cell_formula_units_Z 48
_cell_length_a 19.206647
_cell_length_b 8.871165
_cell_length_c 15.187731
_cell_angle_alpha 90.000000
_cell_angle_beta 90.000000
_cell_angle_gamma 90.000000
_cell_volume 2587.766629
_symmetry_space_group_name_H-M "P M M M"
_symmetry_group_IT_number 47
_symmetry_cell_setting 'orthorhombic'
loop_
_space_group_symop_operation_xyz
x,y,z
-x,-y,z
x,-y,-z
-x,y,-z
-x,-y,-z
x,y,-z
-x,y,z
x,-y,z
loop_
_atom_site_type_symbol
_atom_site_label
_atom_site_fract_x
_atom_site_fract_y
_atom_site_fract_z
Si Si1 0.316129 0.174525 0.898907
Si Si2 0.825878 0.321764 0.842611
Si Si3 0.921985 0.320846 0.000000
Si Si4 0.173369 0.821029 0.341603
Si Si5 0.577585 0.821156 0.751913
Si Si6 0.921912 0.179283 0.500000
Si Si7 0.675414 0.820543 0.598255
O O1 0.250336 0.272847 0.872810
O O2 0.381255 0.227518 0.839777
O O3 0.297899 0.000000 0.880203
O O4 0.336960 0.201739 0.000000
O O5 0.827012 0.500000 0.834046
O O6 0.848327 0.249694 0.750761
O O7 0.881577 0.262593 0.913820
O O8 0.923894 0.500000 0.000000
O O9 0.000000 0.253655 0.000000
O O10 0.118061 0.762942 0.413416
O O11 0.249528 0.762154 0.369683
O O12 0.172825 0.000000 0.333226
O O13 0.500000 0.751299 0.755208
O O14 0.617002 0.758289 0.665220
O O15 0.573250 0.000000 0.746399
O O16 0.000000 0.245541 0.500000
O O17 0.922859 0.000000 0.500000
O O18 0.659622 0.759108 0.500000
O O19 0.675982 0.000000 0.597662
#
# Coordination Sequence:
#
# PCOD8194562 Si02
#       7
#     8   8   4   8   8   4   8
#     4  10  19  32  53  77 102 134 171 212 257 306
#     4  11  21  34  55  80 103 134 176 217 258 312
#     4   9  20  38  55  73 102 137 170 208 259 313
#     4  10  18  32  54  77 104 138 175 213 257 310
#     4   9  17  28  44  72 107 135 164 207 256 305
#     4   9  18  32  53  81 110 140 173 214 265 318
#     4   9  15  25  45  71  97 131 169 205 249 297
#
# _framework density 18.548812999999999
#
# number of rings (size 3 to 8) (size 9 to 14) (size 15 to 20)
#    0.000    2.333    3.333    0.500    0.000    1.333 
#    0.000    3.750    0.000    4.500    0.000    1.167 
#    0.000    1.333    0.000    0.000    0.000    0.000 
#
# Total GULP energy -595172.833134 kJ/mol
# GULP energy per Si atom -12399.434024 kJ/mol
# Density = 1.850659 g / cm^3
# Si number density = 18.548813 Si / 1000 Ang^3
#
#
#
# Elastic Constant Matrix: (Units=GPa)
#
#
# Indices 1 2 3 4 5 6 
#
# 1 177.9934 18.0362 97.7984 0.0000 0.0000 0.0000
# 2 18.0362 20.2781 23.9624 0.0000 0.0000 0.0000
# 3 97.7984 23.9624 198.3457 0.0000 0.0000 0.0000
# 4 0.0000 0.0000 0.0000 15.3749 0.0000 0.0000
# 5 0.0000 0.0000 0.0000 0.0000 35.8778 0.0000
# 6 0.0000 0.0000 0.0000 0.0000 0.0000 13.1003
#
#
#
# Elastic Compliance Matrix: (Units=1/GPa)
#
#
# Indices 1 2 3 4 5 6 
#
# 1 0.007840 -0.002806 -0.003527 0.000000 0.000000 0.000000
# 2 -0.002806 0.058531 -0.005688 0.000000 0.000000 0.000000
# 3 -0.003527 -0.005688 0.007468 0.000000 0.000000 0.000000
# 4 0.000000 0.000000 0.000000 0.065041 0.000000 0.000000
# 5 0.000000 0.000000 0.000000 0.000000 0.027872 0.000000
# 6 0.000000 0.000000 0.000000 0.000000 0.000000 0.076334
#
#
# Mechanical properties :
#
#
# Convention : Reuss Voigt Hill
#
# Bulk Modulus (GPa) = 20.08103 75.13458 47.60780
# Shear Modulus (GPa) = 17.62258 29.99195 23.80726
#
# Velocity S-wave (km/s) = 3.08566 4.02546 3.58647
# Velocity P-wave (km/s) = 4.85228 7.88670 6.54770
#
# Compressibility (1/GPa) = 0.04979825
#
# Stress axis : x y z
#
# Youngs Moduli (GPa) = 127.54554 17.08497 133.90767
#
# Poissons Ratio (x) = 0.04794 0.47227
# Poissons Ratio (y) = 0.35788 0.76163
# Poissons Ratio (z) = 0.44983 0.09717
#
# Static dielectric constant tensor:
#      x y z
#    x 3.648390 0.000000 0.000000 
#    y 0.000000 2.852710 0.000000 
#    z 0.000000 0.000000 3.738500 
# 
# 
# High freq. dielectric constant tensor:
#      x y z
#    x 1.720850 0.000000 0.000000 
#    y 0.000000 1.660820 0.000000 
#    z 0.000000 0.000000 1.740790 
# 
# From -- ./inp_files/24488.got.cif
#   From: 2010.03.12/outbox.cif.g09.slc.cpg/sg47_13_cif.got.tgz:24488.got - 2010.04.14 03:12:58.
