data_PCOD8194569
_publ_section_title
;
Structure prediction by ZEFSAII (Michael W. Deem and Ramdas Pophale) SiO2 
 PCOD8194569
Probable space group: P M M M
;
_chemical_formula_sum "Si O2"
_cell_formula_units_Z 40
_cell_length_a 21.216076
_cell_length_b 8.967407
_cell_length_c 10.999487
_cell_angle_alpha 90.000000
_cell_angle_beta 90.000000
_cell_angle_gamma 90.000000
_cell_volume 2092.687473
_symmetry_space_group_name_H-M "P M M M"
_symmetry_group_IT_number 47
_symmetry_cell_setting 'orthorhombic'
loop_
_space_group_symop_operation_xyz
x,y,z
-x,-y,z
x,-y,-z
-x,y,-z
-x,-y,-z
x,y,-z
-x,y,z
x,-y,z
loop_
_atom_site_type_symbol
_atom_site_label
_atom_site_fract_x
_atom_site_fract_y
_atom_site_fract_z
Si Si1 0.353607 0.322351 0.263832
Si Si2 0.125745 0.829251 0.795539
Si Si3 0.000000 0.675920 0.858405
Si Si4 0.648208 0.669232 0.000000
Si Si5 0.202330 0.329062 0.000000
Si Si6 0.428612 0.322443 0.500000
Si Si7 0.237245 0.829455 0.636073
O O1 0.354359 0.500000 0.261849
O O2 0.376943 0.261664 0.129405
O O3 0.395756 0.260781 0.376282
O O4 0.281628 0.271288 0.279519
O O5 0.162916 0.817149 0.668087
O O6 0.060535 0.740908 0.790122
O O7 0.111701 0.000000 0.832106
O O8 0.174725 0.755359 0.885796
O O9 0.000000 0.500000 0.844697
O O10 0.000000 0.724193 0.000000
O O11 0.625560 0.500000 0.000000
O O12 0.723155 0.681881 0.000000
O O13 0.178723 0.500000 0.000000
O O14 0.425861 0.500000 0.500000
O O15 0.500000 0.263671 0.500000
O O16 0.245347 0.770237 0.500000
O O17 0.259739 0.000000 0.649758
#
# Coordination Sequence:
#
# PCOD8194569 Si02
#       7
#     8   8   4   4   4   4   8
#     4  10  18  32  54  79 109 145 183 222 270 323
#     4  11  22  35  53  77 105 138 175 218 270 328
#     4  11  23  37  54  75 103 141 180 221 269 324
#     4   9  18  29  47  80 114 139 172 224 279 324
#     4  11  19  30  50  76 109 137 168 221 272 320
#     4   9  18  32  53  81 111 146 191 232 261 307
#     4  10  21  36  54  79 109 136 174 224 272 320
#
# _framework density 19.114177999999999
#
# number of rings (size 3 to 8) (size 9 to 14) (size 15 to 20)
#    0.000    1.800    4.000    1.200    0.000    1.200 
#    0.000    1.500    0.000    7.200    0.000    0.000 
#    0.000    1.600    0.000    0.000    0.000    0.000 
#
# Total GULP energy -495663.806714 kJ/mol
# GULP energy per Si atom -12391.595168 kJ/mol
# Density = 1.907067 g / cm^3
# Si number density = 19.114178 Si / 1000 Ang^3
#
#
#
# Elastic Constant Matrix: (Units=GPa)
#
#
# Indices 1 2 3 4 5 6 
#
# 1 90.5592 21.5650 48.1267 0.0000 0.0000 0.0000
# 2 21.5650 49.6356 21.8820 0.0000 0.0000 0.0000
# 3 48.1267 21.8820 157.1754 0.0000 0.0000 0.0000
# 4 0.0000 0.0000 0.0000 17.4440 0.0000 0.0000
# 5 0.0000 0.0000 0.0000 0.0000 25.8602 0.0000
# 6 0.0000 0.0000 0.0000 0.0000 0.0000 13.8878
#
#
#
# Elastic Compliance Matrix: (Units=1/GPa)
#
#
# Indices 1 2 3 4 5 6 
#
# 1 0.014069 -0.004489 -0.003683 0.000000 0.000000 0.000000
# 2 -0.004489 0.022896 -0.001813 0.000000 0.000000 0.000000
# 3 -0.003683 -0.001813 0.007742 0.000000 0.000000 0.000000
# 4 0.000000 0.000000 0.000000 0.057326 0.000000 0.000000
# 5 0.000000 0.000000 0.000000 0.000000 0.038670 0.000000
# 6 0.000000 0.000000 0.000000 0.000000 0.000000 0.072006
#
#
# Mechanical properties :
#
#
# Convention : Reuss Voigt Hill
#
# Bulk Modulus (GPa) = 40.42390 53.39086 46.90738
# Shear Modulus (GPa) = 20.75338 25.15815 22.95576
#
# Velocity S-wave (km/s) = 3.29866 3.63189 3.46928
# Velocity P-wave (km/s) = 5.97518 6.75135 6.37509
#
# Compressibility (1/GPa) = 0.02473784
#
# Stress axis : x y z
#
# Youngs Moduli (GPa) = 71.08007 43.67501 129.15834
#
# Poissons Ratio (x) = 0.19605 0.47567
# Poissons Ratio (y) = 0.31906 0.23419
# Poissons Ratio (z) = 0.26178 0.07919
#
# Static dielectric constant tensor:
#      x y z
#    x 3.368820 0.000000 0.000000 
#    y 0.000000 3.317980 0.000000 
#    z 0.000000 0.000000 3.838070 
# 
# 
# High freq. dielectric constant tensor:
#      x y z
#    x 1.726160 0.000000 0.000000 
#    y 0.000000 1.721350 0.000000 
#    z 0.000000 0.000000 1.752720 
# 
# From -- ./inp_files/18997.got.cif
#   From: 2010.03.12/outbox.cif.g09.slc.cpg/sg47_10_cif.got.tgz:18997.got - 2010.04.14 03:12:58.
