data_PCOD8194571
_publ_section_title
;
Structure prediction by ZEFSAII (Michael W. Deem and Ramdas Pophale) SiO2 
 PCOD8194571
Probable space group: P M M M
;
_chemical_formula_sum "Si O2"
_cell_formula_units_Z 48
_cell_length_a 12.315198
_cell_length_b 14.041946
_cell_length_c 14.737722
_cell_angle_alpha 90.000000
_cell_angle_beta 90.000000
_cell_angle_gamma 90.000000
_cell_volume 2548.584617
_symmetry_space_group_name_H-M "P M M M"
_symmetry_group_IT_number 47
_symmetry_cell_setting 'orthorhombic'
loop_
_space_group_symop_operation_xyz
x,y,z
-x,-y,z
x,-y,-z
-x,y,-z
-x,-y,-z
x,y,-z
-x,y,z
x,-y,z
loop_
_atom_site_type_symbol
_atom_site_label
_atom_site_fract_x
_atom_site_fract_y
_atom_site_fract_z
Si Si1 0.273800 0.892057 0.839808
Si Si2 0.500000 0.104344 0.895493
Si Si3 0.622192 0.103594 0.342925
Si Si4 0.127635 0.273062 0.104157
Si Si5 0.624563 0.307272 0.401113
Si Si6 0.198079 0.612518 0.725345
Si Si7 0.000000 0.386914 0.602529
O O1 0.387531 0.842379 0.870927
O O2 0.281459 0.891541 0.731072
O O3 0.172661 0.832609 0.877022
O O4 0.261492 0.000000 0.877597
O O5 0.500000 0.000000 0.845904
O O6 0.500000 0.087140 0.000000
O O7 0.500000 0.112181 0.298924
O O8 0.640032 0.192766 0.408848
O O9 0.631083 0.000000 0.393062
O O10 0.184661 0.345840 0.173571
O O11 0.000000 0.271914 0.122586
O O12 0.152420 0.303506 0.000000
O O13 0.661305 0.347705 0.500000
O O14 0.500000 0.334037 0.383003
O O15 0.689296 0.354019 0.318459
O O16 0.195427 0.500000 0.735591
O O17 0.104599 0.649831 0.657495
O O18 0.000000 0.500000 0.597599
O O19 0.000000 0.344595 0.500000
#
# Coordination Sequence:
#
# PCOD8194571 Si02
#       7
#     8   4   8   8   8   8   4
#     4  10  18  32  54  81 113 149 188 232 282 334
#     4   9  16  26  46  78 108 136 177 226 274 322
#     4   9  16  29  52  81 114 151 188 226 269 321
#     4  11  24  40  58  82 112 148 192 239 292 352
#     4  10  21  36  57  88 122 154 187 225 280 348
#     4  11  22  39  61  83 110 144 187 241 292 339
#     4   9  18  34  59  87 106 129 175 235 291 334
#
# _framework density 18.833984000000001
#
# number of rings (size 3 to 8) (size 9 to 14) (size 15 to 20)
#    0.000    2.000    3.333    1.000    0.000    3.333 
#    0.000    4.167    0.000    0.000    0.000    1.167 
#    0.000    5.333    0.000    0.000    0.000    0.000 
#
# Total GULP energy -594786.925917 kJ/mol
# GULP energy per Si atom -12391.394290 kJ/mol
# Density = 1.879112 g / cm^3
# Si number density = 18.833984 Si / 1000 Ang^3
#
#
#
# Elastic Constant Matrix: (Units=GPa)
#
#
# Indices 1 2 3 4 5 6 
#
# 1 86.7945 37.7911 57.2454 0.0000 0.0000 0.0000
# 2 37.7911 76.7550 41.7300 0.0000 0.0000 0.0000
# 3 57.2454 41.7300 123.5848 0.0000 0.0000 0.0000
# 4 0.0000 0.0000 0.0000 18.6160 0.0000 0.0000
# 5 0.0000 0.0000 0.0000 0.0000 27.1508 0.0000
# 6 0.0000 0.0000 0.0000 0.0000 0.0000 25.4186
#
#
#
# Elastic Compliance Matrix: (Units=1/GPa)
#
#
# Indices 1 2 3 4 5 6 
#
# 1 0.018235 -0.005372 -0.006633 0.000000 0.000000 0.000000
# 2 -0.005372 0.017541 -0.003434 0.000000 0.000000 0.000000
# 3 -0.006633 -0.003434 0.012324 0.000000 0.000000 0.000000
# 4 0.000000 0.000000 0.000000 0.053717 0.000000 0.000000
# 5 0.000000 0.000000 0.000000 0.000000 0.036831 0.000000
# 6 0.000000 0.000000 0.000000 0.000000 0.000000 0.039341
#
#
# Mechanical properties :
#
#
# Convention : Reuss Voigt Hill
#
# Bulk Modulus (GPa) = 58.06899 62.29637 60.18268
# Shear Modulus (GPa) = 23.29827 24.26160 23.77993
#
# Velocity S-wave (km/s) = 3.52096 3.59302 3.55717
# Velocity P-wave (km/s) = 6.88684 7.09658 6.99249
#
# Compressibility (1/GPa) = 0.01722090
#
# Stress axis : x y z
#
# Youngs Moduli (GPa) = 54.83919 57.01012 81.14528
#
# Poissons Ratio (x) = 0.30627 0.53821
# Poissons Ratio (y) = 0.29461 0.27869
# Poissons Ratio (z) = 0.36373 0.19580
#
# Static dielectric constant tensor:
#      x y z
#    x 3.446120 0.000000 0.000000 
#    y 0.000000 3.276910 0.000000 
#    z 0.000000 0.000000 3.447820 
# 
# 
# High freq. dielectric constant tensor:
#      x y z
#    x 1.720350 0.000000 0.000000 
#    y 0.000000 1.706430 0.000000 
#    z 0.000000 0.000000 1.735500 
# 
# From -- ./inp_files/22721.got.cif
#   From: 2010.03.12/outbox.cif.g09.slc.cpg/sg47_12_cif.got.tgz:22721.got - 2010.04.14 03:12:58.
