data_PCOD8194445
_publ_section_title
;
Structure prediction by ZEFSAII (Michael W. Deem and Ramdas Pophale) SiO2 
 PCOD8194445
Probable space group: P M M M
;
_chemical_formula_sum "Si O2"
_cell_formula_units_Z 64
_cell_length_a 9.021933
_cell_length_b 20.449904
_cell_length_c 20.079208
_cell_angle_alpha 90.000000
_cell_angle_beta 90.000000
_cell_angle_gamma 90.000000
_cell_volume 3704.566966
_symmetry_space_group_name_H-M "P M M M"
_symmetry_group_IT_number 47
_symmetry_cell_setting 'orthorhombic'
loop_
_space_group_symop_operation_xyz
x,y,z
-x,-y,z
x,-y,-z
-x,y,-z
-x,-y,-z
x,y,-z
-x,y,z
x,-y,z
loop_
_atom_site_type_symbol
_atom_site_label
_atom_site_fract_x
_atom_site_fract_y
_atom_site_fract_z
Si Si1 0.173577 0.180697 0.422716
Si Si2 0.326839 0.574289 0.575317
Si Si3 0.669778 0.926590 0.334501
Si Si4 0.327271 0.118384 0.926986
Si Si5 0.824949 0.111828 0.203492
Si Si6 0.824763 0.688065 0.348544
Si Si7 0.172009 0.737864 0.787903
Si Si8 0.170598 0.745791 0.070749
O O1 0.215700 0.180110 0.500000
O O2 0.257748 0.122006 0.387210
O O3 0.224825 0.250149 0.392929
O O4 0.000000 0.169998 0.410417
O O5 0.272295 0.587211 0.500000
O O6 0.500000 0.588078 0.580661
O O7 0.290271 0.500000 0.596083
O O8 0.242548 0.621440 0.625017
O O9 0.500000 0.905814 0.323251
O O10 0.753510 0.927012 0.264092
O O11 0.681113 0.000000 0.363685
O O12 0.500000 0.114603 0.909563
O O13 0.236844 0.083690 0.867097
O O14 0.279276 0.193472 0.931885
O O15 0.296449 0.085653 0.000000
O O16 0.774101 0.187234 0.210875
O O17 0.000000 0.102015 0.205198
O O18 0.757104 0.698424 0.273736
O O19 0.000000 0.679826 0.349979
O O20 0.206886 0.705153 0.861102
O O21 0.000000 0.738064 0.771694
O O22 0.000000 0.771032 0.077498
O O23 0.188746 0.706184 0.000000
#
# Coordination Sequence:
#
# PCOD8194445 Si02
#       8
#     8   8   8   8   8   8   8   8
#     4  10  21  37  56  77 100 128 163 202 246 298
#     4   9  19  35  51  69  98 134 168 201 240 289
#     4  11  24  39  54  73  97 125 160 205 257 309
#     4   9  16  25  40  66  98 127 156 195 243 291
#     4  10  18  32  52  70  93 126 164 203 244 296
#     4  10  18  31  51  76 104 130 162 202 243 288
#     4   8  14  25  43  67  95 124 154 196 243 282
#     4   8  13  22  37  59  89 127 167 199 233 283
#
# _framework density 17.275974000000001
#
# number of rings (size 3 to 8) (size 9 to 14) (size 15 to 20)
#    0.000    2.625    1.250    2.625    0.000    3.750 
#    0.000    2.500    0.000    0.375    0.000    2.625 
#    0.000    0.500    0.000    6.250    0.000    1.125 
#
# Total GULP energy -792928.925558 kJ/mol
# GULP energy per Si atom -12389.514462 kJ/mol
# Density = 1.723665 g / cm^3
# Si number density = 17.275974 Si / 1000 Ang^3
#
#
#
# Elastic Constant Matrix: (Units=GPa)
#
#
# Indices 1 2 3 4 5 6 
#
# 1 58.2124 28.7005 50.1111 0.0000 0.0000 0.0000
# 2 28.7005 71.2379 56.0256 0.0000 0.0000 0.0000
# 3 50.1111 56.0256 164.5456 0.0000 0.0000 0.0000
# 4 0.0000 0.0000 0.0000 12.1135 0.0000 0.0000
# 5 0.0000 0.0000 0.0000 0.0000 27.0098 0.0000
# 6 0.0000 0.0000 0.0000 0.0000 0.0000 21.9471
#
#
#
# Elastic Compliance Matrix: (Units=1/GPa)
#
#
# Indices 1 2 3 4 5 6 
#
# 1 0.024780 -0.005529 -0.005664 0.000000 0.000000 0.000000
# 2 -0.005529 0.020405 -0.005264 0.000000 0.000000 0.000000
# 3 -0.005664 -0.005264 0.009595 0.000000 0.000000 0.000000
# 4 0.000000 0.000000 0.000000 0.082553 0.000000 0.000000
# 5 0.000000 0.000000 0.000000 0.000000 0.037024 0.000000
# 6 0.000000 0.000000 0.000000 0.000000 0.000000 0.045564
#
#
# Mechanical properties :
#
#
# Convention : Reuss Voigt Hill
#
# Bulk Modulus (GPa) = 45.73330 62.63004 54.18167
# Shear Modulus (GPa) = 19.22176 22.82466 21.02321
#
# Velocity S-wave (km/s) = 3.33923 3.63875 3.49220
# Velocity P-wave (km/s) = 6.43404 7.34747 6.90588
#
# Compressibility (1/GPa) = 0.02186590
#
# Stress axis : x y z
#
# Youngs Moduli (GPa) = 40.35474 49.00838 104.22614
#
# Poissons Ratio (x) = 0.27097 0.59035
# Poissons Ratio (y) = 0.22312 0.54862
# Poissons Ratio (z) = 0.22857 0.25797
#
# Static dielectric constant tensor:
#      x y z
#    x 3.103730 0.000000 0.000000 
#    y 0.000000 2.829390 0.000000 
#    z 0.000000 0.000000 3.818760 
# 
# 
# High freq. dielectric constant tensor:
#      x y z
#    x 1.659040 0.000000 0.000000 
#    y 0.000000 1.611880 0.000000 
#    z 0.000000 0.000000 1.691880 
# 
# From -- ./inp_files/11577.got.cif
#   From: 2010.03.12/outbox.cif.g09.slc.cpg/sg47_6_cif.got.tgz:11577.got - 2010.04.14 03:12:58.
