data_PCOD8194974
_publ_section_title
;
Structure prediction by ZEFSAII (Michael W. Deem and Ramdas Pophale) SiO2 
 PCOD8194974
Probable space group: P M M M
;
_chemical_formula_sum "Si O2"
_cell_formula_units_Z 40
_cell_length_a 8.881481
_cell_length_b 22.175957
_cell_length_c 12.928952
_cell_angle_alpha 90.000000
_cell_angle_beta 90.000000
_cell_angle_gamma 90.000000
_cell_volume 2546.426147
_symmetry_space_group_name_H-M "P M M M"
_symmetry_group_IT_number 47
_symmetry_cell_setting 'orthorhombic'
loop_
_space_group_symop_operation_xyz
x,y,z
-x,-y,z
x,-y,-z
-x,y,-z
-x,-y,-z
x,y,-z
-x,y,z
x,-y,z
loop_
_atom_site_type_symbol
_atom_site_label
_atom_site_fract_x
_atom_site_fract_y
_atom_site_fract_z
Si Si1 0.678972 0.860834 0.310877
Si Si2 0.174337 0.071210 0.500000
Si Si3 0.169931 0.500000 0.623444
Si Si4 0.321298 0.932594 0.885923
Si Si5 0.175044 0.258557 0.621390
Si Si6 0.669337 0.619541 0.377012
O O1 0.500000 0.862092 0.321397
O O2 0.748058 0.902194 0.399306
O O3 0.737505 0.886790 0.201262
O O4 0.736169 0.792665 0.317266
O O5 0.000000 0.090516 0.500000
O O6 0.196014 0.000000 0.500000
O O7 0.171772 0.500000 0.500000
O O8 0.253330 0.559196 0.667183
O O9 0.000000 0.500000 0.665322
O O10 0.500000 0.934084 0.883836
O O11 0.259999 0.000000 0.862582
O O12 0.265411 0.911510 0.000000
O O13 0.205366 0.249445 0.500000
O O14 0.236795 0.322687 0.660706
O O15 0.000000 0.254823 0.647853
O O16 0.668375 0.616975 0.500000
O O17 0.500000 0.623712 0.333538
#
# Coordination Sequence:
#
# PCOD8194974 Si02
#       6
#     8   4   4   8   8   8
#     4  11  20  30  48  69  88 112 147 185 220 264
#     4  11  23  35  45  61  89 120 145 176 221 267
#     4   9  15  23  35  53  77 107 144 181 222 263
#     4   8  15  29  48  69  90 110 137 179 229 273
#     4  10  19  30  42  57  84 119 149 178 220 268
#     4   9  16  25  38  55  77 106 146 189 221 251
#
# _framework density 15.708289000000001
#
# number of rings (size 3 to 8) (size 9 to 14) (size 15 to 20)
#    0.000    2.400    1.000    3.600    0.000    6.000 
#    0.000    0.000    0.000    2.400    0.000    7.000 
#    0.000    0.000    0.000    0.900    0.000   18.700 
#
# Total GULP energy -495942.353386 kJ/mol
# GULP energy per Si atom -12398.558835 kJ/mol
# Density = 1.567254 g / cm^3
# Si number density = 15.708289 Si / 1000 Ang^3
#
#
#
# Elastic Constant Matrix: (Units=GPa)
#
#
# Indices 1 2 3 4 5 6 
#
# 1 92.7393 56.1086 33.7322 0.0000 0.0000 0.0000
# 2 56.1086 139.1472 55.3367 0.0000 0.0000 0.0000
# 3 33.7322 55.3367 77.2856 0.0000 0.0000 0.0000
# 4 0.0000 0.0000 0.0000 5.1633 0.0000 0.0000
# 5 0.0000 0.0000 0.0000 0.0000 1.1649 0.0000
# 6 0.0000 0.0000 0.0000 0.0000 0.0000 30.6446
#
#
#
# Elastic Compliance Matrix: (Units=1/GPa)
#
#
# Indices 1 2 3 4 5 6 
#
# 1 0.014759 -0.004739 -0.003049 0.000000 0.000000 0.000000
# 2 -0.004739 0.011569 -0.006215 0.000000 0.000000 0.000000
# 3 -0.003049 -0.006215 0.018720 0.000000 0.000000 0.000000
# 4 0.000000 0.000000 0.000000 0.193676 0.000000 0.000000
# 5 0.000000 0.000000 0.000000 0.000000 0.858418 0.000000
# 6 0.000000 0.000000 0.000000 0.000000 0.000000 0.032632
#
#
# Mechanical properties :
#
#
# Convention : Reuss Voigt Hill
#
# Bulk Modulus (GPa) = 58.67735 66.61411 62.64573
# Shear Modulus (GPa) = 4.29753 18.32753 11.31253
#
# Velocity S-wave (km/s) = 1.65583 3.41947 2.68650
# Velocity P-wave (km/s) = 6.41024 7.62164 7.04204
#
# Compressibility (1/GPa) = 0.01704235
#
# Stress axis : x y z
#
# Youngs Moduli (GPa) = 67.75585 86.43640 53.41941
#
# Poissons Ratio (x) = 0.40961 0.16286
# Poissons Ratio (y) = 0.32108 0.33202
# Poissons Ratio (z) = 0.20656 0.53722
#
# Static dielectric constant tensor:
#      x y z
#    x 3.031850 0.000000 0.000000 
#    y 0.000000 3.186390 0.000000 
#    z 0.000000 0.000000 2.784710 
# 
# 
# High freq. dielectric constant tensor:
#      x y z
#    x 1.606680 0.000000 0.000000 
#    y 0.000000 1.614860 0.000000 
#    z 0.000000 0.000000 1.543970 
# 
# From -- ./inp_files/15110.got.cif
#   From: 2010.03.12/outbox.cif.g09.slc.cpg/sg47_8_cif.got.tgz:15110.got - 2010.04.14 03:12:58.
