data_PCOD8194918
_publ_section_title
;
Structure prediction by ZEFSAII (Michael W. Deem and Ramdas Pophale) SiO2 
 PCOD8194918
Probable space group: P M M M
;
_chemical_formula_sum "Si O2"
_cell_formula_units_Z 44
_cell_length_a 21.108269
_cell_length_b 13.538301
_cell_length_c 9.366019
_cell_angle_alpha 90.000000
_cell_angle_beta 90.000000
_cell_angle_gamma 90.000000
_cell_volume 2676.528180
_symmetry_space_group_name_H-M "P M M M"
_symmetry_group_IT_number 47
_symmetry_cell_setting 'orthorhombic'
loop_
_space_group_symop_operation_xyz
x,y,z
-x,-y,z
x,-y,-z
-x,y,-z
-x,-y,-z
x,y,-z
-x,y,z
x,-y,z
loop_
_atom_site_type_symbol
_atom_site_label
_atom_site_fract_x
_atom_site_fract_y
_atom_site_fract_z
Si Si1 0.000000 0.612243 0.669716
Si Si2 0.796548 0.110590 0.335876
Si Si3 0.242315 0.389996 0.162723
Si Si4 0.131130 0.697856 0.667162
Si Si5 0.427373 0.114261 0.335774
Si Si6 0.316038 0.801002 0.832958
O O1 0.938492 0.671324 0.726556
O O2 0.000000 0.500000 0.728941
O O3 0.000000 0.610628 0.500000
O O4 0.775320 0.125051 0.500000
O O5 0.852396 0.187800 0.296656
O O6 0.735294 0.126832 0.238215
O O7 0.822752 0.000000 0.309524
O O8 0.269253 0.500000 0.189163
O O9 0.181269 0.374382 0.260245
O O10 0.297711 0.312560 0.199670
O O11 0.220090 0.375128 0.000000
O O12 0.134875 0.676719 0.500000
O O13 0.410843 0.136544 0.500000
O O14 0.500000 0.141171 0.303454
O O15 0.384669 0.181762 0.234509
O O16 0.414339 0.000000 0.301072
O O17 0.318586 0.824699 0.000000
#
# Coordination Sequence:
#
# PCOD8194918 Si02
#       6
#     4   8   8   8   8   8
#     4   9  16  26  42  64  88 111 139 183 232 265
#     4   9  17  29  44  62  87 118 148 178 215 260
#     4   9  18  32  47  64  89 117 144 179 222 262
#     4   9  17  29  45  65  87 113 147 182 217 262
#     4   9  18  32  48  66  91 122 149 173 209 257
#     4  10  19  29  45  69  91 113 145 183 219 255
#
# _framework density 16.439207
#
# number of rings (size 3 to 8) (size 9 to 14) (size 15 to 20)
#    0.000    2.818    0.000    2.182    0.000    5.091 
#    0.000    1.818    0.000    4.909    0.000    3.818 
#    0.000    5.818    0.000    0.000    0.000    0.000 
#
# Total GULP energy -545546.193918 kJ/mol
# GULP energy per Si atom -12398.777135 kJ/mol
# Density = 1.640179 g / cm^3
# Si number density = 16.439207 Si / 1000 Ang^3
#
#
#
# Elastic Constant Matrix: (Units=GPa)
#
#
# Indices 1 2 3 4 5 6 
#
# 1 122.0443 62.9045 50.5706 0.0000 0.0000 0.0000
# 2 62.9045 116.0637 39.4685 0.0000 0.0000 0.0000
# 3 50.5706 39.4685 57.8959 0.0000 0.0000 0.0000
# 4 0.0000 0.0000 0.0000 21.0758 0.0000 0.0000
# 5 0.0000 0.0000 0.0000 0.0000 10.7738 0.0000
# 6 0.0000 0.0000 0.0000 0.0000 0.0000 21.4826
#
#
#
# Elastic Compliance Matrix: (Units=1/GPa)
#
#
# Indices 1 2 3 4 5 6 
#
# 1 0.014533 -0.004634 -0.009535 0.000000 0.000000 0.000000
# 2 -0.004634 0.012694 -0.004606 0.000000 0.000000 0.000000
# 3 -0.009535 -0.004606 0.028741 0.000000 0.000000 0.000000
# 4 0.000000 0.000000 0.000000 0.047448 0.000000 0.000000
# 5 0.000000 0.000000 0.000000 0.000000 0.092817 0.000000
# 6 0.000000 0.000000 0.000000 0.000000 0.000000 0.046549
#
#
# Mechanical properties :
#
#
# Convention : Reuss Voigt Hill
#
# Bulk Modulus (GPa) = 54.29549 66.87680 60.58615
# Shear Modulus (GPa) = 17.45368 20.20380 18.82874
#
# Velocity S-wave (km/s) = 3.26192 3.50951 3.38798
# Velocity P-wave (km/s) = 6.87653 7.56253 7.22767
#
# Compressibility (1/GPa) = 0.01841774
#
# Stress axis : x y z
#
# Youngs Moduli (GPa) = 68.80660 78.77823 34.79352
#
# Poissons Ratio (x) = 0.36508 0.33177
# Poissons Ratio (y) = 0.31887 0.16025
# Poissons Ratio (z) = 0.65610 0.36282
#
# Static dielectric constant tensor:
#      x y z
#    x 3.053560 0.000000 0.000000 
#    y 0.000000 3.186080 0.000000 
#    z 0.000000 0.000000 3.043610 
# 
# 
# High freq. dielectric constant tensor:
#      x y z
#    x 1.618080 0.000000 0.000000 
#    y 0.000000 1.632060 0.000000 
#    z 0.000000 0.000000 1.626160 
# 
# From -- ./inp_files/8976.got.cif
#   From: 2010.03.12/outbox.cif.g09.slc.cpg/sg47_5_cif.got.tgz:8976.got - 2010.04.14 03:12:58.
