data_PCOD8194359
_publ_section_title
;
Structure prediction by ZEFSAII (Michael W. Deem and Ramdas Pophale) SiO2 
 PCOD8194359
Probable space group: P M M M
;
_chemical_formula_sum "Si O2"
_cell_formula_units_Z 56
_cell_length_a 15.506546
_cell_length_b 20.373855
_cell_length_c 9.247258
_cell_angle_alpha 90.000000
_cell_angle_beta 90.000000
_cell_angle_gamma 90.000000
_cell_volume 2921.468833
_symmetry_space_group_name_H-M "P M M M"
_symmetry_group_IT_number 47
_symmetry_cell_setting 'orthorhombic'
loop_
_space_group_symop_operation_xyz
x,y,z
-x,-y,z
x,-y,-z
-x,y,-z
-x,-y,-z
x,y,-z
-x,y,z
x,-y,z
loop_
_atom_site_type_symbol
_atom_site_label
_atom_site_fract_x
_atom_site_fract_y
_atom_site_fract_z
Si Si1 0.653602 0.742062 0.337712
Si Si2 0.778037 0.572679 0.329550
Si Si3 0.815273 0.698115 0.831364
Si Si4 0.595996 0.115111 0.667761
Si Si5 0.094632 0.828436 0.170173
Si Si6 0.760935 0.926152 0.166310
Si Si7 0.408804 0.602703 0.664438
O O1 0.693815 0.745196 0.500000
O O2 0.728302 0.732615 0.221018
O O3 0.601582 0.807413 0.301087
O O4 0.588586 0.681418 0.326398
O O5 0.777852 0.588555 0.500000
O O6 0.816473 0.500000 0.298541
O O7 0.834024 0.629061 0.250980
O O8 0.679591 0.574793 0.265911
O O9 0.889450 0.751299 0.797436
O O10 0.808586 0.682051 0.000000
O O11 0.610309 0.099252 0.500000
O O12 0.500000 0.091969 0.715827
O O13 0.669106 0.077156 0.755029
O O14 0.168620 0.876143 0.236862
O O15 0.000000 0.846028 0.234426
O O16 0.094542 0.841093 0.000000
O O17 0.797206 0.000000 0.182221
O O18 0.744642 0.907562 0.000000
O O19 0.409010 0.578299 0.500000
O O20 0.500000 0.578170 0.736728
#
# Coordination Sequence:
#
# PCOD8194359 Si02
#       7
#     8   8   8   8   8   8   8
#     4   9  16  28  47  70  98 132 171 214 260 306
#     4   9  18  31  47  69  99 137 176 213 257 310
#     4  10  18  30  52  77 102 131 166 212 265 315
#     4  10  20  33  52  77 106 144 187 227 266 310
#     4   9  18  34  57  84 109 133 169 218 271 327
#     4  10  21  37  56  79 109 143 178 219 269 322
#     4   8  13  22  39  64  91 119 160 211 252 289
#
# _framework density 19.168438999999999
#
# number of rings (size 3 to 8) (size 9 to 14) (size 15 to 20)
#    0.000    2.714    1.429    1.714    0.000    3.429 
#    0.000    4.286    0.000   14.571    0.000    8.000 
#    0.000    0.000    0.000    0.000    0.000    0.000 
#
# Total GULP energy -693814.007854 kJ/mol
# GULP energy per Si atom -12389.535855 kJ/mol
# Density = 1.912481 g / cm^3
# Si number density = 19.168439 Si / 1000 Ang^3
#
#
#
# Elastic Constant Matrix: (Units=GPa)
#
#
# Indices 1 2 3 4 5 6 
#
# 1 105.1607 42.2724 30.7282 0.0000 0.0000 0.0000
# 2 42.2724 107.7528 35.5958 0.0000 0.0000 0.0000
# 3 30.7282 35.5958 48.2920 0.0000 0.0000 0.0000
# 4 0.0000 0.0000 0.0000 24.6641 0.0000 0.0000
# 5 0.0000 0.0000 0.0000 0.0000 12.1261 0.0000
# 6 0.0000 0.0000 0.0000 0.0000 0.0000 8.8895
#
#
#
# Elastic Compliance Matrix: (Units=1/GPa)
#
#
# Indices 1 2 3 4 5 6 
#
# 1 0.012363 -0.002976 -0.005673 0.000000 0.000000 0.000000
# 2 -0.002976 0.012984 -0.007677 0.000000 0.000000 0.000000
# 3 -0.005673 -0.007677 0.029976 0.000000 0.000000 0.000000
# 4 0.000000 0.000000 0.000000 0.040545 0.000000 0.000000
# 5 0.000000 0.000000 0.000000 0.000000 0.082467 0.000000
# 6 0.000000 0.000000 0.000000 0.000000 0.000000 0.112492
#
#
# Mechanical properties :
#
#
# Convention : Reuss Voigt Hill
#
# Bulk Modulus (GPa) = 44.10912 53.15539 48.63225
# Shear Modulus (GPa) = 15.10410 19.30987 17.20698
#
# Velocity S-wave (km/s) = 2.81012 3.17737 2.99937
# Velocity P-wave (km/s) = 5.79572 6.42275 6.11727
#
# Compressibility (1/GPa) = 0.02267105
#
# Stress axis : x y z
#
# Youngs Moduli (GPa) = 80.88461 77.01750 33.36040
#
# Poissons Ratio (x) = 0.22922 0.18926
# Poissons Ratio (y) = 0.24073 0.25610
# Poissons Ratio (z) = 0.45886 0.59124
#
# Static dielectric constant tensor:
#      x y z
#    x 3.463930 0.000000 0.000000 
#    y 0.000000 3.647020 0.000000 
#    z 0.000000 0.000000 3.162600 
# 
# 
# High freq. dielectric constant tensor:
#      x y z
#    x 1.724750 0.000000 0.000000 
#    y 0.000000 1.755590 0.000000 
#    z 0.000000 0.000000 1.699850 
# 
# From -- ./inp_files/7237.got.cif
#   From: 2010.03.12/outbox.cif.g09.slc.cpg/sg47_4_cif.got.tgz:7237.got - 2010.04.14 03:12:58.
