data_PCOD8194031
_publ_section_title
;
Structure prediction by ZEFSAII (Michael W. Deem and Ramdas Pophale) SiO2 
 PCOD8194031
Probable space group: P M M M
;
_chemical_formula_sum "Si O2"
_cell_formula_units_Z 52
_cell_length_a 28.079991
_cell_length_b 8.107020
_cell_length_c 13.894312
_cell_angle_alpha 90.000000
_cell_angle_beta 90.000000
_cell_angle_gamma 90.000000
_cell_volume 3162.971331
_symmetry_space_group_name_H-M "P M M M"
_symmetry_group_IT_number 47
_symmetry_cell_setting 'orthorhombic'
loop_
_space_group_symop_operation_xyz
x,y,z
-x,-y,z
x,-y,-z
-x,y,-z
-x,-y,-z
x,y,-z
-x,y,z
x,-y,z
loop_
_atom_site_type_symbol
_atom_site_label
_atom_site_fract_x
_atom_site_fract_y
_atom_site_fract_z
Si Si1 0.889394 0.817382 0.114187
Si Si2 0.388473 0.307918 0.108231
Si Si3 0.355593 0.695876 0.392034
Si Si4 0.054192 0.500000 0.885223
Si Si5 0.789467 0.311679 0.108283
Si Si6 0.447883 0.694112 0.713845
Si Si7 0.299073 0.812690 0.215219
O O1 0.921375 0.667610 0.156615
O O2 0.834342 0.794331 0.144877
O O3 0.906231 0.000000 0.150783
O O4 0.893143 0.810075 0.000000
O O5 0.375241 0.500000 0.117444
O O6 0.433106 0.264183 0.176315
O O7 0.342329 0.208166 0.141065
O O8 0.402527 0.258391 0.000000
O O9 0.345832 0.759401 0.500000
O O10 0.355998 0.500000 0.386326
O O11 0.407343 0.764739 0.357809
O O12 0.314110 0.760925 0.322873
O O13 0.000000 0.500000 0.849244
O O14 0.057492 0.500000 0.000000
O O15 0.806472 0.500000 0.107430
O O16 0.745631 0.293809 0.181022
O O17 0.773989 0.257527 0.000000
O O18 0.500000 0.773949 0.693107
O O19 0.451633 0.500000 0.698954
O O20 0.282410 0.000000 0.215725
#
# Coordination Sequence:
#
# PCOD8194031 Si02
#       7
#     8   8   8   4   8   8   8
#     4   9  16  26  39  57  82 113 153 197 238 277
#     4   9  17  29  43  60  85 114 141 170 206 251
#     4   9  18  33  50  65  83 107 135 170 213 262
#     4   9  16  26  38  54  80 116 159 203 242 273
#     4  10  18  29  45  63  87 117 147 184 228 269
#     4   8  14  25  43  68  90 104 128 170 215 257
#     4  11  21  30  43  64  86 109 141 176 213 262
#
# _framework density 16.440237
#
# number of rings (size 3 to 8) (size 9 to 14) (size 15 to 20)
#    0.000    2.692    0.769    3.231    0.000    4.308 
#    0.000    4.615    0.000    7.385    0.000    8.615 
#    0.000    0.000    0.000    0.000    0.000    1.538 
#
# Total GULP energy -644512.418571 kJ/mol
# GULP energy per Si atom -12394.469588 kJ/mol
# Density = 1.640282 g / cm^3
# Si number density = 16.440237 Si / 1000 Ang^3
#
#
#
# Elastic Constant Matrix: (Units=GPa)
#
#
# Indices 1 2 3 4 5 6 
#
# 1 98.5624 35.4206 28.7701 0.0000 0.0000 0.0000
# 2 35.4206 70.5938 15.8324 0.0000 0.0000 0.0000
# 3 28.7701 15.8324 80.2732 0.0000 0.0000 0.0000
# 4 0.0000 0.0000 0.0000 10.2032 0.0000 0.0000
# 5 0.0000 0.0000 0.0000 0.0000 9.9441 0.0000
# 6 0.0000 0.0000 0.0000 0.0000 0.0000 11.3090
#
#
#
# Elastic Compliance Matrix: (Units=1/GPa)
#
#
# Indices 1 2 3 4 5 6 
#
# 1 0.013309 -0.005868 -0.003613 0.000000 0.000000 0.000000
# 2 -0.005868 0.017408 -0.001330 0.000000 0.000000 0.000000
# 3 -0.003613 -0.001330 0.014015 0.000000 0.000000 0.000000
# 4 0.000000 0.000000 0.000000 0.098008 0.000000 0.000000
# 5 0.000000 0.000000 0.000000 0.000000 0.100563 0.000000
# 6 0.000000 0.000000 0.000000 0.000000 0.000000 0.088425
#
#
# Mechanical properties :
#
#
# Convention : Reuss Voigt Hill
#
# Bulk Modulus (GPa) = 43.27094 45.49730 44.38412
# Shear Modulus (GPa) = 13.84838 17.58500 15.71669
#
# Velocity S-wave (km/s) = 2.90547 3.27407 3.09526
# Velocity P-wave (km/s) = 6.13457 6.48284 6.31111
#
# Compressibility (1/GPa) = 0.02311020
#
# Stress axis : x y z
#
# Youngs Moduli (GPa) = 75.13685 57.44480 71.35377
#
# Poissons Ratio (x) = 0.33706 0.25778
# Poissons Ratio (y) = 0.44087 0.09493
# Poissons Ratio (z) = 0.27145 0.07643
#
# Static dielectric constant tensor:
#      x y z
#    x 3.055780 0.000000 0.000000 
#    y 0.000000 3.098710 0.000000 
#    z 0.000000 0.000000 2.896120 
# 
# 
# High freq. dielectric constant tensor:
#      x y z
#    x 1.619920 0.000000 0.000000 
#    y 0.000000 1.630800 0.000000 
#    z 0.000000 0.000000 1.584980 
# 
# From -- ./inp_files/25709.got.cif
#   From: 2010.03.12/outbox.cif.g09.slc.cpg/sg47_13_cif.got.tgz:25709.got - 2010.04.14 03:12:58.
