data_PCOD8194396
_publ_section_title
;
Structure prediction by ZEFSAII (Michael W. Deem and Ramdas Pophale) SiO2 
 PCOD8194396
Probable space group: P M M M
;
_chemical_formula_sum "Si O2"
_cell_formula_units_Z 52
_cell_length_a 28.087570
_cell_length_b 9.369390
_cell_length_c 11.911572
_cell_angle_alpha 90.000000
_cell_angle_beta 90.000000
_cell_angle_gamma 90.000000
_cell_volume 3134.689757
_symmetry_space_group_name_H-M "P M M M"
_symmetry_group_IT_number 47
_symmetry_cell_setting 'orthorhombic'
loop_
_space_group_symop_operation_xyz
x,y,z
-x,-y,z
x,-y,-z
-x,y,-z
-x,-y,-z
x,y,-z
-x,y,z
x,-y,z
loop_
_atom_site_type_symbol
_atom_site_label
_atom_site_fract_x
_atom_site_fract_y
_atom_site_fract_z
Si Si1 0.410495 0.662198 0.370588
Si Si2 0.691360 0.338554 0.297252
Si Si3 0.160977 0.166056 0.500000
Si Si4 0.270326 0.165766 0.500000
Si Si5 0.772649 0.334603 0.870543
Si Si6 0.500000 0.839295 0.633460
Si Si7 0.143622 0.171397 0.744237
Si Si8 0.947888 0.169414 0.874214
O O1 0.396424 0.701217 0.500000
O O2 0.428781 0.500000 0.366069
O O3 0.365544 0.684046 0.286950
O O4 0.452549 0.761204 0.322870
O O5 0.701429 0.500000 0.339091
O O6 0.708226 0.227917 0.388286
O O7 0.719877 0.309228 0.181647
O O8 0.215644 0.204960 0.500000
O O9 0.139382 0.227635 0.615735
O O10 0.151064 0.000000 0.500000
O O11 0.280994 0.000000 0.500000
O O12 0.787495 0.500000 0.859642
O O13 0.811207 0.239448 0.805907
O O14 0.770557 0.286358 0.000000
O O15 0.500000 0.833756 0.500000
O O16 0.500000 0.000000 0.679817
O O17 0.094907 0.229192 0.799100
O O18 0.149497 0.000000 0.751128
O O19 0.000000 0.219027 0.828557
O O20 0.945799 0.000000 0.875041
O O21 0.940668 0.228128 0.000000
#
# Coordination Sequence:
#
# PCOD8194396 Si02
#       8
#     8   8   4   4   8   4   8   8
#     4   9  16  27  43  62  86 119 155 186 218 267
#     4  10  19  32  48  67  93 126 160 188 226 281
#     4   9  18  29  42  67  97 120 151 191 228 270
#     4  11  19  29  45  67  96 123 152 194 232 266
#     4  10  21  34  48  69  96 122 152 194 235 272
#     4   9  17  27  39  61  92 121 148 184 231 272
#     4  10  18  31  49  68  93 125 155 189 232 280
#     4   8  14  25  43  67  90 115 154 199 236 272
#
# _framework density 16.588563000000001
#
# number of rings (size 3 to 8) (size 9 to 14) (size 15 to 20)
#    0.000    2.538    2.308    1.385    0.000    2.462 
#    0.000    0.769    0.000    2.769    0.000    2.692 
#    0.000    5.538    0.000    0.000    0.000    0.000 
#
# Total GULP energy -644429.686721 kJ/mol
# GULP energy per Si atom -12392.878591 kJ/mol
# Density = 1.655081 g / cm^3
# Si number density = 16.588563 Si / 1000 Ang^3
#
#
#
# Elastic Constant Matrix: (Units=GPa)
#
#
# Indices 1 2 3 4 5 6 
#
# 1 144.0924 43.5991 60.8505 0.0000 0.0000 0.0000
# 2 43.5991 57.7067 37.8797 0.0000 0.0000 0.0000
# 3 60.8505 37.8797 112.5790 0.0000 0.0000 0.0000
# 4 0.0000 0.0000 0.0000 19.8808 0.0000 0.0000
# 5 0.0000 0.0000 0.0000 0.0000 23.6102 0.0000
# 6 0.0000 0.0000 0.0000 0.0000 0.0000 20.4349
#
#
#
# Elastic Compliance Matrix: (Units=1/GPa)
#
#
# Indices 1 2 3 4 5 6 
#
# 1 0.010070 -0.005179 -0.003700 0.000000 0.000000 0.000000
# 2 -0.005179 0.024905 -0.005581 0.000000 0.000000 0.000000
# 3 -0.003700 -0.005581 0.012760 0.000000 0.000000 0.000000
# 4 0.000000 0.000000 0.000000 0.050300 0.000000 0.000000
# 5 0.000000 0.000000 0.000000 0.000000 0.042355 0.000000
# 6 0.000000 0.000000 0.000000 0.000000 0.000000 0.048936
#
#
# Mechanical properties :
#
#
# Convention : Reuss Voigt Hill
#
# Bulk Modulus (GPa) = 53.14749 66.55964 59.85357
# Shear Modulus (GPa) = 22.27007 24.25511 23.26259
#
# Velocity S-wave (km/s) = 3.66798 3.82797 3.74883
# Velocity P-wave (km/s) = 7.07439 7.72973 7.40931
#
# Compressibility (1/GPa) = 0.01881556
#
# Stress axis : x y z
#
# Youngs Moduli (GPa) = 99.30837 40.15248 78.36774
#
# Poissons Ratio (x) = 0.20795 0.28998
# Poissons Ratio (y) = 0.51432 0.43733
# Poissons Ratio (z) = 0.36746 0.22407
#
# Static dielectric constant tensor:
#      x y z
#    x 3.319440 0.000000 0.000000 
#    y 0.000000 2.963130 0.000000 
#    z 0.000000 0.000000 3.131680 
# 
# 
# High freq. dielectric constant tensor:
#      x y z
#    x 1.645650 0.000000 0.000000 
#    y 0.000000 1.618140 0.000000 
#    z 0.000000 0.000000 1.612120 
# 
# From -- ./inp_files/15541.got.cif
#   From: 2010.03.12/outbox.cif.g09.slc.cpg/sg47_8_cif.got.tgz:15541.got - 2010.04.14 03:12:58.
