data_PCOD8194418
_publ_section_title
;
Structure prediction by ZEFSAII (Michael W. Deem and Ramdas Pophale) SiO2 
 PCOD8194418
Probable space group: P M M M
;
_chemical_formula_sum "Si O2"
_cell_formula_units_Z 64
_cell_length_a 8.896654
_cell_length_b 24.856646
_cell_length_c 15.002447
_cell_angle_alpha 90.000000
_cell_angle_beta 90.000000
_cell_angle_gamma 90.000000
_cell_volume 3317.655818
_symmetry_space_group_name_H-M "P M M M"
_symmetry_group_IT_number 47
_symmetry_cell_setting 'orthorhombic'
loop_
_space_group_symop_operation_xyz
x,y,z
-x,-y,z
x,-y,-z
-x,y,-z
-x,-y,-z
x,y,-z
-x,y,z
x,-y,z
loop_
_atom_site_type_symbol
_atom_site_label
_atom_site_fract_x
_atom_site_fract_y
_atom_site_fract_z
Si Si1 0.173239 0.562795 0.100851
Si Si2 0.671581 0.259947 0.902173
Si Si3 0.322532 0.354405 0.772167
Si Si4 0.677131 0.059873 0.215305
Si Si5 0.175131 0.686883 0.600138
Si Si6 0.823178 0.835185 0.828728
Si Si7 0.328540 0.911572 0.593917
Si Si8 0.672086 0.794695 0.349134
O O1 0.196233 0.500000 0.118506
O O2 0.271031 0.593175 0.174413
O O3 0.000000 0.579159 0.112866
O O4 0.225774 0.577159 0.000000
O O5 0.500000 0.243582 0.882560
O O6 0.729196 0.301875 0.827876
O O7 0.772117 0.205721 0.905708
O O8 0.686549 0.286978 0.000000
O O9 0.500000 0.356796 0.761109
O O10 0.249093 0.352293 0.673864
O O11 0.500000 0.072438 0.216502
O O12 0.756797 0.104762 0.154434
O O13 0.745722 0.064452 0.316269
O O14 0.710560 0.000000 0.178038
O O15 0.200137 0.663272 0.500000
O O16 0.248997 0.745627 0.601564
O O17 0.000000 0.692301 0.622077
O O18 0.756898 0.807798 0.741377
O O19 0.000000 0.840461 0.823770
O O20 0.254421 0.932244 0.500000
O O21 0.500000 0.930894 0.595152
O O22 0.319143 0.847044 0.589437
O O23 0.500000 0.778718 0.327556
#
# Coordination Sequence:
#
# PCOD8194418 Si02
#       8
#     8   8   8   8   8   8   8   8
#     4   9  19  37  61  89 123 163 201 237 284 342
#     4  10  21  37  57  83 115 148 180 220 276 341
#     4  11  22  36  58  87 120 157 195 238 284 332
#     4   9  18  32  50  70  94 130 175 222 275 334
#     4  11  23  36  52  78 113 153 196 240 287 338
#     4  11  21  33  52  76 105 140 177 220 274 332
#     4   8  14  24  41  67  95 122 160 213 266 317
#     4  10  18  31  50  72 101 140 185 226 271 326
#
# _framework density 19.29073
#
# number of rings (size 3 to 8) (size 9 to 14) (size 15 to 20)
#    0.000    2.125    1.250    4.125    0.000    3.750 
#    0.000    1.875    0.000    4.125    0.000    8.750 
#    0.000    0.000    0.000    0.000    0.000    0.000 
#
# Total GULP energy -793208.664981 kJ/mol
# GULP energy per Si atom -12393.885390 kJ/mol
# Density = 1.924682 g / cm^3
# Si number density = 19.290730 Si / 1000 Ang^3
#
#
#
# Elastic Constant Matrix: (Units=GPa)
#
#
# Indices 1 2 3 4 5 6 
#
# 1 95.7893 43.4644 37.5182 0.0000 0.0000 0.0000
# 2 43.4644 85.7442 36.6878 0.0000 0.0000 0.0000
# 3 37.5182 36.6878 89.5950 0.0000 0.0000 0.0000
# 4 0.0000 0.0000 0.0000 13.7812 0.0000 0.0000
# 5 0.0000 0.0000 0.0000 0.0000 21.7592 0.0000
# 6 0.0000 0.0000 0.0000 0.0000 0.0000 26.3956
#
#
#
# Elastic Compliance Matrix: (Units=1/GPa)
#
#
# Indices 1 2 3 4 5 6 
#
# 1 0.014511 -0.005766 -0.003716 0.000000 0.000000 0.000000
# 2 -0.005766 0.016431 -0.004314 0.000000 0.000000 0.000000
# 3 -0.003716 -0.004314 0.014484 0.000000 0.000000 0.000000
# 4 0.000000 0.000000 0.000000 0.072563 0.000000 0.000000
# 5 0.000000 0.000000 0.000000 0.000000 0.045958 0.000000
# 6 0.000000 0.000000 0.000000 0.000000 0.000000 0.037885
#
#
# Mechanical properties :
#
#
# Convention : Reuss Voigt Hill
#
# Bulk Modulus (GPa) = 56.06835 56.27437 56.17136
# Shear Modulus (GPa) = 21.24339 22.61773 21.93056
#
# Velocity S-wave (km/s) = 3.32207 3.42784 3.37537
# Velocity P-wave (km/s) = 6.62139 6.70089 6.66126
#
# Compressibility (1/GPa) = 0.01783537
#
# Stress axis : x y z
#
# Youngs Moduli (GPa) = 68.91231 60.85979 69.04344
#
# Poissons Ratio (x) = 0.35092 0.25653
# Poissons Ratio (y) = 0.39735 0.29784
# Poissons Ratio (z) = 0.25604 0.26254
#
# Static dielectric constant tensor:
#      x y z
#    x 3.369110 0.000000 0.000000 
#    y 0.000000 3.470540 0.000000 
#    z 0.000000 0.000000 3.589810 
# 
# 
# High freq. dielectric constant tensor:
#      x y z
#    x 1.733290 0.000000 0.000000 
#    y 0.000000 1.733800 0.000000 
#    z 0.000000 0.000000 1.745110 
# 
# From -- ./inp_files/21952.got.cif
#   From: 2010.03.12/outbox.cif.g09.slc.cpg/sg47_11_cif.got.tgz:21952.got - 2010.04.14 03:12:58.
