data_PCOD8194802
_publ_section_title
;
Structure prediction by ZEFSAII (Michael W. Deem and Ramdas Pophale) SiO2 
 PCOD8194802
Probable space group: P M M M
;
_chemical_formula_sum "Si O2"
_cell_formula_units_Z 52
_cell_length_a 9.532696
_cell_length_b 17.762449
_cell_length_c 17.890900
_cell_angle_alpha 90.000000
_cell_angle_beta 90.000000
_cell_angle_gamma 90.000000
_cell_volume 3029.359226
_symmetry_space_group_name_H-M "P M M M"
_symmetry_group_IT_number 47
_symmetry_cell_setting 'orthorhombic'
loop_
_space_group_symop_operation_xyz
x,y,z
-x,-y,z
x,-y,-z
-x,y,-z
-x,-y,-z
x,y,-z
-x,y,z
x,-y,z
loop_
_atom_site_type_symbol
_atom_site_label
_atom_site_fract_x
_atom_site_fract_y
_atom_site_fract_z
Si Si1 0.658112 0.414252 0.913117
Si Si2 0.159078 0.713465 0.138445
Si Si3 0.339384 0.156318 0.082310
Si Si4 0.336398 0.914736 0.236467
Si Si5 0.167829 0.662735 0.415735
Si Si6 0.846226 0.500000 0.588704
Si Si7 0.840506 0.215182 0.700878
O O1 0.500000 0.386189 0.896949
O O2 0.674620 0.500000 0.887637
O O3 0.769124 0.367690 0.865089
O O4 0.693534 0.405140 0.000000
O O5 0.242753 0.770281 0.085213
O O6 0.166526 0.738707 0.223362
O O7 0.000000 0.708725 0.109608
O O8 0.500000 0.182437 0.092218
O O9 0.298336 0.099181 0.148940
O O10 0.318006 0.118456 0.000000
O O11 0.500000 0.900657 0.250671
O O12 0.251534 0.860359 0.292141
O O13 0.293336 0.000000 0.255417
O O14 0.217816 0.680892 0.500000
O O15 0.228584 0.579949 0.389255
O O16 0.222981 0.730265 0.363171
O O17 0.000000 0.658224 0.411647
O O18 0.862690 0.500000 0.500000
O O19 0.000000 0.500000 0.626148
O O20 0.000000 0.191200 0.682120
#
# Coordination Sequence:
#
# PCOD8194802 Si02
#       7
#     8   8   8   8   8   4   8
#     4   9  18  32  47  60  77 109 155 199 231 261
#     4  10  19  29  41  62  92 119 144 179 226 276
#     4   9  17  29  46  66  86 112 147 187 228 268
#     4   9  18  32  49  68  90 119 153 188 228 274
#     4   8  13  24  44  69  95 122 153 187 221 261
#     4   7  10  18  36  64  93 117 142 175 216 256
#     4   9  18  31  46  69  96 121 149 182 225 273
#
# _framework density 17.165346
#
# number of rings (size 3 to 8) (size 9 to 14) (size 15 to 20)
#    0.000    3.154    0.000    2.308    0.000    4.000 
#    1.385    2.308    0.000    0.923    0.000    7.538 
#    0.000    1.846    0.000    0.000    0.000    0.000 
#
# Total GULP energy -644398.265218 kJ/mol
# GULP energy per Si atom -12392.274331 kJ/mol
# Density = 1.712628 g / cm^3
# Si number density = 17.165346 Si / 1000 Ang^3
#
#
#
# Elastic Constant Matrix: (Units=GPa)
#
#
# Indices 1 2 3 4 5 6 
#
# 1 63.7357 52.3542 20.8435 0.0000 0.0000 0.0000
# 2 52.3542 138.3563 51.8442 0.0000 0.0000 0.0000
# 3 20.8435 51.8442 61.2782 0.0000 0.0000 0.0000
# 4 0.0000 0.0000 0.0000 21.6747 0.0000 0.0000
# 5 0.0000 0.0000 0.0000 0.0000 13.6672 0.0000
# 6 0.0000 0.0000 0.0000 0.0000 0.0000 26.9734
#
#
#
# Elastic Compliance Matrix: (Units=1/GPa)
#
#
# Indices 1 2 3 4 5 6 
#
# 1 0.022785 -0.008372 -0.000667 0.000000 0.000000 0.000000
# 2 -0.008372 0.013659 -0.008708 0.000000 0.000000 0.000000
# 3 -0.000667 -0.008708 0.023914 0.000000 0.000000 0.000000
# 4 0.000000 0.000000 0.000000 0.046137 0.000000 0.000000
# 5 0.000000 0.000000 0.000000 0.000000 0.073168 0.000000
# 6 0.000000 0.000000 0.000000 0.000000 0.000000 0.037073
#
#
# Mechanical properties :
#
#
# Convention : Reuss Voigt Hill
#
# Bulk Modulus (GPa) = 40.22115 57.05044 48.63580
# Shear Modulus (GPa) = 19.19256 21.68495 20.43875
#
# Velocity S-wave (km/s) = 3.34743 3.55815 3.45439
# Velocity P-wave (km/s) = 6.19861 7.08439 6.65625
#
# Compressibility (1/GPa) = 0.02486254
#
# Stress axis : x y z
#
# Youngs Moduli (GPa) = 43.88888 73.21308 41.81717
#
# Poissons Ratio (x) = 0.61293 0.02790
# Poissons Ratio (y) = 0.36743 0.36416
# Poissons Ratio (z) = 0.02928 0.63756
#
# Static dielectric constant tensor:
#      x y z
#    x 3.050840 0.000000 0.000000 
#    y 0.000000 3.300520 0.000000 
#    z 0.000000 0.000000 3.056560 
# 
# 
# High freq. dielectric constant tensor:
#      x y z
#    x 1.635420 0.000000 0.000000 
#    y 0.000000 1.662300 0.000000 
#    z 0.000000 0.000000 1.638080 
# 
# From -- ./inp_files/9583.got.cif
#   From: 2010.03.12/outbox.cif.g09.slc.cpg/sg47_5_cif.got.tgz:9583.got - 2010.04.14 03:12:58.
