data_PCOD8194084
_publ_section_title
;
Structure prediction by ZEFSAII (Michael W. Deem and Ramdas Pophale) SiO2 
 PCOD8194084
Probable space group: P M M M
;
_chemical_formula_sum "Si O2"
_cell_formula_units_Z 64
_cell_length_a 8.711974
_cell_length_b 20.056364
_cell_length_c 20.464305
_cell_angle_alpha 90.000000
_cell_angle_beta 90.000000
_cell_angle_gamma 90.000000
_cell_volume 3575.738689
_symmetry_space_group_name_H-M "P M M M"
_symmetry_group_IT_number 47
_symmetry_cell_setting 'orthorhombic'
loop_
_space_group_symop_operation_xyz
x,y,z
-x,-y,z
x,-y,-z
-x,y,-z
-x,-y,-z
x,y,-z
-x,y,z
x,-y,z
loop_
_atom_site_type_symbol
_atom_site_label
_atom_site_fract_x
_atom_site_fract_y
_atom_site_fract_z
Si Si1 0.318172 0.712935 0.626561
Si Si2 0.181676 0.074513 0.693695
Si Si3 0.822163 0.284231 0.769139
Si Si4 0.678468 0.429971 0.618486
Si Si5 0.321764 0.155718 0.187969
Si Si6 0.175085 0.428641 0.755197
Si Si7 0.177104 0.923347 0.924792
Si Si8 0.177583 0.160427 0.572831
O O1 0.500000 0.712141 0.639994
O O2 0.230683 0.723991 0.694479
O O3 0.263702 0.642235 0.592557
O O4 0.274034 0.771588 0.577596
O O5 0.234871 0.117870 0.754478
O O6 0.238642 0.107143 0.625679
O O7 0.000000 0.070981 0.695187
O O8 0.251322 0.000000 0.698281
O O9 0.728553 0.233082 0.814337
O O10 0.792330 0.360389 0.795779
O O11 0.000000 0.264887 0.773417
O O12 0.500000 0.434440 0.604572
O O13 0.752084 0.500000 0.589405
O O14 0.707365 0.429242 0.695732
O O15 0.500000 0.150393 0.202235
O O16 0.284184 0.123427 0.118394
O O17 0.195383 0.500000 0.794160
O O18 0.000000 0.423878 0.728486
O O19 0.000000 0.907214 0.909991
O O20 0.212117 0.000000 0.907427
O O21 0.216314 0.908909 0.000000
O O22 0.202109 0.130929 0.500000
O O23 0.000000 0.177236 0.585757
#
# Coordination Sequence:
#
# PCOD8194084 Si02
#       8
#     8   8   8   8   8   8   8   8
#     4  10  18  29  47  70  94 122 157 199 249 299
#     4  10  21  37  56  75  96 125 161 203 253 308
#     4  10  18  29  47  69  98 134 168 205 247 293
#     4   8  14  24  39  61  89 119 151 188 233 289
#     4  12  23  33  50  78 110 140 170 206 246 290
#     4   8  14  24  39  62  91 123 160 201 245 289
#     4   9  19  37  59  80 104 138 177 211 246 294
#     4  10  21  36  53  71  92 123 162 204 253 309
#
# _framework density 17.898399000000001
#
# number of rings (size 3 to 8) (size 9 to 14) (size 15 to 20)
#    0.000    2.375    1.250    2.625    0.000    3.750 
#    0.000    1.875    0.000    0.375    0.000    4.375 
#    0.000    0.500    0.000    5.750    0.000    1.625 
#
# Total GULP energy -792837.995571 kJ/mol
# GULP energy per Si atom -12388.093681 kJ/mol
# Density = 1.785766 g / cm^3
# Si number density = 17.898399 Si / 1000 Ang^3
#
#
#
# Elastic Constant Matrix: (Units=GPa)
#
#
# Indices 1 2 3 4 5 6 
#
# 1 16.0960 17.4242 7.9233 0.0000 0.0000 0.0000
# 2 17.4242 143.8824 38.3558 0.0000 0.0000 0.0000
# 3 7.9233 38.3558 59.0887 0.0000 0.0000 0.0000
# 4 0.0000 0.0000 0.0000 12.7216 0.0000 0.0000
# 5 0.0000 0.0000 0.0000 0.0000 9.1469 0.0000
# 6 0.0000 0.0000 0.0000 0.0000 0.0000 20.1805
#
#
#
# Elastic Compliance Matrix: (Units=1/GPa)
#
#
# Indices 1 2 3 4 5 6 
#
# 1 0.072643 -0.007498 -0.004874 0.000000 0.000000 0.000000
# 2 -0.007498 0.009178 -0.004952 0.000000 0.000000 0.000000
# 3 -0.004874 -0.004952 0.020792 0.000000 0.000000 0.000000
# 4 0.000000 0.000000 0.000000 0.078607 0.000000 0.000000
# 5 0.000000 0.000000 0.000000 0.000000 0.109326 0.000000
# 6 0.000000 0.000000 0.000000 0.000000 0.000000 0.049553
#
#
# Mechanical properties :
#
#
# Convention : Reuss Voigt Hill
#
# Bulk Modulus (GPa) = 14.71344 38.49707 26.60525
# Shear Modulus (GPa) = 12.58172 18.76738 15.67455
#
# Velocity S-wave (km/s) = 2.65420 3.24165 2.96252
# Velocity P-wave (km/s) = 4.19898 5.96376 5.15741
#
# Compressibility (1/GPa) = 0.06796506
#
# Stress axis : x y z
#
# Youngs Moduli (GPa) = 13.76598 108.95232 48.09540
#
# Poissons Ratio (x) = 0.81690 0.23441
# Poissons Ratio (y) = 0.10321 0.23819
# Poissons Ratio (z) = 0.06709 0.53958
#
# Static dielectric constant tensor:
#      x y z
#    x 3.226920 0.000000 0.000000 
#    y 0.000000 4.030260 0.000000 
#    z 0.000000 0.000000 2.861380 
# 
# 
# High freq. dielectric constant tensor:
#      x y z
#    x 1.686110 0.000000 0.000000 
#    y 0.000000 1.718680 0.000000 
#    z 0.000000 0.000000 1.632750 
# 
# From -- ./inp_files/28779.got.cif
#   From: 2010.03.12/outbox.cif.g09.slc.cpg/sg47_15_cif.got.tgz:28779.got - 2010.04.14 03:12:58.
