data_PCOD8194749
_publ_section_title
;
Structure prediction by ZEFSAII (Michael W. Deem and Ramdas Pophale) SiO2 
 PCOD8194749
Probable space group: P M M M
;
_chemical_formula_sum "Si O2"
_cell_formula_units_Z 64
_cell_length_a 23.719323
_cell_length_b 9.604113
_cell_length_c 15.907208
_cell_angle_alpha 90.000000
_cell_angle_beta 90.000000
_cell_angle_gamma 90.000000
_cell_volume 3623.710633
_symmetry_space_group_name_H-M "P M M M"
_symmetry_group_IT_number 47
_symmetry_cell_setting 'orthorhombic'
loop_
_space_group_symop_operation_xyz
x,y,z
-x,-y,z
x,-y,-z
-x,y,-z
-x,-y,-z
x,y,-z
-x,y,z
x,-y,z
loop_
_atom_site_type_symbol
_atom_site_label
_atom_site_fract_x
_atom_site_fract_y
_atom_site_fract_z
Si Si1 0.331242 0.338957 0.904535
Si Si2 0.152261 0.844736 0.402731
Si Si3 0.237547 0.344608 0.322870
Si Si4 0.850019 0.651675 0.828280
Si Si5 0.064706 0.660665 0.307000
Si Si6 0.635772 0.660578 0.725548
Si Si7 0.226699 0.150099 0.095694
Si Si8 0.433783 0.160615 0.405279
O O1 0.312420 0.500000 0.902679
O O2 0.374952 0.312048 0.826883
O O3 0.277316 0.250167 0.877399
O O4 0.354145 0.302191 0.000000
O O5 0.141914 0.859435 0.500000
O O6 0.211761 0.766146 0.388123
O O7 0.099058 0.759365 0.368633
O O8 0.154513 0.000000 0.362024
O O9 0.237549 0.500000 0.362451
O O10 0.197596 0.341166 0.242681
O O11 0.300321 0.299588 0.297770
O O12 0.848994 0.500000 0.872781
O O13 0.911237 0.678216 0.787635
O O14 0.833775 0.774143 0.892225
O O15 0.072065 0.500000 0.336082
O O16 0.000000 0.707172 0.307158
O O17 0.623074 0.500000 0.705334
O O18 0.595098 0.751376 0.668044
O O19 0.228850 0.000000 0.143995
O O20 0.233825 0.115259 0.000000
O O21 0.414884 0.206703 0.500000
O O22 0.500000 0.183396 0.396001
O O23 0.417726 0.000000 0.391520
#
# Coordination Sequence:
#
# PCOD8194749 Si02
#       8
#     8   8   8   8   8   8   8   8
#     4   9  17  31  50  73 107 145 174 204 248 303
#     4  10  21  34  47  67  96 127 158 196 243 297
#     4   9  18  32  48  70  99 128 161 199 242 295
#     4   9  16  30  49  67  92 123 155 193 239 290
#     4   9  19  35  53  70  87 114 156 202 247 297
#     4  10  19  32  53  82 109 135 174 218 261 305
#     4  10  19  28  42  69 101 130 162 198 236 285
#     4   9  20  39  58  76 102 138 180 222 264 311
#
# _framework density 17.661453999999999
#
# number of rings (size 3 to 8) (size 9 to 14) (size 15 to 20)
#    0.000    2.625    1.250    1.875    0.000    6.250 
#    0.000    4.375    0.000    0.750    0.000    5.250 
#    0.000    0.000    0.000    0.000    0.000    0.000 
#
# Total GULP energy -792853.004699 kJ/mol
# GULP energy per Si atom -12388.328198 kJ/mol
# Density = 1.762126 g / cm^3
# Si number density = 17.661454 Si / 1000 Ang^3
#
#
#
# Elastic Constant Matrix: (Units=GPa)
#
#
# Indices 1 2 3 4 5 6 
#
# 1 64.4600 37.9976 41.4219 0.0000 0.0000 0.0000
# 2 37.9976 99.4648 50.6574 0.0000 0.0000 0.0000
# 3 41.4219 50.6574 86.1939 0.0000 0.0000 0.0000
# 4 0.0000 0.0000 0.0000 22.4025 0.0000 0.0000
# 5 0.0000 0.0000 0.0000 0.0000 23.4272 0.0000
# 6 0.0000 0.0000 0.0000 0.0000 0.0000 239.8087
#
#
#
# Elastic Compliance Matrix: (Units=1/GPa)
#
#
# Indices 1 2 3 4 5 6 
#
# 1 0.023878 -0.004678 -0.008726 0.000000 0.000000 0.000000
# 2 -0.004678 0.015265 -0.006723 0.000000 0.000000 0.000000
# 3 -0.008726 -0.006723 0.019747 0.000000 0.000000 0.000000
# 4 0.000000 0.000000 0.000000 0.044638 0.000000 0.000000
# 5 0.000000 0.000000 0.000000 0.000000 0.042685 0.000000
# 6 0.000000 0.000000 0.000000 0.000000 0.000000 0.004170
#
#
# Mechanical properties :
#
#
# Convention : Reuss Voigt Hill
#
# Bulk Modulus (GPa) = 53.66101 56.69695 55.17898
# Shear Modulus (GPa) = 25.40012 65.13045 45.26528
#
# Velocity S-wave (km/s) = 3.79643 6.07925 5.06804
# Velocity P-wave (km/s) = 7.04743 9.02486 8.09674
#
# Compressibility (1/GPa) = 0.01863551
#
# Stress axis : x y z
#
# Youngs Moduli (GPa) = 41.87922 65.50869 50.64177
#
# Poissons Ratio (x) = 0.30645 0.44189
# Poissons Ratio (y) = 0.19591 0.34049
# Poissons Ratio (z) = 0.36543 0.44045
#
# Static dielectric constant tensor:
#      x y z
#    x 3.121290 0.000000 0.000000 
#    y 0.000000 4.657750 0.000000 
#    z 0.000000 0.000000 3.325820 
# 
# 
# High freq. dielectric constant tensor:
#      x y z
#    x 1.651210 0.000000 0.000000 
#    y 0.000000 1.692190 0.000000 
#    z 0.000000 0.000000 1.673900 
# 
# From -- ./inp_files/28909.got.cif
#   From: 2010.03.12/outbox.cif.g09.slc.cpg/sg47_15_cif.got.tgz:28909.got - 2010.04.14 03:12:58.
