data_PCOD8194759
_publ_section_title
;
Structure prediction by ZEFSAII (Michael W. Deem and Ramdas Pophale) SiO2 
 PCOD8194759
Probable space group: P M M M
;
_chemical_formula_sum "Si O2"
_cell_formula_units_Z 52
_cell_length_a 16.803873
_cell_length_b 27.662950
_cell_length_c 8.162522
_cell_angle_alpha 90.000000
_cell_angle_beta 90.000000
_cell_angle_gamma 90.000000
_cell_volume 3794.305079
_symmetry_space_group_name_H-M "P M M M"
_symmetry_group_IT_number 47
_symmetry_cell_setting 'orthorhombic'
loop_
_space_group_symop_operation_xyz
x,y,z
-x,-y,z
x,-y,-z
-x,y,-z
-x,-y,-z
x,y,-z
-x,y,z
x,-y,z
loop_
_atom_site_type_symbol
_atom_site_label
_atom_site_fract_x
_atom_site_fract_y
_atom_site_fract_z
Si Si1 0.500000 0.945974 0.194643
Si Si2 0.657425 0.106815 0.810526
Si Si3 0.409868 0.599437 0.691354
Si Si4 0.592119 0.698562 0.812184
Si Si5 0.911212 0.942812 0.000000
Si Si6 0.190671 0.943660 0.686252
Si Si7 0.590268 0.500000 0.192165
Si Si8 0.408691 0.798779 0.688479
O O1 0.578000 0.918594 0.258697
O O2 0.500000 0.000000 0.266296
O O3 0.500000 0.946290 0.000000
O O4 0.729574 0.087472 0.701937
O O5 0.646204 0.164316 0.790044
O O6 0.673677 0.093995 0.000000
O O7 0.408031 0.605435 0.500000
O O8 0.500000 0.596780 0.761094
O O9 0.366549 0.647228 0.765546
O O10 0.366651 0.549113 0.743325
O O11 0.500000 0.693015 0.764358
O O12 0.626370 0.744605 0.713429
O O13 0.606378 0.710156 0.000000
O O14 0.869042 0.925682 0.169667
O O15 0.000000 0.920585 0.000000
O O16 0.915549 0.000000 0.000000
O O17 0.156394 0.935673 0.500000
O O18 0.211016 0.000000 0.713357
O O19 0.500000 0.500000 0.261676
O O20 0.593225 0.500000 0.000000
O O21 0.404216 0.813200 0.500000
O O22 0.500000 0.801120 0.753691
#
# Coordination Sequence:
#
# PCOD8194759 Si02
#       8
#     4   8   8   8   4   8   4   8
#     4   9  18  28  41  59  77 104 139 168 196 230
#     4  11  19  30  45  59  81 108 137 169 200 233
#     4   9  15  22  31  43  58  76  98 129 174 222
#     4   9  16  25  36  47  60  80 111 147 185 226
#     4   9  18  34  54  73  91 109 129 154 188 235
#     4  10  20  33  49  69  91 112 133 160 195 235
#     4   9  15  21  29  41  57  75  97 125 163 217
#     4  10  19  29  39  52  72  96 128 166 199 231
#
# _framework density 13.704749
#
# number of rings (size 3 to 8) (size 9 to 14) (size 15 to 20)
#    0.000    2.385    1.538    2.538    0.000    6.154 
#    0.000    1.538    0.000    1.846    0.000    0.000 
#    0.000    0.000    0.000    0.000    0.000    0.000 
#
# Total GULP energy -644479.493600 kJ/mol
# GULP energy per Si atom -12393.836415 kJ/mol
# Density = 1.367356 g / cm^3
# Si number density = 13.704749 Si / 1000 Ang^3
#
#
#
# Elastic Constant Matrix: (Units=GPa)
#
#
# Indices 1 2 3 4 5 6 
#
# 1 47.6089 20.3253 21.9927 0.0000 0.0000 0.0000
# 2 20.3253 97.4080 22.1220 0.0000 0.0000 0.0000
# 3 21.9927 22.1220 63.6480 0.0000 0.0000 0.0000
# 4 0.0000 0.0000 0.0000 22.7051 0.0000 0.0000
# 5 0.0000 0.0000 0.0000 0.0000 9.6654 0.0000
# 6 0.0000 0.0000 0.0000 0.0000 0.0000 3.2775
#
#
#
# Elastic Compliance Matrix: (Units=1/GPa)
#
#
# Indices 1 2 3 4 5 6 
#
# 1 0.026166 -0.003698 -0.007756 0.000000 0.000000 0.000000
# 2 -0.003698 0.011669 -0.002778 0.000000 0.000000 0.000000
# 3 -0.007756 -0.002778 0.019357 0.000000 0.000000 0.000000
# 4 0.000000 0.000000 0.000000 0.044043 0.000000 0.000000
# 5 0.000000 0.000000 0.000000 0.000000 0.103462 0.000000
# 6 0.000000 0.000000 0.000000 0.000000 0.000000 0.305109
#
#
# Mechanical properties :
#
#
# Convention : Reuss Voigt Hill
#
# Bulk Modulus (GPa) = 34.80978 37.50497 36.15738
# Shear Modulus (GPa) = 9.12666 16.74461 12.93564
#
# Velocity S-wave (km/s) = 2.58340 3.49923 3.07560
# Velocity P-wave (km/s) = 5.86119 6.61453 6.24922
#
# Compressibility (1/GPa) = 0.02872756
#
# Stress axis : x y z
#
# Youngs Moduli (GPa) = 38.21717 85.69970 51.66148
#
# Poissons Ratio (x) = 0.31696 0.40068
# Poissons Ratio (y) = 0.14134 0.14350
# Poissons Ratio (z) = 0.29641 0.23805
#
# Static dielectric constant tensor:
#      x y z
#    x 2.244070 0.000000 0.000000 
#    y 0.000000 2.951870 0.000000 
#    z 0.000000 0.000000 2.735980 
# 
# 
# High freq. dielectric constant tensor:
#      x y z
#    x 1.434740 0.000000 0.000000 
#    y 0.000000 1.528410 0.000000 
#    z 0.000000 0.000000 1.537590 
# 
# From -- ./inp_files/8082.got.cif
#   From: 2010.03.12/outbox.cif.g09.slc.cpg/sg47_5_cif.got.tgz:8082.got - 2010.04.14 03:12:58.
