data_PCOD8194357
_publ_section_title
;
Structure prediction by ZEFSAII (Michael W. Deem and Ramdas Pophale) SiO2 
 PCOD8194357
Probable space group: P M M M
;
_chemical_formula_sum "Si O2"
_cell_formula_units_Z 64
_cell_length_a 20.266995
_cell_length_b 8.913438
_cell_length_c 20.353887
_cell_angle_alpha 90.000000
_cell_angle_beta 90.000000
_cell_angle_gamma 90.000000
_cell_volume 3676.901260
_symmetry_space_group_name_H-M "P M M M"
_symmetry_group_IT_number 47
_symmetry_cell_setting 'orthorhombic'
loop_
_space_group_symop_operation_xyz
x,y,z
-x,-y,z
x,-y,-z
-x,y,-z
-x,-y,-z
x,y,-z
-x,y,z
x,-y,z
loop_
_atom_site_type_symbol
_atom_site_label
_atom_site_fract_x
_atom_site_fract_y
_atom_site_fract_z
Si Si1 0.573851 0.328019 0.802359
Si Si2 0.246763 0.323136 0.107593
Si Si3 0.658997 0.175275 0.307884
Si Si4 0.425808 0.178240 0.427172
Si Si5 0.378776 0.827053 0.073002
Si Si6 0.929573 0.176086 0.788621
Si Si7 0.117890 0.827940 0.071131
Si Si8 0.212642 0.175910 0.241270
O O1 0.500000 0.312425 0.773978
O O2 0.595523 0.500000 0.808980
O O3 0.624499 0.248540 0.754251
O O4 0.574927 0.254479 0.874300
O O5 0.255467 0.500000 0.106945
O O6 0.307342 0.247950 0.070895
O O7 0.181415 0.277419 0.068896
O O8 0.245012 0.265897 0.182166
O O9 0.627961 0.242335 0.375249
O O10 0.738791 0.204222 0.303968
O O11 0.643543 0.000000 0.304343
O O12 0.408209 0.240200 0.500000
O O13 0.500000 0.230314 0.407405
O O14 0.423059 0.000000 0.428536
O O15 0.371896 0.000000 0.093397
O O16 0.409975 0.811148 0.000000
O O17 0.926441 0.217748 0.866330
O O18 0.863821 0.233430 0.749281
O O19 0.000000 0.245345 0.762711
O O20 0.933588 0.000000 0.778995
O O21 0.140753 0.000000 0.080301
O O22 0.081233 0.808095 0.000000
O O23 0.211033 0.000000 0.223212
#
# Coordination Sequence:
#
# PCOD8194357 Si02
#       8
#     8   8   8   8   8   8   8   8
#     4  11  24  38  51  70  95 121 152 193 239 288
#     4  11  20  30  46  66  88 114 145 185 237 290
#     4  10  18  30  52  75  96 125 160 197 234 275
#     4   8  14  25  43  71 104 132 159 192 231 276
#     4  11  23  37  52  67  85 113 152 198 245 291
#     4   8  14  25  41  61  86 114 145 188 239 282
#     4   9  17  28  42  60  82 108 142 185 232 286
#     4   9  17  29  46  68  91 115 151 194 231 273
#
# _framework density 17.405961000000001
#
# number of rings (size 3 to 8) (size 9 to 14) (size 15 to 20)
#    0.000    2.375    1.250    3.750    0.000    4.750 
#    0.000    2.500    0.000    6.375    0.000    5.250 
#    0.000    0.500    0.000    7.000    0.000    0.000 
#
# Total GULP energy -792851.414027 kJ/mol
# GULP energy per Si atom -12388.303344 kJ/mol
# Density = 1.736634 g / cm^3
# Si number density = 17.405961 Si / 1000 Ang^3
#
#
#
# Elastic Constant Matrix: (Units=GPa)
#
#
# Indices 1 2 3 4 5 6 
#
# 1 122.7536 16.6064 57.9372 0.0000 0.0000 0.0000
# 2 16.6064 41.4687 15.4579 0.0000 0.0000 0.0000
# 3 57.9372 15.4579 87.5202 0.0000 0.0000 0.0000
# 4 0.0000 0.0000 0.0000 1.3960 0.0000 0.0000
# 5 0.0000 0.0000 0.0000 0.0000 20.7120 0.0000
# 6 0.0000 0.0000 0.0000 0.0000 0.0000 7.0925
#
#
#
# Elastic Compliance Matrix: (Units=1/GPa)
#
#
# Indices 1 2 3 4 5 6 
#
# 1 0.011997 -0.001974 -0.007594 0.000000 0.000000 0.000000
# 2 -0.001974 0.026139 -0.003310 0.000000 0.000000 0.000000
# 3 -0.007594 -0.003310 0.017037 0.000000 0.000000 0.000000
# 4 0.000000 0.000000 0.000000 0.716354 0.000000 0.000000
# 5 0.000000 0.000000 0.000000 0.000000 0.048281 0.000000
# 6 0.000000 0.000000 0.000000 0.000000 0.000000 0.140995
#
#
# Mechanical properties :
#
#
# Convention : Reuss Voigt Hill
#
# Bulk Modulus (GPa) = 33.99177 47.97171 40.98174
# Shear Modulus (GPa) = 5.01824 16.62282 10.82053
#
# Velocity S-wave (km/s) = 1.69980 3.09367 2.49601
# Velocity P-wave (km/s) = 4.83980 6.35464 5.64823
#
# Compressibility (1/GPa) = 0.02941889
#
# Stress axis : x y z
#
# Youngs Moduli (GPa) = 83.35129 38.25724 58.69458
#
# Poissons Ratio (x) = 0.07551 0.44570
# Poissons Ratio (y) = 0.16452 0.19428
# Poissons Ratio (z) = 0.63293 0.12663
#
# Static dielectric constant tensor:
#      x y z
#    x 3.582780 0.000000 0.000000 
#    y 0.000000 3.001440 0.000000 
#    z 0.000000 0.000000 3.201580 
# 
# 
# High freq. dielectric constant tensor:
#      x y z
#    x 1.673280 0.000000 0.000000 
#    y 0.000000 1.647070 0.000000 
#    z 0.000000 0.000000 1.634400 
# 
# From -- ./inp_files/11848.got.cif
#   From: 2010.03.12/outbox.cif.g09.slc.cpg/sg47_6_cif.got.tgz:11848.got - 2010.04.14 03:12:58.
