data_PCOD8194487
_publ_section_title
;
Structure prediction by ZEFSAII (Michael W. Deem and Ramdas Pophale) SiO2 
 PCOD8194487
Probable space group: P M M M
;
_chemical_formula_sum "Si O2"
_cell_formula_units_Z 64
_cell_length_a 15.304423
_cell_length_b 8.843787
_cell_length_c 24.962530
_cell_angle_alpha 90.000000
_cell_angle_beta 90.000000
_cell_angle_gamma 90.000000
_cell_volume 3378.654900
_symmetry_space_group_name_H-M "P M M M"
_symmetry_group_IT_number 47
_symmetry_cell_setting 'orthorhombic'
loop_
_space_group_symop_operation_xyz
x,y,z
-x,-y,z
x,-y,-z
-x,y,-z
-x,-y,-z
x,y,-z
-x,y,z
x,-y,z
loop_
_atom_site_type_symbol
_atom_site_label
_atom_site_fract_x
_atom_site_fract_y
_atom_site_fract_z
Si Si1 0.096185 0.326582 0.608591
Si Si2 0.739857 0.176246 0.560313
Si Si3 0.597613 0.825392 0.645645
Si Si4 0.677478 0.677440 0.257814
Si Si5 0.283468 0.179104 0.148502
Si Si6 0.093160 0.173960 0.169064
Si Si7 0.146366 0.173746 0.713005
Si Si8 0.400322 0.674359 0.062111
O O1 0.118125 0.500000 0.621873
O O2 0.169262 0.262599 0.568958
O O3 0.090572 0.231641 0.663387
O O4 0.000000 0.312156 0.581578
O O5 0.707328 0.208373 0.500000
O O6 0.665529 0.235848 0.601052
O O7 0.757442 0.000000 0.569640
O O8 0.500000 0.803014 0.622642
O O9 0.603278 0.733354 0.701298
O O10 0.616693 0.000000 0.658379
O O11 0.670678 0.500000 0.249489
O O12 0.666049 0.753216 0.199489
O O13 0.767876 0.724022 0.284928
O O14 0.183181 0.245147 0.145378
O O15 0.334252 0.221412 0.094854
O O16 0.279924 0.000000 0.155947
O O17 0.091310 0.192027 0.233049
O O18 0.000000 0.246966 0.148457
O O19 0.092234 0.000000 0.152211
O O20 0.174603 0.000000 0.704316
O O21 0.500000 0.718817 0.075893
O O22 0.383736 0.500000 0.076680
O O23 0.381314 0.704232 0.000000
#
# Coordination Sequence:
#
# PCOD8194487 Si02
#       8
#     8   8   8   8   8   8   8   8
#     4  11  23  36  53  80 111 144 180 220 272 329
#     4  10  22  40  61  82 105 138 180 227 278 333
#     4  10  21  38  60  84 110 140 177 224 276 333
#     4  11  21  34  54  80 114 151 183 218 269 330
#     4  10  20  33  54  84 115 148 187 232 276 322
#     4   8  15  28  47  74 108 144 180 218 263 313
#     4  10  18  31  53  79 107 141 182 226 272 321
#     4   9  19  37  59  81 108 145 188 234 286 341
#
# _framework density 18.942449
#
# number of rings (size 3 to 8) (size 9 to 14) (size 15 to 20)
#    0.000    2.125    1.250    3.750    0.000    3.500 
#    0.000    3.125    0.000    7.875    0.000    4.375 
#    0.000    0.000    0.000    0.000    0.000    0.000 
#
# Total GULP energy -793333.239637 kJ/mol
# GULP energy per Si atom -12395.831869 kJ/mol
# Density = 1.889934 g / cm^3
# Si number density = 18.942449 Si / 1000 Ang^3
#
#
#
# Elastic Constant Matrix: (Units=GPa)
#
#
# Indices 1 2 3 4 5 6 
#
# 1 118.2402 36.2505 56.9705 0.0000 0.0000 0.0000
# 2 36.2505 75.5734 36.1738 0.0000 0.0000 0.0000
# 3 56.9705 36.1738 89.6525 0.0000 0.0000 0.0000
# 4 0.0000 0.0000 0.0000 25.0976 0.0000 0.0000
# 5 0.0000 0.0000 0.0000 0.0000 16.3737 0.0000
# 6 0.0000 0.0000 0.0000 0.0000 0.0000 21.5229
#
#
#
# Elastic Compliance Matrix: (Units=1/GPa)
#
#
# Indices 1 2 3 4 5 6 
#
# 1 0.012634 -0.002748 -0.006919 0.000000 0.000000 0.000000
# 2 -0.002748 0.016997 -0.005112 0.000000 0.000000 0.000000
# 3 -0.006919 -0.005112 0.017614 0.000000 0.000000 0.000000
# 4 0.000000 0.000000 0.000000 0.039844 0.000000 0.000000
# 5 0.000000 0.000000 0.000000 0.000000 0.061074 0.000000
# 6 0.000000 0.000000 0.000000 0.000000 0.000000 0.046462
#
#
# Mechanical properties :
#
#
# Convention : Reuss Voigt Hill
#
# Bulk Modulus (GPa) = 56.54197 60.25063 58.39630
# Shear Modulus (GPa) = 21.73164 22.87025 22.30095
#
# Velocity S-wave (km/s) = 3.39078 3.47847 3.43490
# Velocity P-wave (km/s) = 6.72636 6.92887 6.82837
#
# Compressibility (1/GPa) = 0.01768598
#
# Stress axis : x y z
#
# Youngs Moduli (GPa) = 79.15278 58.83325 56.77363
#
# Poissons Ratio (x) = 0.16168 0.39284
# Poissons Ratio (y) = 0.21752 0.29022
# Poissons Ratio (z) = 0.54769 0.30075
#
# Static dielectric constant tensor:
#      x y z
#    x 3.623230 0.000000 0.000000 
#    y 0.000000 3.321500 0.000000 
#    z 0.000000 0.000000 3.290080 
# 
# 
# High freq. dielectric constant tensor:
#      x y z
#    x 1.743330 0.000000 0.000000 
#    y 0.000000 1.721790 0.000000 
#    z 0.000000 0.000000 1.714920 
# 
# From -- ./inp_files/32770.got.cif
#   From: 2010.03.12/outbox.cif.g09.slc.cpg/sg47_17_cif.got.tgz:32770.got - 2010.04.14 03:12:58.
