data_PCOD8194665
_publ_section_title
;
Structure prediction by ZEFSAII (Michael W. Deem and Ramdas Pophale) SiO2 
 PCOD8194665
Probable space group: P M M M
;
_chemical_formula_sum "Si O2"
_cell_formula_units_Z 52
_cell_length_a 14.316275
_cell_length_b 18.204933
_cell_length_c 13.646759
_cell_angle_alpha 90.000000
_cell_angle_beta 90.000000
_cell_angle_gamma 90.000000
_cell_volume 3556.711500
_symmetry_space_group_name_H-M "P M M M"
_symmetry_group_IT_number 47
_symmetry_cell_setting 'orthorhombic'
loop_
_space_group_symop_operation_xyz
x,y,z
-x,-y,z
x,-y,-z
-x,y,-z
-x,-y,-z
x,y,-z
-x,y,z
x,-y,z
loop_
_atom_site_type_symbol
_atom_site_label
_atom_site_fract_x
_atom_site_fract_y
_atom_site_fract_z
Si Si1 0.606176 0.633928 0.113746
Si Si2 0.102915 0.711203 0.885981
Si Si3 0.787190 0.584147 0.795935
Si Si4 0.894317 0.000000 0.116829
Si Si5 0.794046 0.145503 0.882746
Si Si6 0.399537 0.804068 0.884787
Si Si7 0.895339 0.586847 0.607797
O O1 0.500000 0.609045 0.136327
O O2 0.675914 0.589672 0.185467
O O3 0.620117 0.719183 0.138015
O O4 0.630099 0.617544 0.000000
O O5 0.160848 0.636596 0.872491
O O6 0.153339 0.782808 0.840042
O O7 0.000000 0.703419 0.838487
O O8 0.093385 0.725501 0.000000
O O9 0.819302 0.500000 0.812341
O O10 0.818122 0.612111 0.687498
O O11 0.842425 0.072084 0.158223
O O12 0.000000 0.000000 0.156169
O O13 0.893071 0.000000 0.000000
O O14 0.686582 0.147670 0.843891
O O15 0.795566 0.146384 0.000000
O O16 0.500000 0.828252 0.838359
O O17 0.406506 0.814578 0.000000
O O18 0.868390 0.618568 0.500000
O O19 0.895815 0.500000 0.601886
O O20 0.000000 0.614041 0.637243
#
# Coordination Sequence:
#
# PCOD8194665 Si02
#       7
#     8   8   8   4   8   8   8
#     4   9  17  29  42  56  78 109 142 172 201 238
#     4  10  19  28  37  52  78 109 134 159 198 244
#     4  11  20  28  41  60  79 100 134 174 205 239
#     4   9  16  24  35  51  69  95 133 169 195 228
#     4   9  15  25  38  51  70  98 131 164 197 233
#     4   8  13  23  39  53  67  94 131 165 196 231
#     4   8  15  29  46  60  75  98 128 163 206 252
#
# _framework density 14.620246
#
# number of rings (size 3 to 8) (size 9 to 14) (size 15 to 20)
#    0.000    2.846    1.538    2.769    0.000    4.308 
#    0.000    1.923    0.000    2.769    0.000    2.154 
#    0.000    0.000    0.000    0.692    0.000    7.692 
#
# Total GULP energy -644275.197224 kJ/mol
# GULP energy per Si atom -12389.907639 kJ/mol
# Density = 1.458697 g / cm^3
# Si number density = 14.620246 Si / 1000 Ang^3
#
#
#
# Elastic Constant Matrix: (Units=GPa)
#
#
# Indices 1 2 3 4 5 6 
#
# 1 128.1190 50.5522 31.0281 0.0000 0.0000 0.0000
# 2 50.5522 79.3151 9.8900 0.0000 0.0000 0.0000
# 3 31.0281 9.8900 37.5448 0.0000 0.0000 0.0000
# 4 0.0000 0.0000 0.0000 1.1431 0.0000 0.0000
# 5 0.0000 0.0000 0.0000 0.0000 15.8931 0.0000
# 6 0.0000 0.0000 0.0000 0.0000 0.0000 26.9465
#
#
#
# Elastic Compliance Matrix: (Units=1/GPa)
#
#
# Indices 1 2 3 4 5 6 
#
# 1 0.012648 -0.006987 -0.008612 0.000000 0.000000 0.000000
# 2 -0.006987 0.016896 0.001324 0.000000 0.000000 0.000000
# 3 -0.008612 0.001324 0.033403 0.000000 0.000000 0.000000
# 4 0.000000 0.000000 0.000000 0.874838 0.000000 0.000000
# 5 0.000000 0.000000 0.000000 0.000000 0.062920 0.000000
# 6 0.000000 0.000000 0.000000 0.000000 0.000000 0.037111
#
#
# Mechanical properties :
#
#
# Convention : Reuss Voigt Hill
#
# Bulk Modulus (GPa) = 29.07283 47.54660 38.30971
# Shear Modulus (GPa) = 4.63894 19.03043 11.83468
#
# Velocity S-wave (km/s) = 1.78321 3.61175 2.84821
# Velocity P-wave (km/s) = 4.91612 7.06998 6.08905
#
# Compressibility (1/GPa) = 0.03439638
#
# Stress axis : x y z
#
# Youngs Moduli (GPa) = 79.06411 59.18429 29.93708
#
# Poissons Ratio (x) = 0.41355 0.25782
# Poissons Ratio (y) = 0.55245 -0.03963
# Poissons Ratio (z) = 0.68090 -0.07835
#
# Static dielectric constant tensor:
#      x y z
#    x 2.933550 0.000000 0.000000 
#    y 0.000000 2.745410 0.000000 
#    z 0.000000 0.000000 2.488870 
# 
# 
# High freq. dielectric constant tensor:
#      x y z
#    x 1.577950 0.000000 0.000000 
#    y 0.000000 1.541590 0.000000 
#    z 0.000000 0.000000 1.484860 
# 
# From -- ./inp_files/17807.got.cif
#   From: 2010.03.12/outbox.cif.g09.slc.cpg/sg47_9_cif.got.tgz:17807.got - 2010.04.14 03:12:58.
