data_PCOD8194844
_publ_section_title
;
Structure prediction by ZEFSAII (Michael W. Deem and Ramdas Pophale) SiO2 
 PCOD8194844
Probable space group: P M M M
;
_chemical_formula_sum "Si O2"
_cell_formula_units_Z 44
_cell_length_a 10.835881
_cell_length_b 17.701846
_cell_length_c 15.761688
_cell_angle_alpha 90.000000
_cell_angle_beta 90.000000
_cell_angle_gamma 90.000000
_cell_volume 3023.329708
_symmetry_space_group_name_H-M "P M M M"
_symmetry_group_IT_number 47
_symmetry_cell_setting 'orthorhombic'
loop_
_space_group_symop_operation_xyz
x,y,z
-x,-y,z
x,-y,-z
-x,y,-z
-x,-y,-z
x,y,-z
-x,y,z
x,-y,z
loop_
_atom_site_type_symbol
_atom_site_label
_atom_site_fract_x
_atom_site_fract_y
_atom_site_fract_z
Si Si1 0.500000 0.587023 0.600450
Si Si2 0.500000 0.915476 0.399518
Si Si3 0.855426 0.588332 0.183579
Si Si4 0.000000 0.084728 0.600433
Si Si5 0.250435 0.168969 0.600917
Si Si6 0.140399 0.418168 0.500000
Si Si7 0.746244 0.662672 0.655225
Si Si8 0.146057 0.583101 0.000000
O O1 0.500000 0.500000 0.627813
O O2 0.500000 0.597236 0.500000
O O3 0.612745 0.630110 0.640382
O O4 0.500000 0.918798 0.500000
O O5 0.373952 0.874882 0.369230
O O6 0.500000 0.000000 0.361519
O O7 0.819757 0.500000 0.193296
O O8 0.786373 0.639162 0.251356
O O9 0.814818 0.620910 0.089896
O O10 0.000000 0.598529 0.197944
O O11 0.874266 0.125995 0.630453
O O12 0.000000 0.080886 0.500000
O O13 0.000000 0.000000 0.638393
O O14 0.251282 0.182345 0.500000
O O15 0.252062 0.247594 0.649915
O O16 0.213258 0.500000 0.500000
O O17 0.164959 0.371063 0.584008
O O18 0.000000 0.439168 0.500000
O O19 0.205011 0.500000 0.000000
O O20 0.000000 0.574912 0.000000
#
# Coordination Sequence:
#
# PCOD8194844 Si02
#       8
#     4   4   8   4   8   4   8   4
#     4  11  21  33  43  52  79 124 168 193 212 249
#     4   9  17  31  49  63  77 107 154 195 222 258
#     4   9  17  29  46  66  87 113 151 191 232 271
#     4   9  18  30  44  60  80 111 144 173 219 280
#     4  10  19  29  43  61  87 113 145 187 229 263
#     4  11  22  31  41  57  84 120 157 189 219 253
#     4  12  21  30  44  61  88 118 154 190 226 263
#     4   7  12  26  46  65  83 107 142 190 235 275
#
# _framework density 14.553490999999999
#
# number of rings (size 3 to 8) (size 9 to 14) (size 15 to 20)
#    0.000    2.091    1.818    4.364    2.545    4.364 
#    0.000    0.000    0.000    0.545    0.000    2.545 
#    0.000    0.000    0.000    4.909    0.000    0.000 
#
# Total GULP energy -545265.151535 kJ/mol
# GULP energy per Si atom -12392.389808 kJ/mol
# Density = 1.452037 g / cm^3
# Si number density = 14.553491 Si / 1000 Ang^3
#
#
#
# Elastic Constant Matrix: (Units=GPa)
#
#
# Indices 1 2 3 4 5 6 
#
# 1 102.6188 58.9041 35.0094 0.0000 0.0000 0.0000
# 2 58.9041 125.4690 44.3261 0.0000 0.0000 0.0000
# 3 35.0094 44.3261 90.0880 0.0000 0.0000 0.0000
# 4 0.0000 0.0000 0.0000 8.6721 0.0000 0.0000
# 5 0.0000 0.0000 0.0000 0.0000 24.1957 0.0000
# 6 0.0000 0.0000 0.0000 0.0000 0.0000 28.0964
#
#
#
# Elastic Compliance Matrix: (Units=1/GPa)
#
#
# Indices 1 2 3 4 5 6 
#
# 1 0.013840 -0.005565 -0.002640 0.000000 0.000000 0.000000
# 2 -0.005565 0.011884 -0.003685 0.000000 0.000000 0.000000
# 3 -0.002640 -0.003685 0.013939 0.000000 0.000000 0.000000
# 4 0.000000 0.000000 0.000000 0.115312 0.000000 0.000000
# 5 0.000000 0.000000 0.000000 0.000000 0.041330 0.000000
# 6 0.000000 0.000000 0.000000 0.000000 0.000000 0.035592
#
#
# Mechanical properties :
#
#
# Convention : Reuss Voigt Hill
#
# Bulk Modulus (GPa) = 62.95771 66.07278 64.51524
# Shear Modulus (GPa) = 19.15920 24.18860 21.67390
#
# Velocity S-wave (km/s) = 3.63225 4.08125 3.86328
# Velocity P-wave (km/s) = 7.80669 8.22844 8.02034
#
# Compressibility (1/GPa) = 0.01588368
#
# Stress axis : x y z
#
# Youngs Moduli (GPa) = 72.25600 84.14443 71.73873
#
# Poissons Ratio (x) = 0.46822 0.18942
# Poissons Ratio (y) = 0.40207 0.26436
# Poissons Ratio (z) = 0.19078 0.31007
#
# Static dielectric constant tensor:
#      x y z
#    x 2.911440 0.000000 0.000000 
#    y 0.000000 2.849820 0.000000 
#    z 0.000000 0.000000 2.389390 
# 
# 
# High freq. dielectric constant tensor:
#      x y z
#    x 1.561450 0.000000 0.000000 
#    y 0.000000 1.548120 0.000000 
#    z 0.000000 0.000000 1.515140 
# 
# From -- ./inp_files/22673.got.cif
#   From: 2010.03.12/outbox.cif.g09.slc.cpg/sg47_12_cif.got.tgz:22673.got - 2010.04.14 03:12:58.
