data_PCOD8194456
_publ_section_title
;
Structure prediction by ZEFSAII (Michael W. Deem and Ramdas Pophale) SiO2 
 PCOD8194456
Probable space group: P M M M
;
_chemical_formula_sum "Si O2"
_cell_formula_units_Z 40
_cell_length_a 10.931820
_cell_length_b 9.035124
_cell_length_c 22.631722
_cell_angle_alpha 90.000000
_cell_angle_beta 90.000000
_cell_angle_gamma 90.000000
_cell_volume 2235.343086
_symmetry_space_group_name_H-M "P M M M"
_symmetry_group_IT_number 47
_symmetry_cell_setting 'orthorhombic'
loop_
_space_group_symop_operation_xyz
x,y,z
-x,-y,z
x,-y,-z
-x,y,-z
-x,-y,-z
x,y,-z
-x,y,z
x,-y,z
loop_
_atom_site_type_symbol
_atom_site_label
_atom_site_fract_x
_atom_site_fract_y
_atom_site_fract_z
Si Si1 0.500000 0.672614 0.565524
Si Si2 0.249238 0.674873 0.618351
Si Si3 0.858753 0.831222 0.730067
Si Si4 0.363344 0.675676 0.066724
Si Si5 0.139483 0.324574 0.147372
Si Si6 0.140912 0.661678 0.500000
O O1 0.500000 0.500000 0.554195
O O2 0.500000 0.748513 0.500000
O O3 0.387529 0.719139 0.605856
O O4 0.224264 0.500000 0.627029
O O5 0.214742 0.758891 0.677190
O O6 0.177630 0.741127 0.561069
O O7 0.829545 0.743481 0.789505
O O8 0.000000 0.819769 0.713387
O O9 0.817160 0.000000 0.738834
O O10 0.500000 0.725875 0.089965
O O11 0.358507 0.500000 0.067610
O O12 0.246890 0.736856 0.104060
O O13 0.346321 0.734366 0.000000
O O14 0.147186 0.500000 0.152669
O O15 0.000000 0.279089 0.126889
O O16 0.208703 0.500000 0.500000
O O17 0.000000 0.637268 0.500000
#
# Coordination Sequence:
#
# PCOD8194456 Si02
#       6
#     4   8   8   8   8   4
#     4   9  16  30  51  75  99 123 152 193 244 293
#     4  10  18  31  52  74  97 124 158 198 240 291
#     4  10  21  36  51  68  96 132 165 201 247 292
#     4   8  14  26  46  74 106 133 157 194 245 292
#     4   9  17  30  50  75 100 128 165 205 242 286
#     4   9  16  25  44  74  97 115 148 195 240 282
#
# _framework density 17.894342999999999
#
# number of rings (size 3 to 8) (size 9 to 14) (size 15 to 20)
#    0.000    2.800    1.000    1.800    0.000    2.400 
#    1.800    3.000    0.000    3.000    0.000    4.200 
#    0.000    0.000    0.000    0.000    0.000    0.000 
#
# Total GULP energy -495553.146509 kJ/mol
# GULP energy per Si atom -12388.828663 kJ/mol
# Density = 1.785361 g / cm^3
# Si number density = 17.894343 Si / 1000 Ang^3
#
#
#
# Elastic Constant Matrix: (Units=GPa)
#
#
# Indices 1 2 3 4 5 6 
#
# 1 142.3578 24.4432 90.3710 0.0000 0.0000 0.0000
# 2 24.4432 19.6321 23.9724 0.0000 0.0000 0.0000
# 3 90.3710 23.9724 130.2251 0.0000 0.0000 0.0000
# 4 0.0000 0.0000 0.0000 -5.8232 0.0000 0.0000
# 5 0.0000 0.0000 0.0000 0.0000 49.2070 0.0000
# 6 0.0000 0.0000 0.0000 0.0000 0.0000 11.1614
#
#
#
# Elastic Compliance Matrix: (Units=1/GPa)
#
#
# Indices 1 2 3 4 5 6 
#
# 1 0.013221 -0.006782 -0.007926 0.000000 0.000000 0.000000
# 2 -0.006782 0.069186 -0.008030 0.000000 0.000000 0.000000
# 3 -0.007926 -0.008030 0.014658 0.000000 0.000000 0.000000
# 4 0.000000 0.000000 0.000000 -0.171727 0.000000 0.000000
# 5 0.000000 0.000000 0.000000 0.000000 0.020322 0.000000
# 6 0.000000 0.000000 0.000000 0.000000 0.000000 0.089594
#
#
# Mechanical properties :
#
#
# Convention : Reuss Voigt Hill
#
# Bulk Modulus (GPa) = 19.38414 63.30981 41.34697
# Shear Modulus (GPa) = 51.05925 21.13762 36.09844
#
# Velocity S-wave (km/s) = 5.34749 3.44065 4.49632
# Velocity P-wave (km/s) = 6.99883 7.15826 7.07900
#
# Compressibility (1/GPa) = 0.05158857
#
# Stress axis : x y z
#
# Youngs Moduli (GPa) = 75.63894 14.45380 68.22422
#
# Poissons Ratio (x) = 0.09803 0.54076
# Poissons Ratio (y) = 0.51299 0.54781
# Poissons Ratio (z) = 0.59953 0.11606
#
# Static dielectric constant tensor:
#      x y z
#    x 3.481190 0.000000 0.000000 
#    y 0.000000 2.891470 0.000000 
#    z 0.000000 0.000000 3.366330 
# 
# 
# High freq. dielectric constant tensor:
#      x y z
#    x 1.704830 0.000000 0.000000 
#    y 0.000000 1.640780 0.000000 
#    z 0.000000 0.000000 1.694230 
# 
# From -- ./inp_files/10704.got.cif
#   From: 2010.03.12/outbox.cif.g09.slc.cpg/sg47_6_cif.got.tgz:10704.got - 2010.04.14 03:12:58.
