data_PCOD8194131
_publ_section_title
;
Structure prediction by ZEFSAII (Michael W. Deem and Ramdas Pophale) SiO2 
 PCOD8194131
Probable space group: P M M M
;
_chemical_formula_sum "Si O2"
_cell_formula_units_Z 56
_cell_length_a 18.936588
_cell_length_b 9.122172
_cell_length_c 18.774313
_cell_angle_alpha 90.000000
_cell_angle_beta 90.000000
_cell_angle_gamma 90.000000
_cell_volume 3243.127637
_symmetry_space_group_name_H-M "P M M M"
_symmetry_group_IT_number 47
_symmetry_cell_setting 'orthorhombic'
loop_
_space_group_symop_operation_xyz
x,y,z
-x,-y,z
x,-y,-z
-x,y,-z
-x,-y,-z
x,y,-z
-x,y,z
x,-y,z
loop_
_atom_site_type_symbol
_atom_site_label
_atom_site_fract_x
_atom_site_fract_y
_atom_site_fract_z
Si Si1 0.652989 0.171966 0.580344
Si Si2 0.284883 0.669460 0.215091
Si Si3 0.200128 0.331613 0.920061
Si Si4 0.079771 0.830946 0.155377
Si Si5 0.920831 0.329163 0.695654
Si Si6 0.208832 0.171579 0.661385
Si Si7 0.578517 0.329360 0.294782
O O1 0.640213 0.226821 0.500000
O O2 0.733380 0.211574 0.601774
O O3 0.597593 0.249472 0.631819
O O4 0.640251 0.000000 0.587463
O O5 0.270923 0.500000 0.235155
O O6 0.266098 0.701298 0.132720
O O7 0.234311 0.770636 0.262042
O O8 0.366668 0.711115 0.231414
O O9 0.175974 0.500000 0.912221
O O10 0.132803 0.230475 0.903870
O O11 0.226470 0.297373 0.000000
O O12 0.089618 0.738829 0.226783
O O13 0.000000 0.813933 0.126124
O O14 0.097326 0.000000 0.171842
O O15 0.903980 0.500000 0.700847
O O16 0.865041 0.252000 0.642189
O O17 0.000000 0.300419 0.666860
O O18 0.195040 0.000000 0.666266
O O19 0.500000 0.280909 0.270397
O O20 0.581202 0.500000 0.312056
#
# Coordination Sequence:
#
# PCOD8194131 Si02
#       7
#     8   8   8   8   8   8   8
#     4   9  19  34  50  72 103 134 160 189 230 281
#     4   9  17  31  49  67  92 125 159 196 238 285
#     4  10  20  32  47  67  92 126 165 203 244 290
#     4  10  20  32  46  66  93 124 159 201 246 288
#     4  10  19  30  46  68  94 124 158 198 244 289
#     4  10  18  29  49  72  93 121 160 202 238 277
#     4   9  18  32  51  75 100 127 160 197 236 278
#
# _framework density 17.267282000000002
#
# number of rings (size 3 to 8) (size 9 to 14) (size 15 to 20)
#    0.000    2.429    1.429    1.286    0.000    3.714 
#    0.000    2.857    0.000    0.857    0.000    6.000 
#    0.000    0.000    0.000    8.429    0.000    8.857 
#
# Total GULP energy -694276.782182 kJ/mol
# GULP energy per Si atom -12397.799682 kJ/mol
# Density = 1.722798 g / cm^3
# Si number density = 17.267282 Si / 1000 Ang^3
#
#
#
# Elastic Constant Matrix: (Units=GPa)
#
#
# Indices 1 2 3 4 5 6 
#
# 1 132.8540 45.4694 44.6692 0.0000 0.0000 0.0000
# 2 45.4694 64.9848 21.0990 0.0000 0.0000 0.0000
# 3 44.6692 21.0990 69.3174 0.0000 0.0000 0.0000
# 4 0.0000 0.0000 0.0000 18.7726 0.0000 0.0000
# 5 0.0000 0.0000 0.0000 0.0000 19.3896 0.0000
# 6 0.0000 0.0000 0.0000 0.0000 0.0000 24.9494
#
#
#
# Elastic Compliance Matrix: (Units=1/GPa)
#
#
# Indices 1 2 3 4 5 6 
#
# 1 0.011531 -0.006276 -0.005521 0.000000 0.000000 0.000000
# 2 -0.006276 0.020491 -0.002193 0.000000 0.000000 0.000000
# 3 -0.005521 -0.002193 0.018651 0.000000 0.000000 0.000000
# 4 0.000000 0.000000 0.000000 0.053269 0.000000 0.000000
# 5 0.000000 0.000000 0.000000 0.000000 0.051574 0.000000
# 6 0.000000 0.000000 0.000000 0.000000 0.000000 0.040081
#
#
# Mechanical properties :
#
#
# Convention : Reuss Voigt Hill
#
# Bulk Modulus (GPa) = 44.06225 54.40349 49.23287
# Shear Modulus (GPa) = 21.63170 23.01689 22.32430
#
# Velocity S-wave (km/s) = 3.54327 3.65496 3.59955
# Velocity P-wave (km/s) = 6.50483 7.02757 6.77125
#
# Compressibility (1/GPa) = 0.02269516
#
# Stress axis : x y z
#
# Youngs Moduli (GPa) = 86.72158 48.80097 53.61517
#
# Poissons Ratio (x) = 0.30627 0.29599
# Poissons Ratio (y) = 0.54425 0.11758
# Poissons Ratio (z) = 0.47875 0.10702
#
# Static dielectric constant tensor:
#      x y z
#    x 3.523330 0.000000 0.000000 
#    y 0.000000 3.283100 0.000000 
#    z 0.000000 0.000000 3.035350 
# 
# 
# High freq. dielectric constant tensor:
#      x y z
#    x 1.669310 0.000000 0.000000 
#    y 0.000000 1.672410 0.000000 
#    z 0.000000 0.000000 1.632710 
# 
# From -- ./inp_files/9831.got.cif
#   From: 2010.03.12/outbox.cif.g09.slc.cpg/sg47_5_cif.got.tgz:9831.got - 2010.04.14 03:12:58.
