data_PCOD8194528
_publ_section_title
;
Structure prediction by ZEFSAII (Michael W. Deem and Ramdas Pophale) SiO2 
 PCOD8194528
Probable space group: P M M M
;
_chemical_formula_sum "Si O2"
_cell_formula_units_Z 52
_cell_length_a 29.052417
_cell_length_b 8.165086
_cell_length_c 11.926448
_cell_angle_alpha 90.000000
_cell_angle_beta 90.000000
_cell_angle_gamma 90.000000
_cell_volume 2829.138127
_symmetry_space_group_name_H-M "P M M M"
_symmetry_group_IT_number 47
_symmetry_cell_setting 'orthorhombic'
loop_
_space_group_symop_operation_xyz
x,y,z
-x,-y,z
x,-y,-z
-x,y,-z
-x,-y,-z
x,y,-z
-x,y,z
x,-y,z
loop_
_atom_site_type_symbol
_atom_site_label
_atom_site_fract_x
_atom_site_fract_y
_atom_site_fract_z
Si Si1 0.051113 0.500000 0.632165
Si Si2 0.209016 0.810459 0.277011
Si Si3 0.250420 0.185953 0.500000
Si Si4 0.367854 0.815177 0.273411
Si Si5 0.715877 0.309792 0.126040
Si Si6 0.653103 0.682826 0.500000
Si Si7 0.551903 0.689236 0.871091
Si Si8 0.110939 0.187089 0.368988
O O1 0.047449 0.500000 0.500000
O O2 0.075629 0.670356 0.669085
O O3 0.000000 0.500000 0.685695
O O4 0.231104 0.728376 0.388308
O O5 0.232045 0.720983 0.170634
O O6 0.154241 0.786752 0.286356
O O7 0.222407 0.000000 0.267041
O O8 0.305193 0.189838 0.500000
O O9 0.232032 0.000000 0.500000
O O10 0.321568 0.771759 0.206516
O O11 0.375815 0.709097 0.386159
O O12 0.412839 0.797692 0.197862
O O13 0.363162 0.000000 0.312847
O O14 0.705137 0.500000 0.123499
O O15 0.712016 0.237507 0.000000
O O16 0.672972 0.500000 0.500000
O O17 0.500000 0.721997 0.828384
O O18 0.565154 0.500000 0.856263
O O19 0.556142 0.741091 0.000000
O O20 0.125174 0.208979 0.500000
O O21 0.091344 0.000000 0.352432
#
# Coordination Sequence:
#
# PCOD8194528 Si02
#       8
#     4   8   4   8   8   4   8   8
#     4   9  18  30  44  70 103 141 187 225 263 319
#     4  10  19  32  52  76 106 138 178 224 267 319
#     4  10  18  32  52  77 105 135 172 221 265 307
#     4  12  24  38  57  81 111 142 176 221 267 316
#     4  11  24  38  52  75 108 145 183 220 263 319
#     4  12  24  38  55  79 106 140 183 220 263 317
#     4   9  19  38  63  87 110 138 175 220 268 319
#     4   9  17  30  47  71 103 139 177 222 273 323
#
# _framework density 18.380155999999999
#
# number of rings (size 3 to 8) (size 9 to 14) (size 15 to 20)
#    0.000    1.769    2.308    3.462    1.077    4.000 
#    0.000    2.692    0.000    2.308    0.000    0.000 
#    0.000    1.231    0.000    3.385    0.000    0.154 
#
# Total GULP energy -644607.872329 kJ/mol
# GULP energy per Si atom -12396.305237 kJ/mol
# Density = 1.833832 g / cm^3
# Si number density = 18.380156 Si / 1000 Ang^3
#
#
#
# Elastic Constant Matrix: (Units=GPa)
#
#
# Indices 1 2 3 4 5 6 
#
# 1 100.7915 39.6853 35.9322 0.0000 0.0000 0.0000
# 2 39.6853 84.7865 30.0927 0.0000 0.0000 0.0000
# 3 35.9322 30.0927 90.5877 0.0000 0.0000 0.0000
# 4 0.0000 0.0000 0.0000 20.2329 0.0000 0.0000
# 5 0.0000 0.0000 0.0000 0.0000 16.7391 0.0000
# 6 0.0000 0.0000 0.0000 0.0000 0.0000 29.7063
#
#
#
# Elastic Compliance Matrix: (Units=1/GPa)
#
#
# Indices 1 2 3 4 5 6 
#
# 1 0.013116 -0.004866 -0.003586 0.000000 0.000000 0.000000
# 2 -0.004866 0.015176 -0.003111 0.000000 0.000000 0.000000
# 3 -0.003586 -0.003111 0.013495 0.000000 0.000000 0.000000
# 4 0.000000 0.000000 0.000000 0.049424 0.000000 0.000000
# 5 0.000000 0.000000 0.000000 0.000000 0.059740 0.000000
# 6 0.000000 0.000000 0.000000 0.000000 0.000000 0.033663
#
#
# Mechanical properties :
#
#
# Convention : Reuss Voigt Hill
#
# Bulk Modulus (GPa) = 53.59004 54.17625 53.88314
# Shear Modulus (GPa) = 23.36864 24.69935 24.03400
#
# Velocity S-wave (km/s) = 3.56955 3.66977 3.62001
# Velocity P-wave (km/s) = 6.79769 6.89171 6.84486
#
# Compressibility (1/GPa) = 0.01866018
#
# Stress axis : x y z
#
# Youngs Moduli (GPa) = 76.24333 65.89218 74.10177
#
# Poissons Ratio (x) = 0.32065 0.26573
# Poissons Ratio (y) = 0.37102 0.23055
# Poissons Ratio (z) = 0.27341 0.20501
#
# Static dielectric constant tensor:
#      x y z
#    x 3.310880 0.000000 0.000000 
#    y 0.000000 3.367410 0.000000 
#    z 0.000000 0.000000 3.351610 
# 
# 
# High freq. dielectric constant tensor:
#      x y z
#    x 1.696510 0.000000 0.000000 
#    y 0.000000 1.717260 0.000000 
#    z 0.000000 0.000000 1.688050 
# 
# From -- ./inp_files/19919.got.cif
#   From: 2010.03.12/outbox.cif.g09.slc.cpg/sg47_10_cif.got.tgz:19919.got - 2010.04.14 03:12:58.
