data_PCOD8194360
_publ_section_title
;
Structure prediction by ZEFSAII (Michael W. Deem and Ramdas Pophale) SiO2 
 PCOD8194360
Probable space group: P M M M
;
_chemical_formula_sum "Si O2"
_cell_formula_units_Z 52
_cell_length_a 14.488531
_cell_length_b 20.985216
_cell_length_c 8.865639
_cell_angle_alpha 90.000000
_cell_angle_beta 90.000000
_cell_angle_gamma 90.000000
_cell_volume 2695.552789
_symmetry_space_group_name_H-M "P M M M"
_symmetry_group_IT_number 47
_symmetry_cell_setting 'orthorhombic'
loop_
_space_group_symop_operation_xyz
x,y,z
-x,-y,z
x,-y,-z
-x,y,-z
-x,-y,-z
x,y,-z
-x,y,z
x,-y,z
loop_
_atom_site_type_symbol
_atom_site_label
_atom_site_fract_x
_atom_site_fract_y
_atom_site_fract_z
Si Si1 0.605476 0.675973 0.322107
Si Si2 0.105911 0.500000 0.820823
Si Si3 0.286870 0.069413 0.179701
Si Si4 0.100878 0.875225 0.820935
Si Si5 0.225735 0.380129 0.179184
Si Si6 0.607793 0.191919 0.828162
Si Si7 0.897988 0.266820 0.178931
O O1 0.614748 0.674345 0.500000
O O2 0.500000 0.661789 0.271195
O O3 0.671552 0.621519 0.250940
O O4 0.636588 0.745779 0.264725
O O5 0.164148 0.560779 0.763276
O O6 0.000000 0.500000 0.756994
O O7 0.099782 0.500000 0.000000
O O8 0.180522 0.077053 0.234158
O O9 0.346519 0.128247 0.243759
O O10 0.321603 0.000000 0.238978
O O11 0.293436 0.070853 0.000000
O O12 0.128329 0.804098 0.766360
O O13 0.000000 0.895241 0.755718
O O14 0.094739 0.875077 0.000000
O O15 0.175201 0.317062 0.242329
O O16 0.236369 0.382267 0.000000
O O17 0.500000 0.179538 0.820966
O O18 0.641870 0.202798 0.000000
O O19 0.000000 0.284714 0.238764
O O20 0.897789 0.271051 0.000000
#
# Coordination Sequence:
#
# PCOD8194360 Si02
#       7
#     8   4   8   8   8   8   8
#     4  10  21  36  53  73  97 126 163 209 258 300
#     4   9  18  32  52  83 118 144 167 197 236 285
#     4   9  16  24  36  59  91 123 154 190 234 286
#     4   8  13  20  30  49  81 118 152 186 226 271
#     4  10  18  30  52  78 104 135 167 199 237 284
#     4   9  17  30  49  71  93 119 154 197 245 297
#     4   8  13  22  40  67  95 123 157 196 237 281
#
# _framework density 19.291035000000001
#
# number of rings (size 3 to 8) (size 9 to 14) (size 15 to 20)
#    0.000    3.000    0.000    2.769    0.000    5.846 
#    0.000    3.846    0.000    5.077    0.000    2.154 
#    0.000    0.000    0.000    5.538    0.000    4.923 
#
# Total GULP energy -644352.597636 kJ/mol
# GULP energy per Si atom -12391.396108 kJ/mol
# Density = 1.924713 g / cm^3
# Si number density = 19.291035 Si / 1000 Ang^3
#
#
#
# Elastic Constant Matrix: (Units=GPa)
#
#
# Indices 1 2 3 4 5 6 
#
# 1 108.7339 66.9573 22.1986 0.0000 0.0000 0.0000
# 2 66.9573 99.1322 18.3576 0.0000 0.0000 0.0000
# 3 22.1986 18.3576 22.7952 0.0000 0.0000 0.0000
# 4 0.0000 0.0000 0.0000 5.3705 0.0000 0.0000
# 5 0.0000 0.0000 0.0000 0.0000 10.5547 0.0000
# 6 0.0000 0.0000 0.0000 0.0000 0.0000 32.4658
#
#
#
# Elastic Compliance Matrix: (Units=1/GPa)
#
#
# Indices 1 2 3 4 5 6 
#
# 1 0.017077 -0.009937 -0.008628 0.000000 0.000000 0.000000
# 2 -0.009937 0.017638 -0.004527 0.000000 0.000000 0.000000
# 3 -0.008628 -0.004527 0.055917 0.000000 0.000000 0.000000
# 4 0.000000 0.000000 0.000000 0.186202 0.000000 0.000000
# 5 0.000000 0.000000 0.000000 0.000000 0.094744 0.000000
# 6 0.000000 0.000000 0.000000 0.000000 0.000000 0.030802
#
#
# Mechanical properties :
#
#
# Convention : Reuss Voigt Hill
#
# Bulk Modulus (GPa) = 22.49834 49.52090 36.00962
# Shear Modulus (GPa) = 10.79029 17.88806 14.33918
#
# Velocity S-wave (km/s) = 2.36761 3.04842 2.72932
# Velocity P-wave (km/s) = 4.37744 6.17387 5.35157
#
# Compressibility (1/GPa) = 0.04444773
#
# Stress axis : x y z
#
# Youngs Moduli (GPa) = 58.55773 56.69721 17.88370
#
# Poissons Ratio (x) = 0.56339 0.15430
# Poissons Ratio (y) = 0.58187 0.08096
# Poissons Ratio (z) = 0.50523 0.25668
#
# Static dielectric constant tensor:
#      x y z
#    x 3.866470 0.000000 0.000000 
#    y 0.000000 3.677810 0.000000 
#    z 0.000000 0.000000 2.824900 
# 
# 
# High freq. dielectric constant tensor:
#      x y z
#    x 1.766790 0.000000 0.000000 
#    y 0.000000 1.745130 0.000000 
#    z 0.000000 0.000000 1.672410 
# 
# From -- ./inp_files/6990.got.cif
#   From: 2010.03.12/outbox.cif.g09.slc.cpg/sg47_4_cif.got.tgz:6990.got - 2010.04.14 03:12:58.
