data_PCOD8194112
_publ_section_title
;
Structure prediction by ZEFSAII (Michael W. Deem and Ramdas Pophale) SiO2 
 PCOD8194112
Probable space group: P M M M
;
_chemical_formula_sum "Si O2"
_cell_formula_units_Z 64
_cell_length_a 20.326303
_cell_length_b 8.862561
_cell_length_c 19.924648
_cell_angle_alpha 90.000000
_cell_angle_beta 90.000000
_cell_angle_gamma 90.000000
_cell_volume 3589.287862
_symmetry_space_group_name_H-M "P M M M"
_symmetry_group_IT_number 47
_symmetry_cell_setting 'orthorhombic'
loop_
_space_group_symop_operation_xyz
x,y,z
-x,-y,z
x,-y,-z
-x,y,-z
-x,-y,-z
x,y,-z
-x,y,z
x,-y,z
loop_
_atom_site_type_symbol
_atom_site_label
_atom_site_fract_x
_atom_site_fract_y
_atom_site_fract_z
Si Si1 0.768548 0.680196 0.713345
Si Si2 0.626782 0.177851 0.292774
Si Si3 0.683121 0.823113 0.922404
Si Si4 0.621484 0.330644 0.426562
Si Si5 0.813038 0.176051 0.157166
Si Si6 0.074962 0.327810 0.921995
Si Si7 0.222068 0.330784 0.429393
Si Si8 0.425747 0.672958 0.165954
O O1 0.762264 0.500000 0.711579
O O2 0.696902 0.749572 0.724346
O O3 0.815441 0.733794 0.772888
O O4 0.800447 0.740311 0.642052
O O5 0.597108 0.225956 0.365348
O O6 0.578134 0.232386 0.234676
O O7 0.634372 0.000000 0.290929
O O8 0.750308 0.772001 0.886313
O O9 0.621920 0.735567 0.891291
O O10 0.670906 0.000000 0.912770
O O11 0.689463 0.778338 0.000000
O O12 0.596797 0.271215 0.500000
O O13 0.594682 0.500000 0.414917
O O14 0.699657 0.332601 0.426076
O O15 0.879498 0.213312 0.118191
O O16 0.810306 0.000000 0.172813
O O17 0.096037 0.500000 0.907369
O O18 0.000000 0.301221 0.899074
O O19 0.082646 0.290679 0.000000
O O20 0.200065 0.247607 0.500000
O O21 0.194628 0.500000 0.433728
O O22 0.500000 0.687341 0.138527
O O23 0.407090 0.500000 0.181188
#
# Coordination Sequence:
#
# PCOD8194112 Si02
#       8
#     8   8   8   8   8   8   8   8
#     4  10  18  29  48  72 100 136 175 213 254 301
#     4  11  20  31  49  73 101 131 164 207 261 314
#     4  10  22  39  57  78 104 133 164 204 259 316
#     4   8  14  26  45  68  95 129 166 203 246 299
#     4  11  21  33  52  80 111 142 174 211 256 305
#     4   9  19  36  56  78 106 142 182 219 255 299
#     4   7  11  21  38  62  92 126 164 204 245 289
#     4  11  24  40  57  75  95 126 171 217 261 314
#
# _framework density 17.830833999999999
#
# number of rings (size 3 to 8) (size 9 to 14) (size 15 to 20)
#    0.000    2.375    1.250    4.500    0.000    3.250 
#    0.000    1.875    0.000    1.500    0.000    2.625 
#    0.000    0.500    0.000    5.750    0.000    1.750 
#
# Total GULP energy -793144.778906 kJ/mol
# GULP energy per Si atom -12392.887170 kJ/mol
# Density = 1.779025 g / cm^3
# Si number density = 17.830834 Si / 1000 Ang^3
#
#
#
# Elastic Constant Matrix: (Units=GPa)
#
#
# Indices 1 2 3 4 5 6 
#
# 1 61.5495 26.3061 42.8475 0.0000 0.0000 0.0000
# 2 26.3061 76.8403 49.2845 0.0000 0.0000 0.0000
# 3 42.8475 49.2845 146.7737 0.0000 0.0000 0.0000
# 4 0.0000 0.0000 0.0000 26.9181 0.0000 0.0000
# 5 0.0000 0.0000 0.0000 0.0000 14.3538 0.0000
# 6 0.0000 0.0000 0.0000 0.0000 0.0000 21.0290
#
#
#
# Elastic Compliance Matrix: (Units=1/GPa)
#
#
# Indices 1 2 3 4 5 6 
#
# 1 0.021420 -0.004234 -0.004831 0.000000 0.000000 0.000000
# 2 -0.004234 0.017423 -0.004614 0.000000 0.000000 0.000000
# 3 -0.004831 -0.004614 0.009773 0.000000 0.000000 0.000000
# 4 0.000000 0.000000 0.000000 0.037150 0.000000 0.000000
# 5 0.000000 0.000000 0.000000 0.000000 0.069668 0.000000
# 6 0.000000 0.000000 0.000000 0.000000 0.000000 0.047553
#
#
# Mechanical properties :
#
#
# Convention : Reuss Voigt Hill
#
# Bulk Modulus (GPa) = 47.04478 58.00441 52.52459
# Shear Modulus (GPa) = 21.05855 23.57519 22.31687
#
# Velocity S-wave (km/s) = 3.44032 3.64009 3.54162
# Velocity P-wave (km/s) = 6.49787 7.09000 6.80038
#
# Compressibility (1/GPa) = 0.02125634
#
# Stress axis : x y z
#
# Youngs Moduli (GPa) = 46.68502 57.39468 102.32234
#
# Poissons Ratio (x) = 0.24303 0.49435
# Poissons Ratio (y) = 0.19768 0.47215
# Poissons Ratio (z) = 0.22555 0.26484
#
# Static dielectric constant tensor:
#      x y z
#    x 2.865260 0.000000 0.000000 
#    y 0.000000 3.209160 0.000000 
#    z 0.000000 0.000000 3.851450 
# 
# 
# High freq. dielectric constant tensor:
#      x y z
#    x 1.638450 0.000000 0.000000 
#    y 0.000000 1.678570 0.000000 
#    z 0.000000 0.000000 1.711540 
# 
# From -- ./inp_files/31351.got.cif
#   From: 2010.03.12/outbox.cif.g09.slc.cpg/sg47_16_cif.got.tgz:31351.got - 2010.04.14 03:12:58.
