data_PCOD8194439
_publ_section_title
;
Structure prediction by ZEFSAII (Michael W. Deem and Ramdas Pophale) SiO2 
 PCOD8194439
Probable space group: P M M M
;
_chemical_formula_sum "Si O2"
_cell_formula_units_Z 40
_cell_length_a 12.462120
_cell_length_b 9.265316
_cell_length_c 19.300357
_cell_angle_alpha 90.000000
_cell_angle_beta 90.000000
_cell_angle_gamma 90.000000
_cell_volume 2228.524982
_symmetry_space_group_name_H-M "P M M M"
_symmetry_group_IT_number 47
_symmetry_cell_setting 'orthorhombic'
loop_
_space_group_symop_operation_xyz
x,y,z
-x,-y,z
x,-y,-z
-x,y,-z
-x,-y,-z
x,y,-z
-x,y,z
x,-y,z
loop_
_atom_site_type_symbol
_atom_site_label
_atom_site_fract_x
_atom_site_fract_y
_atom_site_fract_z
Si Si1 0.500000 0.828395 0.922753
Si Si2 0.208532 0.831238 0.579882
Si Si3 0.296707 0.828825 0.162700
Si Si4 0.000000 0.337112 0.582304
Si Si5 0.875389 0.333076 0.078423
Si Si6 0.620079 0.170918 0.309684
O O1 0.605215 0.771755 0.883892
O O2 0.500000 0.000000 0.923207
O O3 0.500000 0.764345 0.000000
O O4 0.232705 0.794340 0.500000
O O5 0.105700 0.745347 0.608854
O O6 0.312049 0.780485 0.623341
O O7 0.184341 0.000000 0.590104
O O8 0.187955 0.759918 0.134602
O O9 0.318954 0.775087 0.240835
O O10 0.284750 0.000000 0.158958
O O11 0.000000 0.500000 0.611506
O O12 0.000000 0.335612 0.500000
O O13 0.846500 0.500000 0.088492
O O14 0.000000 0.305409 0.092614
O O15 0.846089 0.284548 0.000000
O O16 0.500000 0.237704 0.314457
O O17 0.609811 0.000000 0.306484
#
# Coordination Sequence:
#
# PCOD8194439 Si02
#       6
#     4   8   8   4   8   8
#     4   9  16  26  45  73  98 122 156 197 241 287
#     4   9  17  30  51  77 102 131 168 206 244 292
#     4  10  18  31  51  74 100 130 164 204 246 291
#     4   9  17  31  51  73  99 129 162 205 252 293
#     4   9  19  36  54  71  97 132 164 200 250 300
#     4   9  17  31  50  73 103 134 163 202 252 295
#
# _framework density 17.949093000000001
#
# number of rings (size 3 to 8) (size 9 to 14) (size 15 to 20)
#    0.000    2.800    1.000    1.500    0.000    3.200 
#    1.800    4.500    0.000    3.600    0.000    2.800 
#    0.000    0.000    0.000    0.000    0.000    0.000 
#
# Total GULP energy -495950.187728 kJ/mol
# GULP energy per Si atom -12398.754693 kJ/mol
# Density = 1.790824 g / cm^3
# Si number density = 17.949093 Si / 1000 Ang^3
#
#
#
# Elastic Constant Matrix: (Units=GPa)
#
#
# Indices 1 2 3 4 5 6 
#
# 1 136.1963 45.9733 76.8887 0.0000 0.0000 0.0000
# 2 45.9733 43.2143 33.4466 0.0000 0.0000 0.0000
# 3 76.8887 33.4466 118.7132 0.0000 0.0000 0.0000
# 4 0.0000 0.0000 0.0000 14.6517 0.0000 0.0000
# 5 0.0000 0.0000 0.0000 0.0000 31.3949 0.0000
# 6 0.0000 0.0000 0.0000 0.0000 0.0000 7.4216
#
#
#
# Elastic Compliance Matrix: (Units=1/GPa)
#
#
# Indices 1 2 3 4 5 6 
#
# 1 0.014512 -0.010441 -0.006458 0.000000 0.000000 0.000000
# 2 -0.010441 0.037105 -0.003692 0.000000 0.000000 0.000000
# 3 -0.006458 -0.003692 0.013646 0.000000 0.000000 0.000000
# 4 0.000000 0.000000 0.000000 0.068251 0.000000 0.000000
# 5 0.000000 0.000000 0.000000 0.000000 0.031852 0.000000
# 6 0.000000 0.000000 0.000000 0.000000 0.000000 0.134741
#
#
# Mechanical properties :
#
#
# Convention : Reuss Voigt Hill
#
# Bulk Modulus (GPa) = 41.52268 67.86009 54.69139
# Shear Modulus (GPa) = 14.31365 20.14801 17.23083
#
# Velocity S-wave (km/s) = 2.82699 3.35402 3.10172
# Velocity P-wave (km/s) = 5.81719 7.27244 6.58513
#
# Compressibility (1/GPa) = 0.02408322
#
# Stress axis : x y z
#
# Youngs Moduli (GPa) = 68.90686 26.95044 73.27921
#
# Poissons Ratio (x) = 0.28138 0.47322
# Poissons Ratio (y) = 0.71944 0.27053
# Poissons Ratio (z) = 0.44499 0.09950
#
# Static dielectric constant tensor:
#      x y z
#    x 3.428810 0.000000 0.000000 
#    y 0.000000 2.965770 0.000000 
#    z 0.000000 0.000000 3.343260 
# 
# 
# High freq. dielectric constant tensor:
#      x y z
#    x 1.703380 0.000000 0.000000 
#    y 0.000000 1.655200 0.000000 
#    z 0.000000 0.000000 1.690780 
# 
# From -- ./inp_files/10690.got.cif
#   From: 2010.03.12/outbox.cif.g09.slc.cpg/sg47_6_cif.got.tgz:10690.got - 2010.04.14 03:12:58.
