data_PCOD8194799
_publ_section_title
;
Structure prediction by ZEFSAII (Michael W. Deem and Ramdas Pophale) SiO2 
 PCOD8194799
Probable space group: P M M M
;
_chemical_formula_sum "Si O2"
_cell_formula_units_Z 36
_cell_length_a 12.911436
_cell_length_b 19.565765
_cell_length_c 8.954346
_cell_angle_alpha 90.000000
_cell_angle_beta 90.000000
_cell_angle_gamma 90.000000
_cell_volume 2262.065893
_symmetry_space_group_name_H-M "P M M M"
_symmetry_group_IT_number 47
_symmetry_cell_setting 'orthorhombic'
loop_
_space_group_symop_operation_xyz
x,y,z
-x,-y,z
x,-y,-z
-x,y,-z
-x,-y,-z
x,y,-z
-x,y,z
x,-y,z
loop_
_atom_site_type_symbol
_atom_site_label
_atom_site_fract_x
_atom_site_fract_y
_atom_site_fract_z
Si Si1 0.377694 0.791165 0.671710
Si Si2 0.688230 0.342785 0.822659
Si Si3 0.885802 0.576399 0.822778
Si Si4 0.500000 0.580673 0.327093
Si Si5 0.377023 0.925036 0.167749
O O1 0.348566 0.780985 0.500000
O O2 0.500000 0.783342 0.698903
O O3 0.319281 0.735096 0.769883
O O4 0.336464 0.865618 0.722990
O O5 0.798664 0.371368 0.765166
O O6 0.600820 0.389216 0.749904
O O7 0.676275 0.346281 0.000000
O O8 0.861800 0.500000 0.762311
O O9 0.000000 0.600009 0.766527
O O10 0.884487 0.574766 0.000000
O O11 0.500000 0.500000 0.305813
O O12 0.500000 0.602618 0.500000
O O13 0.500000 0.925141 0.168777
O O14 0.337227 0.000000 0.222006
O O15 0.336924 0.910622 0.000000
#
# Coordination Sequence:
#
# PCOD8194799 Si02
#       5
#     8   8   8   4   8
#     4  10  19  29  41  59  90 126 154 183 222 265
#     4  11  20  30  48  69  89 117 153 189 224 270
#     4   8  15  29  48  69  90 110 140 189 241 278
#     4  11  23  35  45  61  90 123 150 183 227 271
#     4   8  14  25  41  60  83 113 151 191 223 255
#
# _framework density 15.914656000000001
#
# number of rings (size 3 to 8) (size 9 to 14) (size 15 to 20)
#    0.000    2.556    1.111    3.667    0.000    3.111 
#    0.000    2.222    0.000    2.667    0.000    7.778 
#    0.000    0.889    0.000   10.222    0.000    3.333 
#
# Total GULP energy -446236.089470 kJ/mol
# GULP energy per Si atom -12395.446930 kJ/mol
# Density = 1.587843 g / cm^3
# Si number density = 15.914656 Si / 1000 Ang^3
#
#
#
# Elastic Constant Matrix: (Units=GPa)
#
#
# Indices 1 2 3 4 5 6 
#
# 1 86.4449 55.7429 35.1795 0.0000 0.0000 0.0000
# 2 55.7429 126.8267 51.1377 0.0000 0.0000 0.0000
# 3 35.1795 51.1377 71.7256 0.0000 0.0000 0.0000
# 4 0.0000 0.0000 0.0000 25.0105 0.0000 0.0000
# 5 0.0000 0.0000 0.0000 0.0000 1.2408 0.0000
# 6 0.0000 0.0000 0.0000 0.0000 0.0000 12.8237
#
#
#
# Elastic Compliance Matrix: (Units=1/GPa)
#
#
# Indices 1 2 3 4 5 6 
#
# 1 0.017011 -0.005772 -0.004228 0.000000 0.000000 0.000000
# 2 -0.005772 0.013024 -0.006455 0.000000 0.000000 0.000000
# 3 -0.004228 -0.006455 0.020618 0.000000 0.000000 0.000000
# 4 0.000000 0.000000 0.000000 0.039983 0.000000 0.000000
# 5 0.000000 0.000000 0.000000 0.000000 0.805941 0.000000
# 6 0.000000 0.000000 0.000000 0.000000 0.000000 0.077980
#
#
# Mechanical properties :
#
#
# Convention : Reuss Voigt Hill
#
# Bulk Modulus (GPa) = 56.35997 63.23528 59.79762
# Shear Modulus (GPa) = 4.93398 17.34415 11.13906
#
# Velocity S-wave (km/s) = 1.76267 3.30483 2.64848
# Velocity P-wave (km/s) = 6.29551 7.37447 6.85624
#
# Compressibility (1/GPa) = 0.01774309
#
# Stress axis : x y z
#
# Youngs Moduli (GPa) = 58.78711 76.78007 48.50123
#
# Poissons Ratio (x) = 0.44314 0.20508
# Poissons Ratio (y) = 0.33930 0.31307
# Poissons Ratio (z) = 0.24857 0.49561
#
# Static dielectric constant tensor:
#      x y z
#    x 2.940160 0.000000 0.000000 
#    y 0.000000 3.345450 0.000000 
#    z 0.000000 0.000000 2.964340 
# 
# 
# High freq. dielectric constant tensor:
#      x y z
#    x 1.564720 0.000000 0.000000 
#    y 0.000000 1.622170 0.000000 
#    z 0.000000 0.000000 1.603350 
# 
# From -- ./inp_files/3937.got.cif
#   From: 2010.03.12/outbox.cif.g09.slc.cpg/sg47_2_cif.got.tgz:3937.got - 2010.04.14 03:12:58.
