data_PCOD8194029
_publ_section_title
;
Structure prediction by ZEFSAII (Michael W. Deem and Ramdas Pophale) SiO2 
 PCOD8194029
Probable space group: P M M M
;
_chemical_formula_sum "Si O2"
_cell_formula_units_Z 64
_cell_length_a 14.331953
_cell_length_b 9.051114
_cell_length_c 31.118110
_cell_angle_alpha 90.000000
_cell_angle_beta 90.000000
_cell_angle_gamma 90.000000
_cell_volume 4036.645600
_symmetry_space_group_name_H-M "P M M M"
_symmetry_group_IT_number 47
_symmetry_cell_setting 'orthorhombic'
loop_
_space_group_symop_operation_xyz
x,y,z
-x,-y,z
x,-y,-z
-x,y,-z
-x,-y,-z
x,y,-z
-x,y,z
x,-y,z
loop_
_atom_site_type_symbol
_atom_site_label
_atom_site_fract_x
_atom_site_fract_y
_atom_site_fract_z
Si Si1 0.898653 0.324668 0.753282
Si Si2 0.608165 0.327697 0.197580
Si Si3 0.281690 0.825731 0.121527
Si Si4 0.105625 0.328064 0.149343
Si Si5 0.389289 0.834805 0.454552
Si Si6 0.393943 0.176351 0.637987
Si Si7 0.708591 0.326266 0.714854
Si Si8 0.607924 0.330978 0.049579
O O1 0.898789 0.500000 0.754696
O O2 0.882851 0.269805 0.801882
O O3 0.814408 0.269399 0.723274
O O4 0.000000 0.267645 0.736186
O O5 0.500000 0.285685 0.194750
O O6 0.625617 0.500000 0.188686
O O7 0.663494 0.237251 0.162234
O O8 0.644519 0.283947 0.244678
O O9 0.176087 0.764968 0.120027
O O10 0.330710 0.779086 0.077514
O O11 0.280212 0.000000 0.124823
O O12 0.131944 0.500000 0.146080
O O13 0.000000 0.300887 0.133184
O O14 0.358440 0.754230 0.500000
O O15 0.500000 0.842904 0.452731
O O16 0.358405 0.761987 0.409023
O O17 0.348475 0.000000 0.456303
O O18 0.500000 0.228524 0.647266
O O19 0.325974 0.241947 0.673212
O O20 0.388565 0.000000 0.638457
O O21 0.704827 0.500000 0.705880
O O22 0.500000 0.297907 0.059036
O O23 0.630845 0.500000 0.061972
O O24 0.631567 0.301488 0.000000
#
# Coordination Sequence:
#
# PCOD8194029 Si02
#       8
#     8   8   8   8   8   8   8   8
#     4   8  14  27  48  68  83 106 147 194 229 260
#     4  10  20  33  47  63  88 125 166 198 218 253
#     4  12  23  32  48  75 105 129 150 186 236 283
#     4   9  17  33  56  74  90 119 160 199 230 267
#     4   7  10  19  36  55  74 102 144 187 220 255
#     4   9  17  27  39  58  86 118 149 182 221 267
#     4  10  18  29  45  63  86 116 151 188 224 264
#     4   9  19  37  59  78  96 124 163 201 231 265
#
# _framework density 15.854748000000001
#
# number of rings (size 3 to 8) (size 9 to 14) (size 15 to 20)
#    0.000    2.750    1.250    4.125    0.000    3.750 
#    0.000    0.625    0.000    1.125    0.000    4.375 
#    0.000    0.500    0.000    6.250    0.000    0.250 
#
# Total GULP energy -793053.231721 kJ/mol
# GULP energy per Si atom -12391.456746 kJ/mol
# Density = 1.581866 g / cm^3
# Si number density = 15.854748 Si / 1000 Ang^3
#
#
#
# Elastic Constant Matrix: (Units=GPa)
#
#
# Indices 1 2 3 4 5 6 
#
# 1 101.5291 39.4070 54.6277 0.0000 0.0000 0.0000
# 2 39.4070 50.4393 39.7145 0.0000 0.0000 0.0000
# 3 54.6277 39.7145 105.5373 0.0000 0.0000 0.0000
# 4 0.0000 0.0000 0.0000 -0.5069 0.0000 0.0000
# 5 0.0000 0.0000 0.0000 0.0000 8.5176 0.0000
# 6 0.0000 0.0000 0.0000 0.0000 0.0000 13.4594
#
#
#
# Elastic Compliance Matrix: (Units=1/GPa)
#
#
# Indices 1 2 3 4 5 6 
#
# 1 0.015812 -0.008397 -0.005025 0.000000 0.000000 0.000000
# 2 -0.008397 0.032633 -0.007933 0.000000 0.000000 0.000000
# 3 -0.005025 -0.007933 0.015062 0.000000 0.000000 0.000000
# 4 0.000000 0.000000 0.000000 -1.972613 0.000000 0.000000
# 5 0.000000 0.000000 0.000000 0.000000 0.117405 0.000000
# 6 0.000000 0.000000 0.000000 0.000000 0.000000 0.074297
#
#
# Mechanical properties :
#
#
# Convention : Reuss Voigt Hill
#
# Bulk Modulus (GPa) = 48.08649 58.33378 53.21013
# Shear Modulus (GPa) = -2.99803 12.54444 4.77321
#
# Velocity S-wave (km/s) = -1.37660 2.81590 1.73699
# Velocity P-wave (km/s) = 5.27906 6.88802 6.13650
#
# Compressibility (1/GPa) = 0.02079586
#
# Stress axis : x y z
#
# Youngs Moduli (GPa) = 63.24218 30.64369 66.39412
#
# Poissons Ratio (x) = 0.25733 0.33361
# Poissons Ratio (y) = 0.53107 0.52674
# Poissons Ratio (z) = 0.31777 0.24311
#
# Static dielectric constant tensor:
#      x y z
#    x 3.174980 0.000000 0.000000 
#    y 0.000000 2.711190 0.000000 
#    z 0.000000 0.000000 3.194310 
# 
# 
# High freq. dielectric constant tensor:
#      x y z
#    x 1.595530 0.000000 0.000000 
#    y 0.000000 1.578670 0.000000 
#    z 0.000000 0.000000 1.604760 
# 
# From -- ./inp_files/34670.got.cif
#   From: 2010.03.12/outbox.cif.g09.slc.cpg/sg47_18_cif.got.tgz:34670.got - 2010.04.14 03:12:58.
