data_PCOD8194358
_publ_section_title
;
Structure prediction by ZEFSAII (Michael W. Deem and Ramdas Pophale) SiO2 
 PCOD8194358
Probable space group: P M M M
;
_chemical_formula_sum "Si O2"
_cell_formula_units_Z 48
_cell_length_a 9.331401
_cell_length_b 15.101327
_cell_length_c 19.127740
_cell_angle_alpha 90.000000
_cell_angle_beta 90.000000
_cell_angle_gamma 90.000000
_cell_volume 2695.414898
_symmetry_space_group_name_H-M "P M M M"
_symmetry_group_IT_number 47
_symmetry_cell_setting 'orthorhombic'
loop_
_space_group_symop_operation_xyz
x,y,z
-x,-y,z
x,-y,-z
-x,y,-z
-x,-y,-z
x,y,-z
-x,y,z
x,-y,z
loop_
_atom_site_type_symbol
_atom_site_label
_atom_site_fract_x
_atom_site_fract_y
_atom_site_fract_z
Si Si1 0.835442 0.399892 0.318832
Si Si2 0.328823 0.000000 0.921325
Si Si3 0.330460 0.649790 0.818973
Si Si4 0.832552 0.756511 0.579995
Si Si5 0.329946 0.500000 0.922437
Si Si6 0.666855 0.897851 0.333048
Si Si7 0.669582 0.151052 0.179828
O O1 0.811607 0.500000 0.345993
O O2 0.738481 0.382804 0.252144
O O3 0.788660 0.333405 0.380173
O O4 0.000000 0.384166 0.297201
O O5 0.270027 0.913476 0.880476
O O6 0.500000 0.000000 0.923538
O O7 0.266443 0.000000 0.000000
O O8 0.500000 0.643688 0.808527
O O9 0.277035 0.587539 0.881983
O O10 0.281561 0.749265 0.837558
O O11 0.786884 0.743466 0.500000
O O12 0.749510 0.840304 0.610338
O O13 0.000000 0.776199 0.587544
O O14 0.500000 0.500000 0.927347
O O15 0.262162 0.500000 0.000000
O O16 0.500000 0.872958 0.336695
O O17 0.728952 0.877213 0.255761
O O18 0.693103 0.000000 0.351344
O O19 0.500000 0.141500 0.181466
#
# Coordination Sequence:
#
# PCOD8194358 Si02
#       7
#     8   4   8   8   4   8   8
#     4  10  20  34  54  78 102 130 170 216 256 304
#     4   9  16  26  42  70 108 139 164 204 257 303
#     4  10  18  30  52  75  99 135 173 209 251 301
#     4  10  22  38  54  76 106 135 166 211 264 311
#     4   9  18  30  45  73 108 133 162 210 261 305
#     4  10  19  33  55  78 104 137 173 212 254 304
#     4   9  16  27  45  71  99 131 170 208 246 292
#
# _framework density 17.808019000000002
#
# number of rings (size 3 to 8) (size 9 to 14) (size 15 to 20)
#    0.000    2.333    3.333    0.000    0.000    2.000 
#    0.000    6.667    0.000    1.000    0.000    2.333 
#    0.000    3.333    0.000    0.000    0.000    0.000 
#
# Total GULP energy -595182.739762 kJ/mol
# GULP energy per Si atom -12399.640412 kJ/mol
# Density = 1.776749 g / cm^3
# Si number density = 17.808019 Si / 1000 Ang^3
#
#
#
# Elastic Constant Matrix: (Units=GPa)
#
#
# Indices 1 2 3 4 5 6 
#
# 1 24.4602 32.9488 34.4656 0.0000 0.0000 0.0000
# 2 32.9488 158.5387 87.2402 0.0000 0.0000 0.0000
# 3 34.4656 87.2402 165.0951 0.0000 0.0000 0.0000
# 4 0.0000 0.0000 0.0000 34.0552 0.0000 0.0000
# 5 0.0000 0.0000 0.0000 0.0000 12.4734 0.0000
# 6 0.0000 0.0000 0.0000 0.0000 0.0000 21.4031
#
#
#
# Elastic Compliance Matrix: (Units=1/GPa)
#
#
# Indices 1 2 3 4 5 6 
#
# 1 0.065216 -0.008547 -0.009098 0.000000 0.000000 0.000000
# 2 -0.008547 0.010014 -0.003507 0.000000 0.000000 0.000000
# 3 -0.009098 -0.003507 0.009810 0.000000 0.000000 0.000000
# 4 0.000000 0.000000 0.000000 0.029364 0.000000 0.000000
# 5 0.000000 0.000000 0.000000 0.000000 0.080171 0.000000
# 6 0.000000 0.000000 0.000000 0.000000 0.000000 0.046722
#
#
# Mechanical properties :
#
#
# Convention : Reuss Voigt Hill
#
# Bulk Modulus (GPa) = 23.40037 73.04479 48.22258
# Shear Modulus (GPa) = 16.78719 26.48229 21.63474
#
# Velocity S-wave (km/s) = 3.07363 3.86048 3.48930
# Velocity P-wave (km/s) = 5.07594 7.80884 6.58571
#
# Compressibility (1/GPa) = 0.04273437
#
# Stress axis : x y z
#
# Youngs Moduli (GPa) = 15.33375 99.86091 101.93941
#
# Poissons Ratio (x) = 0.85353 0.92744
# Poissons Ratio (y) = 0.13106 0.35753
# Poissons Ratio (z) = 0.13951 0.35024
#
# Static dielectric constant tensor:
#      x y z
#    x 2.922940 0.000000 0.000000 
#    y 0.000000 3.622670 0.000000 
#    z 0.000000 0.000000 3.442670 
# 
# 
# High freq. dielectric constant tensor:
#      x y z
#    x 1.644110 0.000000 0.000000 
#    y 0.000000 1.708150 0.000000 
#    z 0.000000 0.000000 1.688860 
# 
# From -- ./inp_files/26486.got.cif
#   From: 2010.03.12/outbox.cif.g09.slc.cpg/sg47_14_cif.got.tgz:26486.got - 2010.04.14 03:12:58.
