data_PCOD8194959
_publ_section_title
;
Structure prediction by ZEFSAII (Michael W. Deem and Ramdas Pophale) SiO2 
 PCOD8194959
Probable space group: P M M M
;
_chemical_formula_sum "Si O2"
_cell_formula_units_Z 64
_cell_length_a 14.327781
_cell_length_b 9.429116
_cell_length_c 26.026446
_cell_angle_alpha 90.000000
_cell_angle_beta 90.000000
_cell_angle_gamma 90.000000
_cell_volume 3516.128846
_symmetry_space_group_name_H-M "P M M M"
_symmetry_group_IT_number 47
_symmetry_cell_setting 'orthorhombic'
loop_
_space_group_symop_operation_xyz
x,y,z
-x,-y,z
x,-y,-z
-x,y,-z
-x,-y,-z
x,y,-z
-x,y,z
x,-y,z
loop_
_atom_site_type_symbol
_atom_site_label
_atom_site_fract_x
_atom_site_fract_y
_atom_site_fract_z
Si Si1 0.775039 0.332324 0.349080
Si Si2 0.108359 0.664877 0.751075
Si Si3 0.606572 0.833577 0.315239
Si Si4 0.104143 0.331788 0.556789
Si Si5 0.893207 0.834034 0.850339
Si Si6 0.390954 0.335076 0.894997
Si Si7 0.238883 0.162917 0.057278
Si Si8 0.610019 0.155200 0.200162
O O1 0.759705 0.500000 0.351385
O O2 0.833934 0.288125 0.298939
O O3 0.674528 0.256857 0.351166
O O4 0.828210 0.272466 0.399194
O O5 0.122929 0.500000 0.763299
O O6 0.145864 0.752938 0.800149
O O7 0.000000 0.699471 0.740183
O O8 0.500000 0.787837 0.326313
O O9 0.636842 0.794511 0.257079
O O10 0.619177 0.000000 0.325397
O O11 0.140328 0.286333 0.500000
O O12 0.100207 0.500000 0.561042
O O13 0.000000 0.271063 0.565719
O O14 0.837103 0.786494 0.901092
O O15 0.000000 0.790272 0.860373
O O16 0.883091 0.000000 0.839669
O O17 0.500000 0.306760 0.904975
O O18 0.367614 0.500000 0.894562
O O19 0.332437 0.257510 0.939210
O O20 0.355399 0.270332 0.840814
O O21 0.267128 0.000000 0.066689
O O22 0.197002 0.183298 0.000000
O O23 0.500000 0.138984 0.197536
O O24 0.654572 0.000000 0.187669
#
# Coordination Sequence:
#
# PCOD8194959 Si02
#       8
#     8   8   8   8   8   8   8   8
#     4  10  19  29  48  79 107 134 172 216 256 295
#     4   9  18  32  49  73 107 138 159 189 243 308
#     4   9  19  34  49  68  99 139 177 211 252 302
#     4   8  14  27  49  76 106 140 177 216 257 303
#     4   9  19  36  56  76  98 126 162 204 247 294
#     4  10  21  35  52  75 102 130 160 200 250 300
#     4  10  22  38  55  75  97 126 166 208 249 297
#     4   8  15  30  50  69  91 124 165 203 241 291
#
# _framework density 18.201837000000001
#
# number of rings (size 3 to 8) (size 9 to 14) (size 15 to 20)
#    0.000    2.875    0.000    1.875    1.750    4.750 
#    0.000    3.750    0.000    1.875    0.000    6.125 
#    0.000    0.000    0.000    0.000    0.000    0.000 
#
# Total GULP energy -793451.094873 kJ/mol
# GULP energy per Si atom -12397.673357 kJ/mol
# Density = 1.816041 g / cm^3
# Si number density = 18.201837 Si / 1000 Ang^3
#
#
#
# Elastic Constant Matrix: (Units=GPa)
#
#
# Indices 1 2 3 4 5 6 
#
# 1 89.7127 39.2233 70.7911 0.0000 0.0000 0.0000
# 2 39.2233 52.0630 45.9654 0.0000 0.0000 0.0000
# 3 70.7911 45.9654 140.0507 0.0000 0.0000 0.0000
# 4 0.0000 0.0000 0.0000 -22.5758 0.0000 0.0000
# 5 0.0000 0.0000 0.0000 0.0000 31.0478 0.0000
# 6 0.0000 0.0000 0.0000 0.0000 0.0000 24.8559
#
#
#
# Elastic Compliance Matrix: (Units=1/GPa)
#
#
# Indices 1 2 3 4 5 6 
#
# 1 0.021269 -0.009197 -0.007732 0.000000 0.000000 0.000000
# 2 -0.009197 0.031021 -0.005532 0.000000 0.000000 0.000000
# 3 -0.007732 -0.005532 0.012864 0.000000 0.000000 0.000000
# 4 0.000000 0.000000 0.000000 -0.044295 0.000000 0.000000
# 5 0.000000 0.000000 0.000000 0.000000 0.032208 0.000000
# 6 0.000000 0.000000 0.000000 0.000000 0.000000 0.040232
#
#
# Mechanical properties :
#
#
# Convention : Reuss Voigt Hill
#
# Bulk Modulus (GPa) = 49.42937 65.97620 57.70279
# Shear Modulus (GPa) = 34.49061 15.05536 24.77299
#
# Velocity S-wave (km/s) = 4.35776 2.87911 3.69320
# Velocity P-wave (km/s) = 7.24813 6.88317 7.06801
#
# Compressibility (1/GPa) = 0.02023089
#
# Stress axis : x y z
#
# Youngs Moduli (GPa) = 47.01612 32.23643 77.73333
#
# Poissons Ratio (x) = 0.29648 0.60107
# Poissons Ratio (y) = 0.43241 0.43005
# Poissons Ratio (z) = 0.36355 0.17834
#
# Static dielectric constant tensor:
#      x y z
#    x 3.332610 0.000000 0.000000 
#    y 0.000000 3.154040 0.000000 
#    z 0.000000 0.000000 3.463820 
# 
# 
# High freq. dielectric constant tensor:
#      x y z
#    x 1.702920 0.000000 0.000000 
#    y 0.000000 1.684320 0.000000 
#    z 0.000000 0.000000 1.694840 
# 
# From -- ./inp_files/32806.got.cif
#   From: 2010.03.12/outbox.cif.g09.slc.cpg/sg47_17_cif.got.tgz:32806.got - 2010.04.14 03:12:58.
