data_PCOD8194255
_publ_section_title
;
Structure prediction by ZEFSAII (Michael W. Deem and Ramdas Pophale) SiO2 
 PCOD8194255
Probable space group: P M M M
;
_chemical_formula_sum "Si O2"
_cell_formula_units_Z 40
_cell_length_a 12.893997
_cell_length_b 8.819388
_cell_length_c 19.839473
_cell_angle_alpha 90.000000
_cell_angle_beta 90.000000
_cell_angle_gamma 90.000000
_cell_volume 2256.088573
_symmetry_space_group_name_H-M "P M M M"
_symmetry_group_IT_number 47
_symmetry_cell_setting 'orthorhombic'
loop_
_space_group_symop_operation_xyz
x,y,z
-x,-y,z
x,-y,-z
-x,y,-z
-x,-y,-z
x,y,-z
-x,y,z
x,-y,z
loop_
_atom_site_type_symbol
_atom_site_label
_atom_site_fract_x
_atom_site_fract_y
_atom_site_fract_z
Si Si1 0.223684 0.675173 0.819287
Si Si2 0.383842 0.680459 0.074980
Si Si3 0.000000 0.326877 0.806582
Si Si4 0.381167 0.825359 0.422046
Si Si5 0.210332 0.678518 0.667114
Si Si6 0.000000 0.823385 0.333344
O O1 0.253828 0.500000 0.815899
O O2 0.304286 0.754423 0.870781
O O3 0.106095 0.698299 0.848687
O O4 0.230509 0.741094 0.743289
O O5 0.500000 0.730041 0.095566
O O6 0.374835 0.500000 0.074147
O O7 0.357307 0.741907 0.000000
O O8 0.000000 0.500000 0.777190
O O9 0.000000 0.208755 0.745948
O O10 0.361146 0.788341 0.500000
O O11 0.500000 0.789401 0.403123
O O12 0.308655 0.718828 0.377886
O O13 0.355334 0.000000 0.406690
O O14 0.193803 0.500000 0.668185
O O15 0.105583 0.751980 0.635787
O O16 0.000000 0.000000 0.349354
#
# Coordination Sequence:
#
# PCOD8194255 Si02
#       6
#     8   8   4   8   8   4
#     4   8  14  24  38  57  84 116 147 183 228 272
#     4   8  13  21  33  51  80 118 153 182 218 269
#     4   8  14  26  41  59  87 118 145 182 233 279
#     4   9  19  36  54  71  96 129 160 192 233 280
#     4  10  19  31  49  73  99 124 155 198 241 282
#     4  10  18  30  49  70  95 127 159 191 233 286
#
# _framework density 17.729799
#
# number of rings (size 3 to 8) (size 9 to 14) (size 15 to 20)
#    0.000    3.200    0.000    3.900    0.000    1.600 
#    0.000    4.000    0.000    6.000    0.000    0.000 
#    0.000   32.800    0.000   57.200    0.000   51.600 
#
# Total GULP energy -495609.633826 kJ/mol
# GULP energy per Si atom -12390.240846 kJ/mol
# Density = 1.768945 g / cm^3
# Si number density = 17.729799 Si / 1000 Ang^3
#
#
#
# Elastic Constant Matrix: (Units=GPa)
#
#
# Indices 1 2 3 4 5 6 
#
# 1 149.7783 32.2577 72.0141 0.0000 0.0000 0.0000
# 2 32.2577 47.7293 20.5128 0.0000 0.0000 0.0000
# 3 72.0141 20.5128 72.7714 0.0000 0.0000 0.0000
# 4 0.0000 0.0000 0.0000 8.6118 0.0000 0.0000
# 5 0.0000 0.0000 0.0000 0.0000 13.2937 0.0000
# 6 0.0000 0.0000 0.0000 0.0000 0.0000 23.6913
#
#
#
# Elastic Compliance Matrix: (Units=1/GPa)
#
#
# Indices 1 2 3 4 5 6 
#
# 1 0.013315 -0.003796 -0.012106 0.000000 0.000000 0.000000
# 2 -0.003796 0.024922 -0.003269 0.000000 0.000000 0.000000
# 3 -0.012106 -0.003269 0.026643 0.000000 0.000000 0.000000
# 4 0.000000 0.000000 0.000000 0.116120 0.000000 0.000000
# 5 0.000000 0.000000 0.000000 0.000000 0.075224 0.000000
# 6 0.000000 0.000000 0.000000 0.000000 0.000000 0.042210
#
#
# Mechanical properties :
#
#
# Convention : Reuss Voigt Hill
#
# Bulk Modulus (GPa) = 37.68130 57.76092 47.72111
# Shear Modulus (GPa) = 14.46674 18.81898 16.64286
#
# Velocity S-wave (km/s) = 2.85959 3.26150 3.06714
# Velocity P-wave (km/s) = 5.67470 6.84341 6.28628
#
# Compressibility (1/GPa) = 0.02653836
#
# Stress axis : x y z
#
# Youngs Moduli (GPa) = 75.10443 40.12583 37.53288
#
# Poissons Ratio (x) = 0.15231 0.45438
# Poissons Ratio (y) = 0.28508 0.12268
# Poissons Ratio (z) = 0.90924 0.13115
#
# Static dielectric constant tensor:
#      x y z
#    x 3.647930 0.000000 0.000000 
#    y 0.000000 2.831450 0.000000 
#    z 0.000000 0.000000 3.246590 
# 
# 
# High freq. dielectric constant tensor:
#      x y z
#    x 1.704930 0.000000 0.000000 
#    y 0.000000 1.643510 0.000000 
#    z 0.000000 0.000000 1.656810 
# 
# From -- ./inp_files/30348.got.cif
#   From: 2010.03.12/outbox.cif.g09.slc.cpg/sg47_16_cif.got.tgz:30348.got - 2010.04.14 03:12:58.
