data_PCOD8194009
_publ_section_title
;
Structure prediction by ZEFSAII (Michael W. Deem and Ramdas Pophale) SiO2 
 PCOD8194009
Probable space group: P M M M
;
_chemical_formula_sum "Si O2"
_cell_formula_units_Z 56
_cell_length_a 16.577913
_cell_length_b 28.560271
_cell_length_c 9.500591
_cell_angle_alpha 90.000000
_cell_angle_beta 90.000000
_cell_angle_gamma 90.000000
_cell_volume 4498.241856
_symmetry_space_group_name_H-M "P M M M"
_symmetry_group_IT_number 47
_symmetry_cell_setting 'orthorhombic'
loop_
_space_group_symop_operation_xyz
x,y,z
-x,-y,z
x,-y,-z
-x,y,-z
-x,-y,-z
x,y,-z
-x,y,z
x,-y,z
loop_
_atom_site_type_symbol
_atom_site_label
_atom_site_fract_x
_atom_site_fract_y
_atom_site_fract_z
Si Si1 0.000000 0.555662 0.659004
Si Si2 0.595844 0.134845 0.841832
Si Si3 0.594709 0.674226 0.664994
Si Si4 0.404043 0.948654 0.657916
Si Si5 0.595618 0.238022 0.157476
Si Si6 0.149935 0.446025 0.160517
Si Si7 0.590280 0.500000 0.167141
Si Si8 0.322594 0.592821 0.163904
O O1 0.079765 0.573636 0.738738
O O2 0.000000 0.500000 0.662019
O O3 0.000000 0.575182 0.500000
O O4 0.500000 0.132718 0.831849
O O5 0.634706 0.093484 0.748350
O O6 0.625987 0.186480 0.792805
O O7 0.624950 0.125807 0.000000
O O8 0.614073 0.674523 0.500000
O O9 0.500000 0.665556 0.693755
O O10 0.624512 0.723479 0.730355
O O11 0.646510 0.634803 0.741025
O O12 0.371682 0.942641 0.500000
O O13 0.500000 0.945289 0.660102
O O14 0.377810 0.000000 0.716594
O O15 0.500000 0.237210 0.150675
O O16 0.628640 0.249576 0.000000
O O17 0.172487 0.500000 0.194765
O O18 0.227211 0.413344 0.185083
O O19 0.119685 0.442258 0.000000
O O20 0.500000 0.500000 0.227295
O O21 0.634529 0.453787 0.222260
O O22 0.592340 0.500000 0.000000
O O23 0.343972 0.602127 0.000000
#
# Coordination Sequence:
#
# PCOD8194009 Si02
#       8
#     4   8   8   8   8   8   4   8
#     4   9  17  27  41  61  81  99 115 127 153 193
#     4   8  13  20  30  43  55  68  91 124 159 192
#     4  10  20  30  38  51  70  90 113 141 174 209
#     4   8  13  19  25  35  53  75  95 114 142 186
#     4   8  14  25  38  48  58  75 102 135 168 201
#     4   9  16  28  44  61  78  93 113 138 161 189
#     4   9  16  26  41  58  71  86 114 145 167 195
#     4  10  18  29  44  59  72  90 115 141 169 200
#
# _framework density 12.449308
#
# number of rings (size 3 to 8) (size 9 to 14) (size 15 to 20)
#    0.000    3.143    0.714    2.357    0.000    3.714 
#    0.000    4.643    0.000    1.286    0.000    0.000 
#    0.000    0.000    0.000    0.000    0.000    0.000 
#
# Total GULP energy -693995.366511 kJ/mol
# GULP energy per Si atom -12392.774402 kJ/mol
# Density = 1.242097 g / cm^3
# Si number density = 12.449308 Si / 1000 Ang^3
#
#
#
# Elastic Constant Matrix: (Units=GPa)
#
#
# Indices 1 2 3 4 5 6 
#
# 1 39.5191 24.8754 29.1246 0.0000 0.0000 0.0000
# 2 24.8754 108.7900 59.8784 0.0000 0.0000 0.0000
# 3 29.1246 59.8784 79.3817 0.0000 0.0000 0.0000
# 4 0.0000 0.0000 0.0000 18.1770 0.0000 0.0000
# 5 0.0000 0.0000 0.0000 0.0000 11.7242 0.0000
# 6 0.0000 0.0000 0.0000 0.0000 0.0000 0.9602
#
#
#
# Elastic Compliance Matrix: (Units=1/GPa)
#
#
# Indices 1 2 3 4 5 6 
#
# 1 0.034842 -0.001592 -0.011583 0.000000 0.000000 0.000000
# 2 -0.001592 0.015790 -0.011327 0.000000 0.000000 0.000000
# 3 -0.011583 -0.011327 0.025391 0.000000 0.000000 0.000000
# 4 0.000000 0.000000 0.000000 0.055014 0.000000 0.000000
# 5 0.000000 0.000000 0.000000 0.000000 0.085293 0.000000
# 6 0.000000 0.000000 0.000000 0.000000 0.000000 1.041490
#
#
# Mechanical properties :
#
#
# Convention : Reuss Voigt Hill
#
# Bulk Modulus (GPa) = 37.00820 50.60529 43.80674
# Shear Modulus (GPa) = 3.79988 13.75978 8.77983
#
# Velocity S-wave (km/s) = 1.74897 3.32816 2.65853
# Velocity P-wave (km/s) = 5.81981 7.45025 6.68492
#
# Compressibility (1/GPa) = 0.02702104
#
# Stress axis : x y z
#
# Youngs Moduli (GPa) = 28.70067 63.33017 39.38414
#
# Poissons Ratio (x) = 0.10080 0.45618
# Poissons Ratio (y) = 0.04568 0.44610
# Poissons Ratio (z) = 0.33244 0.71733
#
# Static dielectric constant tensor:
#      x y z
#    x 2.159250 0.000000 0.000000 
#    y 0.000000 2.748320 0.000000 
#    z 0.000000 0.000000 2.624230 
# 
# 
# High freq. dielectric constant tensor:
#      x y z
#    x 1.411700 0.000000 0.000000 
#    y 0.000000 1.466760 0.000000 
#    z 0.000000 0.000000 1.474090 
# 
# From -- ./inp_files/8189.got.cif
#   From: 2010.03.12/outbox.cif.g09.slc.cpg/sg47_5_cif.got.tgz:8189.got - 2010.04.14 03:12:58.
