data_PCOD8194938
_publ_section_title
;
Structure prediction by ZEFSAII (Michael W. Deem and Ramdas Pophale) SiO2 
 PCOD8194938
Probable space group: P M M M
;
_chemical_formula_sum "Si O2"
_cell_formula_units_Z 48
_cell_length_a 13.721325
_cell_length_b 8.975460
_cell_length_c 23.564357
_cell_angle_alpha 90.000000
_cell_angle_beta 90.000000
_cell_angle_gamma 90.000000
_cell_volume 2902.073186
_symmetry_space_group_name_H-M "P M M M"
_symmetry_group_IT_number 47
_symmetry_cell_setting 'orthorhombic'
loop_
_space_group_symop_operation_xyz
x,y,z
-x,-y,z
x,-y,-z
-x,y,-z
-x,-y,-z
x,y,-z
-x,y,z
x,-y,z
loop_
_atom_site_type_symbol
_atom_site_label
_atom_site_fract_x
_atom_site_fract_y
_atom_site_fract_z
Si Si1 0.295777 0.323944 0.667488
Si Si2 0.612318 0.827605 0.772820
Si Si3 0.106581 0.675682 0.271297
Si Si4 0.223150 0.675739 0.837746
Si Si5 0.888802 0.827911 0.934539
Si Si6 0.387893 0.172205 0.435260
O O1 0.308265 0.500000 0.673372
O O2 0.368584 0.248453 0.712085
O O3 0.184435 0.274107 0.681039
O O4 0.319894 0.272907 0.604064
O O5 0.500000 0.806415 0.788968
O O6 0.673959 0.751954 0.823135
O O7 0.641079 0.000000 0.767858
O O8 0.096080 0.500000 0.272257
O O9 0.144763 0.726023 0.209612
O O10 0.000000 0.748756 0.282730
O O11 0.239462 0.500000 0.838061
O O12 0.185016 0.728135 0.898555
O O13 0.000000 0.778722 0.922572
O O14 0.874670 0.000000 0.918256
O O15 0.862728 0.800991 0.000000
O O16 0.357048 0.202924 0.500000
O O17 0.500000 0.217369 0.425864
O O18 0.372560 0.000000 0.419645
#
# Coordination Sequence:
#
# PCOD8194938 Si02
#       6
#     8   8   8   8   8   8
#     4  10  19  29  46  72  96 119 150 191 235 273
#     4  10  20  33  49  68  93 127 160 188 227 283
#     4   8  15  28  44  64  92 122 149 180 222 271
#     4  10  19  30  48  73  97 122 155 198 242 278
#     4   9  18  32  49  70  98 131 163 194 230 276
#     4   9  18  32  48  65  88 121 156 187 226 279
#
# _framework density 16.539901
#
# number of rings (size 3 to 8) (size 9 to 14) (size 15 to 20)
#    0.000    2.667    0.000    4.500    0.000    5.333 
#    0.000    1.667    0.000   11.000    0.000    7.000 
#    0.000    0.000    0.000    0.000    0.000    0.000 
#
# Total GULP energy -595151.662352 kJ/mol
# GULP energy per Si atom -12398.992966 kJ/mol
# Density = 1.650226 g / cm^3
# Si number density = 16.539901 Si / 1000 Ang^3
#
#
#
# Elastic Constant Matrix: (Units=GPa)
#
#
# Indices 1 2 3 4 5 6 
#
# 1 110.0013 50.5917 56.2219 0.0000 0.0000 0.0000
# 2 50.5917 81.4927 46.2217 0.0000 0.0000 0.0000
# 3 56.2219 46.2217 96.0275 0.0000 0.0000 0.0000
# 4 0.0000 0.0000 0.0000 30.6239 0.0000 0.0000
# 5 0.0000 0.0000 0.0000 0.0000 27.5181 0.0000
# 6 0.0000 0.0000 0.0000 0.0000 0.0000 22.5334
#
#
#
# Elastic Compliance Matrix: (Units=1/GPa)
#
#
# Indices 1 2 3 4 5 6 
#
# 1 0.014762 -0.005863 -0.005821 0.000000 0.000000 0.000000
# 2 -0.005863 0.019208 -0.005813 0.000000 0.000000 0.000000
# 3 -0.005821 -0.005813 0.016620 0.000000 0.000000 0.000000
# 4 0.000000 0.000000 0.000000 0.032654 0.000000 0.000000
# 5 0.000000 0.000000 0.000000 0.000000 0.036340 0.000000
# 6 0.000000 0.000000 0.000000 0.000000 0.000000 0.044379
#
#
# Mechanical properties :
#
#
# Convention : Reuss Voigt Hill
#
# Bulk Modulus (GPa) = 64.11782 65.95469 65.03625
# Shear Modulus (GPa) = 24.49120 25.10082 24.79601
#
# Velocity S-wave (km/s) = 3.85221 3.89985 3.87610
# Velocity P-wave (km/s) = 7.65739 7.76152 7.70963
#
# Compressibility (1/GPa) = 0.01559629
#
# Stress axis : x y z
#
# Youngs Moduli (GPa) = 67.73929 52.06187 60.16990
#
# Poissons Ratio (x) = 0.30525 0.35024
# Poissons Ratio (y) = 0.39717 0.34975
# Poissons Ratio (z) = 0.39430 0.30262
#
# Static dielectric constant tensor:
#      x y z
#    x 3.226550 0.000000 0.000000 
#    y 0.000000 3.027360 0.000000 
#    z 0.000000 0.000000 3.000800 
# 
# 
# High freq. dielectric constant tensor:
#      x y z
#    x 1.629870 0.000000 0.000000 
#    y 0.000000 1.633530 0.000000 
#    z 0.000000 0.000000 1.625520 
# 
# From -- ./inp_files/7522.got.cif
#   From: 2010.03.12/outbox.cif.g09.slc.cpg/sg47_4_cif.got.tgz:7522.got - 2010.04.14 03:12:58.
