data_PCOD8194822
_publ_section_title
;
Structure prediction by ZEFSAII (Michael W. Deem and Ramdas Pophale) SiO2 
 PCOD8194822
Probable space group: P M M M
;
_chemical_formula_sum "Si O2"
_cell_formula_units_Z 48
_cell_length_a 12.788066
_cell_length_b 20.616085
_cell_length_c 11.568251
_cell_angle_alpha 90.000000
_cell_angle_beta 90.000000
_cell_angle_gamma 90.000000
_cell_volume 3049.852024
_symmetry_space_group_name_H-M "P M M M"
_symmetry_group_IT_number 47
_symmetry_cell_setting 'orthorhombic'
loop_
_space_group_symop_operation_xyz
x,y,z
-x,-y,z
x,-y,-z
-x,y,-z
-x,-y,-z
x,y,-z
-x,y,z
x,-y,z
loop_
_atom_site_type_symbol
_atom_site_label
_atom_site_fract_x
_atom_site_fract_y
_atom_site_fract_z
Si Si1 0.200391 0.864262 0.636862
Si Si2 0.200015 0.574325 0.370780
Si Si3 0.379743 0.768501 0.365338
Si Si4 0.000000 0.644652 0.638435
Si Si5 0.622037 0.573992 0.000000
Si Si6 0.000000 0.210108 0.362350
Si Si7 0.879304 0.000000 0.637757
Si Si8 0.621263 0.364947 0.240041
O O1 0.194331 0.865617 0.500000
O O2 0.308879 0.829771 0.674499
O O3 0.103249 0.823877 0.687567
O O4 0.186306 0.937725 0.683783
O O5 0.211894 0.600716 0.500000
O O6 0.168870 0.500000 0.367193
O O7 0.311532 0.584708 0.312790
O O8 0.104543 0.612119 0.309237
O O9 0.357291 0.749586 0.500000
O O10 0.500000 0.789570 0.349708
O O11 0.352173 0.708340 0.281002
O O12 0.000000 0.717360 0.683635
O O13 0.000000 0.637271 0.500000
O O14 0.653587 0.619361 0.108291
O O15 0.672413 0.500000 0.000000
O O16 0.500000 0.562235 0.000000
O O17 0.000000 0.207849 0.500000
O O18 0.883993 0.000000 0.500000
O O19 0.000000 0.000000 0.683478
O O20 0.500000 0.379920 0.263863
#
# Coordination Sequence:
#
# PCOD8194822 Si02
#       8
#     8   8   8   4   4   4   4   8
#     4   9  15  23  36  56  82 113 146 177 207 241
#     4  10  19  29  42  61  86 114 143 177 217 263
#     4   9  17  28  41  59  86 117 145 173 210 260
#     4   9  17  28  40  57  83 115 146 174 209 256
#     4   9  18  32  48  65  85 110 143 185 232 277
#     4   9  14  20  34  52  71  99 138 177 207 236
#     4   9  14  22  35  55  85 118 150 178 204 237
#     4  10  19  31  47  65  85 110 143 184 227 269
#
# _framework density 15.738467999999999
#
# number of rings (size 3 to 8) (size 9 to 14) (size 15 to 20)
#    0.000    2.667    0.833    2.250    0.000    5.667 
#    0.000    1.250    0.000    3.000    0.000    1.750 
#    0.000    0.667    0.000    6.083    0.000    1.750 
#
# Total GULP energy -594776.001641 kJ/mol
# GULP energy per Si atom -12391.166701 kJ/mol
# Density = 1.570265 g / cm^3
# Si number density = 15.738468 Si / 1000 Ang^3
#
#
#
# Elastic Constant Matrix: (Units=GPa)
#
#
# Indices 1 2 3 4 5 6 
#
# 1 92.3001 59.8561 30.4269 0.0000 0.0000 0.0000
# 2 59.8561 119.6089 40.0887 0.0000 0.0000 0.0000
# 3 30.4269 40.0887 44.1688 0.0000 0.0000 0.0000
# 4 0.0000 0.0000 0.0000 5.8769 0.0000 0.0000
# 5 0.0000 0.0000 0.0000 0.0000 4.3840 0.0000
# 6 0.0000 0.0000 0.0000 0.0000 0.0000 30.7313
#
#
#
# Elastic Compliance Matrix: (Units=1/GPa)
#
#
# Indices 1 2 3 4 5 6 
#
# 1 0.016992 -0.006583 -0.005731 0.000000 0.000000 0.000000
# 2 -0.006583 0.014566 -0.008686 0.000000 0.000000 0.000000
# 3 -0.005731 -0.008686 0.034472 0.000000 0.000000 0.000000
# 4 0.000000 0.000000 0.000000 0.170156 0.000000 0.000000
# 5 0.000000 0.000000 0.000000 0.000000 0.228105 0.000000
# 6 0.000000 0.000000 0.000000 0.000000 0.000000 0.032540
#
#
# Mechanical properties :
#
#
# Convention : Reuss Voigt Hill
#
# Bulk Modulus (GPa) = 41.61266 57.42457 49.51862
# Shear Modulus (GPa) = 9.14344 16.57885 12.86115
#
# Velocity S-wave (km/s) = 2.41293 3.24913 2.86174
# Velocity P-wave (km/s) = 5.85324 7.11630 6.51545
#
# Compressibility (1/GPa) = 0.02403115
#
# Stress axis : x y z
#
# Youngs Moduli (GPa) = 58.85032 68.65354 29.00922
#
# Poissons Ratio (x) = 0.45192 0.16625
# Poissons Ratio (y) = 0.38739 0.25197
# Poissons Ratio (z) = 0.33727 0.59631
#
# Static dielectric constant tensor:
#      x y z
#    x 3.093020 0.000000 0.000000 
#    y 0.000000 3.181570 0.000000 
#    z 0.000000 0.000000 2.651990 
# 
# 
# High freq. dielectric constant tensor:
#      x y z
#    x 1.610250 0.000000 0.000000 
#    y 0.000000 1.609750 0.000000 
#    z 0.000000 0.000000 1.533450 
# 
# From -- ./inp_files/16520.got.cif
#   From: 2010.03.12/outbox.cif.g09.slc.cpg/sg47_9_cif.got.tgz:16520.got - 2010.04.14 03:12:58.
