data_PCOD8194949
_publ_section_title
;
Structure prediction by ZEFSAII (Michael W. Deem and Ramdas Pophale) SiO2 
 PCOD8194949
Probable space group: P M M M
;
_chemical_formula_sum "Si O2"
_cell_formula_units_Z 64
_cell_length_a 25.033173
_cell_length_b 9.227793
_cell_length_c 14.905411
_cell_angle_alpha 90.000000
_cell_angle_beta 90.000000
_cell_angle_gamma 90.000000
_cell_volume 3443.163931
_symmetry_space_group_name_H-M "P M M M"
_symmetry_group_IT_number 47
_symmetry_cell_setting 'orthorhombic'
loop_
_space_group_symop_operation_xyz
x,y,z
-x,-y,z
x,-y,-z
-x,y,-z
-x,-y,-z
x,y,-z
-x,y,z
x,-y,z
loop_
_atom_site_type_symbol
_atom_site_label
_atom_site_fract_x
_atom_site_fract_y
_atom_site_fract_z
Si Si1 0.746232 0.166014 0.225353
Si Si2 0.192436 0.160826 0.401732
Si Si3 0.846228 0.829053 0.104551
Si Si4 0.940604 0.330677 0.791971
Si Si5 0.558738 0.327941 0.901502
Si Si6 0.637568 0.327731 0.246298
Si Si7 0.559741 0.672272 0.399346
Si Si8 0.912757 0.329230 0.597680
O O1 0.763179 0.186358 0.327915
O O2 0.792533 0.220610 0.156901
O O3 0.694516 0.264110 0.220430
O O4 0.732072 0.000000 0.202931
O O5 0.219428 0.175068 0.500000
O O6 0.147915 0.281660 0.389944
O O7 0.166794 0.000000 0.389708
O O8 0.897881 0.754916 0.148715
O O9 0.854201 0.000000 0.115373
O O10 0.841517 0.783913 0.000000
O O11 0.925302 0.500000 0.795730
O O12 0.943024 0.276252 0.687499
O O13 0.000000 0.303822 0.831801
O O14 0.500000 0.266167 0.879490
O O15 0.556966 0.500000 0.895130
O O16 0.600337 0.265284 0.831715
O O17 0.577009 0.277726 0.000000
O O18 0.643315 0.500000 0.247761
O O19 0.608384 0.270339 0.336982
O O20 0.571246 0.727935 0.500000
O O21 0.500000 0.725052 0.368671
O O22 0.559635 0.500000 0.395718
O O23 0.934884 0.269486 0.500000
O O24 0.915485 0.500000 0.593318
#
# Coordination Sequence:
#
# PCOD8194949 Si02
#       8
#     8   8   8   8   8   8   8   8
#     4  10  21  36  51  71 101 135 167 206 259 312
#     4   9  17  31  52  73  94 127 170 210 247 291
#     4  10  22  41  61  77  97 133 181 225 264 312
#     4  10  21  36  56  84 115 141 167 207 260 314
#     4   8  14  26  45  69  96 123 153 196 248 295
#     4  10  19  29  47  75 100 125 164 209 247 296
#     4   8  14  26  45  70 101 135 170 210 254 296
#     4   9  17  30  51  79 109 139 168 199 240 293
#
# _framework density 18.587557
#
# number of rings (size 3 to 8) (size 9 to 14) (size 15 to 20)
#    0.000    2.750    1.250    1.125    0.000    4.500 
#    0.000    2.500    0.000    1.500    0.000    4.375 
#    0.000    0.000    0.000    0.000    0.000    0.000 
#
# Total GULP energy -792842.294437 kJ/mol
# GULP energy per Si atom -12388.160851 kJ/mol
# Density = 1.854525 g / cm^3
# Si number density = 18.587557 Si / 1000 Ang^3
#
#
#
# Elastic Constant Matrix: (Units=GPa)
#
#
# Indices 1 2 3 4 5 6 
#
# 1 130.8752 31.4506 82.8170 0.0000 0.0000 0.0000
# 2 31.4506 17.5546 32.4542 0.0000 0.0000 0.0000
# 3 82.8170 32.4542 144.3153 0.0000 0.0000 0.0000
# 4 0.0000 0.0000 0.0000 18.8975 0.0000 0.0000
# 5 0.0000 0.0000 0.0000 0.0000 4.8919 0.0000
# 6 0.0000 0.0000 0.0000 0.0000 0.0000 0.2759
#
#
#
# Elastic Compliance Matrix: (Units=1/GPa)
#
#
# Indices 1 2 3 4 5 6 
#
# 1 0.014857 -0.018580 -0.004347 0.000000 0.000000 0.000000
# 2 -0.018580 0.120739 -0.016490 0.000000 0.000000 0.000000
# 3 -0.004347 -0.016490 0.013132 0.000000 0.000000 0.000000
# 4 0.000000 0.000000 0.000000 0.052917 0.000000 0.000000
# 5 0.000000 0.000000 0.000000 0.000000 0.204421 0.000000
# 6 0.000000 0.000000 0.000000 0.000000 0.000000 3.624574
#
#
# Mechanical properties :
#
#
# Convention : Reuss Voigt Hill
#
# Bulk Modulus (GPa) = 14.30751 65.13207 39.71979
# Shear Modulus (GPa) = 1.20984 14.54793 7.87889
#
# Velocity S-wave (km/s) = 0.80765 2.80066 2.06107
# Velocity P-wave (km/s) = 2.92981 6.75093 5.20379
#
# Compressibility (1/GPa) = 0.06989336
#
# Stress axis : x y z
#
# Youngs Moduli (GPa) = 67.30891 8.28235 76.14762
#
# Poissons Ratio (x) = 0.15389 0.33105
# Poissons Ratio (y) = 1.25061 1.25566
# Poissons Ratio (z) = 0.29262 0.13657
#
# Static dielectric constant tensor:
#      x y z
#    x 3.366720 0.000000 0.000000 
#    y 0.000000 3.064530 0.000000 
#    z 0.000000 0.000000 3.948320 
# 
# 
# High freq. dielectric constant tensor:
#      x y z
#    x 1.713630 0.000000 0.000000 
#    y 0.000000 1.678890 0.000000 
#    z 0.000000 0.000000 1.738340 
# 
# From -- ./inp_files/25567.got.cif
#   From: 2010.03.12/outbox.cif.g09.slc.cpg/sg47_13_cif.got.tgz:25567.got - 2010.04.14 03:12:58.
