data_PCOD8194237
_publ_section_title
;
Structure prediction by ZEFSAII (Michael W. Deem and Ramdas Pophale) SiO2 
 PCOD8194237
Probable space group: P M M M
;
_chemical_formula_sum "Si O2"
_cell_formula_units_Z 56
_cell_length_a 25.827413
_cell_length_b 14.075159
_cell_length_c 8.899739
_cell_angle_alpha 90.000000
_cell_angle_beta 90.000000
_cell_angle_gamma 90.000000
_cell_volume 3235.277126
_symmetry_space_group_name_H-M "P M M M"
_symmetry_group_IT_number 47
_symmetry_cell_setting 'orthorhombic'
loop_
_space_group_symop_operation_xyz
x,y,z
-x,-y,z
x,-y,-z
-x,y,-z
-x,-y,-z
x,y,-z
-x,y,z
x,-y,z
loop_
_atom_site_type_symbol
_atom_site_label
_atom_site_fract_x
_atom_site_fract_y
_atom_site_fract_z
Si Si1 0.801320 0.208429 0.825363
Si Si2 0.596361 0.215194 0.178145
Si Si3 0.362427 0.391623 0.675404
Si Si4 0.302164 0.105796 0.178265
Si Si5 0.500000 0.110789 0.322870
Si Si6 0.255034 0.393583 0.171571
Si Si7 0.000000 0.112796 0.831166
Si Si8 0.104044 0.891384 0.676815
O O1 0.750925 0.152769 0.765751
O O2 0.791658 0.320543 0.796118
O O3 0.849822 0.175883 0.729031
O O4 0.812182 0.186552 0.000000
O O5 0.597878 0.324011 0.235053
O O6 0.649114 0.165968 0.235569
O O7 0.549931 0.159036 0.252541
O O8 0.589657 0.212699 0.000000
O O9 0.367721 0.370899 0.500000
O O10 0.377380 0.500000 0.714868
O O11 0.303506 0.370775 0.723155
O O12 0.305853 0.000000 0.245938
O O13 0.302900 0.103194 0.000000
O O14 0.500000 0.126943 0.500000
O O15 0.500000 0.000000 0.280284
O O16 0.233756 0.500000 0.199583
O O17 0.274515 0.380068 0.000000
O O18 0.948676 0.149711 0.747946
O O19 0.000000 0.000000 0.827919
O O20 0.000000 0.152868 0.000000
O O21 0.098092 0.885760 0.500000
O O22 0.114696 0.000000 0.729169
#
# Coordination Sequence:
#
# PCOD8194237 Si02
#       8
#     8   8   8   8   4   8   4   8
#     4  10  18  30  48  73 103 136 171 209 254 304
#     4  11  21  37  59  81 104 137 179 220 259 305
#     4  10  20  34  54  80 109 139 169 209 265 322
#     4   9  17  29  47  73 103 132 166 208 252 297
#     4  11  25  43  60  81 110 141 173 214 262 311
#     4   9  17  31  51  75 103 135 174 217 258 305
#     4   9  17  31  51  71  92 129 178 219 255 300
#     4  10  20  32  46  69 103 139 173 213 257 300
#
# _framework density 17.309180000000001
#
# number of rings (size 3 to 8) (size 9 to 14) (size 15 to 20)
#    0.000    2.143    1.429    2.571    0.000    4.857 
#    0.000    0.357    0.000    4.714    0.000    0.500 
#    0.000    4.000    0.000    0.000    0.000    0.000 
#
# Total GULP energy -694452.581717 kJ/mol
# GULP energy per Si atom -12400.938959 kJ/mol
# Density = 1.726978 g / cm^3
# Si number density = 17.309180 Si / 1000 Ang^3
#
#
#
# Elastic Constant Matrix: (Units=GPa)
#
#
# Indices 1 2 3 4 5 6 
#
# 1 130.5029 62.4653 50.7232 0.0000 0.0000 0.0000
# 2 62.4653 118.3754 45.8343 0.0000 0.0000 0.0000
# 3 50.7232 45.8343 72.8462 0.0000 0.0000 0.0000
# 4 0.0000 0.0000 0.0000 22.7276 0.0000 0.0000
# 5 0.0000 0.0000 0.0000 0.0000 25.2112 0.0000
# 6 0.0000 0.0000 0.0000 0.0000 0.0000 13.8613
#
#
#
# Elastic Compliance Matrix: (Units=1/GPa)
#
#
# Indices 1 2 3 4 5 6 
#
# 1 0.011798 -0.004026 -0.005682 0.000000 0.000000 0.000000
# 2 -0.004026 0.012542 -0.005088 0.000000 0.000000 0.000000
# 3 -0.005682 -0.005088 0.020886 0.000000 0.000000 0.000000
# 4 0.000000 0.000000 0.000000 0.043999 0.000000 0.000000
# 5 0.000000 0.000000 0.000000 0.000000 0.039665 0.000000
# 6 0.000000 0.000000 0.000000 0.000000 0.000000 0.072144
#
#
# Mechanical properties :
#
#
# Convention : Reuss Voigt Hill
#
# Bulk Modulus (GPa) = 63.96502 71.08558 67.52530
# Shear Modulus (GPa) = 21.20108 23.20680 22.20394
#
# Velocity S-wave (km/s) = 3.50358 3.66556 3.58548
# Velocity P-wave (km/s) = 7.30762 7.68586 7.49912
#
# Compressibility (1/GPa) = 0.01563355
#
# Stress axis : x y z
#
# Youngs Moduli (GPa) = 84.75996 79.73118 47.87974
#
# Poissons Ratio (x) = 0.32096 0.27206
# Poissons Ratio (y) = 0.34121 0.24363
# Poissons Ratio (z) = 0.48162 0.40570
#
# Static dielectric constant tensor:
#      x y z
#    x 3.181530 0.000000 0.000000 
#    y 0.000000 3.410840 0.000000 
#    z 0.000000 0.000000 3.159210 
# 
# 
# High freq. dielectric constant tensor:
#      x y z
#    x 1.653710 0.000000 0.000000 
#    y 0.000000 1.665760 0.000000 
#    z 0.000000 0.000000 1.663620 
# 
# From -- ./inp_files/11360.got.cif
#   From: 2010.03.12/outbox.cif.g09.slc.cpg/sg47_6_cif.got.tgz:11360.got - 2010.04.14 03:12:58.
