data_PCOD8194506
_publ_section_title
;
Structure prediction by ZEFSAII (Michael W. Deem and Ramdas Pophale) SiO2 
 PCOD8194506
Probable space group: P M M M
;
_chemical_formula_sum "Si O2"
_cell_formula_units_Z 48
_cell_length_a 7.731257
_cell_length_b 18.138971
_cell_length_c 18.339820
_cell_angle_alpha 90.000000
_cell_angle_beta 90.000000
_cell_angle_gamma 90.000000
_cell_volume 2571.922190
_symmetry_space_group_name_H-M "P M M M"
_symmetry_group_IT_number 47
_symmetry_cell_setting 'orthorhombic'
loop_
_space_group_symop_operation_xyz
x,y,z
-x,-y,z
x,-y,-z
-x,y,-z
-x,-y,-z
x,y,-z
-x,y,z
x,-y,z
loop_
_atom_site_type_symbol
_atom_site_label
_atom_site_fract_x
_atom_site_fract_y
_atom_site_fract_z
Si Si1 0.201391 0.818314 0.716382
Si Si2 0.500000 0.178288 0.919353
Si Si3 0.808189 0.267725 0.861862
Si Si4 0.802074 0.271516 0.579344
Si Si5 0.703902 0.418450 0.185368
Si Si6 0.703100 0.418135 0.350467
Si Si7 0.500000 0.913053 0.775642
O O1 0.224054 0.757025 0.778681
O O2 0.275579 0.781137 0.642229
O O3 0.325664 0.886947 0.734548
O O4 0.000000 0.844094 0.710788
O O5 0.669651 0.229217 0.913701
O O6 0.500000 0.114299 0.859255
O O7 0.500000 0.142279 0.000000
O O8 0.791498 0.356377 0.864953
O O9 0.000000 0.245059 0.888573
O O10 0.712622 0.257589 0.500000
O O11 0.791117 0.357666 0.598722
O O12 0.000000 0.249679 0.573097
O O13 0.500000 0.406587 0.183643
O O14 0.752590 0.500000 0.155423
O O15 0.772223 0.410541 0.267987
O O16 0.500000 0.404679 0.352215
O O17 0.748789 0.500000 0.380118
O O18 0.500000 0.000000 0.776079
#
# Coordination Sequence:
#
# PCOD8194506 Si02
#       7
#     8   4   8   8   8   8   4
#     4   9  19  35  55  81 112 141 179 226 264 306
#     4  10  22  39  59  85 119 144 158 197 257 312
#     4  10  18  31  55  80 104 143 190 225 259 308
#     4  10  20  32  47  69 101 145 190 231 278 321
#     4   9  16  27  46  72 103 140 184 237 286 315
#     4   9  18  29  43  66 100 142 186 235 286 327
#     4  10  22  39  65  93 111 135 169 200 246 319
#
# _framework density 18.663084000000001
#
# number of rings (size 3 to 8) (size 9 to 14) (size 15 to 20)
#    0.000    2.500    2.500    1.000    1.167    2.167 
#    0.000    3.333    0.000    2.000    0.000    8.167 
#    0.000    0.000    0.000    0.000    0.000    0.000 
#
# Total GULP energy -594943.549134 kJ/mol
# GULP energy per Si atom -12394.657274 kJ/mol
# Density = 1.862061 g / cm^3
# Si number density = 18.663084 Si / 1000 Ang^3
#
#
#
# Elastic Constant Matrix: (Units=GPa)
#
#
# Indices 1 2 3 4 5 6 
#
# 1 80.2892 40.1392 28.3775 0.0000 0.0000 0.0000
# 2 40.1392 126.7721 44.9363 0.0000 0.0000 0.0000
# 3 28.3775 44.9363 88.9353 0.0000 0.0000 0.0000
# 4 0.0000 0.0000 0.0000 14.3525 0.0000 0.0000
# 5 0.0000 0.0000 0.0000 0.0000 11.9326 0.0000
# 6 0.0000 0.0000 0.0000 0.0000 0.0000 20.4874
#
#
#
# Elastic Compliance Matrix: (Units=1/GPa)
#
#
# Indices 1 2 3 4 5 6 
#
# 1 0.015423 -0.003824 -0.002989 0.000000 0.000000 0.000000
# 2 -0.003824 0.010557 -0.004114 0.000000 0.000000 0.000000
# 3 -0.002989 -0.004114 0.014277 0.000000 0.000000 0.000000
# 4 0.000000 0.000000 0.000000 0.069674 0.000000 0.000000
# 5 0.000000 0.000000 0.000000 0.000000 0.083804 0.000000
# 6 0.000000 0.000000 0.000000 0.000000 0.000000 0.048811
#
#
# Mechanical properties :
#
#
# Convention : Reuss Voigt Hill
#
# Bulk Modulus (GPa) = 54.33961 58.10032 56.21997
# Shear Modulus (GPa) = 18.48195 21.52406 20.00301
#
# Velocity S-wave (km/s) = 3.15031 3.39971 3.27738
# Velocity P-wave (km/s) = 6.51244 6.82711 6.67163
#
# Compressibility (1/GPa) = 0.01840278
#
# Stress axis : x y z
#
# Youngs Moduli (GPa) = 64.83780 94.72214 70.04432
#
# Poissons Ratio (x) = 0.36220 0.20937
# Poissons Ratio (y) = 0.24793 0.28817
# Poissons Ratio (z) = 0.19381 0.38970
#
# Static dielectric constant tensor:
#      x y z
#    x 3.430430 0.000000 0.000000 
#    y 0.000000 3.145630 0.000000 
#    z 0.000000 0.000000 3.350790 
# 
# 
# High freq. dielectric constant tensor:
#      x y z
#    x 1.726230 0.000000 0.000000 
#    y 0.000000 1.695930 0.000000 
#    z 0.000000 0.000000 1.698030 
# 
# From -- ./inp_files/26495.got.cif
#   From: 2010.03.12/outbox.cif.g09.slc.cpg/sg47_14_cif.got.tgz:26495.got - 2010.04.14 03:12:58.
