data_PCOD8194003
_publ_section_title
;
Structure prediction by ZEFSAII (Michael W. Deem and Ramdas Pophale) SiO2 
 PCOD8194003
Probable space group: P M M M
;
_chemical_formula_sum "Si O2"
_cell_formula_units_Z 64
_cell_length_a 9.109050
_cell_length_b 14.231991
_cell_length_c 31.197196
_cell_angle_alpha 90.000000
_cell_angle_beta 90.000000
_cell_angle_gamma 90.000000
_cell_volume 4044.401919
_symmetry_space_group_name_H-M "P M M M"
_symmetry_group_IT_number 47
_symmetry_cell_setting 'orthorhombic'
loop_
_space_group_symop_operation_xyz
x,y,z
-x,-y,z
x,-y,-z
-x,y,-z
-x,-y,-z
x,y,-z
-x,y,z
x,-y,z
loop_
_atom_site_type_symbol
_atom_site_label
_atom_site_fract_x
_atom_site_fract_y
_atom_site_fract_z
Si Si1 0.336012 0.611441 0.545331
Si Si2 0.329061 0.107219 0.844765
Si Si3 0.331739 0.392007 0.950385
Si Si4 0.825658 0.394642 0.798841
Si Si5 0.829816 0.291419 0.286653
Si Si6 0.167309 0.895027 0.242662
Si Si7 0.173818 0.722993 0.880239
Si Si8 0.324794 0.606852 0.362339
O O1 0.255949 0.642515 0.500000
O O2 0.500000 0.652956 0.543718
O O3 0.344889 0.500000 0.546996
O O4 0.262925 0.641877 0.590742
O O5 0.500000 0.130961 0.845988
O O6 0.272585 0.126389 0.796897
O O7 0.244437 0.173551 0.878156
O O8 0.297461 0.000000 0.858379
O O9 0.500000 0.371923 0.937611
O O10 0.291856 0.500000 0.940871
O O11 0.223836 0.326374 0.923710
O O12 0.305920 0.368650 0.000000
O O13 0.761059 0.500000 0.800836
O O14 0.770800 0.345832 0.755273
O O15 0.767377 0.337063 0.839721
O O16 0.000000 0.396454 0.799874
O O17 0.802253 0.179976 0.280218
O O18 0.738573 0.322834 0.327509
O O19 0.000000 0.314383 0.294731
O O20 0.000000 0.882890 0.225984
O O21 0.193973 0.000000 0.261055
O O22 0.000000 0.732585 0.880277
O O23 0.500000 0.612003 0.362241
O O24 0.273264 0.500000 0.352474
#
# Coordination Sequence:
#
# PCOD8194003 Si02
#       8
#     8   8   8   8   8   8   8   8
#     4   7  10  19  36  55  75 103 141 183 222 258
#     4  10  20  33  50  72  96 121 151 190 237 283
#     4   9  19  36  55  75 102 133 160 189 230 277
#     4   9  17  28  41  61  90 121 151 181 212 252
#     4  10  18  29  43  60  86 121 151 177 219 269
#     4   9  17  31  49  66  85 112 151 194 230 267
#     4  11  20  32  51  74  98 125 159 196 229 265
#     4   9  17  27  39  59  86 115 149 185 218 257
#
# _framework density 15.824342
#
# number of rings (size 3 to 8) (size 9 to 14) (size 15 to 20)
#    0.000    2.750    1.250    3.000    0.000    3.000 
#    0.000    0.625    0.000    3.000    0.000    4.375 
#    0.000    0.500    0.000    6.250    0.000    0.250 
#
# Total GULP energy -793154.387034 kJ/mol
# GULP energy per Si atom -12393.037297 kJ/mol
# Density = 1.578833 g / cm^3
# Si number density = 15.824342 Si / 1000 Ang^3
#
#
#
# Elastic Constant Matrix: (Units=GPa)
#
#
# Indices 1 2 3 4 5 6 
#
# 1 50.8635 38.3495 38.9325 0.0000 0.0000 0.0000
# 2 38.3495 97.1296 54.6129 0.0000 0.0000 0.0000
# 3 38.9325 54.6129 109.5015 0.0000 0.0000 0.0000
# 4 0.0000 0.0000 0.0000 12.7474 0.0000 0.0000
# 5 0.0000 0.0000 0.0000 0.0000 14.9965 0.0000
# 6 0.0000 0.0000 0.0000 0.0000 0.0000 21.1320
#
#
#
# Elastic Compliance Matrix: (Units=1/GPa)
#
#
# Indices 1 2 3 4 5 6 
#
# 1 0.031355 -0.008493 -0.006912 0.000000 0.000000 0.000000
# 2 -0.008493 0.016608 -0.005264 0.000000 0.000000 0.000000
# 3 -0.006912 -0.005264 0.014215 0.000000 0.000000 0.000000
# 4 0.000000 0.000000 0.000000 0.078448 0.000000 0.000000
# 5 0.000000 0.000000 0.000000 0.000000 0.066682 0.000000
# 6 0.000000 0.000000 0.000000 0.000000 0.000000 0.047321
#
#
# Mechanical properties :
#
#
# Convention : Reuss Voigt Hill
#
# Bulk Modulus (GPa) = 47.98372 57.92049 52.95210
# Shear Modulus (GPa) = 16.50630 18.14849 17.32739
#
# Velocity S-wave (km/s) = 3.23320 3.39022 3.31264
# Velocity P-wave (km/s) = 6.65783 7.21155 6.94021
#
# Compressibility (1/GPa) = 0.02084040
#
# Stress axis : x y z
#
# Youngs Moduli (GPa) = 31.89294 60.21019 70.34836
#
# Poissons Ratio (x) = 0.51139 0.48625
# Poissons Ratio (y) = 0.27088 0.37028
# Poissons Ratio (z) = 0.22044 0.31692
#
# Static dielectric constant tensor:
#      x y z
#    x 2.796430 0.000000 0.000000 
#    y 0.000000 3.038110 0.000000 
#    z 0.000000 0.000000 3.133780 
# 
# 
# High freq. dielectric constant tensor:
#      x y z
#    x 1.586910 0.000000 0.000000 
#    y 0.000000 1.591960 0.000000 
#    z 0.000000 0.000000 1.599990 
# 
# From -- ./inp_files/8246.got.cif
#   From: 2010.03.12/outbox.cif.g09.slc.cpg/sg47_5_cif.got.tgz:8246.got - 2010.04.14 03:12:58.
