data_PCOD8194610
_publ_section_title
;
Structure prediction by ZEFSAII (Michael W. Deem and Ramdas Pophale) SiO2 
 PCOD8194610
Probable space group: P M M M
;
_chemical_formula_sum "Si O2"
_cell_formula_units_Z 52
_cell_length_a 9.087468
_cell_length_b 19.198461
_cell_length_c 15.753492
_cell_angle_alpha 90.000000
_cell_angle_beta 90.000000
_cell_angle_gamma 90.000000
_cell_volume 2748.439283
_symmetry_space_group_name_H-M "P M M M"
_symmetry_group_IT_number 47
_symmetry_cell_setting 'orthorhombic'
loop_
_space_group_symop_operation_xyz
x,y,z
-x,-y,z
x,-y,-z
-x,y,-z
-x,-y,-z
x,y,-z
-x,y,z
x,-y,z
loop_
_atom_site_type_symbol
_atom_site_label
_atom_site_fract_x
_atom_site_fract_y
_atom_site_fract_z
Si Si1 0.325378 0.420379 0.500000
Si Si2 0.336317 0.578319 0.099215
Si Si3 0.828085 0.695582 0.817211
Si Si4 0.327079 0.177190 0.096952
Si Si5 0.324718 0.921647 0.753825
Si Si6 0.330092 0.687411 0.640970
Si Si7 0.670308 0.157933 0.591026
O O1 0.262018 0.500000 0.500000
O O2 0.500000 0.422442 0.500000
O O3 0.273912 0.377579 0.416441
O O4 0.500000 0.607919 0.120098
O O5 0.325123 0.500000 0.133542
O O6 0.208660 0.620574 0.144831
O O7 0.307464 0.580800 0.000000
O O8 0.752191 0.752208 0.877017
O O9 0.770445 0.695913 0.722256
O O10 0.000000 0.709540 0.817244
O O11 0.500000 0.190016 0.107144
O O12 0.272800 0.115560 0.159319
O O13 0.286586 0.157268 0.000000
O O14 0.500000 0.921741 0.750217
O O15 0.256482 0.880393 0.672384
O O16 0.262027 0.000000 0.753581
O O17 0.500000 0.676347 0.667874
O O18 0.310350 0.759093 0.590601
O O19 0.736210 0.131559 0.500000
O O20 0.500000 0.138135 0.594075
#
# Coordination Sequence:
#
# PCOD8194610 Si02
#       7
#     4   8   8   8   8   8   8
#     4   9  18  32  55  87 112 136 181 234 275 320
#     4   9  19  37  59  80 103 135 176 221 270 323
#     4  12  24  35  52  80 112 144 182 227 274 326
#     4  10  20  35  56  79 106 145 189 232 280 333
#     4   9  17  29  48  79 115 143 174 223 278 333
#     4  10  18  33  56  77 104 143 183 225 271 322
#     4   9  15  26  49  78 106 139 175 217 274 331
#
# _framework density 18.919829
#
# number of rings (size 3 to 8) (size 9 to 14) (size 15 to 20)
#    0.000    2.231    2.308    2.308    0.000    4.000 
#    0.000    5.769    0.000    0.923    0.000    1.077 
#    0.000    1.231    0.000    0.000    0.000    0.000 
#
# Total GULP energy -644534.268860 kJ/mol
# GULP energy per Si atom -12394.889786 kJ/mol
# Density = 1.887677 g / cm^3
# Si number density = 18.919829 Si / 1000 Ang^3
#
#
#
# Elastic Constant Matrix: (Units=GPa)
#
#
# Indices 1 2 3 4 5 6 
#
# 1 38.6511 23.7856 35.4899 0.0000 0.0000 0.0000
# 2 23.7856 80.7202 66.4728 0.0000 0.0000 0.0000
# 3 35.4899 66.4728 158.8088 0.0000 0.0000 0.0000
# 4 0.0000 0.0000 0.0000 38.6651 0.0000 0.0000
# 5 0.0000 0.0000 0.0000 0.0000 2.2466 0.0000
# 6 0.0000 0.0000 0.0000 0.0000 0.0000 4.2221
#
#
#
# Elastic Compliance Matrix: (Units=1/GPa)
#
#
# Indices 1 2 3 4 5 6 
#
# 1 0.034232 -0.005779 -0.005231 0.000000 0.000000 0.000000
# 2 -0.005779 0.019881 -0.007030 0.000000 0.000000 0.000000
# 3 -0.005231 -0.007030 0.010408 0.000000 0.000000 0.000000
# 4 0.000000 0.000000 0.000000 0.025863 0.000000 0.000000
# 5 0.000000 0.000000 0.000000 0.000000 0.445117 0.000000
# 6 0.000000 0.000000 0.000000 0.000000 0.000000 0.236851
#
#
# Mechanical properties :
#
#
# Convention : Reuss Voigt Hill
#
# Bulk Modulus (GPa) = 35.16098 58.85298 47.00698
# Shear Modulus (GPa) = 6.11312 19.18889 12.65100
#
# Velocity S-wave (km/s) = 1.79947 3.18814 2.58866
# Velocity P-wave (km/s) = 4.78978 6.68778 5.81671
#
# Compressibility (1/GPa) = 0.02844062
#
# Stress axis : x y z
#
# Youngs Moduli (GPa) = 29.21228 50.30044 96.07649
#
# Poissons Ratio (x) = 0.29071 0.50257
# Poissons Ratio (y) = 0.16883 0.67541
# Poissons Ratio (z) = 0.15281 0.35361
#
# Static dielectric constant tensor:
#      x y z
#    x 2.947330 0.000000 0.000000 
#    y 0.000000 3.783370 0.000000 
#    z 0.000000 0.000000 3.579260 
# 
# 
# High freq. dielectric constant tensor:
#      x y z
#    x 1.672750 0.000000 0.000000 
#    y 0.000000 1.737450 0.000000 
#    z 0.000000 0.000000 1.751450 
# 
# From -- ./inp_files/21452.got.cif
#   From: 2010.03.12/outbox.cif.g09.slc.cpg/sg47_11_cif.got.tgz:21452.got - 2010.04.14 03:12:58.
