data_PCOD8194086
_publ_section_title
;
Structure prediction by ZEFSAII (Michael W. Deem and Ramdas Pophale) SiO2 
 PCOD8194086
Probable space group: P M M M
;
_chemical_formula_sum "Si O2"
_cell_formula_units_Z 48
_cell_length_a 25.516942
_cell_length_b 9.266095
_cell_length_c 11.918536
_cell_angle_alpha 90.000000
_cell_angle_beta 90.000000
_cell_angle_gamma 90.000000
_cell_volume 2818.047360
_symmetry_space_group_name_H-M "P M M M"
_symmetry_group_IT_number 47
_symmetry_cell_setting 'orthorhombic'
loop_
_space_group_symop_operation_xyz
x,y,z
-x,-y,z
x,-y,-z
-x,y,-z
-x,-y,-z
x,y,-z
-x,y,z
x,-y,z
loop_
_atom_site_type_symbol
_atom_site_label
_atom_site_fract_x
_atom_site_fract_y
_atom_site_fract_z
Si Si1 0.145547 0.828910 0.237110
Si Si2 0.305506 0.828016 0.000000
Si Si3 0.245695 0.171768 0.625662
Si Si4 0.813045 0.828879 0.000000
Si Si5 0.558078 0.171699 0.373826
Si Si6 0.655432 0.172134 0.763713
Si Si7 0.939255 0.332771 0.627175
O O1 0.193980 0.772963 0.311554
O O2 0.092634 0.759430 0.282970
O O3 0.139721 0.000000 0.243836
O O4 0.155429 0.776479 0.109646
O O5 0.246195 0.766028 0.000000
O O6 0.336891 0.771909 0.890805
O O7 0.302800 0.000000 0.000000
O O8 0.245449 0.234230 0.500000
O O9 0.296743 0.231801 0.689057
O O10 0.246811 0.000000 0.625114
O O11 0.808267 0.000000 0.000000
O O12 0.571097 0.225402 0.500000
O O13 0.500000 0.225605 0.337902
O O14 0.601076 0.234148 0.287083
O O15 0.559652 0.000000 0.372286
O O16 0.655225 0.000000 0.760889
O O17 0.925150 0.285055 0.500000
O O18 0.925820 0.500000 0.643701
O O19 0.000000 0.303065 0.650988
#
# Coordination Sequence:
#
# PCOD8194086 Si02
#       7
#     8   4   8   4   8   8   8
#     4  10  18  29  47  70  93 117 150 188 225 264
#     4   9  14  22  33  46  69 105 136 162 211 272
#     4   9  15  21  33  56  81 100 126 173 224 263
#     4   9  16  28  42  61  91 121 142 174 227 274
#     4   8  13  20  28  38  56  87 129 176 221 260
#     4   9  14  20  30  44  65  95 131 168 213 265
#     4   9  19  36  54  70  92 122 150 178 220 271
#
# _framework density 17.033071
#
# number of rings (size 3 to 8) (size 9 to 14) (size 15 to 20)
#    0.000    3.000    1.667    2.000    0.000    3.333 
#    0.000    2.083    0.000    5.000    0.000    0.000 
#    0.000    0.000    0.000    0.000    0.000    0.833 
#
# Total GULP energy -594965.682043 kJ/mol
# GULP energy per Si atom -12395.118376 kJ/mol
# Density = 1.699430 g / cm^3
# Si number density = 17.033071 Si / 1000 Ang^3
#
#
#
# Elastic Constant Matrix: (Units=GPa)
#
#
# Indices 1 2 3 4 5 6 
#
# 1 130.7165 22.5865 90.1661 0.0000 0.0000 0.0000
# 2 22.5865 11.4234 20.4072 0.0000 0.0000 0.0000
# 3 90.1661 20.4072 172.2615 0.0000 0.0000 0.0000
# 4 0.0000 0.0000 0.0000 9.3113 0.0000 0.0000
# 5 0.0000 0.0000 0.0000 0.0000 32.0208 0.0000
# 6 0.0000 0.0000 0.0000 0.0000 0.0000 -0.6164
#
#
#
# Elastic Compliance Matrix: (Units=1/GPa)
#
#
# Indices 1 2 3 4 5 6 
#
# 1 0.014753 -0.019502 -0.005412 0.000000 0.000000 0.000000
# 2 -0.019502 0.136818 -0.006001 0.000000 0.000000 0.000000
# 3 -0.005412 -0.006001 0.009349 0.000000 0.000000 0.000000
# 4 0.000000 0.000000 0.000000 0.107397 0.000000 0.000000
# 5 0.000000 0.000000 0.000000 0.000000 0.031230 0.000000
# 6 0.000000 0.000000 0.000000 0.000000 0.000000 -1.622262
#
#
# Mechanical properties :
#
#
# Convention : Reuss Voigt Hill
#
# Bulk Modulus (GPa) = 10.09171 64.52453 37.30812
# Shear Modulus (GPa) = -4.07213 20.22590 8.07688
#
# Velocity S-wave (km/s) = -1.54787 3.44968 2.17995
# Velocity P-wave (km/s) = 1.65623 7.33697 5.31856
#
# Compressibility (1/GPa) = 0.09909123
#
# Stress axis : x y z
#
# Youngs Moduli (GPa) = 67.78422 7.30900 106.96784
#
# Poissons Ratio (x) = 0.14254 0.57887
# Poissons Ratio (y) = 1.32190 0.64188
# Poissons Ratio (z) = 0.36683 0.04386
#
# Static dielectric constant tensor:
#      x y z
#    x 3.330560 0.000000 0.000000 
#    y 0.000000 2.430080 0.000000 
#    z 0.000000 0.000000 3.444960 
# 
# 
# High freq. dielectric constant tensor:
#      x y z
#    x 1.663560 0.000000 0.000000 
#    y 0.000000 1.575790 0.000000 
#    z 0.000000 0.000000 1.666210 
# 
# From -- ./inp_files/19109.got.cif
#   From: 2010.03.12/outbox.cif.g09.slc.cpg/sg47_10_cif.got.tgz:19109.got - 2010.04.14 03:12:58.
