data_PCOD8194319
_publ_section_title
;
Structure prediction by ZEFSAII (Michael W. Deem and Ramdas Pophale) SiO2 
 PCOD8194319
Probable space group: P M M M
;
_chemical_formula_sum "Si O2"
_cell_formula_units_Z 64
_cell_length_a 31.498641
_cell_length_b 14.290889
_cell_length_c 9.139719
_cell_angle_alpha 90.000000
_cell_angle_beta 90.000000
_cell_angle_gamma 90.000000
_cell_volume 4114.185851
_symmetry_space_group_name_H-M "P M M M"
_symmetry_group_IT_number 47
_symmetry_cell_setting 'orthorhombic'
loop_
_space_group_symop_operation_xyz
x,y,z
-x,-y,z
x,-y,-z
-x,y,-z
-x,-y,-z
x,y,-z
-x,y,z
x,-y,z
loop_
_atom_site_type_symbol
_atom_site_label
_atom_site_fract_x
_atom_site_fract_y
_atom_site_fract_z
Si Si1 0.076493 0.106154 0.829199
Si Si2 0.879164 0.609584 0.828493
Si Si3 0.837491 0.103095 0.665852
Si Si4 0.199181 0.704855 0.669796
Si Si5 0.952222 0.719659 0.668342
Si Si6 0.717587 0.604384 0.674301
Si Si7 0.546195 0.388849 0.163936
Si Si8 0.374529 0.611633 0.662153
O O1 0.124806 0.120847 0.779092
O O2 0.047323 0.176655 0.738148
O O3 0.061350 0.000000 0.798044
O O4 0.073379 0.130230 0.000000
O O5 0.878123 0.500000 0.795949
O O6 0.837472 0.655379 0.760864
O O7 0.921214 0.651305 0.755327
O O8 0.880544 0.631868 0.000000
O O9 0.855504 0.110512 0.500000
O O10 0.802304 0.182910 0.691764
O O11 0.817202 0.000000 0.691946
O O12 0.193477 0.676656 0.500000
O O13 0.244970 0.672112 0.729916
O O14 0.937290 0.725737 0.500000
O O15 0.000000 0.679634 0.679486
O O16 0.714851 0.602633 0.500000
O O17 0.727528 0.500000 0.732982
O O18 0.671371 0.639542 0.732553
O O19 0.500000 0.360344 0.231627
O O20 0.550211 0.500000 0.164731
O O21 0.585860 0.344303 0.250172
O O22 0.548892 0.350227 0.000000
O O23 0.378382 0.653283 0.500000
O O24 0.377068 0.500000 0.658108
#
# Coordination Sequence:
#
# PCOD8194319 Si02
#       8
#     8   8   8   8   8   8   8   8
#     4  10  20  34  54  78 102 126 147 171 210 257
#     4  11  24  39  54  73  96 119 145 182 223 259
#     4   9  17  29  47  72  98 120 145 177 210 248
#     4  10  18  30  51  72  90 118 150 178 213 257
#     4  11  24  40  57  76  96 120 150 181 213 253
#     4   8  14  24  38  58  82 108 142 181 215 249
#     4   8  13  20  29  42  62  90 126 168 211 253
#     4   8  13  21  32  46  67  95 129 172 214 247
#
# _framework density 15.555934000000001
#
# number of rings (size 3 to 8) (size 9 to 14) (size 15 to 20)
#    0.000    2.625    1.250    2.625    0.000    4.000 
#    0.000    4.375    0.000    2.250    0.000    0.000 
#    0.000    0.000    0.000    0.000    0.000    0.625 
#
# Total GULP energy -793159.894032 kJ/mol
# GULP energy per Si atom -12393.123344 kJ/mol
# Density = 1.552053 g / cm^3
# Si number density = 15.555934 Si / 1000 Ang^3
#
#
#
# Elastic Constant Matrix: (Units=GPa)
#
#
# Indices 1 2 3 4 5 6 
#
# 1 134.0909 48.6368 45.0282 0.0000 0.0000 0.0000
# 2 48.6368 69.2383 33.1757 0.0000 0.0000 0.0000
# 3 45.0282 33.1757 68.9343 0.0000 0.0000 0.0000
# 4 0.0000 0.0000 0.0000 16.9178 0.0000 0.0000
# 5 0.0000 0.0000 0.0000 0.0000 3.4778 0.0000
# 6 0.0000 0.0000 0.0000 0.0000 0.0000 7.4329
#
#
#
# Elastic Compliance Matrix: (Units=1/GPa)
#
#
# Indices 1 2 3 4 5 6 
#
# 1 0.010986 -0.005561 -0.004500 0.000000 0.000000 0.000000
# 2 -0.005561 0.021587 -0.006756 0.000000 0.000000 0.000000
# 3 -0.004500 -0.006756 0.020697 0.000000 0.000000 0.000000
# 4 0.000000 0.000000 0.000000 0.059109 0.000000 0.000000
# 5 0.000000 0.000000 0.000000 0.000000 0.287542 0.000000
# 6 0.000000 0.000000 0.000000 0.000000 0.000000 0.134537
#
#
# Mechanical properties :
#
#
# Convention : Reuss Voigt Hill
#
# Bulk Modulus (GPa) = 50.92783 58.43832 54.68308
# Shear Modulus (GPa) = 8.70115 15.26054 11.98084
#
# Velocity S-wave (km/s) = 2.36762 3.13551 2.77822
# Velocity P-wave (km/s) = 6.34695 7.12437 6.74687
#
# Compressibility (1/GPa) = 0.01963563
#
# Stress axis : x y z
#
# Youngs Moduli (GPa) = 91.02799 46.32517 48.31535
#
# Poissons Ratio (x) = 0.25761 0.21740
# Poissons Ratio (y) = 0.50620 0.32644
# Poissons Ratio (z) = 0.40959 0.31299
#
# Static dielectric constant tensor:
#      x y z
#    x 3.169000 0.000000 0.000000 
#    y 0.000000 2.864970 0.000000 
#    z 0.000000 0.000000 3.018050 
# 
# 
# High freq. dielectric constant tensor:
#      x y z
#    x 1.591570 0.000000 0.000000 
#    y 0.000000 1.559300 0.000000 
#    z 0.000000 0.000000 1.591950 
# 
# From -- ./inp_files/14359.got.cif
#   From: 2010.03.12/outbox.cif.g09.slc.cpg/sg47_8_cif.got.tgz:14359.got - 2010.04.14 03:12:58.
