data_PCOD8194787
_publ_section_title
;
Structure prediction by ZEFSAII (Michael W. Deem and Ramdas Pophale) SiO2 
 PCOD8194787
Probable space group: P M M M
;
_chemical_formula_sum "Si O2"
_cell_formula_units_Z 64
_cell_length_a 14.302223
_cell_length_b 31.250294
_cell_length_c 9.176229
_cell_angle_alpha 90.000000
_cell_angle_beta 90.000000
_cell_angle_gamma 90.000000
_cell_volume 4101.303380
_symmetry_space_group_name_H-M "P M M M"
_symmetry_group_IT_number 47
_symmetry_cell_setting 'orthorhombic'
loop_
_space_group_symop_operation_xyz
x,y,z
-x,-y,z
x,-y,-z
-x,y,-z
-x,-y,-z
x,y,-z
-x,y,z
x,-y,z
loop_
_atom_site_type_symbol
_atom_site_label
_atom_site_fract_x
_atom_site_fract_y
_atom_site_fract_z
Si Si1 0.210581 0.628409 0.827506
Si Si2 0.889858 0.285736 0.831143
Si Si3 0.889096 0.952969 0.663272
Si Si4 0.109452 0.129538 0.170022
Si Si5 0.396106 0.754652 0.333121
Si Si6 0.602880 0.667680 0.171693
Si Si7 0.795992 0.792696 0.329899
Si Si8 0.894497 0.452964 0.826519
O O1 0.150581 0.669083 0.774543
O O2 0.318672 0.633714 0.777347
O O3 0.170850 0.584337 0.758745
O O4 0.202573 0.625376 0.000000
O O5 0.846901 0.248560 0.734043
O O6 0.000000 0.286417 0.808488
O O7 0.863529 0.277591 0.000000
O O8 0.853084 0.942546 0.500000
O O9 0.853933 0.916543 0.773842
O O10 0.000000 0.953891 0.663720
O O11 0.851794 0.000000 0.712538
O O12 0.168452 0.165221 0.251078
O O13 0.000000 0.136338 0.204523
O O14 0.129897 0.132627 0.000000
O O15 0.391971 0.739541 0.500000
O O16 0.500000 0.773134 0.295788
O O17 0.373017 0.713557 0.237056
O O18 0.316141 0.789876 0.302881
O O19 0.500000 0.651543 0.221828
O O20 0.607266 0.673902 0.000000
O O21 0.820182 0.795831 0.500000
O O22 0.859807 0.500000 0.773538
O O23 0.000000 0.444930 0.771951
O O24 0.892123 0.451377 0.000000
#
# Coordination Sequence:
#
# PCOD8194787 Si02
#       8
#     8   8   8   8   8   8   8   8
#     4   9  15  24  38  56  79 106 136 172 210 248
#     4  10  19  29  41  58  82 112 143 173 206 247
#     4   8  14  26  44  64  86 114 150 191 229 260
#     4  10  20  31  43  61  88 123 157 185 214 252
#     4   9  18  32  47  62  81 106 139 179 219 257
#     4   9  16  26  42  62  81 103 133 169 210 257
#     4  11  21  31  44  61  84 114 144 176 215 258
#     4   8  13  21  34  53  77 106 139 171 204 246
#
# _framework density 15.604794999999999
#
# number of rings (size 3 to 8) (size 9 to 14) (size 15 to 20)
#    0.000    2.750    1.250    2.250    0.000    4.750 
#    0.000    1.250    0.000    0.375    0.000    2.625 
#    0.000    2.500    0.000   15.750    0.000   11.375 
#
# Total GULP energy -793179.589057 kJ/mol
# GULP energy per Si atom -12393.431079 kJ/mol
# Density = 1.556928 g / cm^3
# Si number density = 15.604795 Si / 1000 Ang^3
#
#
#
# Elastic Constant Matrix: (Units=GPa)
#
#
# Indices 1 2 3 4 5 6 
#
# 1 94.0339 68.4588 36.3757 0.0000 0.0000 0.0000
# 2 68.4588 138.5881 45.6817 0.0000 0.0000 0.0000
# 3 36.3757 45.6817 48.1710 0.0000 0.0000 0.0000
# 4 0.0000 0.0000 0.0000 -6.5942 0.0000 0.0000
# 5 0.0000 0.0000 0.0000 0.0000 14.9991 0.0000
# 6 0.0000 0.0000 0.0000 0.0000 0.0000 8.5221
#
#
#
# Elastic Compliance Matrix: (Units=1/GPa)
#
#
# Indices 1 2 3 4 5 6 
#
# 1 0.018363 -0.006546 -0.007658 0.000000 0.000000 0.000000
# 2 -0.006546 0.012831 -0.007224 0.000000 0.000000 0.000000
# 3 -0.007658 -0.007224 0.033393 0.000000 0.000000 0.000000
# 4 0.000000 0.000000 0.000000 -0.151647 0.000000 0.000000
# 5 0.000000 0.000000 0.000000 0.000000 0.066671 0.000000
# 6 0.000000 0.000000 0.000000 0.000000 0.000000 0.117342
#
#
# Mechanical properties :
#
#
# Convention : Reuss Voigt Hill
#
# Bulk Modulus (GPa) = 46.02148 64.64725 55.33437
# Shear Modulus (GPa) = 34.00133 12.07051 23.03592
#
# Velocity S-wave (km/s) = 4.67294 2.78423 3.84631
# Velocity P-wave (km/s) = 7.65970 7.20095 7.43386
#
# Compressibility (1/GPa) = 0.02172898
#
# Stress axis : x y z
#
# Youngs Moduli (GPa) = 54.45746 77.93847 29.94609
#
# Poissons Ratio (x) = 0.51022 0.22934
# Poissons Ratio (y) = 0.35650 0.21634
# Poissons Ratio (z) = 0.41706 0.56304
#
# Static dielectric constant tensor:
#      x y z
#    x 3.139730 0.000000 0.000000 
#    y 0.000000 3.213970 0.000000 
#    z 0.000000 0.000000 2.833740 
# 
# 
# High freq. dielectric constant tensor:
#      x y z
#    x 1.584490 0.000000 0.000000 
#    y 0.000000 1.589860 0.000000 
#    z 0.000000 0.000000 1.579050 
# 
# From -- ./inp_files/8240.got.cif
#   From: 2010.03.12/outbox.cif.g09.slc.cpg/sg47_5_cif.got.tgz:8240.got - 2010.04.14 03:12:58.
