data_PCOD8194780
_publ_section_title
;
Structure prediction by ZEFSAII (Michael W. Deem and Ramdas Pophale) SiO2 
 PCOD8194780
Probable space group: P M M M
;
_chemical_formula_sum "Si O2"
_cell_formula_units_Z 48
_cell_length_a 20.603144
_cell_length_b 19.353359
_cell_length_c 9.106306
_cell_angle_alpha 90.000000
_cell_angle_beta 90.000000
_cell_angle_gamma 90.000000
_cell_volume 3631.048840
_symmetry_space_group_name_H-M "P M M M"
_symmetry_group_IT_number 47
_symmetry_cell_setting 'orthorhombic'
loop_
_space_group_symop_operation_xyz
x,y,z
-x,-y,z
x,-y,-z
-x,y,-z
-x,-y,-z
x,y,-z
-x,y,z
x,-y,z
loop_
_atom_site_type_symbol
_atom_site_label
_atom_site_fract_x
_atom_site_fract_y
_atom_site_fract_z
Si Si1 0.115692 0.343658 0.827154
Si Si2 0.000000 0.581702 0.332181
Si Si3 0.500000 0.582459 0.834241
Si Si4 0.922957 0.076008 0.164619
Si Si5 0.374297 0.582263 0.665465
Si Si6 0.076806 0.790469 0.669122
Si Si7 0.752928 0.579043 0.829840
O O1 0.113490 0.266364 0.765372
O O2 0.185802 0.374265 0.789856
O O3 0.063469 0.391320 0.748167
O O4 0.101258 0.343398 0.000000
O O5 0.000000 0.500000 0.325414
O O6 0.000000 0.608880 0.500000
O O7 0.500000 0.500000 0.831903
O O8 0.436275 0.611686 0.752831
O O9 0.500000 0.610540 0.000000
O O10 0.898103 0.134749 0.275899
O O11 0.000000 0.075696 0.164574
O O12 0.897817 0.000000 0.215411
O O13 0.897767 0.092096 0.000000
O O14 0.377211 0.610580 0.500000
O O15 0.375901 0.500000 0.668940
O O16 0.308121 0.608623 0.739983
O O17 0.096186 0.782326 0.500000
O O18 0.000000 0.781251 0.692642
O O19 0.768918 0.500000 0.786063
O O20 0.734626 0.583935 0.000000
#
# Coordination Sequence:
#
# PCOD8194780 Si02
#       7
#     8   4   4   8   8   8   8
#     4  11  21  32  46  58  71  95 126 160 195 235
#     4  11  23  35  45  57  72  89 116 159 207 247
#     4   9  15  23  37  55  75  97 117 141 174 213
#     4   8  14  25  41  59  77  96 118 143 174 217
#     4   9  16  25  38  56  75  94 116 144 181 224
#     4  10  19  29  41  57  78  98 119 151 190 230
#     4   9  18  31  43  55  71  92 122 158 195 234
#
# _framework density 13.219321000000001
#
# number of rings (size 3 to 8) (size 9 to 14) (size 15 to 20)
#    0.000    2.500    0.833    3.000    0.000    6.667 
#    0.000    3.333    0.000    0.000    0.000    0.000 
#    0.000    0.000    0.000    0.000    0.000    0.000 
#
# Total GULP energy -595138.368901 kJ/mol
# GULP energy per Si atom -12398.716019 kJ/mol
# Density = 1.318923 g / cm^3
# Si number density = 13.219321 Si / 1000 Ang^3
#
#
#
# Elastic Constant Matrix: (Units=GPa)
#
#
# Indices 1 2 3 4 5 6 
#
# 1 85.8414 32.6923 59.1067 0.0000 0.0000 0.0000
# 2 32.6923 66.3717 40.1890 0.0000 0.0000 0.0000
# 3 59.1067 40.1890 103.5535 0.0000 0.0000 0.0000
# 4 0.0000 0.0000 0.0000 18.1493 0.0000 0.0000
# 5 0.0000 0.0000 0.0000 0.0000 15.1014 0.0000
# 6 0.0000 0.0000 0.0000 0.0000 0.0000 0.1533
#
#
#
# Elastic Compliance Matrix: (Units=1/GPa)
#
#
# Indices 1 2 3 4 5 6 
#
# 1 0.019908 -0.003824 -0.009879 0.000000 0.000000 0.000000
# 2 -0.003824 0.020430 -0.005746 0.000000 0.000000 0.000000
# 3 -0.009879 -0.005746 0.017526 0.000000 0.000000 0.000000
# 4 0.000000 0.000000 0.000000 0.055099 0.000000 0.000000
# 5 0.000000 0.000000 0.000000 0.000000 0.066219 0.000000
# 6 0.000000 0.000000 0.000000 0.000000 0.000000 6.524646
#
#
# Mechanical properties :
#
#
# Convention : Reuss Voigt Hill
#
# Bulk Modulus (GPa) = 52.72862 57.74917 55.23890
# Shear Modulus (GPa) = 0.74085 14.93269 7.83677
#
# Velocity S-wave (km/s) = 0.74943 3.36461 2.43744
# Velocity P-wave (km/s) = 6.38146 7.67297 7.05682
#
# Compressibility (1/GPa) = 0.01896503
#
# Stress axis : x y z
#
# Youngs Moduli (GPa) = 50.23081 48.94876 57.05917
#
# Poissons Ratio (x) = 0.18718 0.56369
# Poissons Ratio (y) = 0.19209 0.32786
# Poissons Ratio (z) = 0.49624 0.28126
#
# Static dielectric constant tensor:
#      x y z
#    x 2.506040 0.000000 0.000000 
#    y 0.000000 2.570760 0.000000 
#    z 0.000000 0.000000 2.834420 
# 
# 
# High freq. dielectric constant tensor:
#      x y z
#    x 1.473090 0.000000 0.000000 
#    y 0.000000 1.469430 0.000000 
#    z 0.000000 0.000000 1.520420 
# 
# From -- ./inp_files/9713.got.cif
#   From: 2010.03.12/outbox.cif.g09.slc.cpg/sg47_5_cif.got.tgz:9713.got - 2010.04.14 03:12:58.
