data_PCOD8194046
_publ_section_title
;
Structure prediction by ZEFSAII (Michael W. Deem and Ramdas Pophale) SiO2 
 PCOD8194046
Probable space group: P M M M
;
_chemical_formula_sum "Si O2"
_cell_formula_units_Z 40
_cell_length_a 14.542919
_cell_length_b 22.532526
_cell_length_c 7.861799
_cell_angle_alpha 90.000000
_cell_angle_beta 90.000000
_cell_angle_gamma 90.000000
_cell_volume 2576.222698
_symmetry_space_group_name_H-M "P M M M"
_symmetry_group_IT_number 47
_symmetry_cell_setting 'orthorhombic'
loop_
_space_group_symop_operation_xyz
x,y,z
-x,-y,z
x,-y,-z
-x,y,-z
-x,-y,-z
x,y,-z
-x,y,z
x,-y,z
loop_
_atom_site_type_symbol
_atom_site_label
_atom_site_fract_x
_atom_site_fract_y
_atom_site_fract_z
Si Si1 0.895562 0.272480 0.702439
Si Si2 0.890827 0.855174 0.189155
Si Si3 0.105853 0.500000 0.799989
Si Si4 0.890177 0.933047 0.500000
Si Si5 0.399713 0.433043 0.297511
Si Si6 0.213298 0.615811 0.302322
O O1 0.892290 0.269386 0.500000
O O2 0.854412 0.211297 0.776225
O O3 0.834905 0.326396 0.779486
O O4 0.000000 0.282618 0.764840
O O5 0.851553 0.900388 0.330826
O O6 0.000000 0.854119 0.204913
O O7 0.859896 0.875817 0.000000
O O8 0.151713 0.441898 0.722847
O O9 0.000000 0.500000 0.744730
O O10 0.118733 0.500000 0.000000
O O11 0.000000 0.932578 0.500000
O O12 0.852133 0.000000 0.500000
O O13 0.394132 0.434137 0.500000
O O14 0.500000 0.407999 0.239256
O O15 0.387860 0.500000 0.228677
O O16 0.315709 0.393704 0.222811
O O17 0.223320 0.628379 0.500000
#
# Coordination Sequence:
#
# PCOD8194046 Si02
#       6
#     8   8   4   4   8   8
#     4   9  16  26  39  55  76 102 135 175 209 242
#     4   9  16  26  40  56  77 107 140 172 208 246
#     4  11  23  33  38  51  80 106 125 167 222 259
#     4   9  16  26  40  58  82 107 136 177 210 235
#     4   8  13  23  41  63  81  95 120 165 214 255
#     4  10  18  29  46  62  74  99 138 171 206 254
#
# _framework density 15.526608
#
# number of rings (size 3 to 8) (size 9 to 14) (size 15 to 20)
#    0.000    2.800    2.000    1.500    0.000    2.800 
#    0.000    4.000    0.000    1.200    0.000    0.000 
#    0.000    0.000    0.000    0.000    0.000    2.000 
#
# Total GULP energy -495692.911409 kJ/mol
# GULP energy per Si atom -12392.322785 kJ/mol
# Density = 1.549127 g / cm^3
# Si number density = 15.526608 Si / 1000 Ang^3
#
#
#
# Elastic Constant Matrix: (Units=GPa)
#
#
# Indices 1 2 3 4 5 6 
#
# 1 84.6832 42.8827 14.9333 0.0000 0.0000 0.0000
# 2 42.8827 127.4677 38.8531 0.0000 0.0000 0.0000
# 3 14.9333 38.8531 50.2377 0.0000 0.0000 0.0000
# 4 0.0000 0.0000 0.0000 6.3650 0.0000 0.0000
# 5 0.0000 0.0000 0.0000 0.0000 2.8797 0.0000
# 6 0.0000 0.0000 0.0000 0.0000 0.0000 4.6449
#
#
#
# Elastic Compliance Matrix: (Units=1/GPa)
#
#
# Indices 1 2 3 4 5 6 
#
# 1 0.014252 -0.004584 -0.000691 0.000000 0.000000 0.000000
# 2 -0.004584 0.011739 -0.007716 0.000000 0.000000 0.000000
# 3 -0.000691 -0.007716 0.026079 0.000000 0.000000 0.000000
# 4 0.000000 0.000000 0.000000 0.157109 0.000000 0.000000
# 5 0.000000 0.000000 0.000000 0.000000 0.347260 0.000000
# 6 0.000000 0.000000 0.000000 0.000000 0.000000 0.215291
#
#
# Mechanical properties :
#
#
# Convention : Reuss Voigt Hill
#
# Bulk Modulus (GPa) = 38.33391 50.63632 44.48512
# Shear Modulus (GPa) = 6.20033 13.82588 10.01311
#
# Velocity S-wave (km/s) = 2.00051 2.98730 2.54224
# Velocity P-wave (km/s) = 5.48442 6.67698 6.10986
#
# Compressibility (1/GPa) = 0.02608657
#
# Stress axis : x y z
#
# Youngs Moduli (GPa) = 70.16624 85.18424 38.34558
#
# Poissons Ratio (x) = 0.39048 0.02651
# Poissons Ratio (y) = 0.32164 0.29589
# Poissons Ratio (z) = 0.04850 0.65732
#
# Static dielectric constant tensor:
#      x y z
#    x 2.995930 0.000000 0.000000 
#    y 0.000000 3.035710 0.000000 
#    z 0.000000 0.000000 2.889740 
# 
# 
# High freq. dielectric constant tensor:
#      x y z
#    x 1.549100 0.000000 0.000000 
#    y 0.000000 1.578920 0.000000 
#    z 0.000000 0.000000 1.591170 
# 
# From -- ./inp_files/6677.got.cif
#   From: 2010.03.12/outbox.cif.g09.slc.cpg/sg47_4_cif.got.tgz:6677.got - 2010.04.14 03:12:58.
