data_PCOD8194264
_publ_section_title
;
Structure prediction by ZEFSAII (Michael W. Deem and Ramdas Pophale) SiO2 
 PCOD8194264
Probable space group: P M M M
;
_chemical_formula_sum "Si O2"
_cell_formula_units_Z 40
_cell_length_a 9.349974
_cell_length_b 12.020960
_cell_length_c 20.394673
_cell_angle_alpha 90.000000
_cell_angle_beta 90.000000
_cell_angle_gamma 90.000000
_cell_volume 2292.272803
_symmetry_space_group_name_H-M "P M M M"
_symmetry_group_IT_number 47
_symmetry_cell_setting 'orthorhombic'
loop_
_space_group_symop_operation_xyz
x,y,z
-x,-y,z
x,-y,-z
-x,y,-z
-x,-y,-z
x,y,-z
-x,y,z
x,-y,z
loop_
_atom_site_type_symbol
_atom_site_label
_atom_site_fract_x
_atom_site_fract_y
_atom_site_fract_z
Si Si1 0.830599 0.000000 0.725124
Si Si2 0.829629 0.231595 0.072681
Si Si3 0.170287 0.375106 0.192653
Si Si4 0.169547 0.238665 0.681217
Si Si5 0.664988 0.373331 0.575982
Si Si6 0.170561 0.000000 0.872260
O O1 0.779756 0.889539 0.686949
O O2 0.767190 0.000000 0.798537
O O3 0.000000 0.000000 0.731117
O O4 0.770345 0.319551 0.125810
O O5 0.772136 0.108754 0.090209
O O6 0.000000 0.231036 0.074681
O O7 0.774879 0.264804 0.000000
O O8 0.231467 0.500000 0.197452
O O9 0.224760 0.305170 0.254939
O O10 0.000000 0.375684 0.191558
O O11 0.238586 0.289008 0.616503
O O12 0.000000 0.248280 0.674607
O O13 0.692663 0.348107 0.500000
O O14 0.500000 0.354055 0.593901
O O15 0.709279 0.500000 0.592483
O O16 0.000000 0.000000 0.870392
#
# Coordination Sequence:
#
# PCOD8194264 Si02
#       6
#     4   8   8   8   8   4
#     4   9  16  27  44  65  93 126 157 196 244 280
#     4   9  15  21  31  49  77 116 158 194 230 278
#     4   9  16  24  35  55  84 117 153 193 237 280
#     4  10  18  30  49  72  96 125 162 199 234 277
#     4   9  19  36  55  74  98 126 153 186 232 281
#     4   9  13  22  35  50  76 115 159 196 229 272
#
# _framework density 17.449929999999998
#
# number of rings (size 3 to 8) (size 9 to 14) (size 15 to 20)
#    0.000    2.800    2.000    1.500    0.000    3.200 
#    0.000    4.000    0.000    3.000    0.000    0.000 
#    0.000    0.800    0.000    6.000    0.000    6.000 
#
# Total GULP energy -495865.059231 kJ/mol
# GULP energy per Si atom -12396.626481 kJ/mol
# Density = 1.741021 g / cm^3
# Si number density = 17.449930 Si / 1000 Ang^3
#
#
#
# Elastic Constant Matrix: (Units=GPa)
#
#
# Indices 1 2 3 4 5 6 
#
# 1 16.0795 23.9076 27.3876 0.0000 0.0000 0.0000
# 2 23.9076 160.7438 77.0636 0.0000 0.0000 0.0000
# 3 27.3876 77.0636 121.3568 0.0000 0.0000 0.0000
# 4 0.0000 0.0000 0.0000 36.9055 0.0000 0.0000
# 5 0.0000 0.0000 0.0000 0.0000 -0.7197 0.0000
# 6 0.0000 0.0000 0.0000 0.0000 0.0000 11.4408
#
#
#
# Elastic Compliance Matrix: (Units=1/GPa)
#
#
# Indices 1 2 3 4 5 6 
#
# 1 0.105053 -0.006122 -0.019820 0.000000 0.000000 0.000000
# 2 -0.006122 0.009301 -0.004524 0.000000 0.000000 0.000000
# 3 -0.019820 -0.004524 0.015586 0.000000 0.000000 0.000000
# 4 0.000000 0.000000 0.000000 0.027096 0.000000 0.000000
# 5 0.000000 0.000000 0.000000 0.000000 -1.389549 0.000000
# 6 0.000000 0.000000 0.000000 0.000000 0.000000 0.087406
#
#
# Mechanical properties :
#
#
# Convention : Reuss Voigt Hill
#
# Bulk Modulus (GPa) = 14.49153 61.65529 38.07341
# Shear Modulus (GPa) = -4.71178 20.84675 8.06748
#
# Velocity S-wave (km/s) = -1.64500 3.46014 2.15250
# Velocity P-wave (km/s) = 2.17132 7.16748 5.29563
#
# Compressibility (1/GPa) = 0.06900585
#
# Stress axis : x y z
#
# Youngs Moduli (GPa) = 9.51898 107.51789 64.15890
#
# Poissons Ratio (x) = 0.65827 1.27166
# Poissons Ratio (y) = 0.05828 0.29028
# Poissons Ratio (z) = 0.18867 0.48646
#
# Static dielectric constant tensor:
#      x y z
#    x 2.541920 0.000000 0.000000 
#    y 0.000000 3.488540 0.000000 
#    z 0.000000 0.000000 3.320170 
# 
# 
# High freq. dielectric constant tensor:
#      x y z
#    x 1.596820 0.000000 0.000000 
#    y 0.000000 1.684900 0.000000 
#    z 0.000000 0.000000 1.682290 
# 
# From -- ./inp_files/10735.got.cif
#   From: 2010.03.12/outbox.cif.g09.slc.cpg/sg47_6_cif.got.tgz:10735.got - 2010.04.14 03:12:58.
