data_PCOD8194191
_publ_section_title
;
Structure prediction by ZEFSAII (Michael W. Deem and Ramdas Pophale) SiO2 
 PCOD8194191
Probable space group: P M M M
;
_chemical_formula_sum "Si O2"
_cell_formula_units_Z 52
_cell_length_a 14.387841
_cell_length_b 28.599134
_cell_length_c 9.236741
_cell_angle_alpha 90.000000
_cell_angle_beta 90.000000
_cell_angle_gamma 90.000000
_cell_volume 3800.732272
_symmetry_space_group_name_H-M "P M M M"
_symmetry_group_IT_number 47
_symmetry_cell_setting 'orthorhombic'
loop_
_space_group_symop_operation_xyz
x,y,z
-x,-y,z
x,-y,-z
-x,y,-z
-x,-y,-z
x,y,-z
-x,y,z
x,-y,z
loop_
_atom_site_type_symbol
_atom_site_label
_atom_site_fract_x
_atom_site_fract_y
_atom_site_fract_z
Si Si1 0.889345 0.228707 0.163336
Si Si2 0.795869 0.585241 0.328768
Si Si3 0.892458 0.680655 0.332122
Si Si4 0.889499 0.051588 0.162647
Si Si5 0.109833 0.500000 0.832580
Si Si6 0.110986 0.139445 0.662897
Si Si7 0.600650 0.552492 0.671389
O O1 0.853752 0.275573 0.241525
O O2 0.850147 0.183506 0.247243
O O3 0.000000 0.227617 0.165635
O O4 0.851003 0.227797 0.000000
O O5 0.807821 0.576112 0.500000
O O6 0.834641 0.635550 0.283569
O O7 0.852105 0.545993 0.244635
O O8 0.687401 0.584344 0.279565
O O9 0.877956 0.692577 0.500000
O O10 0.000000 0.670596 0.297649
O O11 0.849142 0.091614 0.267423
O O12 0.000000 0.053778 0.163102
O O13 0.856821 0.000000 0.215862
O O14 0.853170 0.060871 0.000000
O O15 0.000000 0.500000 0.816271
O O16 0.140548 0.500000 0.000000
O O17 0.148971 0.143006 0.500000
O O18 0.000000 0.139342 0.664795
O O19 0.597529 0.550776 0.500000
O O20 0.500000 0.571577 0.728736
O O21 0.616981 0.500000 0.731041
#
# Coordination Sequence:
#
# PCOD8194191 Si02
#       7
#     8   8   8   8   4   8   8
#     4   9  16  25  36  47  60  82 110 137 169 210
#     4  10  18  30  47  62  75  97 125 148 174 212
#     4   9  17  27  38  53  71  89 113 146 177 205
#     4   8  13  20  28  38  54  76 101 130 167 212
#     4  11  23  33  40  55  80 104 123 147 178 211
#     4   9  15  21  30  43  58  76 101 136 173 207
#     4   8  13  23  42  66  84  95 114 146 177 206
#
# _framework density 13.681575
#
# number of rings (size 3 to 8) (size 9 to 14) (size 15 to 20)
#    0.000    3.000    0.769    2.538    0.000    5.846 
#    0.000    3.077    0.000    0.923    0.000    0.000 
#    0.000    0.000    0.000    0.000    0.000    0.000 
#
# Total GULP energy -644460.447154 kJ/mol
# GULP energy per Si atom -12393.470138 kJ/mol
# Density = 1.365043 g / cm^3
# Si number density = 13.681575 Si / 1000 Ang^3
#
#
#
# Elastic Constant Matrix: (Units=GPa)
#
#
# Indices 1 2 3 4 5 6 
#
# 1 44.4248 36.0328 20.4803 0.0000 0.0000 0.0000
# 2 36.0328 136.2484 66.8464 0.0000 0.0000 0.0000
# 3 20.4803 66.8464 81.1577 0.0000 0.0000 0.0000
# 4 0.0000 0.0000 0.0000 23.0119 0.0000 0.0000
# 5 0.0000 0.0000 0.0000 0.0000 4.9588 0.0000
# 6 0.0000 0.0000 0.0000 0.0000 0.0000 0.7989
#
#
#
# Elastic Compliance Matrix: (Units=1/GPa)
#
#
# Indices 1 2 3 4 5 6 
#
# 1 0.028791 -0.006796 -0.001668 0.000000 0.000000 0.000000
# 2 -0.006796 0.013921 -0.009751 0.000000 0.000000 0.000000
# 3 -0.001668 -0.009751 0.020774 0.000000 0.000000 0.000000
# 4 0.000000 0.000000 0.000000 0.043456 0.000000 0.000000
# 5 0.000000 0.000000 0.000000 0.000000 0.201662 0.000000
# 6 0.000000 0.000000 0.000000 0.000000 0.000000 1.251678
#
#
# Mechanical properties :
#
#
# Convention : Reuss Voigt Hill
#
# Bulk Modulus (GPa) = 36.96018 56.50556 46.73287
# Shear Modulus (GPa) = 3.11385 14.98536 9.04961
#
# Velocity S-wave (km/s) = 1.51026 3.31311 2.57465
# Velocity P-wave (km/s) = 5.48766 7.48504 6.56278
#
# Compressibility (1/GPa) = 0.02705615
#
# Stress axis : x y z
#
# Youngs Moduli (GPa) = 34.73315 71.83434 48.13647
#
# Poissons Ratio (x) = 0.48817 0.08029
# Poissons Ratio (y) = 0.23604 0.46939
# Poissons Ratio (z) = 0.05794 0.70047
#
# Static dielectric constant tensor:
#      x y z
#    x 2.460430 0.000000 0.000000 
#    y 0.000000 2.886360 0.000000 
#    z 0.000000 0.000000 2.740990 
# 
# 
# High freq. dielectric constant tensor:
#      x y z
#    x 1.454310 0.000000 0.000000 
#    y 0.000000 1.525420 0.000000 
#    z 0.000000 0.000000 1.518630 
# 
# From -- ./inp_files/8005.got.cif
#   From: 2010.03.12/outbox.cif.g09.slc.cpg/sg47_5_cif.got.tgz:8005.got - 2010.04.14 03:12:58.
