data_PCOD8194592
_publ_section_title
;
Structure prediction by ZEFSAII (Michael W. Deem and Ramdas Pophale) SiO2 
 PCOD8194592
Probable space group: P M M M
;
_chemical_formula_sum "Si O2"
_cell_formula_units_Z 52
_cell_length_a 22.161834
_cell_length_b 14.793722
_cell_length_c 8.709009
_cell_angle_alpha 90.000000
_cell_angle_beta 90.000000
_cell_angle_gamma 90.000000
_cell_volume 2855.300952
_symmetry_space_group_name_H-M "P M M M"
_symmetry_group_IT_number 47
_symmetry_cell_setting 'orthorhombic'
loop_
_space_group_symop_operation_xyz
x,y,z
-x,-y,z
x,-y,-z
-x,y,-z
-x,-y,-z
x,y,-z
-x,y,z
x,-y,z
loop_
_atom_site_type_symbol
_atom_site_label
_atom_site_fract_x
_atom_site_fract_y
_atom_site_fract_z
Si Si1 0.070684 0.000000 0.170661
Si Si2 0.141214 0.341926 0.179759
Si Si3 0.066606 0.500000 0.680395
Si Si4 0.500000 0.604908 0.318873
Si Si5 0.431670 0.099034 0.817781
Si Si6 0.387947 0.710458 0.817084
Si Si7 0.272572 0.397668 0.182138
Si Si8 0.929875 0.815158 0.320372
O O1 0.090042 0.085094 0.271893
O O2 0.000000 0.000000 0.146486
O O3 0.100967 0.000000 0.000000
O O4 0.100252 0.411561 0.268039
O O5 0.209917 0.353167 0.237273
O O6 0.115416 0.244612 0.220722
O O7 0.136848 0.360911 0.000000
O O8 0.061997 0.500000 0.500000
O O9 0.000000 0.500000 0.753758
O O10 0.500000 0.500000 0.270946
O O11 0.500000 0.617325 0.500000
O O12 0.558505 0.651483 0.249754
O O13 0.500000 0.112896 0.758033
O O14 0.391983 0.184554 0.759262
O O15 0.407355 0.000000 0.759495
O O16 0.431584 0.098573 0.000000
O O17 0.325924 0.666492 0.755111
O O18 0.392025 0.706563 0.000000
O O19 0.278710 0.500000 0.248037
O O20 0.275180 0.401741 0.000000
O O21 0.918619 0.800467 0.500000
O O22 0.000000 0.794995 0.279301
#
# Coordination Sequence:
#
# PCOD8194592 Si02
#       8
#     4   8   4   4   8   8   8   8
#     4   9  17  31  53  81 109 137 173 216 265 322
#     4  11  21  35  54  75 105 141 177 219 271 324
#     4  11  23  37  53  77 107 136 175 226 269 317
#     4  11  23  35  46  71 112 140 163 215 274 313
#     4   8  13  23  44  78 110 129 157 208 259 301
#     4  10  18  32  57  79  98 135 182 217 255 309
#     4   9  18  33  52  75 101 132 174 225 265 305
#     4  10  20  34  53  79 109 139 173 217 268 320
#
# _framework density 18.211741
#
# number of rings (size 3 to 8) (size 9 to 14) (size 15 to 20)
#    0.000    2.231    1.538    3.000    0.000    5.538 
#    0.000    1.538    1.692    0.923    0.000    0.000 
#    0.000    0.000    0.000    0.000    0.000    0.000 
#
# Total GULP energy -644565.508038 kJ/mol
# GULP energy per Si atom -12395.490539 kJ/mol
# Density = 1.817029 g / cm^3
# Si number density = 18.211741 Si / 1000 Ang^3
#
#
#
# Elastic Constant Matrix: (Units=GPa)
#
#
# Indices 1 2 3 4 5 6 
#
# 1 138.2934 77.9989 22.8018 0.0000 0.0000 0.0000
# 2 77.9989 158.5280 13.6928 0.0000 0.0000 0.0000
# 3 22.8018 13.6928 32.9596 0.0000 0.0000 0.0000
# 4 0.0000 0.0000 0.0000 21.3162 0.0000 0.0000
# 5 0.0000 0.0000 0.0000 0.0000 -11.8270 0.0000
# 6 0.0000 0.0000 0.0000 0.0000 0.0000 38.7172
#
#
#
# Elastic Compliance Matrix: (Units=1/GPa)
#
#
# Indices 1 2 3 4 5 6 
#
# 1 0.010894 -0.004884 -0.005507 0.000000 0.000000 0.000000
# 2 -0.004884 0.008733 -0.000249 0.000000 0.000000 0.000000
# 3 -0.005507 -0.000249 0.034254 0.000000 0.000000 0.000000
# 4 0.000000 0.000000 0.000000 0.046913 0.000000 0.000000
# 5 0.000000 0.000000 0.000000 0.000000 -0.084552 0.000000
# 6 0.000000 0.000000 0.000000 0.000000 0.000000 0.025828
#
#
# Mechanical properties :
#
#
# Convention : Reuss Voigt Hill
#
# Bulk Modulus (GPa) = 30.67576 62.08534 46.38055
# Shear Modulus (GPa) = 67.37058 23.99377 45.68218
#
# Velocity S-wave (km/s) = 6.08878 3.63366 5.01382
# Velocity P-wave (km/s) = 8.14319 7.19510 7.68378
#
# Compressibility (1/GPa) = 0.03259903
#
# Stress axis : x y z
#
# Youngs Moduli (GPa) = 91.79502 114.51217 29.19401
#
# Poissons Ratio (x) = 0.55931 0.16078
# Poissons Ratio (y) = 0.44835 0.00727
# Poissons Ratio (z) = 0.50554 0.02851
#
# Static dielectric constant tensor:
#      x y z
#    x 3.410700 0.000000 0.000000 
#    y 0.000000 2.132090 0.000000 
#    z 0.000000 0.000000 3.091220 
# 
# 
# High freq. dielectric constant tensor:
#      x y z
#    x 1.687130 0.000000 0.000000 
#    y 0.000000 1.723700 0.000000 
#    z 0.000000 0.000000 1.680290 
# 
# From -- ./inp_files/11178.got.cif
#   From: 2010.03.12/outbox.cif.g09.slc.cpg/sg47_6_cif.got.tgz:11178.got - 2010.04.14 03:12:58.
