data_PCOD8194652
_publ_section_title
;
Structure prediction by ZEFSAII (Michael W. Deem and Ramdas Pophale) SiO2 
 PCOD8194652
Probable space group: P M M M
;
_chemical_formula_sum "Si O2"
_cell_formula_units_Z 48
_cell_length_a 9.213680
_cell_length_b 24.137642
_cell_length_c 13.932638
_cell_angle_alpha 90.000000
_cell_angle_beta 90.000000
_cell_angle_gamma 90.000000
_cell_volume 3098.570057
_symmetry_space_group_name_H-M "P M M M"
_symmetry_group_IT_number 47
_symmetry_cell_setting 'orthorhombic'
loop_
_space_group_symop_operation_xyz
x,y,z
-x,-y,z
x,-y,-z
-x,y,-z
-x,-y,-z
x,y,-z
-x,y,z
x,-y,z
loop_
_atom_site_type_symbol
_atom_site_label
_atom_site_fract_x
_atom_site_fract_y
_atom_site_fract_z
Si Si1 0.172409 0.668370 0.106001
Si Si2 0.162550 0.939164 0.386225
Si Si3 0.670762 0.832439 0.388845
Si Si4 0.173219 0.438879 0.788503
Si Si5 0.171711 0.377685 0.394994
Si Si6 0.829303 0.733215 0.290255
O O1 0.230930 0.607343 0.136824
O O2 0.219436 0.715235 0.182472
O O3 0.000000 0.665465 0.104937
O O4 0.233784 0.682839 0.000000
O O5 0.163122 0.940950 0.500000
O O6 0.272709 0.891890 0.350757
O O7 0.000000 0.925374 0.349415
O O8 0.211108 0.000000 0.347226
O O9 0.715516 0.822421 0.500000
O O10 0.500000 0.830764 0.375656
O O11 0.741374 0.786861 0.320802
O O12 0.233499 0.500000 0.815391
O O13 0.229567 0.422513 0.681804
O O14 0.000000 0.439124 0.789058
O O15 0.240515 0.389403 0.500000
O O16 0.213992 0.315949 0.362373
O O17 0.000000 0.382102 0.400378
O O18 0.000000 0.746253 0.294717
#
# Coordination Sequence:
#
# PCOD8194652 Si02
#       6
#     8   8   8   8   8   8
#     4   8  14  24  37  53  72  95 126 165 207 247
#     4   8  14  25  40  57  79 110 145 172 191 218
#     4  10  19  27  37  57  84 111 137 167 201 231
#     4   8  13  19  27  44  71 100 127 154 191 242
#     4   8  13  20  30  45  66  95 130 163 193 228
#     4   9  16  26  40  55  73 101 136 169 199 238
#
# _framework density 15.491016999999999
#
# number of rings (size 3 to 8) (size 9 to 14) (size 15 to 20)
#    0.000    3.500    0.000    3.500    0.000    2.667 
#    0.000    5.000    0.000    0.500    0.000    0.000 
#    0.000   11.333    0.000   50.333    0.000   39.833 
#
# Total GULP energy -594687.263954 kJ/mol
# GULP energy per Si atom -12389.317999 kJ/mol
# Density = 1.545576 g / cm^3
# Si number density = 15.491017 Si / 1000 Ang^3
#
#
#
# Elastic Constant Matrix: (Units=GPa)
#
#
# Indices 1 2 3 4 5 6 
#
# 1 33.2051 39.1208 20.3094 0.0000 0.0000 0.0000
# 2 39.1208 127.2235 48.1233 0.0000 0.0000 0.0000
# 3 20.3094 48.1233 97.4216 0.0000 0.0000 0.0000
# 4 0.0000 0.0000 0.0000 14.2942 0.0000 0.0000
# 5 0.0000 0.0000 0.0000 0.0000 7.0487 0.0000
# 6 0.0000 0.0000 0.0000 0.0000 0.0000 -0.2017
#
#
#
# Elastic Compliance Matrix: (Units=1/GPa)
#
#
# Indices 1 2 3 4 5 6 
#
# 1 0.048095 -0.013523 -0.003346 0.000000 0.000000 0.000000
# 2 -0.013523 0.013469 -0.003834 0.000000 0.000000 0.000000
# 3 -0.003346 -0.003834 0.012856 0.000000 0.000000 0.000000
# 4 0.000000 0.000000 0.000000 0.069959 0.000000 0.000000
# 5 0.000000 0.000000 0.000000 0.000000 0.141870 0.000000
# 6 0.000000 0.000000 0.000000 0.000000 0.000000 -4.957105
#
#
# Mechanical properties :
#
#
# Convention : Reuss Voigt Hill
#
# Bulk Modulus (GPa) = 30.29114 52.55079 41.42097
# Shear Modulus (GPa) = -1.08262 14.24801 6.58270
#
# Velocity S-wave (km/s) = -0.83689 3.03604 2.06364
# Velocity P-wave (km/s) = 4.32002 6.80346 5.69867
#
# Compressibility (1/GPa) = 0.03301296
#
# Stress axis : x y z
#
# Youngs Moduli (GPa) = 20.79210 74.24565 77.78400
#
# Poissons Ratio (x) = 1.00405 0.26028
# Poissons Ratio (y) = 0.28118 0.29822
# Poissons Ratio (z) = 0.06958 0.28466
#
# Static dielectric constant tensor:
#      x y z
#    x 2.509660 0.000000 0.000000 
#    y 0.000000 3.175470 0.000000 
#    z 0.000000 0.000000 3.166690 
# 
# 
# High freq. dielectric constant tensor:
#      x y z
#    x 1.543150 0.000000 0.000000 
#    y 0.000000 1.596260 0.000000 
#    z 0.000000 0.000000 1.567550 
# 
# From -- ./inp_files/7517.got.cif
#   From: 2010.03.12/outbox.cif.g09.slc.cpg/sg47_4_cif.got.tgz:7517.got - 2010.04.14 03:12:58.
