data_PCOD8194721
_publ_section_title
;
Structure prediction by ZEFSAII (Michael W. Deem and Ramdas Pophale) SiO2 
 PCOD8194721
Probable space group: P M M M
;
_chemical_formula_sum "Si O2"
_cell_formula_units_Z 52
_cell_length_a 12.691591
_cell_length_b 27.432494
_cell_length_c 9.183351
_cell_angle_alpha 90.000000
_cell_angle_beta 90.000000
_cell_angle_gamma 90.000000
_cell_volume 3197.293795
_symmetry_space_group_name_H-M "P M M M"
_symmetry_group_IT_number 47
_symmetry_cell_setting 'orthorhombic'
loop_
_space_group_symop_operation_xyz
x,y,z
-x,-y,z
x,-y,-z
-x,y,-z
-x,-y,-z
x,y,-z
-x,y,z
x,-y,z
loop_
_atom_site_type_symbol
_atom_site_label
_atom_site_fract_x
_atom_site_fract_y
_atom_site_fract_z
Si Si1 0.807474 0.253390 0.170014
Si Si2 0.881877 0.448458 0.673242
Si Si3 0.318846 0.112483 0.329661
Si Si4 0.500000 0.942356 0.166596
Si Si5 0.618742 0.778508 0.336480
Si Si6 0.877286 0.345215 0.340103
Si Si7 0.879938 0.147135 0.170825
O O1 0.687636 0.252495 0.224974
O O2 0.863817 0.300311 0.233203
O O3 0.866138 0.203654 0.218636
O O4 0.808960 0.259229 0.000000
O O5 0.884268 0.446142 0.500000
O O6 0.824735 0.500000 0.722071
O O7 0.828108 0.396705 0.723344
O O8 0.000000 0.451195 0.735809
O O9 0.310337 0.098793 0.500000
O O10 0.393527 0.074160 0.248385
O O11 0.373427 0.164293 0.304205
O O12 0.200993 0.113014 0.260396
O O13 0.500000 0.000000 0.168017
O O14 0.500000 0.922615 0.000000
O O15 0.658142 0.767934 0.500000
O O16 0.500000 0.761112 0.313819
O O17 0.829341 0.332589 0.500000
O O18 0.000000 0.355588 0.357590
O O19 0.000000 0.131278 0.206632
O O20 0.855213 0.141222 0.000000
#
# Coordination Sequence:
#
# PCOD8194721 Si02
#       7
#     8   8   8   4   8   8   8
#     4  10  19  28  40  62  90 121 154 185 220 264
#     4   7  10  18  33  52  72  97 135 181 223 262
#     4  10  19  33  53  77 101 125 157 197 240 277
#     4  11  23  37  55  79 105 131 159 191 232 283
#     4   9  17  31  48  66  90 117 147 183 223 267
#     4   9  16  25  38  56  80 112 147 183 223 263
#     4   9  18  32  48  68  97 133 168 196 226 273
#
# _framework density 16.263753000000001
#
# number of rings (size 3 to 8) (size 9 to 14) (size 15 to 20)
#    0.000    2.846    0.769    3.000    0.000    3.385 
#    0.000    0.000    0.000    0.923    0.000    5.385 
#    0.000    0.615    0.000    7.077    0.000    2.308 
#
# Total GULP energy -644181.623861 kJ/mol
# GULP energy per Si atom -12388.108151 kJ/mol
# Density = 1.622674 g / cm^3
# Si number density = 16.263753 Si / 1000 Ang^3
#
#
#
# Elastic Constant Matrix: (Units=GPa)
#
#
# Indices 1 2 3 4 5 6 
#
# 1 77.3068 31.9676 38.2527 0.0000 0.0000 0.0000
# 2 31.9676 70.7186 36.0568 0.0000 0.0000 0.0000
# 3 38.2527 36.0568 70.1186 0.0000 0.0000 0.0000
# 4 0.0000 0.0000 0.0000 16.0928 0.0000 0.0000
# 5 0.0000 0.0000 0.0000 0.0000 20.4361 0.0000
# 6 0.0000 0.0000 0.0000 0.0000 0.0000 12.5310
#
#
#
# Elastic Compliance Matrix: (Units=1/GPa)
#
#
# Indices 1 2 3 4 5 6 
#
# 1 0.018678 -0.004402 -0.007926 0.000000 0.000000 0.000000
# 2 -0.004402 0.020203 -0.007987 0.000000 0.000000 0.000000
# 3 -0.007926 -0.007987 0.022693 0.000000 0.000000 0.000000
# 4 0.000000 0.000000 0.000000 0.062140 0.000000 0.000000
# 5 0.000000 0.000000 0.000000 0.000000 0.048933 0.000000
# 6 0.000000 0.000000 0.000000 0.000000 0.000000 0.079802
#
#
# Mechanical properties :
#
#
# Convention : Reuss Voigt Hill
#
# Bulk Modulus (GPa) = 47.74888 47.85535 47.80212
# Shear Modulus (GPa) = 16.66336 17.26976 16.96656
#
# Velocity S-wave (km/s) = 3.20436 3.26215 3.23338
# Velocity P-wave (km/s) = 6.56608 6.60888 6.58751
#
# Compressibility (1/GPa) = 0.02094290
#
# Stress axis : x y z
#
# Youngs Moduli (GPa) = 53.54016 49.49790 44.06694
#
# Poissons Ratio (x) = 0.21789 0.34927
# Poissons Ratio (y) = 0.23568 0.35198
# Poissons Ratio (z) = 0.42435 0.39536
#
# Static dielectric constant tensor:
#      x y z
#    x 2.906810 0.000000 0.000000 
#    y 0.000000 3.194190 0.000000 
#    z 0.000000 0.000000 3.003730 
# 
# 
# High freq. dielectric constant tensor:
#      x y z
#    x 1.593310 0.000000 0.000000 
#    y 0.000000 1.617150 0.000000 
#    z 0.000000 0.000000 1.616030 
# 
# From -- ./inp_files/4577.got.cif
#   From: 2010.03.12/outbox.cif.g09.slc.cpg/sg47_3_cif.got.tgz:4577.got - 2010.04.14 03:12:58.
