data_PCOD8194042
_publ_section_title
;
Structure prediction by ZEFSAII (Michael W. Deem and Ramdas Pophale) SiO2 
 PCOD8194042
Probable space group: P M M M
;
_chemical_formula_sum "Si O2"
_cell_formula_units_Z 64
_cell_length_a 18.332397
_cell_length_b 13.946516
_cell_length_c 15.190357
_cell_angle_alpha 90.000000
_cell_angle_beta 90.000000
_cell_angle_gamma 90.000000
_cell_volume 3883.765179
_symmetry_space_group_name_H-M "P M M M"
_symmetry_group_IT_number 47
_symmetry_cell_setting 'orthorhombic'
loop_
_space_group_symop_operation_xyz
x,y,z
-x,-y,z
x,-y,-z
-x,y,-z
-x,-y,-z
x,y,-z
-x,y,z
x,-y,z
loop_
_atom_site_type_symbol
_atom_site_label
_atom_site_fract_x
_atom_site_fract_y
_atom_site_fract_z
Si Si1 0.329330 0.888235 0.902055
Si Si2 0.581046 0.886382 0.740543
Si Si3 0.919096 0.894669 0.675689
Si Si4 0.082961 0.714712 0.095016
Si Si5 0.165973 0.108517 0.148180
Si Si6 0.914971 0.612374 0.728123
Si Si7 0.702444 0.889224 0.602497
Si Si8 0.166214 0.746428 0.597808
O O1 0.387931 0.844458 0.833327
O O2 0.251462 0.870517 0.856985
O O3 0.343488 0.000000 0.913576
O O4 0.335067 0.840440 0.000000
O O5 0.500000 0.843852 0.725225
O O6 0.631782 0.857874 0.658275
O O7 0.578000 0.000000 0.747858
O O8 0.860995 0.875810 0.752527
O O9 0.902055 0.820117 0.598205
O O10 0.000000 0.877467 0.714052
O O11 0.911289 0.000000 0.635195
O O12 0.126511 0.814161 0.087933
O O13 0.107766 0.644715 0.173513
O O14 0.000000 0.743979 0.110590
O O15 0.093479 0.662387 0.000000
O O16 0.148211 0.000000 0.115864
O O17 0.903494 0.500000 0.720242
O O18 0.855767 0.660303 0.662943
O O19 0.000000 0.639130 0.706823
O O20 0.681639 0.883520 0.500000
O O21 0.764103 0.810754 0.626121
O O22 0.726839 0.000000 0.625882
O O23 0.176244 0.703792 0.500000
#
# Coordination Sequence:
#
# PCOD8194042 Si02
#       8
#     8   8   8   8   8   8   8   8
#     4   9  17  27  39  58  87 125 164 196 226 263
#     4   9  17  28  43  65  93 128 166 196 224 264
#     4  10  19  29  43  64  92 126 160 196 237 280
#     4  10  20  33  50  71  93 122 161 200 242 291
#     4  10  18  29  45  66  96 131 164 197 236 281
#     4  10  22  39  54  69  92 121 158 207 257 298
#     4   9  18  32  49  71  98 127 159 195 235 281
#     4  11  21  33  51  71  92 122 159 197 243 295
#
# _framework density 16.478853999999998
#
# number of rings (size 3 to 8) (size 9 to 14) (size 15 to 20)
#    0.000    2.250    1.250    2.250    0.000    6.250 
#    0.000    5.625    0.000    0.000    0.000    0.000 
#    0.000    0.500    0.000    2.750    0.000    3.375 
#
# Total GULP energy -792922.915708 kJ/mol
# GULP energy per Si atom -12389.420558 kJ/mol
# Density = 1.644135 g / cm^3
# Si number density = 16.478854 Si / 1000 Ang^3
#
#
#
# Elastic Constant Matrix: (Units=GPa)
#
#
# Indices 1 2 3 4 5 6 
#
# 1 98.0799 36.7943 61.5812 0.0000 0.0000 0.0000
# 2 36.7943 65.9380 33.1734 0.0000 0.0000 0.0000
# 3 61.5812 33.1734 100.0159 0.0000 0.0000 0.0000
# 4 0.0000 0.0000 0.0000 10.6735 0.0000 0.0000
# 5 0.0000 0.0000 0.0000 0.0000 20.8259 0.0000
# 6 0.0000 0.0000 0.0000 0.0000 0.0000 9.6430
#
#
#
# Elastic Compliance Matrix: (Units=1/GPa)
#
#
# Indices 1 2 3 4 5 6 
#
# 1 0.018088 -0.005390 -0.009349 0.000000 0.000000 0.000000
# 2 -0.005390 0.019809 -0.003252 0.000000 0.000000 0.000000
# 3 -0.009349 -0.003252 0.016833 0.000000 0.000000 0.000000
# 4 0.000000 0.000000 0.000000 0.093690 0.000000 0.000000
# 5 0.000000 0.000000 0.000000 0.000000 0.048017 0.000000
# 6 0.000000 0.000000 0.000000 0.000000 0.000000 0.103702
#
#
# Mechanical properties :
#
#
# Convention : Reuss Voigt Hill
#
# Bulk Modulus (GPa) = 53.33630 58.57019 55.95324
# Shear Modulus (GPa) = 14.60407 17.06083 15.83245
#
# Velocity S-wave (km/s) = 2.98019 3.22112 3.10300
# Velocity P-wave (km/s) = 6.65423 7.03235 6.84590
#
# Compressibility (1/GPa) = 0.01874896
#
# Stress axis : x y z
#
# Youngs Moduli (GPa) = 55.28603 50.48146 59.40548
#
# Poissons Ratio (x) = 0.27208 0.55540
# Poissons Ratio (y) = 0.29797 0.19318
# Poissons Ratio (z) = 0.51688 0.16416
#
# Static dielectric constant tensor:
#      x y z
#    x 3.146470 0.000000 0.000000 
#    y 0.000000 2.764630 0.000000 
#    z 0.000000 0.000000 3.294260 
# 
# 
# High freq. dielectric constant tensor:
#      x y z
#    x 1.619360 0.000000 0.000000 
#    y 0.000000 1.580310 0.000000 
#    z 0.000000 0.000000 1.648640 
# 
# From -- ./inp_files/24123.got.cif
#   From: 2010.03.12/outbox.cif.g09.slc.cpg/sg47_13_cif.got.tgz:24123.got - 2010.04.14 03:12:58.
