data_PCOD8194203
_publ_section_title
;
Structure prediction by ZEFSAII (Michael W. Deem and Ramdas Pophale) SiO2 
 PCOD8194203
Probable space group: P M M M
;
_chemical_formula_sum "Si O2"
_cell_formula_units_Z 52
_cell_length_a 18.729464
_cell_length_b 10.255079
_cell_length_c 15.138625
_cell_angle_alpha 90.000000
_cell_angle_beta 90.000000
_cell_angle_gamma 90.000000
_cell_volume 2907.707994
_symmetry_space_group_name_H-M "P M M M"
_symmetry_group_IT_number 47
_symmetry_cell_setting 'orthorhombic'
loop_
_space_group_symop_operation_xyz
x,y,z
-x,-y,z
x,-y,-z
-x,y,-z
-x,-y,-z
x,y,-z
-x,y,z
x,-y,z
loop_
_atom_site_type_symbol
_atom_site_label
_atom_site_fract_x
_atom_site_fract_y
_atom_site_fract_z
Si Si1 0.315237 0.149435 0.399025
Si Si2 0.421096 0.847010 0.247103
Si Si3 0.840618 0.745558 0.898160
Si Si4 0.313688 0.151238 0.900031
Si Si5 0.078395 0.646389 0.256870
Si Si6 0.920884 0.000000 0.104701
Si Si7 0.811575 0.652290 0.601484
O O1 0.340068 0.162975 0.500000
O O2 0.383265 0.186150 0.339470
O O3 0.254537 0.253812 0.376174
O O4 0.289444 0.000000 0.379470
O O5 0.500000 0.782055 0.245868
O O6 0.374285 0.793647 0.165116
O O7 0.429278 0.000000 0.234566
O O8 0.756048 0.760009 0.885540
O O9 0.875264 0.639299 0.833837
O O10 0.878257 0.875562 0.862214
O O11 0.859328 0.712774 0.000000
O O12 0.294087 0.000000 0.880571
O O13 0.341759 0.166142 0.000000
O O14 0.063542 0.500000 0.285092
O O15 0.124498 0.707134 0.337100
O O16 0.000000 0.715398 0.246107
O O17 0.000000 0.000000 0.145432
O O18 0.923202 0.000000 0.000000
O O19 0.835084 0.668889 0.500000
O O20 0.791966 0.500000 0.621525
#
# Coordination Sequence:
#
# PCOD8194203 Si02
#       7
#     8   8   8   8   8   4   8
#     4   9  17  30  50  74  98 124 154 192 239 286
#     4   9  17  27  41  65  96 127 157 190 232 285
#     4  10  18  30  47  66  91 123 157 195 237 282
#     4   9  16  27  43  63  88 120 158 197 236 275
#     4  10  21  34  47  67  94 123 157 196 239 287
#     4   9  16  26  42  64  88 116 152 191 230 276
#     4   9  18  34  55  74  93 123 163 203 239 280
#
# _framework density 17.883500000000002
#
# number of rings (size 3 to 8) (size 9 to 14) (size 15 to 20)
#    0.000    2.692    0.769    1.385    0.000    2.154 
#    1.385    5.385    0.000    0.462    0.000    4.308 
#    0.000    0.000    0.000   13.231    0.000    2.615 
#
# Total GULP energy -644419.986907 kJ/mol
# GULP energy per Si atom -12392.692056 kJ/mol
# Density = 1.784280 g / cm^3
# Si number density = 17.883500 Si / 1000 Ang^3
#
#
#
# Elastic Constant Matrix: (Units=GPa)
#
#
# Indices 1 2 3 4 5 6 
#
# 1 147.0059 28.0279 82.9916 0.0000 0.0000 0.0000
# 2 28.0279 35.2566 19.6500 0.0000 0.0000 0.0000
# 3 82.9916 19.6500 112.5593 0.0000 0.0000 0.0000
# 4 0.0000 0.0000 0.0000 19.2446 0.0000 0.0000
# 5 0.0000 0.0000 0.0000 0.0000 26.6855 0.0000
# 6 0.0000 0.0000 0.0000 0.0000 0.0000 16.4016
#
#
#
# Elastic Compliance Matrix: (Units=1/GPa)
#
#
# Indices 1 2 3 4 5 6 
#
# 1 0.012491 -0.005314 -0.008282 0.000000 0.000000 0.000000
# 2 -0.005314 0.033681 -0.001962 0.000000 0.000000 0.000000
# 3 -0.008282 -0.001962 0.015333 0.000000 0.000000 0.000000
# 4 0.000000 0.000000 0.000000 0.051963 0.000000 0.000000
# 5 0.000000 0.000000 0.000000 0.000000 0.037473 0.000000
# 6 0.000000 0.000000 0.000000 0.000000 0.000000 0.060970
#
#
# Mechanical properties :
#
#
# Convention : Reuss Voigt Hill
#
# Bulk Modulus (GPa) = 32.90586 61.79565 47.35076
# Shear Modulus (GPa) = 19.75046 23.40983 21.58015
#
# Velocity S-wave (km/s) = 3.32685 3.62196 3.47754
# Velocity P-wave (km/s) = 5.76171 7.21949 6.53140
#
# Compressibility (1/GPa) = 0.03038972
#
# Stress axis : x y z
#
# Youngs Moduli (GPa) = 80.05495 29.68991 65.21717
#
# Poissons Ratio (x) = 0.15778 0.54015
# Poissons Ratio (y) = 0.42543 0.12794
# Poissons Ratio (z) = 0.66305 0.05824
#
# Static dielectric constant tensor:
#      x y z
#    x 3.553390 0.000000 0.000000 
#    y 0.000000 3.081190 0.000000 
#    z 0.000000 0.000000 3.351130 
# 
# 
# High freq. dielectric constant tensor:
#      x y z
#    x 1.689760 0.000000 0.000000 
#    y 0.000000 1.650680 0.000000 
#    z 0.000000 0.000000 1.698720 
# 
# From -- ./inp_files/18549.got.cif
#   From: 2010.03.12/outbox.cif.g09.slc.cpg/sg47_10_cif.got.tgz:18549.got - 2010.04.14 03:12:58.
