data_PCOD8194468
_publ_section_title
;
Structure prediction by ZEFSAII (Michael W. Deem and Ramdas Pophale) SiO2 
 PCOD8194468
Probable space group: P M M M
;
_chemical_formula_sum "Si O2"
_cell_formula_units_Z 48
_cell_length_a 8.922777
_cell_length_b 17.913086
_cell_length_c 15.665333
_cell_angle_alpha 90.000000
_cell_angle_beta 90.000000
_cell_angle_gamma 90.000000
_cell_volume 2503.860225
_symmetry_space_group_name_H-M "P M M M"
_symmetry_group_IT_number 47
_symmetry_cell_setting 'orthorhombic'
loop_
_space_group_symop_operation_xyz
x,y,z
-x,-y,z
x,-y,-z
-x,y,-z
-x,-y,-z
x,y,-z
-x,y,z
x,-y,z
loop_
_atom_site_type_symbol
_atom_site_label
_atom_site_fract_x
_atom_site_fract_y
_atom_site_fract_z
Si Si1 0.678730 0.000000 0.096720
Si Si2 0.322165 0.845297 0.829430
Si Si3 0.677693 0.193367 0.642054
Si Si4 0.673336 0.414879 0.243891
Si Si5 0.175410 0.347698 0.403557
Si Si6 0.322548 0.918235 0.500000
Si Si7 0.321835 0.691967 0.094281
O O1 0.744515 0.925019 0.140744
O O2 0.500000 0.000000 0.101842
O O3 0.734651 0.000000 0.000000
O O4 0.500000 0.851275 0.829707
O O5 0.262717 0.825975 0.735681
O O6 0.269591 0.777402 0.890197
O O7 0.500000 0.205805 0.639900
O O8 0.753252 0.267055 0.607015
O O9 0.730711 0.124894 0.583941
O O10 0.500000 0.394552 0.259013
O O11 0.694012 0.500000 0.214226
O O12 0.756884 0.403749 0.333679
O O13 0.741582 0.362670 0.168419
O O14 0.209095 0.376910 0.500000
O O15 0.000000 0.341762 0.387367
O O16 0.500000 0.925157 0.500000
O O17 0.247984 0.000000 0.500000
O O18 0.500000 0.686871 0.096658
O O19 0.263185 0.667779 0.000000
#
# Coordination Sequence:
#
# PCOD8194468 Si02
#       7
#     4   8   8   8   8   4   8
#     4   9  16  24  36  65 110 145 168 207 265 317
#     4   9  16  25  42  69 103 140 175 212 256 307
#     4  10  18  31  52  76 104 140 181 224 265 316
#     4  10  21  37  57  83 112 140 174 216 265 323
#     4  11  23  38  57  79 105 139 180 224 270 322
#     4   9  18  28  45  77 110 137 172 223 279 324
#     4   9  16  28  49  77 108 140 174 213 258 310
#
# _framework density 19.170399
#
# number of rings (size 3 to 8) (size 9 to 14) (size 15 to 20)
#    0.000    2.333    2.500    1.000    1.167    4.000 
#    0.000    3.333    0.000    1.500    0.000    1.167 
#    0.000    0.667    0.000    0.000    0.000    0.000 
#
# Total GULP energy -595019.839145 kJ/mol
# GULP energy per Si atom -12396.246649 kJ/mol
# Density = 1.912677 g / cm^3
# Si number density = 19.170399 Si / 1000 Ang^3
#
#
#
# Elastic Constant Matrix: (Units=GPa)
#
#
# Indices 1 2 3 4 5 6 
#
# 1 28.8141 16.0859 25.1777 0.0000 0.0000 0.0000
# 2 16.0859 114.3675 51.2903 0.0000 0.0000 0.0000
# 3 25.1777 51.2903 154.9145 0.0000 0.0000 0.0000
# 4 0.0000 0.0000 0.0000 31.1298 0.0000 0.0000
# 5 0.0000 0.0000 0.0000 0.0000 8.8554 0.0000
# 6 0.0000 0.0000 0.0000 0.0000 0.0000 -1.4225
#
#
#
# Elastic Compliance Matrix: (Units=1/GPa)
#
#
# Indices 1 2 3 4 5 6 
#
# 1 0.041485 -0.003301 -0.005649 0.000000 0.000000 0.000000
# 2 -0.003301 0.010531 -0.002950 0.000000 0.000000 0.000000
# 3 -0.005649 -0.002950 0.008350 0.000000 0.000000 0.000000
# 4 0.000000 0.000000 0.000000 0.032124 0.000000 0.000000
# 5 0.000000 0.000000 0.000000 0.000000 0.112925 0.000000
# 6 0.000000 0.000000 0.000000 0.000000 0.000000 -0.703005
#
#
# Mechanical properties :
#
#
# Convention : Reuss Voigt Hill
#
# Bulk Modulus (GPa) = 27.34910 53.68931 40.51921
# Shear Modulus (GPa) = -10.83187 21.41536 5.29174
#
# Velocity S-wave (km/s) = -2.37962 3.34594 1.66324
# Velocity P-wave (km/s) = 2.59754 6.55700 4.98705
#
# Compressibility (1/GPa) = 0.03656427
#
# Stress axis : x y z
#
# Youngs Moduli (GPa) = 24.10528 94.95642 119.75898
#
# Poissons Ratio (x) = 0.31348 0.67656
# Poissons Ratio (y) = 0.07958 0.35331
# Poissons Ratio (z) = 0.13618 0.28014
#
# Static dielectric constant tensor:
#      x y z
#    x 2.918850 0.000000 0.000000 
#    y 0.000000 3.688910 0.000000 
#    z 0.000000 0.000000 3.791800 
# 
# 
# High freq. dielectric constant tensor:
#      x y z
#    x 1.675950 0.000000 0.000000 
#    y 0.000000 1.754100 0.000000 
#    z 0.000000 0.000000 1.763070 
# 
# From -- ./inp_files/21107.got.cif
#   From: 2010.03.12/outbox.cif.g09.slc.cpg/sg47_11_cif.got.tgz:21107.got - 2010.04.14 03:12:58.
