data_PCOD8194689
_publ_section_title
;
Structure prediction by ZEFSAII (Michael W. Deem and Ramdas Pophale) SiO2 
 PCOD8194689
Probable space group: P M M M
;
_chemical_formula_sum "Si O2"
_cell_formula_units_Z 56
_cell_length_a 28.828161
_cell_length_b 9.231511
_cell_length_c 13.543742
_cell_angle_alpha 90.000000
_cell_angle_beta 90.000000
_cell_angle_gamma 90.000000
_cell_volume 3604.362001
_symmetry_space_group_name_H-M "P M M M"
_symmetry_group_IT_number 47
_symmetry_cell_setting 'orthorhombic'
loop_
_space_group_symop_operation_xyz
x,y,z
-x,-y,z
x,-y,-z
-x,y,-z
-x,-y,-z
x,y,-z
-x,y,z
x,-y,z
loop_
_atom_site_type_symbol
_atom_site_label
_atom_site_fract_x
_atom_site_fract_y
_atom_site_fract_z
Si Si1 0.140012 0.169230 0.384406
Si Si2 0.948971 0.337819 0.617090
Si Si3 0.447043 0.331836 0.886634
Si Si4 0.635347 0.168468 0.201040
Si Si5 0.691459 0.834979 0.389607
Si Si6 0.282000 0.665658 0.889408
Si Si7 0.226063 0.330565 0.699926
O O1 0.147749 0.203829 0.500000
O O2 0.090149 0.226318 0.346205
O O3 0.178248 0.249956 0.319884
O O4 0.142817 0.000000 0.362926
O O5 0.950101 0.337712 0.500000
O O6 0.937243 0.500000 0.655041
O O7 0.000000 0.289969 0.656744
O O8 0.500000 0.294672 0.859737
O O9 0.436818 0.500000 0.868959
O O10 0.414643 0.239153 0.815062
O O11 0.436800 0.290715 0.000000
O O12 0.649899 0.199886 0.314187
O O13 0.673203 0.235582 0.127573
O O14 0.631848 0.000000 0.177355
O O15 0.672181 0.811029 0.500000
O O16 0.734696 0.729286 0.373284
O O17 0.709029 0.000000 0.374355
O O18 0.298118 0.500000 0.874767
O O19 0.240899 0.702768 0.812918
O O20 0.263070 0.692965 0.000000
O O21 0.219533 0.500000 0.679462
#
# Coordination Sequence:
#
# PCOD8194689 Si02
#       7
#     8   8   8   8   8   8   8
#     4  10  19  28  39  57  84 117 146 173 209 251
#     4   8  14  25  40  57  78 106 141 179 214 246
#     4   9  18  32  48  65  87 115 141 165 202 253
#     4  10  19  29  45  69  90 109 138 174 208 243
#     4   9  18  32  46  60  84 116 144 171 206 247
#     4   9  18  32  47  62  84 114 142 168 205 254
#     4  10  19  29  43  63  84 108 142 180 211 242
#
# _framework density 15.53673
#
# number of rings (size 3 to 8) (size 9 to 14) (size 15 to 20)
#    0.000    2.714    0.000    3.000    0.000    6.857 
#    0.000    2.143    0.000    0.429    0.000    3.000 
#    0.000    0.571    0.000    6.571    0.000    2.143 
#
# Total GULP energy -694327.445993 kJ/mol
# GULP energy per Si atom -12398.704393 kJ/mol
# Density = 1.550137 g / cm^3
# Si number density = 15.536730 Si / 1000 Ang^3
#
#
#
# Elastic Constant Matrix: (Units=GPa)
#
#
# Indices 1 2 3 4 5 6 
#
# 1 124.7211 68.9880 48.8110 0.0000 0.0000 0.0000
# 2 68.9880 89.4696 39.9264 0.0000 0.0000 0.0000
# 3 48.8110 39.9264 79.7966 0.0000 0.0000 0.0000
# 4 0.0000 0.0000 0.0000 19.7025 0.0000 0.0000
# 5 0.0000 0.0000 0.0000 0.0000 18.3187 0.0000
# 6 0.0000 0.0000 0.0000 0.0000 0.0000 25.2891
#
#
#
# Elastic Compliance Matrix: (Units=1/GPa)
#
#
# Indices 1 2 3 4 5 6 
#
# 1 0.015087 -0.009675 -0.004387 0.000000 0.000000 0.000000
# 2 -0.009675 0.020595 -0.004386 0.000000 0.000000 0.000000
# 3 -0.004387 -0.004386 0.017410 0.000000 0.000000 0.000000
# 4 0.000000 0.000000 0.000000 0.050755 0.000000 0.000000
# 5 0.000000 0.000000 0.000000 0.000000 0.054589 0.000000
# 6 0.000000 0.000000 0.000000 0.000000 0.000000 0.039543
#
#
# Mechanical properties :
#
#
# Convention : Reuss Voigt Hill
#
# Bulk Modulus (GPa) = 61.75188 67.71535 64.73361
# Shear Modulus (GPa) = 20.80957 21.74619 21.27788
#
# Velocity S-wave (km/s) = 3.66372 3.74527 3.70472
# Velocity P-wave (km/s) = 7.59797 7.89819 7.74953
#
# Compressibility (1/GPa) = 0.01619384
#
# Stress axis : x y z
#
# Youngs Moduli (GPa) = 66.28408 48.55627 57.43695
#
# Poissons Ratio (x) = 0.46978 0.25200
# Poissons Ratio (y) = 0.64130 0.25194
# Poissons Ratio (z) = 0.29082 0.21299
#
# Static dielectric constant tensor:
#      x y z
#    x 3.018720 0.000000 0.000000 
#    y 0.000000 3.066640 0.000000 
#    z 0.000000 0.000000 2.813900 
# 
# 
# High freq. dielectric constant tensor:
#      x y z
#    x 1.589490 0.000000 0.000000 
#    y 0.000000 1.606140 0.000000 
#    z 0.000000 0.000000 1.564700 
# 
# From -- ./inp_files/25799.got.cif
#   From: 2010.03.12/outbox.cif.g09.slc.cpg/sg47_13_cif.got.tgz:25799.got - 2010.04.14 03:12:58.
