data_PCOD8194776
_publ_section_title
;
Structure prediction by ZEFSAII (Michael W. Deem and Ramdas Pophale) SiO2 
 PCOD8194776
Probable space group: P M M M
;
_chemical_formula_sum "Si O2"
_cell_formula_units_Z 60
_cell_length_a 28.457882
_cell_length_b 9.190025
_cell_length_c 19.291366
_cell_angle_alpha 90.000000
_cell_angle_beta 90.000000
_cell_angle_gamma 90.000000
_cell_volume 5045.244849
_symmetry_space_group_name_H-M "P M M M"
_symmetry_group_IT_number 47
_symmetry_cell_setting 'orthorhombic'
loop_
_space_group_symop_operation_xyz
x,y,z
-x,-y,z
x,-y,-z
-x,y,-z
-x,-y,-z
x,y,-z
-x,y,z
x,-y,z
loop_
_atom_site_type_symbol
_atom_site_label
_atom_site_fract_x
_atom_site_fract_y
_atom_site_fract_z
Si Si1 0.269552 0.836117 0.582526
Si Si2 0.359503 0.663524 0.582779
Si Si3 0.551765 0.836482 0.582411
Si Si4 0.055774 0.662983 0.076396
Si Si5 0.178433 0.667953 0.420763
Si Si6 0.944305 0.167522 0.790850
Si Si7 0.917120 0.328782 0.656786
Si Si8 0.000000 0.833532 0.581988
O O1 0.270722 0.832767 0.500000
O O2 0.314999 0.752381 0.612024
O O3 0.222068 0.759601 0.608924
O O4 0.270672 0.000000 0.611102
O O5 0.359697 0.666459 0.500000
O O6 0.356062 0.500000 0.611018
O O7 0.407581 0.733092 0.612707
O O8 0.554089 0.836008 0.500000
O O9 0.500000 0.781519 0.606561
O O10 0.560516 0.000000 0.609642
O O11 0.073982 0.500000 0.093394
O O12 0.073658 0.775496 0.134453
O O13 0.000000 0.662554 0.076063
O O14 0.074044 0.711691 0.000000
O O15 0.166504 0.711062 0.500000
O O16 0.192834 0.500000 0.416248
O O17 0.133907 0.703979 0.373779
O O18 0.918373 0.264391 0.733744
O O19 0.000000 0.187685 0.781514
O O20 0.929524 0.000000 0.783363
O O21 0.928632 0.500000 0.658141
O O22 0.954168 0.247963 0.608487
O O23 0.000000 0.829479 0.500000
O O24 0.000000 0.000000 0.609782
#
# Coordination Sequence:
#
# PCOD8194776 Si02
#       8
#     8   8   8   8   8   8   8   4
#     4   9  16  25  37  50  61  75  95 120 154 193
#     4   9  15  21  30  43  58  75  94 118 146 177
#     4   8  13  20  28  38  54  75  96 117 141 172
#     4   8  14  25  41  59  77  96 117 136 152 175
#     4   9  18  31  43  54  66  79 101 134 168 200
#     4  10  19  29  41  57  78  97 113 134 158 185
#     4  11  21  32  46  58  70  90 112 134 161 197
#     4  11  23  35  45  57  72  87 106 135 167 199
#
# _framework density 11.892386
#
# number of rings (size 3 to 8) (size 9 to 14) (size 15 to 20)
#    0.000    2.733    0.667    3.000    0.000    6.400 
#    0.000    4.000    0.000    0.000    0.000    0.000 
#    0.000    0.000    0.000    0.000    0.000    0.000 
#
# Total GULP energy -743788.576656 kJ/mol
# GULP energy per Si atom -12396.476278 kJ/mol
# Density = 1.186532 g / cm^3
# Si number density = 11.892386 Si / 1000 Ang^3
#
#
#
# Elastic Constant Matrix: (Units=GPa)
#
#
# Indices 1 2 3 4 5 6 
#
# 1 85.8755 57.6825 23.3575 0.0000 0.0000 0.0000
# 2 57.6825 97.9110 29.9678 0.0000 0.0000 0.0000
# 3 23.3575 29.9678 45.7640 0.0000 0.0000 0.0000
# 4 0.0000 0.0000 0.0000 13.2805 0.0000 0.0000
# 5 0.0000 0.0000 0.0000 0.0000 0.2943 0.0000
# 6 0.0000 0.0000 0.0000 0.0000 0.0000 20.9050
#
#
#
# Elastic Compliance Matrix: (Units=1/GPa)
#
#
# Indices 1 2 3 4 5 6 
#
# 1 0.019606 -0.010615 -0.003055 0.000000 0.000000 0.000000
# 2 -0.010615 0.018521 -0.006710 0.000000 0.000000 0.000000
# 3 -0.003055 -0.006710 0.027805 0.000000 0.000000 0.000000
# 4 0.000000 0.000000 0.000000 0.075298 0.000000 0.000000
# 5 0.000000 0.000000 0.000000 0.000000 3.398249 0.000000
# 6 0.000000 0.000000 0.000000 0.000000 0.000000 0.047836
#
#
# Mechanical properties :
#
#
# Convention : Reuss Voigt Hill
#
# Bulk Modulus (GPa) = 39.73008 50.17402 44.95205
# Shear Modulus (GPa) = 1.37496 14.79879 8.08688
#
# Velocity S-wave (km/s) = 1.07642 3.53142 2.61052
# Velocity P-wave (km/s) = 5.91823 7.67526 6.85328
#
# Compressibility (1/GPa) = 0.02516984
#
# Stress axis : x y z
#
# Youngs Moduli (GPa) = 51.00415 53.99258 35.96502
#
# Poissons Ratio (x) = 0.57316 0.10989
# Poissons Ratio (y) = 0.54143 0.24133
# Poissons Ratio (z) = 0.15584 0.36230
#
# Static dielectric constant tensor:
#      x y z
#    x 2.455020 0.000000 0.000000 
#    y 0.000000 2.662610 0.000000 
#    z 0.000000 0.000000 2.220100 
# 
# 
# High freq. dielectric constant tensor:
#      x y z
#    x 1.433400 0.000000 0.000000 
#    y 0.000000 1.467040 0.000000 
#    z 0.000000 0.000000 1.395580 
# 
# From -- ./inp_files/31591.got.cif
#   From: 2010.03.12/outbox.cif.g09.slc.cpg/sg47_16_cif.got.tgz:31591.got - 2010.04.14 03:12:58.
