data_PCOD8194193
_publ_section_title
;
Structure prediction by ZEFSAII (Michael W. Deem and Ramdas Pophale) SiO2 
 PCOD8194193
Probable space group: P M M M
;
_chemical_formula_sum "Si O2"
_cell_formula_units_Z 64
_cell_length_a 14.297465
_cell_length_b 9.181072
_cell_length_c 31.001550
_cell_angle_alpha 90.000000
_cell_angle_beta 90.000000
_cell_angle_gamma 90.000000
_cell_volume 4069.451185
_symmetry_space_group_name_H-M "P M M M"
_symmetry_group_IT_number 47
_symmetry_cell_setting 'orthorhombic'
loop_
_space_group_symop_operation_xyz
x,y,z
-x,-y,z
x,-y,-z
-x,y,-z
-x,-y,-z
x,y,-z
-x,y,z
x,-y,z
loop_
_atom_site_type_symbol
_atom_site_label
_atom_site_fract_x
_atom_site_fract_y
_atom_site_fract_z
Si Si1 0.108959 0.831431 0.202342
Si Si2 0.394036 0.168685 0.157080
Si Si3 0.398350 0.172788 0.745177
Si Si4 0.220887 0.326699 0.871750
Si Si5 0.108558 0.670565 0.630319
Si Si6 0.895420 0.327077 0.047587
Si Si7 0.793935 0.829464 0.291890
Si Si8 0.111025 0.163715 0.547337
O O1 0.163574 0.731890 0.168885
O O2 0.144204 0.793828 0.250139
O O3 0.000000 0.793712 0.199695
O O4 0.129220 0.000000 0.191618
O O5 0.500000 0.191251 0.140776
O O6 0.383063 0.226764 0.205971
O O7 0.325975 0.264813 0.127571
O O8 0.364735 0.000000 0.153877
O O9 0.500000 0.229196 0.727873
O O10 0.312851 0.226135 0.715481
O O11 0.399107 0.000000 0.746713
O O12 0.222896 0.500000 0.869556
O O13 0.173383 0.267389 0.915627
O O14 0.124669 0.500000 0.631030
O O15 0.166892 0.741127 0.668323
O O16 0.148290 0.730116 0.584752
O O17 0.000000 0.712359 0.636351
O O18 0.897195 0.500000 0.049011
O O19 0.000000 0.267581 0.056708
O O20 0.861798 0.274521 0.000000
O O21 0.797495 0.000000 0.302859
O O22 0.148152 0.214399 0.500000
O O23 0.000000 0.167410 0.546663
O O24 0.146137 0.000000 0.557067
#
# Coordination Sequence:
#
# PCOD8194193 Si02
#       8
#     8   8   8   8   8   8   8   8
#     4  10  20  32  45  63  90 125 160 188 217 264
#     4   9  17  32  52  69  89 119 152 184 223 274
#     4   8  14  27  48  68  83 106 146 190 224 259
#     4  11  20  29  47  73  96 115 144 190 236 274
#     4  10  20  30  40  59  90 125 156 187 226 268
#     4   8  15  29  47  66  90 121 154 184 219 268
#     4  10  18  30  47  63  84 117 156 189 216 257
#     4   8  14  26  44  63  82 109 150 195 231 265
#
# _framework density 15.726936
#
# number of rings (size 3 to 8) (size 9 to 14) (size 15 to 20)
#    0.000    2.750    1.250    3.000    0.000    3.000 
#    0.000    1.250    0.000    2.250    0.000    7.000 
#    0.000    0.500    0.000    5.750    0.000    1.875 
#
# Total GULP energy -793284.617518 kJ/mol
# GULP energy per Si atom -12395.072149 kJ/mol
# Density = 1.569114 g / cm^3
# Si number density = 15.726936 Si / 1000 Ang^3
#
#
#
# Elastic Constant Matrix: (Units=GPa)
#
#
# Indices 1 2 3 4 5 6 
#
# 1 100.9434 39.2689 59.4663 0.0000 0.0000 0.0000
# 2 39.2689 49.8622 45.3368 0.0000 0.0000 0.0000
# 3 59.4663 45.3368 115.4719 0.0000 0.0000 0.0000
# 4 0.0000 0.0000 0.0000 18.9307 0.0000 0.0000
# 5 0.0000 0.0000 0.0000 0.0000 8.9290 0.0000
# 6 0.0000 0.0000 0.0000 0.0000 0.0000 20.5682
#
#
#
# Elastic Compliance Matrix: (Units=1/GPa)
#
#
# Indices 1 2 3 4 5 6 
#
# 1 0.016022 -0.007956 -0.005127 0.000000 0.000000 0.000000
# 2 -0.007956 0.035140 -0.009700 0.000000 0.000000 0.000000
# 3 -0.005127 -0.009700 0.015109 0.000000 0.000000 0.000000
# 4 0.000000 0.000000 0.000000 0.052824 0.000000 0.000000
# 5 0.000000 0.000000 0.000000 0.000000 0.111994 0.000000
# 6 0.000000 0.000000 0.000000 0.000000 0.000000 0.048619
#
#
# Mechanical properties :
#
#
# Convention : Reuss Voigt Hill
#
# Bulk Modulus (GPa) = 48.29714 61.60237 54.94975
# Shear Modulus (GPa) = 15.05223 17.83264 16.44243
#
# Velocity S-wave (km/s) = 3.09706 3.37098 3.23692
# Velocity P-wave (km/s) = 6.60042 7.37607 6.99900
#
# Compressibility (1/GPa) = 0.02070516
#
# Stress axis : x y z
#
# Youngs Moduli (GPa) = 62.41315 28.45729 66.18606
#
# Poissons Ratio (x) = 0.22641 0.33936
# Poissons Ratio (y) = 0.49657 0.64198
# Poissons Ratio (z) = 0.32002 0.27602
#
# Static dielectric constant tensor:
#      x y z
#    x 3.195780 0.000000 0.000000 
#    y 0.000000 2.802520 0.000000 
#    z 0.000000 0.000000 3.146020 
# 
# 
# High freq. dielectric constant tensor:
#      x y z
#    x 1.589870 0.000000 0.000000 
#    y 0.000000 1.583520 0.000000 
#    z 0.000000 0.000000 1.594810 
# 
# From -- ./inp_files/34715.got.cif
#   From: 2010.03.12/outbox.cif.g09.slc.cpg/sg47_18_cif.got.tgz:34715.got - 2010.04.14 03:12:58.
