data_PCOD8194574
_publ_section_title
;
Structure prediction by ZEFSAII (Michael W. Deem and Ramdas Pophale) SiO2 
 PCOD8194574
Probable space group: P M M M
;
_chemical_formula_sum "Si O2"
_cell_formula_units_Z 44
_cell_length_a 14.586968
_cell_length_b 18.235543
_cell_length_c 8.777616
_cell_angle_alpha 90.000000
_cell_angle_beta 90.000000
_cell_angle_gamma 90.000000
_cell_volume 2334.857111
_symmetry_space_group_name_H-M "P M M M"
_symmetry_group_IT_number 47
_symmetry_cell_setting 'orthorhombic'
loop_
_space_group_symop_operation_xyz
x,y,z
-x,-y,z
x,-y,-z
-x,y,-z
-x,-y,-z
x,y,-z
-x,y,z
x,-y,z
loop_
_atom_site_type_symbol
_atom_site_label
_atom_site_fract_x
_atom_site_fract_y
_atom_site_fract_z
Si Si1 0.900151 0.685480 0.180805
Si Si2 0.099820 0.149691 0.819006
Si Si3 0.716515 0.080946 0.818246
Si Si4 0.395752 0.500000 0.320078
Si Si5 0.397389 0.782370 0.181070
Si Si6 0.706887 0.363342 0.180495
O O1 0.887228 0.767804 0.244313
O O2 0.813885 0.636126 0.234238
O O3 0.000000 0.653994 0.235675
O O4 0.898736 0.688936 0.000000
O O5 0.181133 0.098528 0.755957
O O6 0.000000 0.118959 0.767185
O O7 0.105126 0.152218 0.000000
O O8 0.646729 0.142308 0.754760
O O9 0.687731 0.000000 0.759152
O O10 0.716146 0.082493 0.000000
O O11 0.500000 0.500000 0.258247
O O12 0.394206 0.500000 0.500000
O O13 0.344614 0.571358 0.261545
O O14 0.500000 0.775361 0.247155
O O15 0.338270 0.712885 0.235079
O O16 0.399027 0.785060 0.000000
O O17 0.697691 0.373575 0.000000
#
# Coordination Sequence:
#
# PCOD8194574 Si02
#       6
#     8   8   8   4   8   8
#     4   8  13  23  43  70  96 121 154 198 241 278
#     4   8  12  19  31  49  78 116 155 192 230 274
#     4   9  15  21  29  47  81 122 158 191 233 283
#     4  11  25  41  54  73 102 128 151 191 248 297
#     4   9  16  25  38  58  83 114 157 203 238 272
#     4  10  18  32  55  77  96 124 164 203 236 280
#
# _framework density 18.844836999999998
#
# number of rings (size 3 to 8) (size 9 to 14) (size 15 to 20)
#    0.000    3.000    1.818    1.909    0.000    2.182 
#    0.000    4.091    0.000    3.273    0.000    0.000 
#    0.000    0.727    0.000    3.818    0.000    9.455 
#
# Total GULP energy -545153.343577 kJ/mol
# GULP energy per Si atom -12389.848718 kJ/mol
# Density = 1.880195 g / cm^3
# Si number density = 18.844837 Si / 1000 Ang^3
#
#
#
# Elastic Constant Matrix: (Units=GPa)
#
#
# Indices 1 2 3 4 5 6 
#
# 1 186.3318 86.8461 17.0418 0.0000 0.0000 0.0000
# 2 86.8461 136.5867 17.1326 0.0000 0.0000 0.0000
# 3 17.0418 17.1326 11.1442 0.0000 0.0000 0.0000
# 4 0.0000 0.0000 0.0000 -5.5650 0.0000 0.0000
# 5 0.0000 0.0000 0.0000 0.0000 6.4246 0.0000
# 6 0.0000 0.0000 0.0000 0.0000 0.0000 30.7614
#
#
#
# Elastic Compliance Matrix: (Units=1/GPa)
#
#
# Indices 1 2 3 4 5 6 
#
# 1 0.007880 -0.004335 -0.005386 0.000000 0.000000 0.000000
# 2 -0.004335 0.011455 -0.010982 0.000000 0.000000 0.000000
# 3 -0.005386 -0.010982 0.114852 0.000000 0.000000 0.000000
# 4 0.000000 0.000000 0.000000 -0.179695 0.000000 0.000000
# 5 0.000000 0.000000 0.000000 0.000000 0.155652 0.000000
# 6 0.000000 0.000000 0.000000 0.000000 0.000000 0.032508
#
#
# Mechanical properties :
#
#
# Convention : Reuss Voigt Hill
#
# Bulk Modulus (GPa) = 10.77792 64.01150 37.39471
# Shear Modulus (GPa) = 23.25747 20.52700 21.89224
#
# Velocity S-wave (km/s) = 3.51687 3.30398 3.41208
# Velocity P-wave (km/s) = 4.71411 6.97112 5.95060
#
# Compressibility (1/GPa) = 0.09278231
#
# Stress axis : x y z
#
# Youngs Moduli (GPa) = 126.90978 87.29907 8.70683
#
# Poissons Ratio (x) = 0.37840 0.04689
# Poissons Ratio (y) = 0.55009 0.09562
# Poissons Ratio (z) = 0.68352 0.95870
#
# Static dielectric constant tensor:
#      x y z
#    x 4.077560 0.000000 0.000000 
#    y 0.000000 3.492570 0.000000 
#    z 0.000000 0.000000 2.626740 
# 
# 
# High freq. dielectric constant tensor:
#      x y z
#    x 1.756050 0.000000 0.000000 
#    y 0.000000 1.722810 0.000000 
#    z 0.000000 0.000000 1.640640 
# 
# From -- ./inp_files/6063.got.cif
#   From: 2010.03.12/outbox.cif.g09.slc.cpg/sg47_4_cif.got.tgz:6063.got - 2010.04.14 03:12:58.
