data_PCOD8194274
_publ_section_title
;
Structure prediction by ZEFSAII (Michael W. Deem and Ramdas Pophale) SiO2 
 PCOD8194274
Probable space group: P M M M
;
_chemical_formula_sum "Si O2"
_cell_formula_units_Z 52
_cell_length_a 12.459886
_cell_length_b 9.070942
_cell_length_c 26.450377
_cell_angle_alpha 90.000000
_cell_angle_beta 90.000000
_cell_angle_gamma 90.000000
_cell_volume 2989.498400
_symmetry_space_group_name_H-M "P M M M"
_symmetry_group_IT_number 47
_symmetry_cell_setting 'orthorhombic'
loop_
_space_group_symop_operation_xyz
x,y,z
-x,-y,z
x,-y,-z
-x,y,-z
-x,-y,-z
x,y,-z
-x,y,z
x,-y,z
loop_
_atom_site_type_symbol
_atom_site_label
_atom_site_fract_x
_atom_site_fract_y
_atom_site_fract_z
Si Si1 0.500000 0.670504 0.221912
Si Si2 0.619767 0.825340 0.500000
Si Si3 0.295839 0.174539 0.607046
Si Si4 0.124681 0.828852 0.773318
Si Si5 0.124706 0.328318 0.670676
Si Si6 0.380047 0.674734 0.055243
Si Si7 0.288945 0.326938 0.158690
Si Si8 0.500000 0.826092 0.328437
O O1 0.500000 0.500000 0.236591
O O2 0.604222 0.712195 0.189629
O O3 0.500000 0.762139 0.272810
O O4 0.500000 0.756869 0.500000
O O5 0.683265 0.773327 0.549682
O O6 0.608478 0.000000 0.500000
O O7 0.188601 0.256611 0.624511
O O8 0.395115 0.227469 0.641441
O O9 0.278551 0.000000 0.610687
O O10 0.162579 0.746762 0.722659
O O11 0.188713 0.763624 0.820453
O O12 0.000000 0.800648 0.784143
O O13 0.151262 0.000000 0.766417
O O14 0.151168 0.500000 0.674830
O O15 0.000000 0.298144 0.660357
O O16 0.500000 0.740088 0.061728
O O17 0.388597 0.500000 0.058890
O O18 0.304459 0.729227 0.100865
O O19 0.333477 0.722121 0.000000
O O20 0.262911 0.500000 0.161545
O O21 0.500000 0.000000 0.324347
#
# Coordination Sequence:
#
# PCOD8194274 Si02
#       8
#     4   4   8   8   8   8   8   4
#     4  10  20  30  42  69 105 134 156 193 248 301
#     4   9  16  32  56  79 104 134 169 208 247 290
#     4  10  19  33  55  79 102 132 169 207 248 295
#     4  10  21  36  53  73  98 131 172 213 252 298
#     4  10  21  37  55  75 101 133 168 208 255 302
#     4   8  13  24  45  72 101 133 168 205 247 295
#     4  10  18  30  49  74 104 133 165 205 251 301
#     4  10  20  31  46  71 101 131 164 199 242 295
#
# _framework density 17.394221999999999
#
# number of rings (size 3 to 8) (size 9 to 14) (size 15 to 20)
#    0.000    2.385    1.538    2.308    0.000    5.538 
#    0.000    0.769    0.000    3.692    0.000    4.308 
#    0.000    0.000    0.000    0.000    0.000    0.000 
#
# Total GULP energy -644790.976517 kJ/mol
# GULP energy per Si atom -12399.826471 kJ/mol
# Density = 1.735463 g / cm^3
# Si number density = 17.394222 Si / 1000 Ang^3
#
#
#
# Elastic Constant Matrix: (Units=GPa)
#
#
# Indices 1 2 3 4 5 6 
#
# 1 81.1511 39.6437 65.3181 0.0000 0.0000 0.0000
# 2 39.6437 49.3410 41.0972 0.0000 0.0000 0.0000
# 3 65.3181 41.0972 156.3005 0.0000 0.0000 0.0000
# 4 0.0000 0.0000 0.0000 8.2797 0.0000 0.0000
# 5 0.0000 0.0000 0.0000 0.0000 25.1502 0.0000
# 6 0.0000 0.0000 0.0000 0.0000 0.0000 26.7226
#
#
#
# Elastic Compliance Matrix: (Units=1/GPa)
#
#
# Indices 1 2 3 4 5 6 
#
# 1 0.024538 -0.014308 -0.006492 0.000000 0.000000 0.000000
# 2 -0.014308 0.034293 -0.003038 0.000000 0.000000 0.000000
# 3 -0.006492 -0.003038 0.009910 0.000000 0.000000 0.000000
# 4 0.000000 0.000000 0.000000 0.120777 0.000000 0.000000
# 5 0.000000 0.000000 0.000000 0.000000 0.039761 0.000000
# 6 0.000000 0.000000 0.000000 0.000000 0.000000 0.037422
#
#
# Mechanical properties :
#
#
# Convention : Reuss Voigt Hill
#
# Bulk Modulus (GPa) = 47.47170 64.32339 55.89754
# Shear Modulus (GPa) = 15.55705 21.41275 18.48490
#
# Velocity S-wave (km/s) = 2.99386 3.51241 3.26345
# Velocity P-wave (km/s) = 6.26912 7.31501 6.81217
#
# Compressibility (1/GPa) = 0.02106518
#
# Stress axis : x y z
#
# Youngs Moduli (GPa) = 40.75329 29.16052 100.90982
#
# Poissons Ratio (x) = 0.41722 0.65515
# Poissons Ratio (y) = 0.58308 0.30654
# Poissons Ratio (z) = 0.26459 0.08858
#
# Static dielectric constant tensor:
#      x y z
#    x 3.167260 0.000000 0.000000 
#    y 0.000000 2.983650 0.000000 
#    z 0.000000 0.000000 3.469410 
# 
# 
# High freq. dielectric constant tensor:
#      x y z
#    x 1.662800 0.000000 0.000000 
#    y 0.000000 1.647720 0.000000 
#    z 0.000000 0.000000 1.679280 
# 
# From -- ./inp_files/33611.got.cif
#   From: 2010.03.12/outbox.cif.g09.slc.cpg/sg47_17_cif.got.tgz:33611.got - 2010.04.14 03:12:58.
