data_PCOD8194104
_publ_section_title
;
Structure prediction by ZEFSAII (Michael W. Deem and Ramdas Pophale) SiO2 
 PCOD8194104
Probable space group: P M M M
;
_chemical_formula_sum "Si O2"
_cell_formula_units_Z 52
_cell_length_a 11.974258
_cell_length_b 9.567493
_cell_length_c 27.879333
_cell_angle_alpha 90.000000
_cell_angle_beta 90.000000
_cell_angle_gamma 90.000000
_cell_volume 3193.957579
_symmetry_space_group_name_H-M "P M M M"
_symmetry_group_IT_number 47
_symmetry_cell_setting 'orthorhombic'
loop_
_space_group_symop_operation_xyz
x,y,z
-x,-y,z
x,-y,-z
-x,y,-z
-x,-y,-z
x,y,-z
-x,y,z
x,-y,z
loop_
_atom_site_type_symbol
_atom_site_label
_atom_site_fract_x
_atom_site_fract_y
_atom_site_fract_z
Si Si1 0.875309 0.165551 0.000000
Si Si2 0.870985 0.335306 0.830609
Si Si3 0.867602 0.654053 0.277185
Si Si4 0.738308 0.834054 0.907946
Si Si5 0.127396 0.839274 0.362628
Si Si6 0.500000 0.342953 0.556911
Si Si7 0.500000 0.834767 0.945999
Si Si8 0.706147 0.160972 0.554968
O O1 0.810054 0.217384 0.953304
O O2 0.000000 0.229825 0.000000
O O3 0.880487 0.000000 0.000000
O O4 0.854895 0.500000 0.839855
O O5 0.836331 0.295681 0.776247
O O6 0.786405 0.246223 0.862410
O O7 0.000000 0.293334 0.840968
O O8 0.817970 0.500000 0.286623
O O9 0.818282 0.755999 0.317940
O O10 0.000000 0.649680 0.280828
O O11 0.610057 0.787672 0.916811
O O12 0.748466 0.000000 0.899690
O O13 0.187492 0.804698 0.412509
O O14 0.000000 0.794989 0.370967
O O15 0.139183 0.000000 0.348577
O O16 0.500000 0.500000 0.578205
O O17 0.500000 0.346599 0.500000
O O18 0.608074 0.259329 0.574714
O O19 0.500000 0.000000 0.951625
O O20 0.500000 0.770453 0.000000
O O21 0.738052 0.195309 0.500000
O O22 0.667904 0.000000 0.559903
#
# Coordination Sequence:
#
# PCOD8194104 Si02
#       8
#     4   8   8   8   8   4   4   8
#     4   9  16  25  40  66  95 117 142 179 220 262
#     4   9  18  32  48  68  95 122 148 184 234 283
#     4   8  15  29  47  64  86 120 155 185 224 276
#     4  10  18  29  48  70  92 120 155 191 223 263
#     4   9  17  28  44  69  97 122 151 187 224 267
#     4   9  17  29  45  64  85 112 153 200 233 260
#     4   9  16  30  49  68  91 124 161 190 220 261
#     4   9  17  29  45  65  92 125 155 185 229 282
#
# _framework density 16.280742
#
# number of rings (size 3 to 8) (size 9 to 14) (size 15 to 20)
#    0.000    3.000    0.769    1.615    0.000    3.385 
#    0.000    3.846    0.000    2.769    0.000    7.538 
#    0.000    0.000    0.000    0.000    0.000    0.000 
#
# Total GULP energy -644573.816262 kJ/mol
# GULP energy per Si atom -12395.650313 kJ/mol
# Density = 1.624369 g / cm^3
# Si number density = 16.280742 Si / 1000 Ang^3
#
#
#
# Elastic Constant Matrix: (Units=GPa)
#
#
# Indices 1 2 3 4 5 6 
#
# 1 103.4661 45.4537 62.6106 0.0000 0.0000 0.0000
# 2 45.4537 62.9650 56.7514 0.0000 0.0000 0.0000
# 3 62.6106 56.7514 121.3690 0.0000 0.0000 0.0000
# 4 0.0000 0.0000 0.0000 19.4914 0.0000 0.0000
# 5 0.0000 0.0000 0.0000 0.0000 7.7720 0.0000
# 6 0.0000 0.0000 0.0000 0.0000 0.0000 17.8213
#
#
#
# Elastic Compliance Matrix: (Units=1/GPa)
#
#
# Indices 1 2 3 4 5 6 
#
# 1 0.015629 -0.006941 -0.004817 0.000000 0.000000 0.000000
# 2 -0.006941 0.030533 -0.010697 0.000000 0.000000 0.000000
# 3 -0.004817 -0.010697 0.015726 0.000000 0.000000 0.000000
# 4 0.000000 0.000000 0.000000 0.051305 0.000000 0.000000
# 5 0.000000 0.000000 0.000000 0.000000 0.128667 0.000000
# 6 0.000000 0.000000 0.000000 0.000000 0.000000 0.056113
#
#
# Mechanical properties :
#
#
# Convention : Reuss Voigt Hill
#
# Bulk Modulus (GPa) = 58.89481 68.60351 63.74916
# Shear Modulus (GPa) = 14.34549 17.21591 15.78070
#
# Velocity S-wave (km/s) = 2.97161 3.25536 3.11671
# Velocity P-wave (km/s) = 6.93015 7.50727 7.22448
#
# Compressibility (1/GPa) = 0.01697943
#
# Stress axis : x y z
#
# Youngs Moduli (GPa) = 63.98300 32.75102 63.58860
#
# Poissons Ratio (x) = 0.22732 0.30632
# Poissons Ratio (y) = 0.44409 0.68019
# Poissons Ratio (z) = 0.30822 0.35033
#
# Static dielectric constant tensor:
#      x y z
#    x 3.030820 0.000000 0.000000 
#    y 0.000000 3.046980 0.000000 
#    z 0.000000 0.000000 3.122370 
# 
# 
# High freq. dielectric constant tensor:
#      x y z
#    x 1.607550 0.000000 0.000000 
#    y 0.000000 1.611310 0.000000 
#    z 0.000000 0.000000 1.622690 
# 
# From -- ./inp_files/34562.got.cif
#   From: 2010.03.12/outbox.cif.g09.slc.cpg/sg47_18_cif.got.tgz:34562.got - 2010.04.14 03:12:58.
