data_PCOD8194950
_publ_section_title
;
Structure prediction by ZEFSAII (Michael W. Deem and Ramdas Pophale) SiO2 
 PCOD8194950
Probable space group: P M M M
;
_chemical_formula_sum "Si O2"
_cell_formula_units_Z 52
_cell_length_a 8.845794
_cell_length_b 16.969604
_cell_length_c 18.196792
_cell_angle_alpha 90.000000
_cell_angle_beta 90.000000
_cell_angle_gamma 90.000000
_cell_volume 2731.513555
_symmetry_space_group_name_H-M "P M M M"
_symmetry_group_IT_number 47
_symmetry_cell_setting 'orthorhombic'
loop_
_space_group_symop_operation_xyz
x,y,z
-x,-y,z
x,-y,-z
-x,y,-z
-x,-y,-z
x,y,-z
-x,y,z
x,-y,z
loop_
_atom_site_type_symbol
_atom_site_label
_atom_site_fract_x
_atom_site_fract_y
_atom_site_fract_z
Si Si1 0.680299 0.500000 0.180673
Si Si2 0.320259 0.182902 0.081696
Si Si3 0.679496 0.641310 0.081757
Si Si4 0.820138 0.500000 0.339554
Si Si5 0.179729 0.088213 0.500000
Si Si6 0.679638 0.089303 0.778837
Si Si7 0.178943 0.178404 0.356320
Si Si8 0.179269 0.657161 0.582186
O O1 0.500000 0.500000 0.185031
O O2 0.743149 0.577443 0.138938
O O3 0.749526 0.500000 0.260191
O O4 0.500000 0.182295 0.080485
O O5 0.263285 0.270921 0.102706
O O6 0.259954 0.121756 0.142683
O O7 0.260594 0.159217 0.000000
O O8 0.500000 0.638979 0.082909
O O9 0.736850 0.619438 0.000000
O O10 0.759498 0.576746 0.382329
O O11 0.000000 0.500000 0.333607
O O12 0.239605 0.131231 0.427215
O O13 0.000000 0.089587 0.500000
O O14 0.244463 0.000000 0.500000
O O15 0.500000 0.092209 0.775862
O O16 0.742807 0.144780 0.715557
O O17 0.739107 0.000000 0.769079
O O18 0.228590 0.269257 0.367093
O O19 0.000000 0.169281 0.347701
O O20 0.246757 0.666217 0.500000
O O21 0.000000 0.655034 0.576463
#
# Coordination Sequence:
#
# PCOD8194950 Si02
#       8
#     4   8   8   4   4   8   8   8
#     4  10  19  29  47  75 101 128 162 198 240 292
#     4   8  15  29  49  71  96 130 170 207 243 288
#     4   8  14  26  45  69  95 124 162 205 241 277
#     4  10  21  33  49  75 105 132 158 198 250 296
#     4   9  16  28  49  74  96 120 159 209 247 281
#     4  10  21  34  49  74 107 136 162 202 257 308
#     4  10  19  33  54  77  99 128 170 211 248 293
#     4   9  17  33  55  76  96 126 170 211 242 283
#
# _framework density 19.037064000000001
#
# number of rings (size 3 to 8) (size 9 to 14) (size 15 to 20)
#    0.000    2.846    0.769    1.846    2.154    3.077 
#    0.000    1.923    0.000    4.615    0.000    3.231 
#    0.000    0.000    0.000    0.000    0.000    0.000 
#
# Total GULP energy -644579.348010 kJ/mol
# GULP energy per Si atom -12395.756692 kJ/mol
# Density = 1.899373 g / cm^3
# Si number density = 19.037064 Si / 1000 Ang^3
#
#
#
# Elastic Constant Matrix: (Units=GPa)
#
#
# Indices 1 2 3 4 5 6 
#
# 1 9.6452 16.9335 17.7209 0.0000 0.0000 0.0000
# 2 16.9335 175.6960 98.7563 0.0000 0.0000 0.0000
# 3 17.7209 98.7563 167.9449 0.0000 0.0000 0.0000
# 4 0.0000 0.0000 0.0000 41.4421 0.0000 0.0000
# 5 0.0000 0.0000 0.0000 0.0000 30.8213 0.0000
# 6 0.0000 0.0000 0.0000 0.0000 0.0000 14.2790
#
#
#
# Elastic Compliance Matrix: (Units=1/GPa)
#
#
# Indices 1 2 3 4 5 6 
#
# 1 0.134866 -0.007468 -0.009839 0.000000 0.000000 0.000000
# 2 -0.007468 0.008915 -0.004454 0.000000 0.000000 0.000000
# 3 -0.009839 -0.004454 0.009612 0.000000 0.000000 0.000000
# 4 0.000000 0.000000 0.000000 0.024130 0.000000 0.000000
# 5 0.000000 0.000000 0.000000 0.000000 0.032445 0.000000
# 6 0.000000 0.000000 0.000000 0.000000 0.000000 0.070033
#
#
# Mechanical properties :
#
#
# Convention : Reuss Voigt Hill
#
# Bulk Modulus (GPa) = 9.10164 68.90084 39.00124
# Shear Modulus (GPa) = 13.88318 31.96684 22.92501
#
# Velocity S-wave (km/s) = 2.70343 4.10224 3.47397
# Velocity P-wave (km/s) = 3.81263 7.66220 6.05167
#
# Compressibility (1/GPa) = 0.10987034
#
# Stress axis : x y z
#
# Youngs Moduli (GPa) = 7.41474 112.16875 104.03837
#
# Poissons Ratio (x) = 0.83766 1.02367
# Poissons Ratio (y) = 0.05537 0.46343
# Poissons Ratio (z) = 0.07296 0.49964
#
# Static dielectric constant tensor:
#      x y z
#    x 2.823870 0.000000 0.000000 
#    y 0.000000 3.915200 0.000000 
#    z 0.000000 0.000000 3.684720 
# 
# 
# High freq. dielectric constant tensor:
#      x y z
#    x 1.670040 0.000000 0.000000 
#    y 0.000000 1.756600 0.000000 
#    z 0.000000 0.000000 1.751950 
# 
# From -- ./inp_files/26794.got.cif
#   From: 2010.03.12/outbox.cif.g09.slc.cpg/sg47_14_cif.got.tgz:26794.got - 2010.04.14 03:12:58.
