data_PCOD8194224
_publ_section_title
;
Structure prediction by ZEFSAII (Michael W. Deem and Ramdas Pophale) SiO2 
 PCOD8194224
Probable space group: P M M M
;
_chemical_formula_sum "Si O2"
_cell_formula_units_Z 64
_cell_length_a 8.940574
_cell_length_b 19.776071
_cell_length_c 21.081507
_cell_angle_alpha 90.000000
_cell_angle_beta 90.000000
_cell_angle_gamma 90.000000
_cell_volume 3727.409156
_symmetry_space_group_name_H-M "P M M M"
_symmetry_group_IT_number 47
_symmetry_cell_setting 'orthorhombic'
loop_
_space_group_symop_operation_xyz
x,y,z
-x,-y,z
x,-y,-z
-x,y,-z
-x,-y,-z
x,y,-z
-x,y,z
x,-y,z
loop_
_atom_site_type_symbol
_atom_site_label
_atom_site_fract_x
_atom_site_fract_y
_atom_site_fract_z
Si Si1 0.677419 0.292798 0.190677
Si Si2 0.676931 0.073663 0.123453
Si Si3 0.171118 0.074634 0.254931
Si Si4 0.825289 0.785226 0.692808
Si Si5 0.174605 0.576341 0.229286
Si Si6 0.178175 0.710129 0.569562
Si Si7 0.322073 0.788725 0.069465
Si Si8 0.822554 0.573178 0.625860
O O1 0.500000 0.289544 0.194785
O O2 0.742788 0.253182 0.250681
O O3 0.731327 0.370406 0.188135
O O4 0.738377 0.259245 0.125467
O O5 0.500000 0.073198 0.122375
O O6 0.724728 0.087822 0.195164
O O7 0.737571 0.134365 0.079696
O O8 0.738006 0.000000 0.100264
O O9 0.204874 0.134028 0.305403
O O10 0.000000 0.079241 0.231817
O O11 0.203058 0.000000 0.284933
O O12 0.763354 0.760368 0.624489
O O13 0.000000 0.767650 0.699584
O O14 0.209705 0.500000 0.205912
O O15 0.226524 0.585428 0.301809
O O16 0.000000 0.592502 0.221738
O O17 0.237630 0.732900 0.500000
O O18 0.239811 0.634237 0.583063
O O19 0.000000 0.709527 0.569686
O O20 0.500000 0.788485 0.071198
O O21 0.264783 0.764294 0.000000
O O22 0.760466 0.500000 0.602088
O O23 0.000000 0.571383 0.623033
#
# Coordination Sequence:
#
# PCOD8194224 Si02
#       8
#     8   8   8   8   8   8   8   8
#     4  11  20  30  49  74  96 121 156 195 232 276
#     4   9  16  27  45  68  93 121 154 190 227 272
#     4   9  17  28  44  66  91 121 155 192 236 281
#     4  10  18  30  48  67  92 124 157 196 237 278
#     4   9  17  31  51  72  95 123 155 192 235 278
#     4   9  16  25  40  64  91 120 155 193 231 271
#     4   9  18  31  45  66  97 127 155 191 234 277
#     4   8  13  22  38  62  90 117 146 179 216 263
#
# _framework density 17.170102
#
# number of rings (size 3 to 8) (size 9 to 14) (size 15 to 20)
#    0.000    2.750    2.500    1.125    0.000    0.750 
#    0.000    2.500    0.000    4.500    0.000    7.000 
#    0.000    2.000    0.000    4.250    0.000    4.500 
#
# Total GULP energy -793003.668279 kJ/mol
# GULP energy per Si atom -12390.682317 kJ/mol
# Density = 1.713102 g / cm^3
# Si number density = 17.170102 Si / 1000 Ang^3
#
#
#
# Elastic Constant Matrix: (Units=GPa)
#
#
# Indices 1 2 3 4 5 6 
#
# 1 18.2490 19.8507 16.0609 0.0000 0.0000 0.0000
# 2 19.8507 128.5340 75.6318 0.0000 0.0000 0.0000
# 3 16.0609 75.6318 127.9101 0.0000 0.0000 0.0000
# 4 0.0000 0.0000 0.0000 25.7603 0.0000 0.0000
# 5 0.0000 0.0000 0.0000 0.0000 11.4562 0.0000
# 6 0.0000 0.0000 0.0000 0.0000 0.0000 19.5751
#
#
#
# Elastic Compliance Matrix: (Units=1/GPa)
#
#
# Indices 1 2 3 4 5 6 
#
# 1 0.066875 -0.008262 -0.003512 0.000000 0.000000 0.000000
# 2 -0.008262 0.012952 -0.006621 0.000000 0.000000 0.000000
# 3 -0.003512 -0.006621 0.012174 0.000000 0.000000 0.000000
# 4 0.000000 0.000000 0.000000 0.038819 0.000000 0.000000
# 5 0.000000 0.000000 0.000000 0.000000 0.087289 0.000000
# 6 0.000000 0.000000 0.000000 0.000000 0.000000 0.051085
#
#
# Mechanical properties :
#
#
# Convention : Reuss Voigt Hill
#
# Bulk Modulus (GPa) = 18.11216 55.30888 36.71052
# Shear Modulus (GPa) = 15.41367 22.23497 18.82432
#
# Velocity S-wave (km/s) = 2.99942 3.60249 3.31470
# Velocity P-wave (km/s) = 4.75047 7.04174 6.00638
#
# Compressibility (1/GPa) = 0.05521153
#
# Stress axis : x y z
#
# Youngs Moduli (GPa) = 14.95328 77.20926 82.14315
#
# Poissons Ratio (x) = 0.63786 0.28850
# Poissons Ratio (y) = 0.12354 0.54386
# Poissons Ratio (z) = 0.05252 0.51120
#
# Static dielectric constant tensor:
#      x y z
#    x 2.828560 0.000000 0.000000 
#    y 0.000000 3.677690 0.000000 
#    z 0.000000 0.000000 3.245520 
# 
# 
# High freq. dielectric constant tensor:
#      x y z
#    x 1.620410 0.000000 0.000000 
#    y 0.000000 1.676040 0.000000 
#    z 0.000000 0.000000 1.636900 
# 
# From -- ./inp_files/30115.got.cif
#   From: 2010.03.12/outbox.cif.g09.slc.cpg/sg47_16_cif.got.tgz:30115.got - 2010.04.14 03:12:58.
