data_PCOD8194012
_publ_section_title
;
Structure prediction by ZEFSAII (Michael W. Deem and Ramdas Pophale) SiO2 
 PCOD8194012
Probable space group: P M M M
;
_chemical_formula_sum "Si O2"
_cell_formula_units_Z 40
_cell_length_a 16.727835
_cell_length_b 9.313703
_cell_length_c 18.032784
_cell_angle_alpha 90.000000
_cell_angle_beta 90.000000
_cell_angle_gamma 90.000000
_cell_volume 2809.473251
_symmetry_space_group_name_H-M "P M M M"
_symmetry_group_IT_number 47
_symmetry_cell_setting 'orthorhombic'
loop_
_space_group_symop_operation_xyz
x,y,z
-x,-y,z
x,-y,-z
-x,y,-z
-x,-y,-z
x,y,-z
-x,y,z
x,-y,z
loop_
_atom_site_type_symbol
_atom_site_label
_atom_site_fract_x
_atom_site_fract_y
_atom_site_fract_z
Si Si1 0.651810 0.335189 0.085221
Si Si2 0.093279 0.831614 0.722866
Si Si3 0.910171 0.329357 0.000000
Si Si4 0.500000 0.838089 0.088209
Si Si5 0.905226 0.339350 0.418375
Si Si6 0.822612 0.667702 0.853817
O O1 0.624970 0.500000 0.090000
O O2 0.579560 0.240221 0.117592
O O3 0.728382 0.305732 0.136427
O O4 0.672861 0.295698 0.000000
O O5 0.124397 0.771793 0.643846
O O6 0.146349 0.757326 0.784953
O O7 0.000000 0.794617 0.736039
O O8 0.108843 0.000000 0.724347
O O9 0.866615 0.271746 0.073219
O O10 0.906674 0.500000 0.000000
O O11 0.000000 0.269980 0.000000
O O12 0.500000 0.000000 0.118279
O O13 0.500000 0.831011 0.000000
O O14 0.872812 0.292974 0.500000
O O15 0.874602 0.500000 0.399005
O O16 0.000000 0.339164 0.420547
O O17 0.841873 0.500000 0.841292
#
# Coordination Sequence:
#
# PCOD8194012 Si02
#       6
#     8   8   4   4   8   8
#     4   9  16  28  44  61  79  99 130 171 211 248
#     4  10  20  30  39  56  83 112 140 170 208 251
#     4   9  16  26  41  58  73  96 138 185 217 239
#     4   9  17  27  41  61  81 101 126 155 200 257
#     4   8  14  26  44  62  77  97 130 170 208 246
#     4  10  18  29  44  60  77 103 140 179 214 245
#
# _framework density 14.237544
#
# number of rings (size 3 to 8) (size 9 to 14) (size 15 to 20)
#    0.000    2.800    1.000    2.100    0.000    4.400 
#    0.000    2.500    0.000    1.800    0.000    0.000 
#    0.000    0.000    0.000    0.900    0.000   17.400 
#
# Total GULP energy -495877.061248 kJ/mol
# GULP energy per Si atom -12396.926531 kJ/mol
# Density = 1.420514 g / cm^3
# Si number density = 14.237544 Si / 1000 Ang^3
#
#
#
# Elastic Constant Matrix: (Units=GPa)
#
#
# Indices 1 2 3 4 5 6 
#
# 1 74.1004 47.5398 41.0040 0.0000 0.0000 0.0000
# 2 47.5398 81.5464 53.7600 0.0000 0.0000 0.0000
# 3 41.0040 53.7600 101.8958 0.0000 0.0000 0.0000
# 4 0.0000 0.0000 0.0000 13.1634 0.0000 0.0000
# 5 0.0000 0.0000 0.0000 0.0000 3.9236 0.0000
# 6 0.0000 0.0000 0.0000 0.0000 0.0000 17.7853
#
#
#
# Elastic Compliance Matrix: (Units=1/GPa)
#
#
# Indices 1 2 3 4 5 6 
#
# 1 0.022232 -0.010829 -0.003233 0.000000 0.000000 0.000000
# 2 -0.010829 0.024078 -0.008346 0.000000 0.000000 0.000000
# 3 -0.003233 -0.008346 0.015518 0.000000 0.000000 0.000000
# 4 0.000000 0.000000 0.000000 0.075968 0.000000 0.000000
# 5 0.000000 0.000000 0.000000 0.000000 0.254869 0.000000
# 6 0.000000 0.000000 0.000000 0.000000 0.000000 0.056226
#
#
# Mechanical properties :
#
#
# Convention : Reuss Voigt Hill
#
# Bulk Modulus (GPa) = 58.78122 60.23891 59.51007
# Shear Modulus (GPa) = 10.01245 14.65705 12.33475
#
# Velocity S-wave (km/s) = 2.65475 3.21201 2.94658
# Velocity P-wave (km/s) = 7.12549 7.49385 7.31199
#
# Compressibility (1/GPa) = 0.01701224
#
# Stress axis : x y z
#
# Youngs Moduli (GPa) = 44.98063 41.53118 64.44115
#
# Poissons Ratio (x) = 0.44976 0.20832
# Poissons Ratio (y) = 0.48712 0.53781
# Poissons Ratio (z) = 0.14541 0.34661
#
# Static dielectric constant tensor:
#      x y z
#    x 2.624800 0.000000 0.000000 
#    y 0.000000 2.767760 0.000000 
#    z 0.000000 0.000000 2.828230 
# 
# 
# High freq. dielectric constant tensor:
#      x y z
#    x 1.515410 0.000000 0.000000 
#    y 0.000000 1.539870 0.000000 
#    z 0.000000 0.000000 1.523630 
# 
# From -- ./inp_files/9393.got.cif
#   From: 2010.03.12/outbox.cif.g09.slc.cpg/sg47_5_cif.got.tgz:9393.got - 2010.04.14 03:12:58.
