data_PCOD8194476
_publ_section_title
;
Structure prediction by ZEFSAII (Michael W. Deem and Ramdas Pophale) SiO2 
 PCOD8194476
Probable space group: P M M M
;
_chemical_formula_sum "Si O2"
_cell_formula_units_Z 52
_cell_length_a 17.282493
_cell_length_b 14.270374
_cell_length_c 12.065271
_cell_angle_alpha 90.000000
_cell_angle_beta 90.000000
_cell_angle_gamma 90.000000
_cell_volume 2975.629298
_symmetry_space_group_name_H-M "P M M M"
_symmetry_group_IT_number 47
_symmetry_cell_setting 'orthorhombic'
loop_
_space_group_symop_operation_xyz
x,y,z
-x,-y,z
x,-y,-z
-x,y,-z
-x,-y,-z
x,y,-z
-x,y,z
x,-y,z
loop_
_atom_site_type_symbol
_atom_site_label
_atom_site_fract_x
_atom_site_fract_y
_atom_site_fract_z
Si Si1 0.089530 0.397330 0.500000
Si Si2 0.701181 0.601598 0.624740
Si Si3 0.858525 0.393587 0.729476
Si Si4 0.913537 0.889475 0.500000
Si Si5 0.500000 0.894192 0.368278
Si Si6 0.089184 0.773762 0.870059
Si Si7 0.655684 0.197812 0.628321
Si Si8 0.812318 0.888854 0.708078
O O1 0.131000 0.500000 0.500000
O O2 0.112697 0.345674 0.386016
O O3 0.000000 0.411651 0.500000
O O4 0.737931 0.609594 0.500000
O O5 0.657975 0.500000 0.635387
O O6 0.765919 0.606316 0.720198
O O7 0.644790 0.689855 0.642249
O O8 0.890351 0.500000 0.745869
O O9 0.888079 0.330391 0.829768
O O10 0.866274 0.856363 0.606841
O O11 0.000000 0.843702 0.500000
O O12 0.922352 0.000000 0.500000
O O13 0.500000 0.886691 0.500000
O O14 0.577335 0.845544 0.321386
O O15 0.500000 0.000000 0.325925
O O16 0.144977 0.852310 0.817902
O O17 0.000000 0.795746 0.840086
O O18 0.103101 0.776709 0.000000
O O19 0.667001 0.168348 0.500000
O O20 0.728665 0.159398 0.696863
O O21 0.801169 0.000000 0.714230
#
# Coordination Sequence:
#
# PCOD8194476 Si02
#       8
#     4   8   8   4   4   8   8   8
#     4   9  16  25  43  73 101 126 161 205 262 323
#     4   9  16  28  48  75 107 138 168 205 254 313
#     4  10  18  32  52  74 102 134 170 218 270 318
#     4   9  18  31  49  76 102 124 163 218 273 319
#     4   9  18  30  47  75 114 150 176 207 251 314
#     4  11  25  40  51  69  99 139 188 230 266 316
#     4  10  18  31  52  80 111 143 174 207 257 322
#     4  11  21  35  55  76 100 134 174 221 274 322
#
# _framework density 17.475296
#
# number of rings (size 3 to 8) (size 9 to 14) (size 15 to 20)
#    0.000    2.077    3.077    1.385    0.000    3.692 
#    0.000    3.462    0.000    2.308    0.000    0.538 
#    0.000    1.846    0.000    3.385    0.000    0.154 
#
# Total GULP energy -644494.852765 kJ/mol
# GULP energy per Si atom -12394.131784 kJ/mol
# Density = 1.743552 g / cm^3
# Si number density = 17.475296 Si / 1000 Ang^3
#
#
#
# Elastic Constant Matrix: (Units=GPa)
#
#
# Indices 1 2 3 4 5 6 
#
# 1 117.2173 56.5158 35.1836 0.0000 0.0000 0.0000
# 2 56.5158 128.2335 33.2979 0.0000 0.0000 0.0000
# 3 35.1836 33.2979 65.3752 0.0000 0.0000 0.0000
# 4 0.0000 0.0000 0.0000 22.3436 0.0000 0.0000
# 5 0.0000 0.0000 0.0000 0.0000 12.9233 0.0000
# 6 0.0000 0.0000 0.0000 0.0000 0.0000 24.0775
#
#
#
# Elastic Compliance Matrix: (Units=1/GPa)
#
#
# Indices 1 2 3 4 5 6 
#
# 1 0.011779 -0.004086 -0.004258 0.000000 0.000000 0.000000
# 2 -0.004086 0.010404 -0.003100 0.000000 0.000000 0.000000
# 3 -0.004258 -0.003100 0.019167 0.000000 0.000000 0.000000
# 4 0.000000 0.000000 0.000000 0.044756 0.000000 0.000000
# 5 0.000000 0.000000 0.000000 0.000000 0.077380 0.000000
# 6 0.000000 0.000000 0.000000 0.000000 0.000000 0.041533
#
#
# Mechanical properties :
#
#
# Convention : Reuss Voigt Hill
#
# Bulk Modulus (GPa) = 54.16608 62.31340 58.23974
# Shear Modulus (GPa) = 21.36196 24.25745 22.80971
#
# Velocity S-wave (km/s) = 3.50009 3.72976 3.61675
# Velocity P-wave (km/s) = 6.88457 7.36774 7.13025
#
# Compressibility (1/GPa) = 0.01846174
#
# Stress axis : x y z
#
# Youngs Moduli (GPa) = 84.89531 96.11722 52.17250
#
# Poissons Ratio (x) = 0.39270 0.22217
# Poissons Ratio (y) = 0.34685 0.16175
# Poissons Ratio (z) = 0.36152 0.29799
#
# Static dielectric constant tensor:
#      x y z
#    x 3.136700 0.000000 0.000000 
#    y 0.000000 3.395720 0.000000 
#    z 0.000000 0.000000 2.904650 
# 
# 
# High freq. dielectric constant tensor:
#      x y z
#    x 1.657550 0.000000 0.000000 
#    y 0.000000 1.692350 0.000000 
#    z 0.000000 0.000000 1.624250 
# 
# From -- ./inp_files/18635.got.cif
#   From: 2010.03.12/outbox.cif.g09.slc.cpg/sg47_10_cif.got.tgz:18635.got - 2010.04.14 03:12:58.
