data_PCOD8194051
_publ_section_title
;
Structure prediction by ZEFSAII (Michael W. Deem and Ramdas Pophale) SiO2 
 PCOD8194051
Probable space group: P M M M
;
_chemical_formula_sum "Si O2"
_cell_formula_units_Z 52
_cell_length_a 20.590618
_cell_length_b 16.731250
_cell_length_c 9.011224
_cell_angle_alpha 90.000000
_cell_angle_beta 90.000000
_cell_angle_gamma 90.000000
_cell_volume 3104.427741
_symmetry_space_group_name_H-M "P M M M"
_symmetry_group_IT_number 47
_symmetry_cell_setting 'orthorhombic'
loop_
_space_group_symop_operation_xyz
x,y,z
-x,-y,z
x,-y,-z
-x,y,-z
-x,-y,-z
x,y,-z
-x,y,z
x,-y,z
loop_
_atom_site_type_symbol
_atom_site_label
_atom_site_fract_x
_atom_site_fract_y
_atom_site_fract_z
Si Si1 0.428298 0.662446 0.327663
Si Si2 0.726056 0.500000 0.663615
Si Si3 0.799976 0.664015 0.331138
Si Si4 0.402619 0.500000 0.825139
Si Si5 0.500000 0.095102 0.335098
Si Si6 0.626863 0.911151 0.170205
Si Si7 0.071730 0.410319 0.676364
Si Si8 0.689649 0.247603 0.828527
O O1 0.410624 0.650458 0.500000
O O2 0.500000 0.703844 0.310531
O O3 0.434359 0.577336 0.248353
O O4 0.370643 0.712863 0.255654
O O5 0.692638 0.500000 0.500000
O O6 0.769879 0.423089 0.681248
O O7 0.674130 0.500000 0.794520
O O8 0.799700 0.695625 0.500000
O O9 0.873574 0.652903 0.267790
O O10 0.759485 0.726464 0.233414
O O11 0.416028 0.500000 0.000000
O O12 0.500000 0.131060 0.500000
O O13 0.435005 0.125066 0.255608
O O14 0.500000 0.000000 0.334297
O O15 0.685623 0.848630 0.192676
O O16 0.647426 0.000000 0.227614
O O17 0.605829 0.916331 0.000000
O O18 0.077403 0.415353 0.500000
O O19 0.082981 0.500000 0.740416
O O20 0.000000 0.379578 0.724328
O O21 0.684564 0.272461 0.000000
#
# Coordination Sequence:
#
# PCOD8194051 Si02
#       8
#     8   4   8   4   4   8   8   8
#     4  11  24  39  52  66  89 123 159 200 247 292
#     4  10  18  29  46  66  92 128 161 190 228 278
#     4  10  18  30  49  71  98 130 161 195 235 278
#     4  12  23  35  52  70  89 118 161 208 247 282
#     4   9  17  29  49  75  95 112 141 184 235 293
#     4   9  19  36  53  68  91 123 156 193 244 302
#     4   8  13  23  43  72 100 127 163 199 227 265
#     4  11  23  35  50  72  94 121 159 202 243 289
#
# _framework density 16.750268999999999
#
# number of rings (size 3 to 8) (size 9 to 14) (size 15 to 20)
#    0.000    2.077    2.308    2.538    1.077    4.308 
#    0.000    0.000    0.000    0.462    0.000    1.077 
#    0.000    0.615    0.000    7.692    0.000    0.000 
#
# Total GULP energy -644486.610475 kJ/mol
# GULP energy per Si atom -12393.973278 kJ/mol
# Density = 1.671215 g / cm^3
# Si number density = 16.750269 Si / 1000 Ang^3
#
#
#
# Elastic Constant Matrix: (Units=GPa)
#
#
# Indices 1 2 3 4 5 6 
#
# 1 132.6780 47.0932 43.8580 0.0000 0.0000 0.0000
# 2 47.0932 70.7303 32.6876 0.0000 0.0000 0.0000
# 3 43.8580 32.6876 85.8237 0.0000 0.0000 0.0000
# 4 0.0000 0.0000 0.0000 1.7893 0.0000 0.0000
# 5 0.0000 0.0000 0.0000 0.0000 8.3324 0.0000
# 6 0.0000 0.0000 0.0000 0.0000 0.0000 19.4516
#
#
#
# Elastic Compliance Matrix: (Units=1/GPa)
#
#
# Indices 1 2 3 4 5 6 
#
# 1 0.010591 -0.005522 -0.003309 0.000000 0.000000 0.000000
# 2 -0.005522 0.020038 -0.004810 0.000000 0.000000 0.000000
# 3 -0.003309 -0.004810 0.015175 0.000000 0.000000 0.000000
# 4 0.000000 0.000000 0.000000 0.558873 0.000000 0.000000
# 5 0.000000 0.000000 0.000000 0.000000 0.120013 0.000000
# 6 0.000000 0.000000 0.000000 0.000000 0.000000 0.051410
#
#
# Mechanical properties :
#
#
# Convention : Reuss Voigt Hill
#
# Bulk Modulus (GPa) = 53.99177 59.61217 56.80197
# Shear Modulus (GPa) = 6.17623 16.95421 11.56522
#
# Velocity S-wave (km/s) = 1.92230 3.18492 2.63049
# Velocity P-wave (km/s) = 6.10167 7.01363 6.57348
#
# Compressibility (1/GPa) = 0.01852134
#
# Stress axis : x y z
#
# Youngs Moduli (GPa) = 94.41991 49.90542 65.89953
#
# Poissons Ratio (x) = 0.27560 0.21806
# Poissons Ratio (y) = 0.52143 0.31696
# Poissons Ratio (z) = 0.31243 0.24003
#
# Static dielectric constant tensor:
#      x y z
#    x 3.298620 0.000000 0.000000 
#    y 0.000000 3.137670 0.000000 
#    z 0.000000 0.000000 3.104870 
# 
# 
# High freq. dielectric constant tensor:
#      x y z
#    x 1.630670 0.000000 0.000000 
#    y 0.000000 1.624460 0.000000 
#    z 0.000000 0.000000 1.636020 
# 
# From -- ./inp_files/11124.got.cif
#   From: 2010.03.12/outbox.cif.g09.slc.cpg/sg47_6_cif.got.tgz:11124.got - 2010.04.14 03:12:58.
