data_PCOD8194693
_publ_section_title
;
Structure prediction by ZEFSAII (Michael W. Deem and Ramdas Pophale) SiO2 
 PCOD8194693
Probable space group: P M M M
;
_chemical_formula_sum "Si O2"
_cell_formula_units_Z 64
_cell_length_a 34.000403
_cell_length_b 9.226326
_cell_length_c 13.725785
_cell_angle_alpha 90.000000
_cell_angle_beta 90.000000
_cell_angle_gamma 90.000000
_cell_volume 4305.762314
_symmetry_space_group_name_H-M "P M M M"
_symmetry_group_IT_number 47
_symmetry_cell_setting 'orthorhombic'
loop_
_space_group_symop_operation_xyz
x,y,z
-x,-y,z
x,-y,-z
-x,y,-z
-x,-y,-z
x,y,-z
-x,y,z
x,-y,z
loop_
_atom_site_type_symbol
_atom_site_label
_atom_site_fract_x
_atom_site_fract_y
_atom_site_fract_z
Si Si1 0.110837 0.332740 0.390166
Si Si2 0.159895 0.665565 0.792814
Si Si3 0.955142 0.167006 0.714793
Si Si4 0.229968 0.170052 0.112928
Si Si5 0.692582 0.336518 0.115771
Si Si6 0.543406 0.662818 0.115829
Si Si7 0.077839 0.332818 0.889775
Si Si8 0.382578 0.836830 0.883650
O O1 0.124715 0.299046 0.500000
O O2 0.098928 0.500000 0.375891
O O3 0.146612 0.295209 0.317363
O O4 0.072171 0.240660 0.366195
O O5 0.175031 0.500000 0.800257
O O6 0.194086 0.774558 0.822259
O O7 0.123509 0.690989 0.864996
O O8 0.949668 0.237891 0.820726
O O9 0.000000 0.186516 0.680981
O O10 0.943207 0.000000 0.722964
O O11 0.269070 0.249774 0.150779
O O12 0.235686 0.000000 0.128913
O O13 0.221708 0.207037 0.000000
O O14 0.693874 0.500000 0.157300
O O15 0.654017 0.255896 0.157061
O O16 0.690827 0.338838 0.000000
O O17 0.500000 0.715601 0.150276
O O18 0.551380 0.500000 0.153867
O O19 0.576956 0.768494 0.157874
O O20 0.545167 0.663194 0.000000
O O21 0.066351 0.500000 0.874701
O O22 0.070397 0.282233 0.000000
O O23 0.379048 0.000000 0.843826
O O24 0.382521 0.835731 0.000000
#
# Coordination Sequence:
#
# PCOD8194693 Si02
#       8
#     8   8   8   8   8   8   8   8
#     4   9  19  36  55  71  86 107 136 168 200 234
#     4   9  17  30  47  65  84 104 128 159 194 231
#     4  10  21  34  47  67  94 118 139 166 200 237
#     4  10  19  28  39  58  83 107 130 156 187 226
#     4   9  16  25  36  48  64  90 122 152 184 224
#     4   8  13  20  28  37  50  71 102 140 182 229
#     4   9  18  32  49  67  87 114 146 174 197 226
#     4   9  15  21  29  41  58  79 105 142 187 232
#
# _framework density 14.863803000000001
#
# number of rings (size 3 to 8) (size 9 to 14) (size 15 to 20)
#    0.000    2.875    0.000    3.000    0.000    8.500 
#    0.000    3.750    0.000    0.000    0.000    0.000 
#    0.000    0.000    0.000    0.000    0.000    0.000 
#
# Total GULP energy -793478.062287 kJ/mol
# GULP energy per Si atom -12398.094723 kJ/mol
# Density = 1.482997 g / cm^3
# Si number density = 14.863803 Si / 1000 Ang^3
#
#
#
# Elastic Constant Matrix: (Units=GPa)
#
#
# Indices 1 2 3 4 5 6 
#
# 1 103.1919 63.9283 25.1329 0.0000 0.0000 0.0000
# 2 63.9283 103.5833 26.6164 0.0000 0.0000 0.0000
# 3 25.1329 26.6164 54.9046 0.0000 0.0000 0.0000
# 4 0.0000 0.0000 0.0000 9.0434 0.0000 0.0000
# 5 0.0000 0.0000 0.0000 0.0000 5.1989 0.0000
# 6 0.0000 0.0000 0.0000 0.0000 0.0000 27.7892
#
#
#
# Elastic Compliance Matrix: (Units=1/GPa)
#
#
# Indices 1 2 3 4 5 6 
#
# 1 0.016087 -0.009180 -0.002914 0.000000 0.000000 0.000000
# 2 -0.009180 0.016266 -0.003683 0.000000 0.000000 0.000000
# 3 -0.002914 -0.003683 0.021333 0.000000 0.000000 0.000000
# 4 0.000000 0.000000 0.000000 0.110578 0.000000 0.000000
# 5 0.000000 0.000000 0.000000 0.000000 0.192348 0.000000
# 6 0.000000 0.000000 0.000000 0.000000 0.000000 0.035985
#
#
# Mechanical properties :
#
#
# Convention : Reuss Voigt Hill
#
# Bulk Modulus (GPa) = 45.18309 54.78167 49.98238
# Shear Modulus (GPa) = 11.58671 18.13979 14.86325
#
# Velocity S-wave (km/s) = 2.79503 3.49721 3.16565
# Velocity P-wave (km/s) = 6.39377 7.29679 6.86015
#
# Compressibility (1/GPa) = 0.02213218
#
# Stress axis : x y z
#
# Youngs Moduli (GPa) = 62.16048 61.47785 46.87617
#
# Poissons Ratio (x) = 0.56436 0.13659
# Poissons Ratio (y) = 0.57063 0.17266
# Poissons Ratio (z) = 0.18113 0.22644
#
# Static dielectric constant tensor:
#      x y z
#    x 2.941500 0.000000 0.000000 
#    y 0.000000 3.002030 0.000000 
#    z 0.000000 0.000000 2.518600 
# 
# 
# High freq. dielectric constant tensor:
#      x y z
#    x 1.570050 0.000000 0.000000 
#    y 0.000000 1.580560 0.000000 
#    z 0.000000 0.000000 1.504220 
# 
# From -- ./inp_files/25872.got.cif
#   From: 2010.03.12/outbox.cif.g09.slc.cpg/sg47_13_cif.got.tgz:25872.got - 2010.04.14 03:12:58.
