data_PCOD8194260
_publ_section_title
;
Structure prediction by ZEFSAII (Michael W. Deem and Ramdas Pophale) SiO2 
 PCOD8194260
Probable space group: P M M M
;
_chemical_formula_sum "Si O2"
_cell_formula_units_Z 48
_cell_length_a 8.607252
_cell_length_b 22.852610
_cell_length_c 12.441821
_cell_angle_alpha 90.000000
_cell_angle_beta 90.000000
_cell_angle_gamma 90.000000
_cell_volume 2447.283461
_symmetry_space_group_name_H-M "P M M M"
_symmetry_group_IT_number 47
_symmetry_cell_setting 'orthorhombic'
loop_
_space_group_symop_operation_xyz
x,y,z
-x,-y,z
x,-y,-z
-x,y,-z
-x,-y,-z
x,y,-z
-x,y,z
x,-y,z
loop_
_atom_site_type_symbol
_atom_site_label
_atom_site_fract_x
_atom_site_fract_y
_atom_site_fract_z
Si Si1 0.815000 0.434350 0.620621
Si Si2 0.322179 0.755208 0.378428
Si Si3 0.181128 0.665273 0.225554
Si Si4 0.184964 0.155508 0.000000
Si Si5 0.822752 0.122508 0.618552
Si Si6 0.186065 0.711195 0.000000
Si Si7 0.817601 0.063629 0.169770
O O1 0.756374 0.417327 0.500000
O O2 0.759254 0.500000 0.648986
O O3 0.744448 0.390678 0.711568
O O4 0.000000 0.430919 0.621545
O O5 0.283152 0.735338 0.500000
O O6 0.500000 0.741380 0.349479
O O7 0.209574 0.722105 0.297258
O O8 0.292466 0.823639 0.364957
O O9 0.000000 0.654584 0.213194
O O10 0.249482 0.676543 0.105572
O O11 0.251851 0.221817 0.000000
O O12 0.248921 0.118460 0.102080
O O13 0.000000 0.160014 0.000000
O O14 0.801170 0.095036 0.500000
O O15 0.779554 0.073155 0.704833
O O16 0.000000 0.144592 0.635094
O O17 0.000000 0.713389 0.000000
O O18 0.000000 0.061080 0.148311
O O19 0.746621 0.000000 0.136644
#
# Coordination Sequence:
#
# PCOD8194260 Si02
#       7
#     8   8   8   4   8   4   8
#     4   8  14  25  43  69  98 126 158 196 235 274
#     4  10  20  32  47  69  96 123 154 197 243 284
#     4  10  18  30  49  71  96 127 162 197 234 279
#     4   9  15  24  37  56  88 121 144 179 232 278
#     4   9  17  29  45  65  90 119 148 181 229 287
#     4   9  18  29  44  70  99 125 158 199 236 272
#     4   9  16  25  40  63  87 112 146 187 228 271
#
# _framework density 19.613583999999999
#
# number of rings (size 3 to 8) (size 9 to 14) (size 15 to 20)
#    0.000    2.833    0.000    2.750    0.000    5.667 
#    0.000    2.500    0.000    3.500    0.000    4.667 
#    0.000    4.000    0.000    0.000    0.000    0.000 
#
# Total GULP energy -594774.702453 kJ/mol
# GULP energy per Si atom -12391.139634 kJ/mol
# Density = 1.956894 g / cm^3
# Si number density = 19.613584 Si / 1000 Ang^3
#
#
#
# Elastic Constant Matrix: (Units=GPa)
#
#
# Indices 1 2 3 4 5 6 
#
# 1 5.5819 4.4126 8.8781 0.0000 0.0000 0.0000
# 2 4.4126 125.5656 87.4331 0.0000 0.0000 0.0000
# 3 8.8781 87.4331 164.0319 0.0000 0.0000 0.0000
# 4 0.0000 0.0000 0.0000 30.6240 0.0000 0.0000
# 5 0.0000 0.0000 0.0000 0.0000 7.7719 0.0000
# 6 0.0000 0.0000 0.0000 0.0000 0.0000 3.8293
#
#
#
# Elastic Compliance Matrix: (Units=1/GPa)
#
#
# Indices 1 2 3 4 5 6 
#
# 1 0.196076 0.000794 -0.011035 0.000000 0.000000 0.000000
# 2 0.000794 0.012668 -0.006795 0.000000 0.000000 0.000000
# 3 -0.011035 -0.006795 0.010316 0.000000 0.000000 0.000000
# 4 0.000000 0.000000 0.000000 0.032654 0.000000 0.000000
# 5 0.000000 0.000000 0.000000 0.000000 0.128669 0.000000
# 6 0.000000 0.000000 0.000000 0.000000 0.000000 0.261146
#
#
# Mechanical properties :
#
#
# Convention : Reuss Voigt Hill
#
# Bulk Modulus (GPa) = 5.40583 55.18076 30.29329
# Shear Modulus (GPa) = 6.78183 21.40875 14.09529
#
# Velocity S-wave (km/s) = 1.86151 3.30741 2.68367
# Velocity P-wave (km/s) = 2.71707 6.54067 5.00813
#
# Compressibility (1/GPa) = 0.18498555
#
# Stress axis : x y z
#
# Youngs Moduli (GPa) = 5.10006 78.94159 96.94042
#
# Poissons Ratio (x) = -0.06266 1.06979
# Poissons Ratio (y) = -0.00405 0.65872
# Poissons Ratio (z) = 0.05628 0.53642
#
# Static dielectric constant tensor:
#      x y z
#    x 2.918540 0.000000 0.000000 
#    y 0.000000 3.701190 0.000000 
#    z 0.000000 0.000000 3.957090 
# 
# 
# High freq. dielectric constant tensor:
#      x y z
#    x 1.694130 0.000000 0.000000 
#    y 0.000000 1.757760 0.000000 
#    z 0.000000 0.000000 1.774870 
# 
# From -- ./inp_files/16657.got.cif
#   From: 2010.03.12/outbox.cif.g09.slc.cpg/sg47_9_cif.got.tgz:16657.got - 2010.04.14 03:12:58.
