data_PCOD8194118
_publ_section_title
;
Structure prediction by ZEFSAII (Michael W. Deem and Ramdas Pophale) SiO2 
 PCOD8194118
Probable space group: P M M M
;
_chemical_formula_sum "Si O2"
_cell_formula_units_Z 52
_cell_length_a 15.179189
_cell_length_b 18.510987
_cell_length_c 11.257576
_cell_angle_alpha 90.000000
_cell_angle_beta 90.000000
_cell_angle_gamma 90.000000
_cell_volume 3163.173633
_symmetry_space_group_name_H-M "P M M M"
_symmetry_group_IT_number 47
_symmetry_cell_setting 'orthorhombic'
loop_
_space_group_symop_operation_xyz
x,y,z
-x,-y,z
x,-y,-z
-x,y,-z
-x,-y,-z
x,y,-z
-x,y,z
x,-y,z
loop_
_atom_site_type_symbol
_atom_site_label
_atom_site_fract_x
_atom_site_fract_y
_atom_site_fract_z
Si Si1 0.398483 0.698830 0.862922
Si Si2 0.000000 0.079986 0.141047
Si Si3 0.901525 0.672157 0.140891
Si Si4 0.835506 0.828486 0.140713
Si Si5 0.652471 0.154765 0.743292
Si Si6 0.259457 0.419811 0.859045
Si Si7 0.394626 0.086077 0.500000
Si Si8 0.500000 0.917164 0.874261
O O1 0.500000 0.675259 0.854365
O O2 0.380423 0.764311 0.772712
O O3 0.339475 0.631665 0.818627
O O4 0.373954 0.720045 0.000000
O O5 0.913567 0.120583 0.185905
O O6 0.000000 0.000000 0.195269
O O7 0.000000 0.078862 0.000000
O O8 0.859796 0.747849 0.181293
O O9 0.835034 0.610172 0.186928
O O10 0.000000 0.661025 0.194854
O O11 0.908980 0.671409 0.000000
O O12 0.750209 0.856339 0.208754
O O13 0.819481 0.833139 0.000000
O O14 0.648168 0.131658 0.606814
O O15 0.588303 0.099028 0.805609
O O16 0.273602 0.500000 0.805360
O O17 0.257697 0.423430 0.000000
O O18 0.500000 0.093681 0.500000
O O19 0.369311 0.000000 0.500000
O O20 0.500000 0.000000 0.901406
O O21 0.500000 0.873879 0.000000
#
# Coordination Sequence:
#
# PCOD8194118 Si02
#       8
#     8   4   8   8   8   8   4   4
#     4  10  18  29  48  73 100 131 167 209 257 307
#     4   9  18  30  44  69 104 134 162 202 257 319
#     4   9  15  25  43  67  99 139 173 200 242 302
#     4  10  18  30  51  77 103 132 168 212 262 310
#     4  12  21  34  55  74  97 133 176 213 253 305
#     4   9  17  27  40  66 105 141 170 201 242 299
#     4  11  24  42  56  69  98 138 175 215 262 309
#     4  11  22  33  49  77 106 127 155 206 265 308
#
# _framework density 16.439185999999999
#
# number of rings (size 3 to 8) (size 9 to 14) (size 15 to 20)
#    0.000    1.923    3.846    1.846    0.000    1.846 
#    0.000    4.615    0.000    0.462    0.000    1.615 
#    0.000    1.846    0.000    1.385    0.000    0.615 
#
# Total GULP energy -644518.951844 kJ/mol
# GULP energy per Si atom -12394.595228 kJ/mol
# Density = 1.640177 g / cm^3
# Si number density = 16.439186 Si / 1000 Ang^3
#
#
#
# Elastic Constant Matrix: (Units=GPa)
#
#
# Indices 1 2 3 4 5 6 
#
# 1 148.3569 56.4635 35.3650 0.0000 0.0000 0.0000
# 2 56.4635 124.5409 33.7255 0.0000 0.0000 0.0000
# 3 35.3650 33.7255 63.3622 0.0000 0.0000 0.0000
# 4 0.0000 0.0000 0.0000 -9.6194 0.0000 0.0000
# 5 0.0000 0.0000 0.0000 0.0000 15.4635 0.0000
# 6 0.0000 0.0000 0.0000 0.0000 0.0000 38.5617
#
#
#
# Elastic Compliance Matrix: (Units=1/GPa)
#
#
# Indices 1 2 3 4 5 6 
#
# 1 0.008671 -0.003062 -0.003210 0.000000 0.000000 0.000000
# 2 -0.003062 0.010463 -0.003860 0.000000 0.000000 0.000000
# 3 -0.003210 -0.003860 0.019628 0.000000 0.000000 0.000000
# 4 0.000000 0.000000 0.000000 -0.103957 0.000000 0.000000
# 5 0.000000 0.000000 0.000000 0.000000 0.064669 0.000000
# 6 0.000000 0.000000 0.000000 0.000000 0.000000 0.025932
#
#
# Mechanical properties :
#
#
# Convention : Reuss Voigt Hill
#
# Bulk Modulus (GPa) = 54.05816 65.26313 59.66064
# Shear Modulus (GPa) = 96.45657 22.92822 59.69239
#
# Velocity S-wave (km/s) = 7.66826 3.73866 6.03240
# Velocity P-wave (km/s) = 10.55263 7.64347 9.21360
#
# Compressibility (1/GPa) = 0.01849860
#
# Stress axis : x y z
#
# Youngs Moduli (GPa) = 115.32648 95.57470 50.94655
#
# Poissons Ratio (x) = 0.29265 0.16353
# Poissons Ratio (y) = 0.35313 0.19666
# Poissons Ratio (z) = 0.37018 0.36893
#
# Static dielectric constant tensor:
#      x y z
#    x 3.556820 0.000000 0.000000 
#    y 0.000000 3.303300 0.000000 
#    z 0.000000 0.000000 2.682820 
# 
# 
# High freq. dielectric constant tensor:
#      x y z
#    x 1.651640 0.000000 0.000000 
#    y 0.000000 1.638730 0.000000 
#    z 0.000000 0.000000 1.562580 
# 
# From -- ./inp_files/17835.got.cif
#   From: 2010.03.12/outbox.cif.g09.slc.cpg/sg47_9_cif.got.tgz:17835.got - 2010.04.14 03:12:58.
