data_PCOD8194061
_publ_section_title
;
Structure prediction by ZEFSAII (Michael W. Deem and Ramdas Pophale) SiO2 
 PCOD8194061
Probable space group: P M M M
;
_chemical_formula_sum "Si O2"
_cell_formula_units_Z 64
_cell_length_a 19.641979
_cell_length_b 9.858700
_cell_length_c 20.171155
_cell_angle_alpha 90.000000
_cell_angle_beta 90.000000
_cell_angle_gamma 90.000000
_cell_volume 3906.030771
_symmetry_space_group_name_H-M "P M M M"
_symmetry_group_IT_number 47
_symmetry_cell_setting 'orthorhombic'
loop_
_space_group_symop_operation_xyz
x,y,z
-x,-y,z
x,-y,-z
-x,y,-z
-x,-y,-z
x,y,-z
-x,y,z
x,-y,z
loop_
_atom_site_type_symbol
_atom_site_label
_atom_site_fract_x
_atom_site_fract_y
_atom_site_fract_z
Si Si1 0.156228 0.159011 0.824130
Si Si2 0.163654 0.161333 0.573496
Si Si3 0.306892 0.843818 0.627105
Si Si4 0.922121 0.654728 0.922446
Si Si5 0.076434 0.838560 0.694294
Si Si6 0.424564 0.347547 0.214999
Si Si7 0.424594 0.651869 0.627422
Si Si8 0.306675 0.154194 0.782775
O O1 0.127742 0.242613 0.885614
O O2 0.119216 0.210940 0.757504
O O3 0.236391 0.189150 0.819344
O O4 0.141993 0.000000 0.835579
O O5 0.143311 0.212955 0.500000
O O6 0.239690 0.210302 0.590477
O O7 0.110610 0.220530 0.627216
O O8 0.162277 0.000000 0.576990
O O9 0.369957 0.757307 0.598579
O O10 0.295505 0.821411 0.704998
O O11 0.322054 0.000000 0.610511
O O12 0.905481 0.500000 0.901971
O O13 0.000000 0.689522 0.903919
O O14 0.909967 0.675130 0.000000
O O15 0.000000 0.780736 0.699306
O O16 0.076230 0.000000 0.691645
O O17 0.500000 0.304028 0.189411
O O18 0.408066 0.500000 0.190886
O O19 0.424275 0.340709 0.293744
O O20 0.366548 0.247606 0.186852
O O21 0.500000 0.690726 0.601202
O O22 0.405548 0.500000 0.604038
O O23 0.328563 0.000000 0.796284
#
# Coordination Sequence:
#
# PCOD8194061 Si02
#       8
#     8   8   8   8   8   8   8   8
#     4  10  18  29  46  70  97 123 153 188 226 269
#     4   9  16  26  40  58  82 113 148 186 228 272
#     4   9  15  25  40  58  82 110 142 180 221 265
#     4   9  19  35  51  68  94 126 157 190 227 266
#     4   9  16  26  41  62  88 116 146 184 229 271
#     4   8  14  24  37  56  84 115 147 183 221 263
#     4   8  14  24  38  57  80 105 135 174 219 265
#     4   9  16  25  39  60  89 119 146 182 225 267
#
# _framework density 16.384920000000001
#
# number of rings (size 3 to 8) (size 9 to 14) (size 15 to 20)
#    0.000    3.125    1.250    1.500    0.000    2.250 
#    0.000    4.375    0.000    0.750    0.000    2.625 
#    0.000    0.500    0.000    9.250    0.000    8.000 
#
# Total GULP energy -793307.694691 kJ/mol
# GULP energy per Si atom -12395.432730 kJ/mol
# Density = 1.634763 g / cm^3
# Si number density = 16.384920 Si / 1000 Ang^3
#
#
#
# Elastic Constant Matrix: (Units=GPa)
#
#
# Indices 1 2 3 4 5 6 
#
# 1 129.5161 62.3465 41.6075 0.0000 0.0000 0.0000
# 2 62.3465 63.5699 30.3038 0.0000 0.0000 0.0000
# 3 41.6075 30.3038 51.4330 0.0000 0.0000 0.0000
# 4 0.0000 0.0000 0.0000 10.4396 0.0000 0.0000
# 5 0.0000 0.0000 0.0000 0.0000 15.8985 0.0000
# 6 0.0000 0.0000 0.0000 0.0000 0.0000 24.6867
#
#
#
# Elastic Compliance Matrix: (Units=1/GPa)
#
#
# Indices 1 2 3 4 5 6 
#
# 1 0.015492 -0.012820 -0.004979 0.000000 0.000000 0.000000
# 2 -0.012820 0.032484 -0.008768 0.000000 0.000000 0.000000
# 3 -0.004979 -0.008768 0.028636 0.000000 0.000000 0.000000
# 4 0.000000 0.000000 0.000000 0.095790 0.000000 0.000000
# 5 0.000000 0.000000 0.000000 0.000000 0.062899 0.000000
# 6 0.000000 0.000000 0.000000 0.000000 0.000000 0.040508
#
#
# Mechanical properties :
#
#
# Convention : Reuss Voigt Hill
#
# Bulk Modulus (GPa) = 42.59298 57.00386 49.79842
# Shear Modulus (GPa) = 14.84696 17.55571 16.20134
#
# Velocity S-wave (km/s) = 3.01347 3.27686 3.14792
# Velocity P-wave (km/s) = 6.17735 7.01306 6.60843
#
# Compressibility (1/GPa) = 0.02347805
#
# Stress axis : x y z
#
# Youngs Moduli (GPa) = 64.54931 30.78426 34.92049
#
# Poissons Ratio (x) = 0.39467 0.17386
# Poissons Ratio (y) = 0.82755 0.30618
# Poissons Ratio (z) = 0.32138 0.26992
#
# Static dielectric constant tensor:
#      x y z
#    x 3.349250 0.000000 0.000000 
#    y 0.000000 2.937800 0.000000 
#    z 0.000000 0.000000 2.756720 
# 
# 
# High freq. dielectric constant tensor:
#      x y z
#    x 1.640370 0.000000 0.000000 
#    y 0.000000 1.603100 0.000000 
#    z 0.000000 0.000000 1.590410 
# 
# From -- ./inp_files/11571.got.cif
#   From: 2010.03.12/outbox.cif.g09.slc.cpg/sg47_6_cif.got.tgz:11571.got - 2010.04.14 03:12:58.
