data_PCOD8194038
_publ_section_title
;
Structure prediction by ZEFSAII (Michael W. Deem and Ramdas Pophale) SiO2 
 PCOD8194038
Probable space group: P M M M
;
_chemical_formula_sum "Si O2"
_cell_formula_units_Z 36
_cell_length_a 16.830517
_cell_length_b 15.410758
_cell_length_c 9.110444
_cell_angle_alpha 90.000000
_cell_angle_beta 90.000000
_cell_angle_gamma 90.000000
_cell_volume 2362.985194
_symmetry_space_group_name_H-M "P M M M"
_symmetry_group_IT_number 47
_symmetry_cell_setting 'orthorhombic'
loop_
_space_group_symop_operation_xyz
x,y,z
-x,-y,z
x,-y,-z
-x,y,-z
-x,-y,-z
x,y,-z
-x,y,z
x,-y,z
loop_
_atom_site_type_symbol
_atom_site_label
_atom_site_fract_x
_atom_site_fract_y
_atom_site_fract_z
Si Si1 0.589099 0.500000 0.325626
Si Si2 0.846038 0.599043 0.330526
Si Si3 0.592169 0.827449 0.827209
Si Si4 0.676951 0.328825 0.671861
Si Si5 0.594160 0.000000 0.665251
Si Si6 0.000000 0.603205 0.834559
O O1 0.500000 0.500000 0.263395
O O2 0.591220 0.500000 0.500000
O O3 0.632917 0.585606 0.268102
O O4 0.869502 0.600965 0.500000
O O5 0.826294 0.500000 0.282920
O O6 0.770456 0.659548 0.298852
O O7 0.920407 0.638715 0.242332
O O8 0.500000 0.809365 0.788303
O O9 0.645953 0.750806 0.765915
O O10 0.623699 0.915129 0.751331
O O11 0.604546 0.836734 0.000000
O O12 0.658930 0.313191 0.500000
O O13 0.500000 0.000000 0.660993
O O14 0.629144 0.000000 0.500000
O O15 0.000000 0.500000 0.822692
O O16 0.000000 0.637061 0.000000
#
# Coordination Sequence:
#
# PCOD8194038 Si02
#       6
#     4   8   8   8   4   4
#     4   9  16  26  41  60  83 114 154 195 223 247
#     4   9  16  28  44  62  85 113 148 188 227 262
#     4  10  20  32  45  64  91 120 148 183 230 276
#     4  10  18  29  45  65  87 116 155 192 224 261
#     4   9  17  31  51  69  83 106 145 190 231 271
#     4   9  17  27  41  61  83 110 145 180 223 275
#
# _framework density 15.234966
#
# number of rings (size 3 to 8) (size 9 to 14) (size 15 to 20)
#    0.000    2.556    1.111    2.000    0.000    5.778 
#    0.000    0.556    0.000    2.000    0.000    0.000 
#    0.000    0.889    0.000    9.333    0.000    4.444 
#
# Total GULP energy -446388.868878 kJ/mol
# GULP energy per Si atom -12399.690802 kJ/mol
# Density = 1.520029 g / cm^3
# Si number density = 15.234966 Si / 1000 Ang^3
#
#
#
# Elastic Constant Matrix: (Units=GPa)
#
#
# Indices 1 2 3 4 5 6 
#
# 1 93.3673 44.7509 50.2428 0.0000 0.0000 0.0000
# 2 44.7509 103.6283 49.2386 0.0000 0.0000 0.0000
# 3 50.2428 49.2386 82.6844 0.0000 0.0000 0.0000
# 4 0.0000 0.0000 0.0000 18.9238 0.0000 0.0000
# 5 0.0000 0.0000 0.0000 0.0000 20.6722 0.0000
# 6 0.0000 0.0000 0.0000 0.0000 0.0000 5.4195
#
#
#
# Elastic Compliance Matrix: (Units=1/GPa)
#
#
# Indices 1 2 3 4 5 6 
#
# 1 0.016701 -0.003333 -0.008163 0.000000 0.000000 0.000000
# 2 -0.003333 0.014123 -0.006385 0.000000 0.000000 0.000000
# 3 -0.008163 -0.006385 0.020857 0.000000 0.000000 0.000000
# 4 0.000000 0.000000 0.000000 0.052844 0.000000 0.000000
# 5 0.000000 0.000000 0.000000 0.000000 0.048374 0.000000
# 6 0.000000 0.000000 0.000000 0.000000 0.000000 0.184520
#
#
# Mechanical properties :
#
#
# Convention : Reuss Voigt Hill
#
# Bulk Modulus (GPa) = 62.82244 63.12719 62.97481
# Shear Modulus (GPa) = 13.21051 18.03294 15.62173
#
# Velocity S-wave (km/s) = 2.94788 3.44416 3.20564
# Velocity P-wave (km/s) = 7.27406 7.57245 7.42475
#
# Compressibility (1/GPa) = 0.01591788
#
# Stress axis : x y z
#
# Youngs Moduli (GPa) = 59.87722 70.80602 47.94639
#
# Poissons Ratio (x) = 0.23603 0.39139
# Poissons Ratio (y) = 0.19960 0.30613
# Poissons Ratio (z) = 0.48879 0.45208
#
# Static dielectric constant tensor:
#      x y z
#    x 2.874470 0.000000 0.000000 
#    y 0.000000 2.787360 0.000000 
#    z 0.000000 0.000000 2.893650 
# 
# 
# High freq. dielectric constant tensor:
#      x y z
#    x 1.569790 0.000000 0.000000 
#    y 0.000000 1.557230 0.000000 
#    z 0.000000 0.000000 1.581530 
# 
# From -- ./inp_files/5610.got.cif
#   From: 2010.03.12/outbox.cif.g09.slc.cpg/sg47_3_cif.got.tgz:5610.got - 2010.04.14 03:12:58.
