data_PCOD8194287
_publ_section_title
;
Structure prediction by ZEFSAII (Michael W. Deem and Ramdas Pophale) SiO2 
 PCOD8194287
Probable space group: P M M M
;
_chemical_formula_sum "Si O2"
_cell_formula_units_Z 64
_cell_length_a 14.372966
_cell_length_b 9.472083
_cell_length_c 30.989352
_cell_angle_alpha 90.000000
_cell_angle_beta 90.000000
_cell_angle_gamma 90.000000
_cell_volume 4218.950095
_symmetry_space_group_name_H-M "P M M M"
_symmetry_group_IT_number 47
_symmetry_cell_setting 'orthorhombic'
loop_
_space_group_symop_operation_xyz
x,y,z
-x,-y,z
x,-y,-z
-x,y,-z
-x,-y,-z
x,y,-z
-x,y,z
x,-y,z
loop_
_atom_site_type_symbol
_atom_site_label
_atom_site_fract_x
_atom_site_fract_y
_atom_site_fract_z
Si Si1 0.775400 0.337501 0.451548
Si Si2 0.206995 0.166318 0.293806
Si Si3 0.889396 0.343967 0.875860
Si Si4 0.892969 0.665955 0.220163
Si Si5 0.110562 0.157947 0.047334
Si Si6 0.605709 0.163915 0.426179
Si Si7 0.890871 0.836381 0.617143
Si Si8 0.600320 0.167101 0.327670
O O1 0.816461 0.329916 0.500000
O O2 0.764778 0.500000 0.436670
O O3 0.674717 0.262598 0.452956
O O4 0.845666 0.257844 0.419900
O O5 0.168992 0.247253 0.252846
O O6 0.149811 0.207648 0.336486
O O7 0.313721 0.219638 0.298817
O O8 0.200128 0.000000 0.285104
O O9 0.848225 0.500000 0.882473
O O10 0.862792 0.287621 0.828240
O O11 0.845337 0.248601 0.913780
O O12 0.000000 0.349166 0.879492
O O13 0.876750 0.500000 0.226600
O O14 0.000000 0.705076 0.228512
O O15 0.000000 0.157244 0.051255
O O16 0.149374 0.000000 0.052195
O O17 0.139138 0.218621 0.000000
O O18 0.500000 0.187403 0.442268
O O19 0.616703 0.213264 0.376800
O O20 0.633887 0.000000 0.432008
O O21 0.000000 0.806570 0.617850
O O22 0.868049 0.000000 0.607487
O O23 0.500000 0.226852 0.310980
O O24 0.596891 0.000000 0.326823
#
# Coordination Sequence:
#
# PCOD8194287 Si02
#       8
#     8   8   8   8   8   8   8   8
#     4  11  24  38  51  70  97 124 146 173 212 258
#     4  10  18  30  50  72  90 108 137 176 212 251
#     4   8  14  24  35  47  68 101 140 178 212 249
#     4   9  18  30  41  57  85 118 148 179 217 257
#     4   8  13  20  30  46  68  94 128 174 224 264
#     4   9  17  33  57  78  95 118 146 174 207 250
#     4  10  21  37  55  73  91 112 145 188 222 251
#     4   8  14  27  49  73  93 111 132 164 206 248
#
# _framework density 15.169650000000001
#
# number of rings (size 3 to 8) (size 9 to 14) (size 15 to 20)
#    0.000    2.875    1.250    2.625    0.000    4.000 
#    0.000    5.000    0.000    0.375    0.000    0.000 
#    0.000    0.000    0.000    0.000    0.000    0.625 
#
# Total GULP energy -793182.827675 kJ/mol
# GULP energy per Si atom -12393.481682 kJ/mol
# Density = 1.513512 g / cm^3
# Si number density = 15.169650 Si / 1000 Ang^3
#
#
#
# Elastic Constant Matrix: (Units=GPa)
#
#
# Indices 1 2 3 4 5 6 
#
# 1 74.0824 36.0367 47.2724 0.0000 0.0000 0.0000
# 2 36.0367 62.7885 55.4578 0.0000 0.0000 0.0000
# 3 47.2724 55.4578 120.2981 0.0000 0.0000 0.0000
# 4 0.0000 0.0000 0.0000 27.1179 0.0000 0.0000
# 5 0.0000 0.0000 0.0000 0.0000 3.3404 0.0000
# 6 0.0000 0.0000 0.0000 0.0000 0.0000 14.3004
#
#
#
# Elastic Compliance Matrix: (Units=1/GPa)
#
#
# Indices 1 2 3 4 5 6 
#
# 1 0.019978 -0.007645 -0.004326 0.000000 0.000000 0.000000
# 2 -0.007645 0.029791 -0.010730 0.000000 0.000000 0.000000
# 3 -0.004326 -0.010730 0.014959 0.000000 0.000000 0.000000
# 4 0.000000 0.000000 0.000000 0.036876 0.000000 0.000000
# 5 0.000000 0.000000 0.000000 0.000000 0.299361 0.000000
# 6 0.000000 0.000000 0.000000 0.000000 0.000000 0.069928
#
#
# Mechanical properties :
#
#
# Convention : Reuss Voigt Hill
#
# Bulk Modulus (GPa) = 51.74227 59.41142 55.57685
# Shear Modulus (GPa) = 9.56504 16.84522 13.20513
#
# Velocity S-wave (km/s) = 2.51378 3.33597 2.95362
# Velocity P-wave (km/s) = 6.52752 7.35445 6.95329
#
# Compressibility (1/GPa) = 0.01932656
#
# Stress axis : x y z
#
# Youngs Moduli (GPa) = 50.05543 33.56697 66.84904
#
# Poissons Ratio (x) = 0.25662 0.28920
# Poissons Ratio (y) = 0.38267 0.71727
# Poissons Ratio (z) = 0.21655 0.36016
#
# Static dielectric constant tensor:
#      x y z
#    x 3.119110 0.000000 0.000000 
#    y 0.000000 2.890990 0.000000 
#    z 0.000000 0.000000 2.975310 
# 
# 
# High freq. dielectric constant tensor:
#      x y z
#    x 1.547580 0.000000 0.000000 
#    y 0.000000 1.571460 0.000000 
#    z 0.000000 0.000000 1.575710 
# 
# From -- ./inp_files/34684.got.cif
#   From: 2010.03.12/outbox.cif.g09.slc.cpg/sg47_18_cif.got.tgz:34684.got - 2010.04.14 03:12:58.
