data_PCOD8194296
_publ_section_title
;
Structure prediction by ZEFSAII (Michael W. Deem and Ramdas Pophale) SiO2 
 PCOD8194296
Probable space group: P M M M
;
_chemical_formula_sum "Si O2"
_cell_formula_units_Z 52
_cell_length_a 9.004561
_cell_length_b 12.017428
_cell_length_c 28.390806
_cell_angle_alpha 90.000000
_cell_angle_beta 90.000000
_cell_angle_gamma 90.000000
_cell_volume 3072.216345
_symmetry_space_group_name_H-M "P M M M"
_symmetry_group_IT_number 47
_symmetry_cell_setting 'orthorhombic'
loop_
_space_group_symop_operation_xyz
x,y,z
-x,-y,z
x,-y,-z
-x,y,-z
-x,-y,-z
x,y,-z
-x,y,z
x,-y,z
loop_
_atom_site_type_symbol
_atom_site_label
_atom_site_fract_x
_atom_site_fract_y
_atom_site_fract_z
Si Si1 0.678065 0.737806 0.447669
Si Si2 0.175937 0.500000 0.946815
Si Si3 0.675630 0.128005 0.827738
Si Si4 0.339664 0.500000 0.444725
Si Si5 0.176312 0.737795 0.089809
Si Si6 0.176209 0.124670 0.000000
Si Si7 0.833898 0.868141 0.732702
Si Si8 0.670020 0.869089 0.358849
O O1 0.735368 0.773160 0.500000
O O2 0.500000 0.732052 0.448891
O O3 0.743839 0.615885 0.432476
O O4 0.734724 0.823601 0.408290
O O5 0.227543 0.389900 0.918557
O O6 0.000000 0.500000 0.951440
O O7 0.242510 0.500000 0.000000
O O8 0.500000 0.139392 0.828059
O O9 0.744963 0.212927 0.864707
O O10 0.734972 0.167446 0.777104
O O11 0.723729 0.000000 0.838644
O O12 0.500000 0.500000 0.418821
O O13 0.367559 0.500000 0.500000
O O14 0.000000 0.746387 0.096326
O O15 0.232760 0.810392 0.045772
O O16 0.000000 0.120814 0.000000
O O17 0.243013 0.000000 0.000000
O O18 0.762051 0.819044 0.684982
O O19 0.000000 0.820002 0.738576
O O20 0.837445 0.000000 0.728911
O O21 0.500000 0.832622 0.351704
O O22 0.686327 0.000000 0.361207
#
# Coordination Sequence:
#
# PCOD8194296 Si02
#       8
#     8   4   8   4   8   4   8   8
#     4   8  13  21  35  57  85 116 148 181 217 260
#     4   9  16  30  51  74  97 128 169 204 228 259
#     4  10  20  33  49  71  98 123 150 191 243 289
#     4   7  10  18  32  51  77 108 143 180 211 242
#     4  10  18  30  50  73  98 127 161 196 228 268
#     4   9  16  25  42  70  99 125 154 187 220 260
#     4   9  17  30  48  67  87 115 152 189 225 274
#     4   9  16  25  39  62  91 118 143 177 224 272
#
# _framework density 16.925891
#
# number of rings (size 3 to 8) (size 9 to 14) (size 15 to 20)
#    0.000    3.000    0.769    2.308    0.000    3.692 
#    0.000    2.308    0.000    3.231    0.000    5.923 
#    0.000    1.846    0.000    0.000    0.000    0.000 
#
# Total GULP energy -644361.613567 kJ/mol
# GULP energy per Si atom -12391.569492 kJ/mol
# Density = 1.688737 g / cm^3
# Si number density = 16.925891 Si / 1000 Ang^3
#
#
#
# Elastic Constant Matrix: (Units=GPa)
#
#
# Indices 1 2 3 4 5 6 
#
# 1 45.1617 28.8690 40.1093 0.0000 0.0000 0.0000
# 2 28.8690 82.5948 58.7593 0.0000 0.0000 0.0000
# 3 40.1093 58.7593 146.1020 0.0000 0.0000 0.0000
# 4 0.0000 0.0000 0.0000 9.0127 0.0000 0.0000
# 5 0.0000 0.0000 0.0000 0.0000 14.6543 0.0000
# 6 0.0000 0.0000 0.0000 0.0000 0.0000 10.2223
#
#
#
# Elastic Compliance Matrix: (Units=1/GPa)
#
#
# Indices 1 2 3 4 5 6 
#
# 1 0.031848 -0.006880 -0.005976 0.000000 0.000000 0.000000
# 2 -0.006880 0.018446 -0.005530 0.000000 0.000000 0.000000
# 3 -0.005976 -0.005530 0.010709 0.000000 0.000000 0.000000
# 4 0.000000 0.000000 0.000000 0.110954 0.000000 0.000000
# 5 0.000000 0.000000 0.000000 0.000000 0.068239 0.000000
# 6 0.000000 0.000000 0.000000 0.000000 0.000000 0.097825
#
#
# Mechanical properties :
#
#
# Convention : Reuss Voigt Hill
#
# Bulk Modulus (GPa) = 41.26927 58.81486 50.04207
# Shear Modulus (GPa) = 13.05918 16.51926 14.78922
#
# Velocity S-wave (km/s) = 2.78069 3.12745 2.95916
# Velocity P-wave (km/s) = 5.89448 6.91846 6.42690
#
# Compressibility (1/GPa) = 0.02423110
#
# Stress axis : x y z
#
# Youngs Moduli (GPa) = 31.39867 54.21184 93.37789
#
# Poissons Ratio (x) = 0.37299 0.55805
# Poissons Ratio (y) = 0.21603 0.51636
# Poissons Ratio (z) = 0.18765 0.29978
#
# Static dielectric constant tensor:
#      x y z
#    x 2.855440 0.000000 0.000000 
#    y 0.000000 3.308150 0.000000 
#    z 0.000000 0.000000 3.309900 
# 
# 
# High freq. dielectric constant tensor:
#      x y z
#    x 1.613010 0.000000 0.000000 
#    y 0.000000 1.634490 0.000000 
#    z 0.000000 0.000000 1.654650 
# 
# From -- ./inp_files/34340.got.cif
#   From: 2010.03.12/outbox.cif.g09.slc.cpg/sg47_18_cif.got.tgz:34340.got - 2010.04.14 03:12:58.
