data_PCOD8194708
_publ_section_title
;
Structure prediction by ZEFSAII (Michael W. Deem and Ramdas Pophale) SiO2 
 PCOD8194708
Probable space group: P M M M
;
_chemical_formula_sum "Si O2"
_cell_formula_units_Z 56
_cell_length_a 30.153320
_cell_length_b 9.181193
_cell_length_c 12.970351
_cell_angle_alpha 90.000000
_cell_angle_beta 90.000000
_cell_angle_gamma 90.000000
_cell_volume 3590.756725
_symmetry_space_group_name_H-M "P M M M"
_symmetry_group_IT_number 47
_symmetry_cell_setting 'orthorhombic'
loop_
_space_group_symop_operation_xyz
x,y,z
-x,-y,z
x,-y,-z
-x,y,-z
-x,-y,-z
x,y,-z
-x,y,z
x,-y,z
loop_
_atom_site_type_symbol
_atom_site_label
_atom_site_fract_x
_atom_site_fract_y
_atom_site_fract_z
Si Si1 0.914479 0.336323 0.623038
Si Si2 0.000000 0.835636 0.377137
Si Si3 0.350052 0.671660 0.385164
Si Si4 0.830813 0.837992 0.621416
Si Si5 0.735198 0.172132 0.308565
Si Si6 0.289765 0.335462 0.115278
Si Si7 0.611024 0.665213 0.178525
Si Si8 0.550464 0.674827 0.000000
O O1 0.914392 0.336662 0.500000
O O2 0.917643 0.500000 0.666055
O O3 0.956458 0.246091 0.665033
O O4 0.869353 0.264663 0.667081
O O5 0.000000 0.835829 0.500000
O O6 0.000000 0.000000 0.334362
O O7 0.369366 0.702555 0.500000
O O8 0.341933 0.500000 0.367309
O O9 0.302720 0.749425 0.374949
O O10 0.383720 0.731306 0.295529
O O11 0.835971 0.845324 0.500000
O O12 0.782547 0.775228 0.648847
O O13 0.836440 0.000000 0.668498
O O14 0.733411 0.219597 0.189506
O O15 0.728713 0.000000 0.319540
O O16 0.276330 0.500000 0.146936
O O17 0.342622 0.319665 0.120025
O O18 0.273845 0.299975 0.000000
O O19 0.596039 0.500000 0.192960
O O20 0.574035 0.739236 0.104081
O O21 0.554704 0.500000 0.000000
O O22 0.500000 0.728604 0.000000
#
# Coordination Sequence:
#
# PCOD8194708 Si02
#       8
#     8   4   8   8   8   8   8   4
#     4   9  16  24  35  51  69  92 127 171 208 237
#     4   9  15  23  35  49  67  93 126 163 206 255
#     4   9  17  28  42  58  78 109 145 175 205 248
#     4   9  17  28  38  49  72 106 136 161 198 246
#     4  10  19  28  40  60  84 108 135 172 212 247
#     4   9  16  28  45  60  79 109 140 168 201 246
#     4   8  13  23  38  57  81 107 136 168 205 249
#     4   9  14  20  36  62  87 109 135 171 215 262
#
# _framework density 15.595599
#
# number of rings (size 3 to 8) (size 9 to 14) (size 15 to 20)
#    0.000    3.000    0.714    2.357    0.000    4.857 
#    0.000    1.429    0.000    0.429    0.000    3.000 
#    0.000   18.286    0.000    5.786    0.000   17.786 
#
# Total GULP energy -693915.227043 kJ/mol
# GULP energy per Si atom -12391.343340 kJ/mol
# Density = 1.556010 g / cm^3
# Si number density = 15.595599 Si / 1000 Ang^3
#
#
#
# Elastic Constant Matrix: (Units=GPa)
#
#
# Indices 1 2 3 4 5 6 
#
# 1 100.3496 38.0685 36.2877 0.0000 0.0000 0.0000
# 2 38.0685 59.6648 20.0298 0.0000 0.0000 0.0000
# 3 36.2877 20.0298 80.2564 0.0000 0.0000 0.0000
# 4 0.0000 0.0000 0.0000 13.6045 0.0000 0.0000
# 5 0.0000 0.0000 0.0000 0.0000 14.0911 0.0000
# 6 0.0000 0.0000 0.0000 0.0000 0.0000 12.2574
#
#
#
# Elastic Compliance Matrix: (Units=1/GPa)
#
#
# Indices 1 2 3 4 5 6 
#
# 1 0.014589 -0.007743 -0.004664 0.000000 0.000000 0.000000
# 2 -0.007743 0.022402 -0.002090 0.000000 0.000000 0.000000
# 3 -0.004664 -0.002090 0.015091 0.000000 0.000000 0.000000
# 4 0.000000 0.000000 0.000000 0.073505 0.000000 0.000000
# 5 0.000000 0.000000 0.000000 0.000000 0.070967 0.000000
# 6 0.000000 0.000000 0.000000 0.000000 0.000000 0.081583
#
#
# Mechanical properties :
#
#
# Convention : Reuss Voigt Hill
#
# Bulk Modulus (GPa) = 43.31249 47.67143 45.49196
# Shear Modulus (GPa) = 15.88178 17.71626 16.79902
#
# Velocity S-wave (km/s) = 3.19462 3.37408 3.28558
# Velocity P-wave (km/s) = 6.43739 6.76852 6.60503
#
# Compressibility (1/GPa) = 0.02308803
#
# Stress axis : x y z
#
# Youngs Moduli (GPa) = 68.54498 44.63870 66.26677
#
# Poissons Ratio (x) = 0.34562 0.30907
# Poissons Ratio (y) = 0.53072 0.13851
# Poissons Ratio (z) = 0.31969 0.09330
#
# Static dielectric constant tensor:
#      x y z
#    x 2.938430 0.000000 0.000000 
#    y 0.000000 2.896800 0.000000 
#    z 0.000000 0.000000 2.917860 
# 
# 
# High freq. dielectric constant tensor:
#      x y z
#    x 1.582420 0.000000 0.000000 
#    y 0.000000 1.582070 0.000000 
#    z 0.000000 0.000000 1.566820 
# 
# From -- ./inp_files/25832.got.cif
#   From: 2010.03.12/outbox.cif.g09.slc.cpg/sg47_13_cif.got.tgz:25832.got - 2010.04.14 03:12:58.
