data_PCOD8194208
_publ_section_title
;
Structure prediction by ZEFSAII (Michael W. Deem and Ramdas Pophale) SiO2 
 PCOD8194208
Probable space group: P M M M
;
_chemical_formula_sum "Si O2"
_cell_formula_units_Z 64
_cell_length_a 20.024319
_cell_length_b 8.988064
_cell_length_c 19.913939
_cell_angle_alpha 90.000000
_cell_angle_beta 90.000000
_cell_angle_gamma 90.000000
_cell_volume 3584.107968
_symmetry_space_group_name_H-M "P M M M"
_symmetry_group_IT_number 47
_symmetry_cell_setting 'orthorhombic'
loop_
_space_group_symop_operation_xyz
x,y,z
-x,-y,z
x,-y,-z
-x,y,-z
-x,-y,-z
x,y,-z
-x,y,z
x,-y,z
loop_
_atom_site_type_symbol
_atom_site_label
_atom_site_fract_x
_atom_site_fract_y
_atom_site_fract_z
Si Si1 0.121772 0.331058 0.249364
Si Si2 0.793314 0.173512 0.426942
Si Si3 0.213001 0.829751 0.075028
Si Si4 0.253972 0.175380 0.714272
Si Si5 0.926359 0.330572 0.604864
Si Si6 0.316022 0.324671 0.832481
Si Si7 0.927440 0.831223 0.873383
Si Si8 0.577446 0.828053 0.076437
O O1 0.148074 0.500000 0.239679
O O2 0.184151 0.218847 0.251695
O O3 0.077022 0.317412 0.315137
O O4 0.075402 0.282351 0.188323
O O5 0.759551 0.208480 0.500000
O O6 0.748399 0.232792 0.364139
O O7 0.867770 0.238095 0.429317
O O8 0.802244 0.000000 0.415644
O O9 0.250178 0.721484 0.126231
O O10 0.133448 0.798946 0.075863
O O11 0.229385 0.000000 0.095105
O O12 0.238837 0.796988 0.000000
O O13 0.312524 0.255888 0.756920
O O14 0.265838 0.000000 0.718705
O O15 0.916847 0.500000 0.581629
O O16 0.000000 0.273080 0.582391
O O17 0.319663 0.500000 0.825977
O O18 0.381576 0.268467 0.870647
O O19 0.000000 0.807526 0.908932
O O20 0.921829 0.000000 0.846285
O O21 0.500000 0.802692 0.092328
O O22 0.597154 0.000000 0.085349
O O23 0.593466 0.777995 0.000000
#
# Coordination Sequence:
#
# PCOD8194208 Si02
#       8
#     8   8   8   8   8   8   8   8
#     4  10  18  30  47  67  90 118 154 203 260 311
#     4   9  19  34  50  69  93 122 159 208 262 309
#     4  10  21  36  52  69  94 130 170 213 261 313
#     4  10  19  33  53  73  97 129 166 209 254 305
#     4   9  18  30  43  62  89 121 156 193 243 314
#     4  12  23  34  53  81 110 140 174 215 255 296
#     4  10  20  32  47  66  88 119 161 209 263 320
#     4   9  19  37  60  85 115 152 188 216 247 294
#
# _framework density 17.856604000000001
#
# number of rings (size 3 to 8) (size 9 to 14) (size 15 to 20)
#    0.000    2.125    1.250    3.000    0.000    5.000 
#    0.000    3.125    0.000    0.000    0.000    1.750 
#    0.000    0.500    0.000    5.750    0.000    1.625 
#
# Total GULP energy -793243.088213 kJ/mol
# GULP energy per Si atom -12394.423253 kJ/mol
# Density = 1.781596 g / cm^3
# Si number density = 17.856604 Si / 1000 Ang^3
#
#
#
# Elastic Constant Matrix: (Units=GPa)
#
#
# Indices 1 2 3 4 5 6 
#
# 1 74.0335 30.2258 41.1711 0.0000 0.0000 0.0000
# 2 30.2258 75.2739 46.3383 0.0000 0.0000 0.0000
# 3 41.1711 46.3383 111.2993 0.0000 0.0000 0.0000
# 4 0.0000 0.0000 0.0000 14.2916 0.0000 0.0000
# 5 0.0000 0.0000 0.0000 0.0000 17.9178 0.0000
# 6 0.0000 0.0000 0.0000 0.0000 0.0000 15.1360
#
#
#
# Elastic Compliance Matrix: (Units=1/GPa)
#
#
# Indices 1 2 3 4 5 6 
#
# 1 0.017939 -0.004193 -0.004890 0.000000 0.000000 0.000000
# 2 -0.004193 0.018843 -0.006294 0.000000 0.000000 0.000000
# 3 -0.004890 -0.006294 0.013414 0.000000 0.000000 0.000000
# 4 0.000000 0.000000 0.000000 0.069971 0.000000 0.000000
# 5 0.000000 0.000000 0.000000 0.000000 0.055810 0.000000
# 6 0.000000 0.000000 0.000000 0.000000 0.000000 0.066068
#
#
# Mechanical properties :
#
#
# Convention : Reuss Voigt Hill
#
# Bulk Modulus (GPa) = 51.43563 55.11969 53.27766
# Shear Modulus (GPa) = 17.90319 18.99385 18.44852
#
# Velocity S-wave (km/s) = 3.16983 3.26496 3.21775
# Velocity P-wave (km/s) = 6.50111 6.71925 6.61108
#
# Compressibility (1/GPa) = 0.01944178
#
# Stress axis : x y z
#
# Youngs Moduli (GPa) = 55.74545 53.06989 74.54795
#
# Poissons Ratio (x) = 0.22251 0.36455
# Poissons Ratio (y) = 0.23373 0.46921
# Poissons Ratio (z) = 0.27260 0.33403
#
# Static dielectric constant tensor:
#      x y z
#    x 3.074570 0.000000 0.000000 
#    y 0.000000 3.238250 0.000000 
#    z 0.000000 0.000000 3.522790 
# 
# 
# High freq. dielectric constant tensor:
#      x y z
#    x 1.654110 0.000000 0.000000 
#    y 0.000000 1.686440 0.000000 
#    z 0.000000 0.000000 1.690970 
# 
# From -- ./inp_files/30181.got.cif
#   From: 2010.03.12/outbox.cif.g09.slc.cpg/sg47_16_cif.got.tgz:30181.got - 2010.04.14 03:12:58.
