data_PCOD8194413
_publ_section_title
;
Structure prediction by ZEFSAII (Michael W. Deem and Ramdas Pophale) SiO2 
 PCOD8194413
Probable space group: P M M M
;
_chemical_formula_sum "Si O2"
_cell_formula_units_Z 52
_cell_length_a 27.651201
_cell_length_b 9.193726
_cell_length_c 11.830588
_cell_angle_alpha 90.000000
_cell_angle_beta 90.000000
_cell_angle_gamma 90.000000
_cell_volume 3007.543281
_symmetry_space_group_name_H-M "P M M M"
_symmetry_group_IT_number 47
_symmetry_cell_setting 'orthorhombic'
loop_
_space_group_symop_operation_xyz
x,y,z
-x,-y,z
x,-y,-z
-x,y,-z
-x,-y,-z
x,y,-z
-x,y,z
x,-y,z
loop_
_atom_site_type_symbol
_atom_site_label
_atom_site_fract_x
_atom_site_fract_y
_atom_site_fract_z
Si Si1 0.000000 0.336047 0.634418
Si Si2 0.196686 0.831500 0.294926
Si Si3 0.240464 0.337759 0.500000
Si Si4 0.367003 0.172750 0.270662
Si Si5 0.723747 0.170847 0.125286
Si Si6 0.645535 0.665018 0.500000
Si Si7 0.555525 0.664793 0.867937
Si Si8 0.093253 0.168013 0.630451
O O1 0.048254 0.258263 0.679954
O O2 0.000000 0.500000 0.679278
O O3 0.000000 0.326465 0.500000
O O4 0.222896 0.741290 0.389516
O O5 0.223087 0.793611 0.176742
O O6 0.139654 0.793379 0.291972
O O7 0.203422 0.000000 0.326629
O O8 0.219211 0.500000 0.500000
O O9 0.297397 0.337104 0.500000
O O10 0.318620 0.230668 0.206736
O O11 0.373150 0.250382 0.390476
O O12 0.413029 0.216161 0.196629
O O13 0.365462 0.000000 0.288645
O O14 0.716517 0.000000 0.113846
O O15 0.720627 0.242298 0.000000
O O16 0.625035 0.500000 0.500000
O O17 0.500000 0.689406 0.833606
O O18 0.571361 0.500000 0.836413
O O19 0.562903 0.691669 0.000000
O O20 0.105204 0.208919 0.500000
O O21 0.079007 0.000000 0.639531
#
# Coordination Sequence:
#
# PCOD8194413 Si02
#       8
#     4   8   4   8   8   4   8   8
#     4   9  17  27  39  59  90 123 154 196 249 294
#     4  10  18  31  50  70  98 134 169 200 242 299
#     4  11  21  31  47  71 101 131 169 211 244 287
#     4  11  21  34  56  81 108 137 172 218 261 302
#     4   9  18  31  49  75 104 132 163 202 249 297
#     4  11  23  37  52  74 106 142 179 210 251 313
#     4   9  19  37  59  81 108 143 178 212 256 309
#     4   9  16  26  42  63  89 124 163 198 236 290
#
# _framework density 17.289859
#
# number of rings (size 3 to 8) (size 9 to 14) (size 15 to 20)
#    0.000    2.231    2.308    2.077    0.000    3.385 
#    0.000    1.154    0.000    3.692    0.000    0.538 
#    0.000    4.308    0.000    0.000    0.000    0.000 
#
# Total GULP energy -644712.991639 kJ/mol
# GULP energy per Si atom -12398.326762 kJ/mol
# Density = 1.725051 g / cm^3
# Si number density = 17.289859 Si / 1000 Ang^3
#
#
#
# Elastic Constant Matrix: (Units=GPa)
#
#
# Indices 1 2 3 4 5 6 
#
# 1 110.0057 43.9165 46.3077 0.0000 0.0000 0.0000
# 2 43.9165 72.0233 36.6931 0.0000 0.0000 0.0000
# 3 46.3077 36.6931 87.8146 0.0000 0.0000 0.0000
# 4 0.0000 0.0000 0.0000 17.7842 0.0000 0.0000
# 5 0.0000 0.0000 0.0000 0.0000 33.4725 0.0000
# 6 0.0000 0.0000 0.0000 0.0000 0.0000 24.4456
#
#
#
# Elastic Compliance Matrix: (Units=1/GPa)
#
#
# Indices 1 2 3 4 5 6 
#
# 1 0.013344 -0.005783 -0.004621 0.000000 0.000000 0.000000
# 2 -0.005783 0.020145 -0.005368 0.000000 0.000000 0.000000
# 3 -0.004621 -0.005368 0.016067 0.000000 0.000000 0.000000
# 4 0.000000 0.000000 0.000000 0.056230 0.000000 0.000000
# 5 0.000000 0.000000 0.000000 0.000000 0.029875 0.000000
# 6 0.000000 0.000000 0.000000 0.000000 0.000000 0.040907
#
#
# Mechanical properties :
#
#
# Convention : Reuss Voigt Hill
#
# Bulk Modulus (GPa) = 55.51296 58.18646 56.84971
# Shear Modulus (GPa) = 23.35181 24.66888 24.01034
#
# Velocity S-wave (km/s) = 3.67905 3.78138 3.73056
# Velocity P-wave (km/s) = 7.08690 7.26579 7.17690
#
# Compressibility (1/GPa) = 0.01801381
#
# Stress axis : x y z
#
# Youngs Moduli (GPa) = 74.93995 49.63932 62.23814
#
# Poissons Ratio (x) = 0.28704 0.28757
# Poissons Ratio (y) = 0.43335 0.33411
# Poissons Ratio (z) = 0.34626 0.26648
#
# Static dielectric constant tensor:
#      x y z
#    x 3.311560 0.000000 0.000000 
#    y 0.000000 3.197110 0.000000 
#    z 0.000000 0.000000 2.851490 
# 
# 
# High freq. dielectric constant tensor:
#      x y z
#    x 1.671120 0.000000 0.000000 
#    y 0.000000 1.658640 0.000000 
#    z 0.000000 0.000000 1.640800 
# 
# From -- ./inp_files/4594.got.cif
#   From: 2010.03.12/outbox.cif.g09.slc.cpg/sg47_3_cif.got.tgz:4594.got - 2010.04.14 03:12:58.
