data_PCOD8194975
_publ_section_title
;
Structure prediction by ZEFSAII (Michael W. Deem and Ramdas Pophale) SiO2 
 PCOD8194975
Probable space group: P M M M
;
_chemical_formula_sum "Si O2"
_cell_formula_units_Z 48
_cell_length_a 8.347552
_cell_length_b 21.766086
_cell_length_c 19.822391
_cell_angle_alpha 90.000000
_cell_angle_beta 90.000000
_cell_angle_gamma 90.000000
_cell_volume 3601.600287
_symmetry_space_group_name_H-M "P M M M"
_symmetry_group_IT_number 47
_symmetry_cell_setting 'orthorhombic'
loop_
_space_group_symop_operation_xyz
x,y,z
-x,-y,z
x,-y,-z
-x,y,-z
-x,-y,-z
x,y,-z
-x,y,z
x,-y,z
loop_
_atom_site_type_symbol
_atom_site_label
_atom_site_fract_x
_atom_site_fract_y
_atom_site_fract_z
Si Si1 0.179325 0.862238 0.579964
Si Si2 0.682124 0.611876 0.345259
Si Si3 0.184433 0.500000 0.573592
Si Si4 0.317982 0.572830 0.926934
Si Si5 0.815053 0.429559 0.788690
Si Si6 0.500000 0.929737 0.580162
Si Si7 0.815462 0.277971 0.576427
O O1 0.175611 0.868281 0.500000
O O2 0.333197 0.900038 0.608818
O O3 0.207201 0.791790 0.601076
O O4 0.000000 0.883910 0.606303
O O5 0.500000 0.594599 0.356243
O O6 0.780752 0.560859 0.384602
O O7 0.721989 0.611199 0.265828
O O8 0.715404 0.679487 0.373584
O O9 0.272574 0.500000 0.500000
O O10 0.000000 0.500000 0.558757
O O11 0.500000 0.594178 0.916442
O O12 0.305681 0.500000 0.928464
O O13 0.215721 0.597937 0.863720
O O14 0.254600 0.597844 0.000000
O O15 0.753839 0.500000 0.784290
O O16 0.000000 0.425398 0.771427
O O17 0.500000 0.922924 0.500000
O O18 0.500000 0.000000 0.603637
O O19 0.751081 0.285891 0.500000
O O20 0.000000 0.297595 0.579667
#
# Coordination Sequence:
#
# PCOD8194975 Si02
#       7
#     8   8   4   8   8   4   8
#     4   8  15  27  41  56  76 100 124 152 186 225
#     4  12  23  31  43  59  73  92 120 157 199 240
#     4  11  23  37  47  53  68  91 116 153 199 247
#     4   8  14  25  41  59  77  94 112 137 172 217
#     4  10  19  30  43  55  73  97 118 146 185 230
#     4   9  16  24  38  60  82 101 121 147 182 226
#     4   9  18  32  46  57  71  95 126 159 195 235
#
# _framework density 13.327408999999999
#
# number of rings (size 3 to 8) (size 9 to 14) (size 15 to 20)
#    0.000    2.500    0.833    4.250    1.167    4.333 
#    0.000    3.333    0.000    0.000    0.000    0.000 
#    0.000    0.000    0.000    0.000    0.000    0.000 
#
# Total GULP energy -594819.805944 kJ/mol
# GULP energy per Si atom -12392.079290 kJ/mol
# Density = 1.329707 g / cm^3
# Si number density = 13.327409 Si / 1000 Ang^3
#
#
#
# Elastic Constant Matrix: (Units=GPa)
#
#
# Indices 1 2 3 4 5 6 
#
# 1 74.8484 33.0647 23.5510 0.0000 0.0000 0.0000
# 2 33.0647 55.0758 22.9007 0.0000 0.0000 0.0000
# 3 23.5510 22.9007 71.4337 0.0000 0.0000 0.0000
# 4 0.0000 0.0000 0.0000 1.2358 0.0000 0.0000
# 5 0.0000 0.0000 0.0000 0.0000 17.4227 0.0000
# 6 0.0000 0.0000 0.0000 0.0000 0.0000 18.2914
#
#
#
# Elastic Compliance Matrix: (Units=1/GPa)
#
#
# Indices 1 2 3 4 5 6 
#
# 1 0.018710 -0.010001 -0.002962 0.000000 0.000000 0.000000
# 2 -0.010001 0.026295 -0.005133 0.000000 0.000000 0.000000
# 3 -0.002962 -0.005133 0.016621 0.000000 0.000000 0.000000
# 4 0.000000 0.000000 0.000000 0.809172 0.000000 0.000000
# 5 0.000000 0.000000 0.000000 0.000000 0.057396 0.000000
# 6 0.000000 0.000000 0.000000 0.000000 0.000000 0.054670
#
#
# Mechanical properties :
#
#
# Convention : Reuss Voigt Hill
#
# Bulk Modulus (GPa) = 39.31669 40.04341 39.68005
# Shear Modulus (GPa) = 4.86601 15.51275 10.18938
#
# Velocity S-wave (km/s) = 1.91287 3.41541 2.76804
# Velocity P-wave (km/s) = 5.86885 6.75755 6.32882
#
# Compressibility (1/GPa) = 0.02543449
#
# Stress axis : x y z
#
# Youngs Moduli (GPa) = 53.44600 38.02996 60.16439
#
# Poissons Ratio (x) = 0.38034 0.17824
# Poissons Ratio (y) = 0.53451 0.30880
# Poissons Ratio (z) = 0.15833 0.19519
#
# Static dielectric constant tensor:
#      x y z
#    x 2.862230 0.000000 0.000000 
#    y 0.000000 2.432750 0.000000 
#    z 0.000000 0.000000 2.791660 
# 
# 
# High freq. dielectric constant tensor:
#      x y z
#    x 1.522140 0.000000 0.000000 
#    y 0.000000 1.462880 0.000000 
#    z 0.000000 0.000000 1.477160 
# 
# From -- ./inp_files/30042.got.cif
#   From: 2010.03.12/outbox.cif.g09.slc.cpg/sg47_16_cif.got.tgz:30042.got - 2010.04.14 03:12:58.
