data_PCOD8194716
_publ_section_title
;
Structure prediction by ZEFSAII (Michael W. Deem and Ramdas Pophale) SiO2 
 PCOD8194716
Probable space group: P M M M
;
_chemical_formula_sum "Si O2"
_cell_formula_units_Z 56
_cell_length_a 8.888348
_cell_length_b 29.343032
_cell_length_c 13.746884
_cell_angle_alpha 90.000000
_cell_angle_beta 90.000000
_cell_angle_gamma 90.000000
_cell_volume 3585.339660
_symmetry_space_group_name_H-M "P M M M"
_symmetry_group_IT_number 47
_symmetry_cell_setting 'orthorhombic'
loop_
_space_group_symop_operation_xyz
x,y,z
-x,-y,z
x,-y,-z
-x,y,-z
-x,-y,-z
x,y,-z
-x,y,z
x,-y,z
loop_
_atom_site_type_symbol
_atom_site_label
_atom_site_fract_x
_atom_site_fract_y
_atom_site_fract_z
Si Si1 0.821249 0.549856 0.109450
Si Si2 0.674920 0.273704 0.112062
Si Si3 0.820982 0.640624 0.205349
Si Si4 0.177908 0.777399 0.279978
Si Si5 0.831300 0.049880 0.615280
Si Si6 0.822263 0.310963 0.393670
Si Si7 0.675156 0.140111 0.386858
O O1 0.765379 0.500000 0.146983
O O2 0.759789 0.590311 0.178055
O O3 0.000000 0.550724 0.109398
O O4 0.761885 0.558015 0.000000
O O5 0.500000 0.277269 0.137773
O O6 0.750535 0.322390 0.133352
O O7 0.748680 0.233382 0.175565
O O8 0.701937 0.261074 0.000000
O O9 0.770371 0.650527 0.316643
O O10 0.000000 0.644404 0.194018
O O11 0.229943 0.738386 0.355640
O O12 0.232757 0.825264 0.320720
O O13 0.000000 0.778194 0.266547
O O14 0.831584 0.048233 0.500000
O O15 0.718588 0.089463 0.650329
O O16 0.000000 0.060558 0.652927
O O17 0.778554 0.000000 0.654800
O O18 0.749220 0.320256 0.500000
O O19 0.000000 0.311592 0.403128
O O20 0.719462 0.146872 0.500000
O O21 0.500000 0.147952 0.370007
#
# Coordination Sequence:
#
# PCOD8194716 Si02
#       7
#     8   8   8   8   8   8   8
#     4   8  13  21  35  57  82 104 130 170 214 250
#     4  10  20  32  45  62  86 111 132 164 214 264
#     4   9  16  26  43  63  80 105 141 173 200 243
#     4  10  19  30  45  62  81 110 147 181 209 246
#     4   8  14  25  40  57  79 111 151 189 221 255
#     4   8  14  24  38  57  79 103 133 169 206 239
#     4  10  19  28  40  61  90 121 149 180 219 260
#
# _framework density 15.619161999999999
#
# number of rings (size 3 to 8) (size 9 to 14) (size 15 to 20)
#    0.000    3.000    0.000    3.857    0.000    3.429 
#    0.000    1.429    0.000    4.714    0.000    5.000 
#    0.000    0.571    0.000   11.143    0.000    9.143 
#
# Total GULP energy -694022.581891 kJ/mol
# GULP energy per Si atom -12393.260391 kJ/mol
# Density = 1.558361 g / cm^3
# Si number density = 15.619162 Si / 1000 Ang^3
#
#
#
# Elastic Constant Matrix: (Units=GPa)
#
#
# Indices 1 2 3 4 5 6 
#
# 1 48.6794 30.6698 29.8700 0.0000 0.0000 0.0000
# 2 30.6698 126.7277 56.6024 0.0000 0.0000 0.0000
# 3 29.8700 56.6024 90.9435 0.0000 0.0000 0.0000
# 4 0.0000 0.0000 0.0000 19.7739 0.0000 0.0000
# 5 0.0000 0.0000 0.0000 0.0000 15.8471 0.0000
# 6 0.0000 0.0000 0.0000 0.0000 0.0000 10.8160
#
#
#
# Elastic Compliance Matrix: (Units=1/GPa)
#
#
# Indices 1 2 3 4 5 6 
#
# 1 0.026828 -0.003542 -0.006607 0.000000 0.000000 0.000000
# 2 -0.003542 0.011397 -0.005930 0.000000 0.000000 0.000000
# 3 -0.006607 -0.005930 0.016857 0.000000 0.000000 0.000000
# 4 0.000000 0.000000 0.000000 0.050572 0.000000 0.000000
# 5 0.000000 0.000000 0.000000 0.000000 0.063103 0.000000
# 6 0.000000 0.000000 0.000000 0.000000 0.000000 0.092456
#
#
# Mechanical properties :
#
#
# Convention : Reuss Voigt Hill
#
# Bulk Modulus (GPa) = 43.62283 55.62612 49.62448
# Shear Modulus (GPa) = 16.61066 19.23461 17.92264
#
# Velocity S-wave (km/s) = 3.26464 3.51305 3.39112
# Velocity P-wave (km/s) = 6.49617 7.22126 6.86829
#
# Compressibility (1/GPa) = 0.02292378
#
# Stress axis : x y z
#
# Youngs Moduli (GPa) = 37.27417 87.74526 59.32358
#
# Poissons Ratio (x) = 0.31076 0.39197
# Poissons Ratio (y) = 0.13201 0.35178
# Poissons Ratio (z) = 0.24628 0.52032
#
# Static dielectric constant tensor:
#      x y z
#    x 2.808120 0.000000 0.000000 
#    y 0.000000 3.264200 0.000000 
#    z 0.000000 0.000000 2.972760 
# 
# 
# High freq. dielectric constant tensor:
#      x y z
#    x 1.581870 0.000000 0.000000 
#    y 0.000000 1.599080 0.000000 
#    z 0.000000 0.000000 1.570210 
# 
# From -- ./inp_files/8148.got.cif
#   From: 2010.03.12/outbox.cif.g09.slc.cpg/sg47_5_cif.got.tgz:8148.got - 2010.04.14 03:12:58.
