data_PCOD8194400
_publ_section_title
;
Structure prediction by ZEFSAII (Michael W. Deem and Ramdas Pophale) SiO2 
 PCOD8194400
Probable space group: P M M M
;
_chemical_formula_sum "Si O2"
_cell_formula_units_Z 52
_cell_length_a 11.673091
_cell_length_b 9.089115
_cell_length_c 28.096635
_cell_angle_alpha 90.000000
_cell_angle_beta 90.000000
_cell_angle_gamma 90.000000
_cell_volume 2980.998649
_symmetry_space_group_name_H-M "P M M M"
_symmetry_group_IT_number 47
_symmetry_cell_setting 'orthorhombic'
loop_
_space_group_symop_operation_xyz
x,y,z
-x,-y,z
x,-y,-z
-x,y,-z
-x,-y,-z
x,y,-z
-x,y,z
x,-y,z
loop_
_atom_site_type_symbol
_atom_site_label
_atom_site_fract_x
_atom_site_fract_y
_atom_site_fract_z
Si Si1 0.000000 0.166023 0.708189
Si Si2 0.000000 0.169302 0.404141
Si Si3 0.635817 0.170145 0.500000
Si Si4 0.373902 0.327318 0.323767
Si Si5 0.136096 0.833496 0.051768
Si Si6 0.868699 0.671703 0.143432
Si Si7 0.235815 0.676429 0.584571
Si Si8 0.206749 0.671652 0.244508
O O1 0.111101 0.244136 0.727152
O O2 0.000000 0.176466 0.652075
O O3 0.000000 0.000000 0.726686
O O4 0.111052 0.253889 0.423773
O O5 0.000000 0.000000 0.422178
O O6 0.500000 0.177783 0.500000
O O7 0.679588 0.256938 0.545841
O O8 0.677727 0.000000 0.500000
O O9 0.500000 0.253594 0.328655
O O10 0.386719 0.500000 0.330242
O O11 0.286860 0.271304 0.364421
O O12 0.326109 0.290502 0.270810
O O13 0.186773 0.743143 0.096165
O O14 0.000000 0.823442 0.053481
O O15 0.178023 0.000000 0.057412
O O16 0.178026 0.772269 0.000000
O O17 0.864320 0.500000 0.134662
O O18 0.792279 0.719461 0.189005
O O19 0.000000 0.723330 0.152478
O O20 0.228082 0.500000 0.580043
O O21 0.176777 0.500000 0.248078
#
# Coordination Sequence:
#
# PCOD8194400 Si02
#       8
#     4   4   4   8   8   8   8   8
#     4  11  21  31  48  74 104 134 169 204 241 297
#     4  11  23  38  56  83 117 142 171 210 261 322
#     4  11  25  44  63  84 115 149 175 211 266 311
#     4   9  18  32  53  79 102 129 167 209 248 290
#     4   8  14  24  36  51  77 115 155 194 237 286
#     4   9  16  24  37  59  87 120 157 195 237 289
#     4  11  22  38  63  87 109 138 178 221 256 299
#     4  10  18  31  49  69 100 133 165 203 247 295
#
# _framework density 17.443816999999999
#
# number of rings (size 3 to 8) (size 9 to 14) (size 15 to 20)
#    0.000    2.231    2.308    2.077    0.000    3.077 
#    0.000    3.077    0.000    1.385    0.000    0.000 
#    0.000    0.615    0.000    7.692    0.000    1.538 
#
# Total GULP energy -644517.125655 kJ/mol
# GULP energy per Si atom -12394.560109 kJ/mol
# Density = 1.740411 g / cm^3
# Si number density = 17.443817 Si / 1000 Ang^3
#
#
#
# Elastic Constant Matrix: (Units=GPa)
#
#
# Indices 1 2 3 4 5 6 
#
# 1 85.0926 31.5325 37.1937 0.0000 0.0000 0.0000
# 2 31.5325 63.3761 41.6257 0.0000 0.0000 0.0000
# 3 37.1937 41.6257 130.8324 0.0000 0.0000 0.0000
# 4 0.0000 0.0000 0.0000 26.9066 0.0000 0.0000
# 5 0.0000 0.0000 0.0000 0.0000 19.8903 0.0000
# 6 0.0000 0.0000 0.0000 0.0000 0.0000 19.5807
#
#
#
# Elastic Compliance Matrix: (Units=1/GPa)
#
#
# Indices 1 2 3 4 5 6 
#
# 1 0.014975 -0.005884 -0.002385 0.000000 0.000000 0.000000
# 2 -0.005884 0.022259 -0.005409 0.000000 0.000000 0.000000
# 3 -0.002385 -0.005409 0.010042 0.000000 0.000000 0.000000
# 4 0.000000 0.000000 0.000000 0.037166 0.000000 0.000000
# 5 0.000000 0.000000 0.000000 0.000000 0.050276 0.000000
# 6 0.000000 0.000000 0.000000 0.000000 0.000000 0.051071
#
#
# Mechanical properties :
#
#
# Convention : Reuss Voigt Hill
#
# Bulk Modulus (GPa) = 50.20165 55.55609 52.87887
# Shear Modulus (GPa) = 22.74947 24.53880 23.64413
#
# Velocity S-wave (km/s) = 3.61523 3.75471 3.68563
# Velocity P-wave (km/s) = 6.80206 7.12144 6.96358
#
# Compressibility (1/GPa) = 0.01991966
#
# Stress axis : x y z
#
# Youngs Moduli (GPa) = 66.77846 44.92504 99.57784
#
# Poissons Ratio (x) = 0.26435 0.23750
# Poissons Ratio (y) = 0.39294 0.53864
# Poissons Ratio (z) = 0.15927 0.24301
#
# Static dielectric constant tensor:
#      x y z
#    x 3.025020 0.000000 0.000000 
#    y 0.000000 3.231350 0.000000 
#    z 0.000000 0.000000 3.647620 
# 
# 
# High freq. dielectric constant tensor:
#      x y z
#    x 1.637130 0.000000 0.000000 
#    y 0.000000 1.663050 0.000000 
#    z 0.000000 0.000000 1.686150 
# 
# From -- ./inp_files/33607.got.cif
#   From: 2010.03.12/outbox.cif.g09.slc.cpg/sg47_17_cif.got.tgz:33607.got - 2010.04.14 03:12:58.
