data_PCOD8194881
_publ_section_title
;
Structure prediction by ZEFSAII (Michael W. Deem and Ramdas Pophale) SiO2 
 PCOD8194881
Probable space group: P M M M
;
_chemical_formula_sum "Si O2"
_cell_formula_units_Z 56
_cell_length_a 9.265675
_cell_length_b 29.534182
_cell_length_c 13.682408
_cell_angle_alpha 90.000000
_cell_angle_beta 90.000000
_cell_angle_gamma 90.000000
_cell_volume 3744.247482
_symmetry_space_group_name_H-M "P M M M"
_symmetry_group_IT_number 47
_symmetry_cell_setting 'orthorhombic'
loop_
_space_group_symop_operation_xyz
x,y,z
-x,-y,z
x,-y,-z
-x,y,-z
-x,-y,-z
x,y,-z
-x,y,z
x,-y,z
loop_
_atom_site_type_symbol
_atom_site_label
_atom_site_fract_x
_atom_site_fract_y
_atom_site_fract_z
Si Si1 0.330485 0.134113 0.893127
Si Si2 0.332233 0.948614 0.765604
Si Si3 0.338686 0.549371 0.383907
Si Si4 0.671945 0.814037 0.295792
Si Si5 0.833972 0.104518 0.612783
Si Si6 0.829996 0.267124 0.386867
Si Si7 0.158806 0.631954 0.384186
O O1 0.500000 0.135516 0.905917
O O2 0.284632 0.084529 0.853618
O O3 0.284092 0.172564 0.815355
O O4 0.257912 0.142398 0.000000
O O5 0.500000 0.940603 0.738510
O O6 0.236313 0.937199 0.671158
O O7 0.303297 0.000000 0.798719
O O8 0.340096 0.553885 0.500000
O O9 0.500000 0.552582 0.342611
O O10 0.272320 0.500000 0.354853
O O11 0.252026 0.591366 0.337097
O O12 0.500000 0.814479 0.311124
O O13 0.744394 0.849671 0.369199
O O14 0.735892 0.764814 0.317534
O O15 0.824271 0.091507 0.500000
O O16 0.000000 0.111916 0.645094
O O17 0.795525 0.256511 0.500000
O O18 0.780129 0.318171 0.359417
O O19 0.000000 0.260532 0.367252
O O20 0.151111 0.626715 0.500000
O O21 0.000000 0.626993 0.339008
#
# Coordination Sequence:
#
# PCOD8194881 Si02
#       7
#     8   8   8   8   8   8   8
#     4   8  15  29  47  65  84 103 124 154 191 231
#     4   9  18  31  47  68  88 104 127 159 191 222
#     4   8  13  20  29  42  62  89 122 162 205 239
#     4  10  19  29  44  65  82  99 129 164 196 231
#     4  10  20  32  45  60  81 111 139 159 185 224
#     4   9  17  28  40  55  79 109 135 161 198 239
#     4   8  14  23  33  46  65  92 128 164 194 228
#
# _framework density 14.956277
#
# number of rings (size 3 to 8) (size 9 to 14) (size 15 to 20)
#    0.000    3.143    0.000    3.429    0.000    4.857 
#    0.000    5.714    0.000   10.714    0.000    4.000 
#    0.000    0.000    0.000    0.000    0.000    0.714 
#
# Total GULP energy -693957.140160 kJ/mol
# GULP energy per Si atom -12392.091789 kJ/mol
# Density = 1.492224 g / cm^3
# Si number density = 14.956277 Si / 1000 Ang^3
#
#
#
# Elastic Constant Matrix: (Units=GPa)
#
#
# Indices 1 2 3 4 5 6 
#
# 1 62.7983 50.2616 29.6161 0.0000 0.0000 0.0000
# 2 50.2616 133.3587 41.5747 0.0000 0.0000 0.0000
# 3 29.6161 41.5747 69.7549 0.0000 0.0000 0.0000
# 4 0.0000 0.0000 0.0000 4.9350 0.0000 0.0000
# 5 0.0000 0.0000 0.0000 0.0000 7.6067 0.0000
# 6 0.0000 0.0000 0.0000 0.0000 0.0000 27.9027
#
#
#
# Elastic Compliance Matrix: (Units=1/GPa)
#
#
# Indices 1 2 3 4 5 6 
#
# 1 0.024734 -0.007428 -0.006074 0.000000 0.000000 0.000000
# 2 -0.007428 0.011441 -0.003665 0.000000 0.000000 0.000000
# 3 -0.006074 -0.003665 0.019099 0.000000 0.000000 0.000000
# 4 0.000000 0.000000 0.000000 0.202635 0.000000 0.000000
# 5 0.000000 0.000000 0.000000 0.000000 0.131463 0.000000
# 6 0.000000 0.000000 0.000000 0.000000 0.000000 0.035839
#
#
# Mechanical properties :
#
#
# Convention : Reuss Voigt Hill
#
# Bulk Modulus (GPa) = 47.75729 56.53520 52.14624
# Shear Modulus (GPa) = 10.71754 17.71951 14.21853
#
# Velocity S-wave (km/s) = 2.67983 3.44576 3.08664
# Velocity P-wave (km/s) = 6.44794 7.32894 6.90251
#
# Compressibility (1/GPa) = 0.02093921
#
# Stress axis : x y z
#
# Youngs Moduli (GPa) = 40.43018 87.40625 52.35845
#
# Poissons Ratio (x) = 0.64929 0.31802
# Poissons Ratio (y) = 0.30033 0.19189
# Poissons Ratio (z) = 0.24557 0.32034
#
# Static dielectric constant tensor:
#      x y z
#    x 2.947040 0.000000 0.000000 
#    y 0.000000 3.058640 0.000000 
#    z 0.000000 0.000000 2.724750 
# 
# 
# High freq. dielectric constant tensor:
#      x y z
#    x 1.567100 0.000000 0.000000 
#    y 0.000000 1.577400 0.000000 
#    z 0.000000 0.000000 1.519670 
# 
# From -- ./inp_files/22099.got.cif
#   From: 2010.03.12/outbox.cif.g09.slc.cpg/sg47_12_cif.got.tgz:22099.got - 2010.04.14 03:12:58.
