data_PCOD8194109
_publ_section_title
;
Structure prediction by ZEFSAII (Michael W. Deem and Ramdas Pophale) SiO2 
 PCOD8194109
Probable space group: P M M M
;
_chemical_formula_sum "Si O2"
_cell_formula_units_Z 64
_cell_length_a 31.665303
_cell_length_b 14.232652
_cell_length_c 8.899674
_cell_angle_alpha 90.000000
_cell_angle_beta 90.000000
_cell_angle_gamma 90.000000
_cell_volume 4010.916097
_symmetry_space_group_name_H-M "P M M M"
_symmetry_group_IT_number 47
_symmetry_cell_setting 'orthorhombic'
loop_
_space_group_symop_operation_xyz
x,y,z
-x,-y,z
x,-y,-z
-x,y,-z
-x,-y,-z
x,y,-z
-x,y,z
x,-y,z
loop_
_atom_site_type_symbol
_atom_site_label
_atom_site_fract_x
_atom_site_fract_y
_atom_site_fract_z
Si Si1 0.337289 0.393499 0.673995
Si Si2 0.215590 0.217667 0.322017
Si Si3 0.375385 0.224184 0.823311
Si Si4 0.708109 0.109045 0.825336
Si Si5 0.546778 0.895096 0.821725
Si Si6 0.044705 0.111675 0.331473
Si Si7 0.135024 0.105632 0.679766
Si Si8 0.248215 0.393812 0.175991
O O1 0.327888 0.373785 0.500000
O O2 0.353128 0.500000 0.699548
O O3 0.372617 0.323211 0.736711
O O4 0.294972 0.373096 0.765882
O O5 0.216032 0.222733 0.500000
O O6 0.255157 0.156434 0.270130
O O7 0.172500 0.171292 0.260381
O O8 0.216193 0.322843 0.256112
O O9 0.336061 0.157466 0.783735
O O10 0.417627 0.174953 0.759183
O O11 0.378266 0.244096 0.000000
O O12 0.704702 0.000000 0.781636
O O13 0.718766 0.122583 0.000000
O O14 0.500000 0.859723 0.773484
O O15 0.554607 0.000000 0.757722
O O16 0.550432 0.899192 0.000000
O O17 0.042691 0.151785 0.500000
O O18 0.089352 0.144505 0.256925
O O19 0.000000 0.142551 0.249966
O O20 0.047024 0.000000 0.337012
O O21 0.133269 0.105415 0.500000
O O22 0.143841 0.000000 0.738363
O O23 0.234160 0.500000 0.214772
O O24 0.248118 0.374358 0.000000
#
# Coordination Sequence:
#
# PCOD8194109 Si02
#       8
#     8   8   8   8   8   8   8   8
#     4  10  20  33  49  69  91 114 143 181 225 270
#     4  11  20  29  43  63  90 121 149 179 218 263
#     4  10  18  29  48  71  93 118 149 185 222 259
#     4  10  20  31  42  60  89 123 155 184 212 249
#     4   8  14  26  46  72  98 121 147 181 220 259
#     4   7   9  15  29  48  72 106 146 182 213 247
#     4   8  14  23  34  53  84 119 150 178 211 253
#     4  10  20  34  50  65  83 110 146 187 227 265
#
# _framework density 15.956455
#
# number of rings (size 3 to 8) (size 9 to 14) (size 15 to 20)
#    0.000    2.750    1.250    3.375    0.000    3.750 
#    0.000    0.000    0.000    1.875    0.000    3.500 
#    0.000    2.500    0.000   20.375    0.000   12.750 
#
# Total GULP energy -793077.632216 kJ/mol
# GULP energy per Si atom -12391.838003 kJ/mol
# Density = 1.592014 g / cm^3
# Si number density = 15.956455 Si / 1000 Ang^3
#
#
#
# Elastic Constant Matrix: (Units=GPa)
#
#
# Indices 1 2 3 4 5 6 
#
# 1 144.8415 69.1310 31.8884 0.0000 0.0000 0.0000
# 2 69.1310 106.1043 30.2760 0.0000 0.0000 0.0000
# 3 31.8884 30.2760 36.3595 0.0000 0.0000 0.0000
# 4 0.0000 0.0000 0.0000 21.5445 0.0000 0.0000
# 5 0.0000 0.0000 0.0000 0.0000 -8.1595 0.0000
# 6 0.0000 0.0000 0.0000 0.0000 0.0000 12.1753
#
#
#
# Elastic Compliance Matrix: (Units=1/GPa)
#
#
# Indices 1 2 3 4 5 6 
#
# 1 0.010586 -0.005572 -0.004645 0.000000 0.000000 0.000000
# 2 -0.005572 0.015295 -0.007849 0.000000 0.000000 0.000000
# 3 -0.004645 -0.007849 0.038112 0.000000 0.000000 0.000000
# 4 0.000000 0.000000 0.000000 0.046416 0.000000 0.000000
# 5 0.000000 0.000000 0.000000 0.000000 -0.122556 0.000000
# 6 0.000000 0.000000 0.000000 0.000000 0.000000 0.082133
#
#
# Mechanical properties :
#
#
# Convention : Reuss Voigt Hill
#
# Bulk Modulus (GPa) = 35.89105 61.09958 48.49532
# Shear Modulus (GPa) = 43.32622 15.51272 29.41947
#
# Velocity S-wave (km/s) = 5.21649 3.12138 4.29853
# Velocity P-wave (km/s) = 7.66970 7.16696 7.42258
#
# Compressibility (1/GPa) = 0.02786210
#
# Stress axis : x y z
#
# Youngs Moduli (GPa) = 94.46369 65.38248 26.23824
#
# Poissons Ratio (x) = 0.36431 0.12187
# Poissons Ratio (y) = 0.52634 0.20594
# Poissons Ratio (z) = 0.43875 0.51318
#
# Static dielectric constant tensor:
#      x y z
#    x 3.366580 0.000000 0.000000 
#    y 0.000000 3.066140 0.000000 
#    z 0.000000 0.000000 2.737240 
# 
# 
# High freq. dielectric constant tensor:
#      x y z
#    x 1.610220 0.000000 0.000000 
#    y 0.000000 1.596420 0.000000 
#    z 0.000000 0.000000 1.583000 
# 
# From -- ./inp_files/14319.got.cif
#   From: 2010.03.12/outbox.cif.g09.slc.cpg/sg47_8_cif.got.tgz:14319.got - 2010.04.14 03:12:58.
