data_PCOD8194351
_publ_section_title
;
Structure prediction by ZEFSAII (Michael W. Deem and Ramdas Pophale) SiO2 
 PCOD8194351
Probable space group: P M M M
;
_chemical_formula_sum "Si O2"
_cell_formula_units_Z 64
_cell_length_a 15.330146
_cell_length_b 8.859422
_cell_length_c 24.913682
_cell_angle_alpha 90.000000
_cell_angle_beta 90.000000
_cell_angle_gamma 90.000000
_cell_volume 3383.682433
_symmetry_space_group_name_H-M "P M M M"
_symmetry_group_IT_number 47
_symmetry_cell_setting 'orthorhombic'
loop_
_space_group_symop_operation_xyz
x,y,z
-x,-y,z
x,-y,-z
-x,y,-z
-x,-y,-z
x,y,-z
-x,y,z
x,-y,z
loop_
_atom_site_type_symbol
_atom_site_label
_atom_site_fract_x
_atom_site_fract_y
_atom_site_fract_z
Si Si1 0.094859 0.327727 0.610504
Si Si2 0.725271 0.323806 0.560719
Si Si3 0.597893 0.826554 0.645069
Si Si4 0.676674 0.677159 0.258061
Si Si5 0.283041 0.178887 0.148318
Si Si6 0.093175 0.173859 0.169409
Si Si7 0.149071 0.172692 0.713000
Si Si8 0.400537 0.674022 0.062286
O O1 0.107421 0.500000 0.629637
O O2 0.173143 0.282208 0.570713
O O3 0.092160 0.220465 0.662368
O O4 0.000000 0.307926 0.581810
O O5 0.702694 0.276683 0.500000
O O6 0.708169 0.500000 0.570212
O O7 0.664056 0.232811 0.600523
O O8 0.500000 0.806252 0.622778
O O9 0.603062 0.737356 0.701470
O O10 0.620318 0.000000 0.656508
O O11 0.666677 0.500000 0.250414
O O12 0.667343 0.752924 0.199593
O O13 0.767709 0.718350 0.285842
O O14 0.182829 0.243864 0.144854
O O15 0.334262 0.221884 0.094832
O O16 0.280363 0.000000 0.155675
O O17 0.092985 0.193600 0.233440
O O18 0.000000 0.246778 0.149094
O O19 0.091603 0.000000 0.152923
O O20 0.180772 0.000000 0.707521
O O21 0.500000 0.718273 0.076390
O O22 0.383826 0.500000 0.076886
O O23 0.382120 0.703736 0.000000
#
# Coordination Sequence:
#
# PCOD8194351 Si02
#       8
#     8   8   8   8   8   8   8   8
#     4  10  20  33  52  80 111 144 182 222 268 325
#     4  10  22  40  60  81 108 144 183 225 273 329
#     4  11  24  41  61  84 109 139 178 227 281 334
#     4  11  21  35  56  81 113 149 182 219 271 332
#     4  10  20  33  54  85 117 149 186 231 277 324
#     4   8  15  28  46  72 108 147 183 218 261 314
#     4  10  18  30  51  78 108 143 182 224 272 323
#     4   9  19  37  59  81 108 146 191 236 283 336
#
# _framework density 18.914304000000001
#
# number of rings (size 3 to 8) (size 9 to 14) (size 15 to 20)
#    0.000    2.125    1.250    3.750    0.000    3.500 
#    0.000    3.125    0.000    7.875    0.000    4.375 
#    0.000    0.000    0.000    0.000    0.000    0.000 
#
# Total GULP energy -793308.143606 kJ/mol
# GULP energy per Si atom -12395.439744 kJ/mol
# Density = 1.887125 g / cm^3
# Si number density = 18.914304 Si / 1000 Ang^3
#
#
#
# Elastic Constant Matrix: (Units=GPa)
#
#
# Indices 1 2 3 4 5 6 
#
# 1 120.0033 42.5633 54.5579 0.0000 0.0000 0.0000
# 2 42.5633 85.2272 40.7479 0.0000 0.0000 0.0000
# 3 54.5579 40.7479 84.0844 0.0000 0.0000 0.0000
# 4 0.0000 0.0000 0.0000 25.4231 0.0000 0.0000
# 5 0.0000 0.0000 0.0000 0.0000 12.6039 0.0000
# 6 0.0000 0.0000 0.0000 0.0000 0.0000 22.3184
#
#
#
# Elastic Compliance Matrix: (Units=1/GPa)
#
#
# Indices 1 2 3 4 5 6 
#
# 1 0.012402 -0.003054 -0.006567 0.000000 0.000000 0.000000
# 2 -0.003054 0.016024 -0.005784 0.000000 0.000000 0.000000
# 3 -0.006567 -0.005784 0.018957 0.000000 0.000000 0.000000
# 4 0.000000 0.000000 0.000000 0.039334 0.000000 0.000000
# 5 0.000000 0.000000 0.000000 0.000000 0.079341 0.000000
# 6 0.000000 0.000000 0.000000 0.000000 0.000000 0.044806
#
#
# Mechanical properties :
#
#
# Convention : Reuss Voigt Hill
#
# Bulk Modulus (GPa) = 60.33892 62.78369 61.56130
# Shear Modulus (GPa) = 20.22682 22.16547 21.19614
#
# Velocity S-wave (km/s) = 3.27370 3.42700 3.35123
# Velocity P-wave (km/s) = 6.80147 6.99464 6.89873
#
# Compressibility (1/GPa) = 0.01657305
#
# Stress axis : x y z
#
# Youngs Moduli (GPa) = 80.63308 62.40751 52.75212
#
# Poissons Ratio (x) = 0.19059 0.34642
# Poissons Ratio (y) = 0.24624 0.30510
# Poissons Ratio (z) = 0.52952 0.36095
#
# Static dielectric constant tensor:
#      x y z
#    x 3.658510 0.000000 0.000000 
#    y 0.000000 3.340970 0.000000 
#    z 0.000000 0.000000 3.263740 
# 
# 
# High freq. dielectric constant tensor:
#      x y z
#    x 1.744510 0.000000 0.000000 
#    y 0.000000 1.723740 0.000000 
#    z 0.000000 0.000000 1.711150 
# 
# From -- ./inp_files/25535.got.cif
#   From: 2010.03.12/outbox.cif.g09.slc.cpg/sg47_13_cif.got.tgz:25535.got - 2010.04.14 03:12:58.
