data_PCOD8194906
_publ_section_title
;
Structure prediction by ZEFSAII (Michael W. Deem and Ramdas Pophale) SiO2 
 PCOD8194906
Probable space group: P M M M
;
_chemical_formula_sum "Si O2"
_cell_formula_units_Z 64
_cell_length_a 14.335013
_cell_length_b 9.286038
_cell_length_c 28.587809
_cell_angle_alpha 90.000000
_cell_angle_beta 90.000000
_cell_angle_gamma 90.000000
_cell_volume 3805.479787
_symmetry_space_group_name_H-M "P M M M"
_symmetry_group_IT_number 47
_symmetry_cell_setting 'orthorhombic'
loop_
_space_group_symop_operation_xyz
x,y,z
-x,-y,z
x,-y,-z
-x,y,-z
-x,-y,-z
x,y,-z
-x,y,z
x,-y,z
loop_
_atom_site_type_symbol
_atom_site_label
_atom_site_fract_x
_atom_site_fract_y
_atom_site_fract_z
Si Si1 0.606286 0.831030 0.268285
Si Si2 0.107452 0.664065 0.683473
Si Si3 0.889260 0.838106 0.948744
Si Si4 0.609177 0.836606 0.374796
Si Si5 0.771681 0.669092 0.227667
Si Si6 0.730773 0.333874 0.447576
Si Si7 0.892953 0.831131 0.591112
Si Si8 0.106800 0.669943 0.140425
O O1 0.500000 0.787064 0.256933
O O2 0.630898 0.787493 0.321737
O O3 0.672403 0.747791 0.231993
O O4 0.620394 0.000000 0.261492
O O5 0.129072 0.500000 0.668085
O O6 0.166438 0.711248 0.727941
O O7 0.135172 0.771264 0.641954
O O8 0.000000 0.681204 0.697583
O O9 0.851940 0.735621 0.907592
O O10 0.000000 0.833617 0.949136
O O11 0.854033 0.000000 0.939026
O O12 0.852688 0.786203 0.000000
O O13 0.500000 0.827330 0.384606
O O14 0.659026 0.730735 0.410581
O O15 0.644468 0.000000 0.382954
O O16 0.753469 0.500000 0.224630
O O17 0.827193 0.724855 0.182223
O O18 0.689981 0.317399 0.500000
O O19 0.747986 0.500000 0.434974
O O20 0.829082 0.249513 0.446493
O O21 0.000000 0.795769 0.579084
O O22 0.872933 0.000000 0.590046
O O23 0.110775 0.500000 0.135756
O O24 0.000000 0.720191 0.149956
#
# Coordination Sequence:
#
# PCOD8194906 Si02
#       8
#     8   8   8   8   8   8   8   8
#     4   9  19  35  52  70  92 118 150 188 228 270
#     4   9  17  30  48  69  95 126 155 183 221 270
#     4   8  14  25  40  58  83 118 161 205 241 271
#     4   9  19  37  59  79  98 121 149 183 225 273
#     4  10  19  29  44  68  96 125 156 189 226 269
#     4  11  24  38  52  73  99 124 150 183 225 273
#     4  10  21  36  53  72  93 119 155 196 231 266
#     4   9  17  28  41  61  93 129 162 195 230 270
#
# _framework density 16.817854000000001
#
# number of rings (size 3 to 8) (size 9 to 14) (size 15 to 20)
#    0.000    2.625    0.000    3.000    0.000    8.000 
#    0.000    5.000    0.000    3.750    0.000    0.000 
#    0.000    0.500    0.000    5.500    0.000    4.250 
#
# Total GULP energy -793519.035661 kJ/mol
# GULP energy per Si atom -12398.734932 kJ/mol
# Density = 1.677958 g / cm^3
# Si number density = 16.817854 Si / 1000 Ang^3
#
#
#
# Elastic Constant Matrix: (Units=GPa)
#
#
# Indices 1 2 3 4 5 6 
#
# 1 69.5239 34.4412 52.8839 0.0000 0.0000 0.0000
# 2 34.4412 66.0230 47.7502 0.0000 0.0000 0.0000
# 3 52.8839 47.7502 103.4958 0.0000 0.0000 0.0000
# 4 0.0000 0.0000 0.0000 26.4302 0.0000 0.0000
# 5 0.0000 0.0000 0.0000 0.0000 17.2294 0.0000
# 6 0.0000 0.0000 0.0000 0.0000 0.0000 27.2183
#
#
#
# Elastic Compliance Matrix: (Units=1/GPa)
#
#
# Indices 1 2 3 4 5 6 
#
# 1 0.024870 -0.005677 -0.010089 0.000000 0.000000 0.000000
# 2 -0.005677 0.024027 -0.008185 0.000000 0.000000 0.000000
# 3 -0.010089 -0.008185 0.018593 0.000000 0.000000 0.000000
# 4 0.000000 0.000000 0.000000 0.037835 0.000000 0.000000
# 5 0.000000 0.000000 0.000000 0.000000 0.058040 0.000000
# 6 0.000000 0.000000 0.000000 0.000000 0.000000 0.036740
#
#
# Mechanical properties :
#
#
# Convention : Reuss Voigt Hill
#
# Bulk Modulus (GPa) = 51.04700 56.57703 53.81201
# Shear Modulus (GPa) = 19.64352 21.10674 20.37513
#
# Velocity S-wave (km/s) = 3.42133 3.54647 3.48446
# Velocity P-wave (km/s) = 6.78425 7.10521 6.94659
#
# Compressibility (1/GPa) = 0.01958979
#
# Stress axis : x y z
#
# Youngs Moduli (GPa) = 40.20929 41.61971 53.78224
#
# Poissons Ratio (x) = 0.23627 0.54259
# Poissons Ratio (y) = 0.22827 0.44019
# Poissons Ratio (z) = 0.40566 0.34064
#
# Static dielectric constant tensor:
#      x y z
#    x 3.048310 0.000000 0.000000 
#    y 0.000000 3.132480 0.000000 
#    z 0.000000 0.000000 3.249420 
# 
# 
# High freq. dielectric constant tensor:
#      x y z
#    x 1.628990 0.000000 0.000000 
#    y 0.000000 1.648590 0.000000 
#    z 0.000000 0.000000 1.637450 
# 
# From -- ./inp_files/34716.got.cif
#   From: 2010.03.12/outbox.cif.g09.slc.cpg/sg47_18_cif.got.tgz:34716.got - 2010.04.14 03:12:58.
