data_PCOD8194336
_publ_section_title
;
Structure prediction by ZEFSAII (Michael W. Deem and Ramdas Pophale) SiO2 
 PCOD8194336
Probable space group: P M M M
;
_chemical_formula_sum "Si O2"
_cell_formula_units_Z 40
_cell_length_a 19.459966
_cell_length_b 9.120808
_cell_length_c 12.727992
_cell_angle_alpha 90.000000
_cell_angle_beta 90.000000
_cell_angle_gamma 90.000000
_cell_volume 2259.099110
_symmetry_space_group_name_H-M "P M M M"
_symmetry_group_IT_number 47
_symmetry_cell_setting 'orthorhombic'
loop_
_space_group_symop_operation_xyz
x,y,z
-x,-y,z
x,-y,-z
-x,y,-z
-x,-y,-z
x,y,-z
-x,y,z
x,-y,z
loop_
_atom_site_type_symbol
_atom_site_label
_atom_site_fract_x
_atom_site_fract_y
_atom_site_fract_z
Si Si1 0.673729 0.335086 0.226916
Si Si2 0.165876 0.671196 0.208589
Si Si3 0.310243 0.333929 0.000000
Si Si4 0.828523 0.826709 0.000000
Si Si5 0.079570 0.832204 0.378854
Si Si6 0.423515 0.826783 0.382572
O O1 0.661712 0.500000 0.266801
O O2 0.754021 0.294611 0.228590
O O3 0.632701 0.228816 0.301972
O O4 0.645503 0.315834 0.106705
O O5 0.153089 0.500000 0.190857
O O6 0.124636 0.723626 0.309780
O O7 0.138379 0.757057 0.105382
O O8 0.251805 0.211377 0.000000
O O9 0.277034 0.500000 0.000000
O O10 0.840682 0.000000 0.000000
O O11 0.095596 0.797173 0.500000
O O12 0.000000 0.803770 0.354069
O O13 0.099007 0.000000 0.353098
O O14 0.405190 0.771657 0.500000
O O15 0.500000 0.770750 0.351832
O O16 0.421970 0.000000 0.379337
#
# Coordination Sequence:
#
# PCOD8194336 Si02
#       6
#     8   8   4   4   8   8
#     4   9  18  32  51  74  99 128 162 200 242 291
#     4  10  20  34  52  76 106 135 166 206 250 299
#     4   8  16  32  49  70 103 133 157 196 249 297
#     4  10  18  30  51  76 101 132 169 206 249 298
#     4   9  19  36  55  75 102 135 170 209 252 297
#     4   9  19  35  51  68  95 130 165 204 250 294
#
# _framework density 17.706171999999999
#
# number of rings (size 3 to 8) (size 9 to 14) (size 15 to 20)
#    0.000    2.800    0.000    3.900    0.000    6.400 
#    0.000    7.000    0.000    6.000    0.000    0.000 
#    0.000    0.000    0.000    0.000    0.000    0.000 
#
# Total GULP energy -495812.546851 kJ/mol
# GULP energy per Si atom -12395.313671 kJ/mol
# Density = 1.766587 g / cm^3
# Si number density = 17.706172 Si / 1000 Ang^3
#
#
#
# Elastic Constant Matrix: (Units=GPa)
#
#
# Indices 1 2 3 4 5 6 
#
# 1 58.5052 40.8717 59.7220 0.0000 0.0000 0.0000
# 2 40.8717 89.2003 61.4621 0.0000 0.0000 0.0000
# 3 59.7220 61.4621 132.5250 0.0000 0.0000 0.0000
# 4 0.0000 0.0000 0.0000 35.2424 0.0000 0.0000
# 5 0.0000 0.0000 0.0000 0.0000 -22.1125 0.0000
# 6 0.0000 0.0000 0.0000 0.0000 0.0000 24.5737
#
#
#
# Elastic Compliance Matrix: (Units=1/GPa)
#
#
# Indices 1 2 3 4 5 6 
#
# 1 0.034804 -0.007554 -0.012181 0.000000 0.000000 0.000000
# 2 -0.007554 0.018115 -0.004997 0.000000 0.000000 0.000000
# 3 -0.012181 -0.004997 0.015353 0.000000 0.000000 0.000000
# 4 0.000000 0.000000 0.000000 0.028375 0.000000 0.000000
# 5 0.000000 0.000000 0.000000 0.000000 -0.045223 0.000000
# 6 0.000000 0.000000 0.000000 0.000000 0.000000 0.040694
#
#
# Mechanical properties :
#
#
# Convention : Reuss Voigt Hill
#
# Bulk Modulus (GPa) = 53.17048 67.14913 60.15981
# Shear Modulus (GPa) = 33.81774 15.41903 24.61838
#
# Velocity S-wave (km/s) = 4.37503 2.95418 3.73283
# Velocity P-wave (km/s) = 7.45759 7.04576 7.25460
#
# Compressibility (1/GPa) = 0.01880743
#
# Stress axis : x y z
#
# Youngs Moduli (GPa) = 28.73220 55.20188 65.13545
#
# Poissons Ratio (x) = 0.41701 0.79341
# Poissons Ratio (y) = 0.21705 0.32549
# Poissons Ratio (z) = 0.34998 0.27585
#
# Static dielectric constant tensor:
#      x y z
#    x 3.004140 0.000000 0.000000 
#    y 0.000000 3.171390 0.000000 
#    z 0.000000 0.000000 3.523960 
# 
# 
# High freq. dielectric constant tensor:
#      x y z
#    x 1.652460 0.000000 0.000000 
#    y 0.000000 1.684270 0.000000 
#    z 0.000000 0.000000 1.700760 
# 
# From -- ./inp_files/10733.got.cif
#   From: 2010.03.12/outbox.cif.g09.slc.cpg/sg47_6_cif.got.tgz:10733.got - 2010.04.14 03:12:58.
