data_PCOD8194057
_publ_section_title
;
Structure prediction by ZEFSAII (Michael W. Deem and Ramdas Pophale) SiO2 
 PCOD8194057
Probable space group: P M M M
;
_chemical_formula_sum "Si O2"
_cell_formula_units_Z 60
_cell_length_a 20.983892
_cell_length_b 9.429474
_cell_length_c 18.619910
_cell_angle_alpha 90.000000
_cell_angle_beta 90.000000
_cell_angle_gamma 90.000000
_cell_volume 3684.266924
_symmetry_space_group_name_H-M "P M M M"
_symmetry_group_IT_number 47
_symmetry_cell_setting 'orthorhombic'
loop_
_space_group_symop_operation_xyz
x,y,z
-x,-y,z
x,-y,-z
-x,y,-z
-x,-y,-z
x,y,-z
-x,y,z
x,-y,z
loop_
_atom_site_type_symbol
_atom_site_label
_atom_site_fract_x
_atom_site_fract_y
_atom_site_fract_z
Si Si1 0.000000 0.168211 0.580866
Si Si2 0.571761 0.664261 0.796044
Si Si3 0.747023 0.163881 0.581359
Si Si4 0.686487 0.663768 0.300158
Si Si5 0.124764 0.834760 0.335388
Si Si6 0.186074 0.334006 0.213354
Si Si7 0.224229 0.164760 0.918304
Si Si8 0.628930 0.161728 0.081586
O O1 0.061820 0.220229 0.624279
O O2 0.000000 0.232438 0.500000
O O3 0.000000 0.000000 0.574986
O O4 0.500000 0.692679 0.768758
O O5 0.584327 0.500000 0.811660
O O6 0.620977 0.718086 0.735615
O O7 0.582945 0.743711 0.870490
O O8 0.743948 0.218323 0.500000
O O9 0.695153 0.249448 0.626855
O O10 0.817770 0.192536 0.609882
O O11 0.729011 0.000000 0.587289
O O12 0.683057 0.500000 0.321389
O O13 0.743848 0.693831 0.245187
O O14 0.133780 0.741502 0.263769
O O15 0.119971 0.000000 0.313559
O O16 0.170028 0.500000 0.207223
O O17 0.182685 0.262523 0.134763
O O18 0.297856 0.209063 0.910458
O O19 0.214926 0.000000 0.897916
O O20 0.201294 0.191992 0.000000
O O21 0.621485 0.000000 0.106382
O O22 0.606244 0.181006 0.000000
#
# Coordination Sequence:
#
# PCOD8194057 Si02
#       8
#     4   8   8   8   8   8   8   8
#     4   9  16  28  49  75 102 133 168 197 221 260
#     4  10  20  33  47  63  86 118 156 194 231 275
#     4   9  17  29  47  71  94 116 146 185 228 271
#     4   9  18  31  45  64  88 115 148 188 232 274
#     4   9  17  29  47  71  99 130 159 190 225 263
#     4  10  18  29  46  68  94 123 158 196 232 274
#     4   9  17  29  46  68  93 121 153 192 238 282
#     4   9  18  31  46  65  90 119 151 188 231 279
#
# _framework density 16.285464999999999
#
# number of rings (size 3 to 8) (size 9 to 14) (size 15 to 20)
#    0.000    2.733    1.333    1.600    0.000    4.000 
#    0.000    3.000    0.000    2.000    0.000    3.267 
#    0.000    3.733    0.000    0.000    0.000    0.000 
#
# Total GULP energy -744020.363407 kJ/mol
# GULP energy per Si atom -12400.339390 kJ/mol
# Density = 1.624840 g / cm^3
# Si number density = 16.285465 Si / 1000 Ang^3
#
#
#
# Elastic Constant Matrix: (Units=GPa)
#
#
# Indices 1 2 3 4 5 6 
#
# 1 86.0282 35.8451 54.5805 0.0000 0.0000 0.0000
# 2 35.8451 61.4602 57.5492 0.0000 0.0000 0.0000
# 3 54.5805 57.5492 121.4982 0.0000 0.0000 0.0000
# 4 0.0000 0.0000 0.0000 22.5390 0.0000 0.0000
# 5 0.0000 0.0000 0.0000 0.0000 25.2882 0.0000
# 6 0.0000 0.0000 0.0000 0.0000 0.0000 17.9206
#
#
#
# Elastic Compliance Matrix: (Units=1/GPa)
#
#
# Indices 1 2 3 4 5 6 
#
# 1 0.017068 -0.004987 -0.005305 0.000000 0.000000 0.000000
# 2 -0.004987 0.030696 -0.012299 0.000000 0.000000 0.000000
# 3 -0.005305 -0.012299 0.016440 0.000000 0.000000 0.000000
# 4 0.000000 0.000000 0.000000 0.044368 0.000000 0.000000
# 5 0.000000 0.000000 0.000000 0.000000 0.039544 0.000000
# 6 0.000000 0.000000 0.000000 0.000000 0.000000 0.055802
#
#
# Mechanical properties :
#
#
# Convention : Reuss Voigt Hill
#
# Bulk Modulus (GPa) = 52.57466 62.77067 57.67267
# Shear Modulus (GPa) = 19.57413 21.21701 20.39557
#
# Velocity S-wave (km/s) = 3.47066 3.61337 3.54274
# Velocity P-wave (km/s) = 6.95801 7.48574 7.22669
#
# Compressibility (1/GPa) = 0.01902057
#
# Stress axis : x y z
#
# Youngs Moduli (GPa) = 58.58975 32.57799 60.82873
#
# Poissons Ratio (x) = 0.16245 0.32272
# Poissons Ratio (y) = 0.29216 0.74815
# Poissons Ratio (z) = 0.31084 0.40068
#
# Static dielectric constant tensor:
#      x y z
#    x 2.917650 0.000000 0.000000 
#    y 0.000000 2.983770 0.000000 
#    z 0.000000 0.000000 3.092720 
# 
# 
# High freq. dielectric constant tensor:
#      x y z
#    x 1.598040 0.000000 0.000000 
#    y 0.000000 1.619810 0.000000 
#    z 0.000000 0.000000 1.625190 
# 
# From -- ./inp_files/11623.got.cif
#   From: 2010.03.12/outbox.cif.g09.slc.cpg/sg47_6_cif.got.tgz:11623.got - 2010.04.14 03:12:58.
