data_PCOD8194535
_publ_section_title
;
Structure prediction by ZEFSAII (Michael W. Deem and Ramdas Pophale) SiO2 
 PCOD8194535
Probable space group: P M M M
;
_chemical_formula_sum "Si O2"
_cell_formula_units_Z 52
_cell_length_a 12.037232
_cell_length_b 8.452248
_cell_length_c 25.741387
_cell_angle_alpha 90.000000
_cell_angle_beta 90.000000
_cell_angle_gamma 90.000000
_cell_volume 2618.971704
_symmetry_space_group_name_H-M "P M M M"
_symmetry_group_IT_number 47
_symmetry_cell_setting 'orthorhombic'
loop_
_space_group_symop_operation_xyz
x,y,z
-x,-y,z
x,-y,-z
-x,y,-z
-x,-y,-z
x,y,-z
-x,y,z
x,-y,z
loop_
_atom_site_type_symbol
_atom_site_label
_atom_site_fract_x
_atom_site_fract_y
_atom_site_fract_z
Si Si1 0.761492 0.311023 0.252608
Si Si2 0.238333 0.310412 0.057948
Si Si3 0.000000 0.684960 0.717945
Si Si4 0.624019 0.687709 0.649093
Si Si5 0.000000 0.181176 0.605264
Si Si6 0.000000 0.671386 0.061168
Si Si7 0.375390 0.311430 0.154499
Si Si8 0.216127 0.683514 0.441057
O O1 0.762252 0.500000 0.253389
O O2 0.692888 0.245742 0.301907
O O3 0.702665 0.246290 0.200583
O O4 0.887909 0.244040 0.255892
O O5 0.230412 0.500000 0.058034
O O6 0.328608 0.249456 0.099256
O O7 0.116335 0.240949 0.075177
O O8 0.271725 0.251195 0.000000
O O9 0.000000 0.500000 0.727620
O O10 0.000000 0.712570 0.656546
O O11 0.500000 0.760267 0.649828
O O12 0.617070 0.500000 0.652563
O O13 0.684320 0.741043 0.596148
O O14 0.106681 0.216467 0.570300
O O15 0.000000 0.000000 0.622683
O O16 0.000000 0.500000 0.089448
O O17 0.000000 0.644218 0.000000
O O18 0.500000 0.244991 0.161556
O O19 0.376873 0.500000 0.155568
O O20 0.254825 0.713423 0.500000
O O21 0.188068 0.500000 0.430980
#
# Coordination Sequence:
#
# PCOD8194535 Si02
#       8
#     8   8   4   8   4   4   8   8
#     4   9  16  26  42  62  85 111 144 191 243 285
#     4   8  13  20  29  41  63 101 144 184 226 272
#     4  10  18  32  53  73  94 121 156 198 244 293
#     4   9  16  27  46  70  94 120 152 195 242 282
#     4  12  23  35  53  76 102 129 161 201 244 290
#     4   7  10  17  27  36  47  72 120 174 214 253
#     4   9  16  23  31  49  77 105 140 189 237 280
#     4  10  20  34  53  76 102 132 164 198 237 283
#
# _framework density 19.855121
#
# number of rings (size 3 to 8) (size 9 to 14) (size 15 to 20)
#    0.000    2.846    1.538    2.308    0.000    4.308 
#    0.000    6.154    0.000    0.462    0.000    1.077 
#    0.000    0.000    0.000    0.000    0.000    1.538 
#
# Total GULP energy -644434.563988 kJ/mol
# GULP energy per Si atom -12392.972384 kJ/mol
# Density = 1.980993 g / cm^3
# Si number density = 19.855121 Si / 1000 Ang^3
#
#
#
# Elastic Constant Matrix: (Units=GPa)
#
#
# Indices 1 2 3 4 5 6 
#
# 1 199.3238 9.7479 98.5103 0.0000 0.0000 0.0000
# 2 9.7479 7.2240 2.7540 0.0000 0.0000 0.0000
# 3 98.5103 2.7540 160.6260 0.0000 0.0000 0.0000
# 4 0.0000 0.0000 0.0000 1.1655 0.0000 0.0000
# 5 0.0000 0.0000 0.0000 0.0000 36.3727 0.0000
# 6 0.0000 0.0000 0.0000 0.0000 0.0000 -1.1684
#
#
#
# Elastic Compliance Matrix: (Units=1/GPa)
#
#
# Indices 1 2 3 4 5 6 
#
# 1 0.007701 -0.008647 -0.004574 0.000000 0.000000 0.000000
# 2 -0.008647 0.149049 0.002748 0.000000 0.000000 0.000000
# 3 -0.004574 0.002748 0.008984 0.000000 0.000000 0.000000
# 4 0.000000 0.000000 0.000000 0.858030 0.000000 0.000000
# 5 0.000000 0.000000 0.000000 0.000000 0.027493 0.000000
# 6 0.000000 0.000000 0.000000 0.000000 0.000000 -0.855853
#
#
# Mechanical properties :
#
#
# Convention : Reuss Voigt Hill
#
# Bulk Modulus (GPa) = 6.90677 65.46648 36.18663
# Shear Modulus (GPa) = 18.89551 24.35138 21.62344
#
# Velocity S-wave (km/s) = 3.08826 3.50587 3.30367
# Velocity P-wave (km/s) = 4.02525 7.03078 5.72863
#
# Compressibility (1/GPa) = 0.14478546
#
# Stress axis : x y z
#
# Youngs Moduli (GPa) = 129.85904 6.70922 111.30888
#
# Poissons Ratio (x) = 0.05802 0.50918
# Poissons Ratio (y) = 1.12291 -0.30584
# Poissons Ratio (z) = 0.59404 -0.01843
#
# Static dielectric constant tensor:
#      x y z
#    x 4.075380 0.000000 0.000000 
#    y 0.000000 2.730380 0.000000 
#    z 0.000000 0.000000 3.676280 
# 
# 
# High freq. dielectric constant tensor:
#      x y z
#    x 1.789680 0.000000 0.000000 
#    y 0.000000 1.684300 0.000000 
#    z 0.000000 0.000000 1.775500 
# 
# From -- ./inp_files/33679.got.cif
#   From: 2010.03.12/outbox.cif.g09.slc.cpg/sg47_17_cif.got.tgz:33679.got - 2010.04.14 03:12:58.
