data_PCOD8194614
_publ_section_title
;
Structure prediction by ZEFSAII (Michael W. Deem and Ramdas Pophale) SiO2 
 PCOD8194614
Probable space group: P M M M
;
_chemical_formula_sum "Si O2"
_cell_formula_units_Z 48
_cell_length_a 17.895116
_cell_length_b 8.688613
_cell_length_c 15.566071
_cell_angle_alpha 90.000000
_cell_angle_beta 90.000000
_cell_angle_gamma 90.000000
_cell_volume 2420.270897
_symmetry_space_group_name_H-M "P M M M"
_symmetry_group_IT_number 47
_symmetry_cell_setting 'orthorhombic'
loop_
_space_group_symop_operation_xyz
x,y,z
-x,-y,z
x,-y,-z
-x,y,-z
-x,-y,-z
x,y,-z
-x,y,z
x,-y,z
loop_
_atom_site_type_symbol
_atom_site_label
_atom_site_fract_x
_atom_site_fract_y
_atom_site_fract_z
Si Si1 0.349781 0.179959 0.906124
Si Si2 0.815946 0.820298 0.846816
Si Si3 0.917195 0.183027 0.000000
Si Si4 0.150878 0.679612 0.332995
Si Si5 0.583186 0.816361 0.731767
Si Si6 0.000000 0.181995 0.597244
Si Si7 0.704938 0.822276 0.596912
O O1 0.263340 0.212161 0.889457
O O2 0.397305 0.250020 0.826838
O O3 0.365738 0.000000 0.910118
O O4 0.371655 0.251483 0.000000
O O5 0.824206 0.719047 0.762744
O O6 0.825676 0.000000 0.823498
O O7 0.877021 0.759393 0.914042
O O8 0.000000 0.252186 0.000000
O O9 0.916311 0.000000 0.000000
O O10 0.138396 0.500000 0.344300
O O11 0.216965 0.733182 0.396025
O O12 0.073488 0.762048 0.354142
O O13 0.500000 0.759946 0.706874
O O14 0.642292 0.753440 0.661545
O O15 0.587363 0.000000 0.732493
O O16 0.000000 0.245916 0.500000
O O17 0.000000 0.000000 0.598317
O O18 0.674537 0.803622 0.500000
O O19 0.720535 0.000000 0.619618
#
# Coordination Sequence:
#
# PCOD8194614 Si02
#       7
#     8   8   4   8   8   4   8
#     4   9  15  26  48  77 109 146 187 233 286 339
#     4  10  18  33  56  80 110 150 195 237 279 336
#     4   9  18  30  51  85 112 140 190 243 286 329
#     4  12  25  39  58  86 120 152 186 232 288 341
#     4   9  17  29  48  80 119 150 182 235 295 345
#     4  11  25  45  67  88 111 144 187 233 282 339
#     4  10  20  36  59  83 109 148 196 239 284 344
#
# _framework density 19.832491000000001
#
# number of rings (size 3 to 8) (size 9 to 14) (size 15 to 20)
#    0.000    2.000    2.500    2.250    1.167    3.667 
#    0.000    3.750    0.000    1.000    0.000    1.167 
#    0.000    1.333    0.000    0.000    0.000    0.000 
#
# Total GULP energy -595110.426281 kJ/mol
# GULP energy per Si atom -12398.133881 kJ/mol
# Density = 1.978735 g / cm^3
# Si number density = 19.832491 Si / 1000 Ang^3
#
#
#
# Elastic Constant Matrix: (Units=GPa)
#
#
# Indices 1 2 3 4 5 6 
#
# 1 122.5942 15.5736 43.0493 0.0000 0.0000 0.0000
# 2 15.5736 40.1972 15.8284 0.0000 0.0000 0.0000
# 3 43.0493 15.8284 131.3157 0.0000 0.0000 0.0000
# 4 0.0000 0.0000 0.0000 5.4596 0.0000 0.0000
# 5 0.0000 0.0000 0.0000 0.0000 32.3851 0.0000
# 6 0.0000 0.0000 0.0000 0.0000 0.0000 3.6921
#
#
#
# Elastic Compliance Matrix: (Units=1/GPa)
#
#
# Indices 1 2 3 4 5 6 
#
# 1 0.009464 -0.002567 -0.002793 0.000000 0.000000 0.000000
# 2 -0.002567 0.026813 -0.002391 0.000000 0.000000 0.000000
# 3 -0.002793 -0.002391 0.008819 0.000000 0.000000 0.000000
# 4 0.000000 0.000000 0.000000 0.183163 0.000000 0.000000
# 5 0.000000 0.000000 0.000000 0.000000 0.030878 0.000000
# 6 0.000000 0.000000 0.000000 0.000000 0.000000 0.270850
#
#
# Mechanical properties :
#
#
# Convention : Reuss Voigt Hill
#
# Bulk Modulus (GPa) = 33.78922 49.22329 41.50626
# Shear Modulus (GPa) = 9.00328 22.95108 15.97718
#
# Velocity S-wave (km/s) = 2.13296 3.40552 2.84140
# Velocity P-wave (km/s) = 4.81044 6.35113 5.63370
#
# Compressibility (1/GPa) = 0.02959524
#
# Stress axis : x y z
#
# Youngs Moduli (GPa) = 105.66492 37.29518 113.39072
#
# Poissons Ratio (x) = 0.09573 0.31672
# Poissons Ratio (y) = 0.27121 0.27106
# Poissons Ratio (z) = 0.29514 0.08916
#
# Static dielectric constant tensor:
#      x y z
#    x 3.745590 0.000000 0.000000 
#    y 0.000000 3.074090 0.000000 
#    z 0.000000 0.000000 3.890300 
# 
# 
# High freq. dielectric constant tensor:
#      x y z
#    x 1.779300 0.000000 0.000000 
#    y 0.000000 1.712310 0.000000 
#    z 0.000000 0.000000 1.792920 
# 
# From -- ./inp_files/9183.got.cif
#   From: 2010.03.12/outbox.cif.g09.slc.cpg/sg47_5_cif.got.tgz:9183.got - 2010.04.14 03:12:58.
