data_PCOD8194291
_publ_section_title
;
Structure prediction by ZEFSAII (Michael W. Deem and Ramdas Pophale) SiO2 
 PCOD8194291
Probable space group: P M M M
;
_chemical_formula_sum "Si O2"
_cell_formula_units_Z 56
_cell_length_a 15.433103
_cell_length_b 9.105020
_cell_length_c 20.743266
_cell_angle_alpha 90.000000
_cell_angle_beta 90.000000
_cell_angle_gamma 90.000000
_cell_volume 2914.817010
_symmetry_space_group_name_H-M "P M M M"
_symmetry_group_IT_number 47
_symmetry_cell_setting 'orthorhombic'
loop_
_space_group_symop_operation_xyz
x,y,z
-x,-y,z
x,-y,-z
-x,y,-z
-x,-y,-z
x,y,-z
-x,y,z
x,-y,z
loop_
_atom_site_type_symbol
_atom_site_label
_atom_site_fract_x
_atom_site_fract_y
_atom_site_fract_z
Si Si1 0.273164 0.828573 0.927189
Si Si2 0.261098 0.672528 0.570495
Si Si3 0.597684 0.325839 0.829420
Si Si4 0.095582 0.168963 0.389243
Si Si5 0.904613 0.832874 0.135137
Si Si6 0.674868 0.336465 0.297961
Si Si7 0.128580 0.334900 0.262948
O O1 0.336749 0.742938 0.880009
O O2 0.172270 0.790461 0.913964
O O3 0.291073 0.000000 0.917587
O O4 0.293767 0.779109 0.000000
O O5 0.304721 0.699909 0.500000
O O6 0.246851 0.500000 0.583735
O O7 0.166243 0.744413 0.568905
O O8 0.319546 0.738085 0.629941
O O9 0.500000 0.286229 0.850077
O O10 0.613905 0.500000 0.828589
O O11 0.613450 0.261477 0.756254
O O12 0.089212 0.231735 0.317468
O O13 0.000000 0.184480 0.421160
O O14 0.124431 0.000000 0.386211
O O15 0.902599 0.724503 0.195040
O O16 0.000000 0.816737 0.101893
O O17 0.890792 0.000000 0.159239
O O18 0.639555 0.500000 0.309489
O O19 0.768283 0.333669 0.265398
O O20 0.093260 0.500000 0.272006
#
# Coordination Sequence:
#
# PCOD8194291 Si02
#       7
#     8   8   8   8   8   8   8
#     4  10  22  39  57  79 111 148 182 222 271 321
#     4   9  18  32  50  71  97 134 177 219 265 318
#     4  10  20  36  60  86 110 139 178 224 274 328
#     4  10  20  31  43  64  98 136 175 223 273 318
#     4  10  20  33  51  76 106 141 182 225 269 318
#     4   8  15  30  51  75 102 132 168 213 262 311
#     4  10  18  30  50  73 100 136 177 222 270 317
#
# _framework density 19.212183
#
# number of rings (size 3 to 8) (size 9 to 14) (size 15 to 20)
#    0.000    2.429    1.429    2.143    0.000    4.857 
#    0.000    4.286    0.000    0.429    0.000    5.000 
#    0.000    0.000    0.000    5.000    0.000    6.286 
#
# Total GULP energy -693834.585399 kJ/mol
# GULP energy per Si atom -12389.903311 kJ/mol
# Density = 1.916846 g / cm^3
# Si number density = 19.212183 Si / 1000 Ang^3
#
#
#
# Elastic Constant Matrix: (Units=GPa)
#
#
# Indices 1 2 3 4 5 6 
#
# 1 94.9626 26.5089 59.7011 0.0000 0.0000 0.0000
# 2 26.5089 52.1741 33.6845 0.0000 0.0000 0.0000
# 3 59.7011 33.6845 146.1373 0.0000 0.0000 0.0000
# 4 0.0000 0.0000 0.0000 21.8410 0.0000 0.0000
# 5 0.0000 0.0000 0.0000 0.0000 4.8622 0.0000
# 6 0.0000 0.0000 0.0000 0.0000 0.0000 16.9984
#
#
#
# Elastic Compliance Matrix: (Units=1/GPa)
#
#
# Indices 1 2 3 4 5 6 
#
# 1 0.014945 -0.004290 -0.005116 0.000000 0.000000 0.000000
# 2 -0.004290 0.023749 -0.003722 0.000000 0.000000 0.000000
# 3 -0.005116 -0.003722 0.009791 0.000000 0.000000 0.000000
# 4 0.000000 0.000000 0.000000 0.045785 0.000000 0.000000
# 5 0.000000 0.000000 0.000000 0.000000 0.205667 0.000000
# 6 0.000000 0.000000 0.000000 0.000000 0.000000 0.058829
#
#
# Mechanical properties :
#
#
# Convention : Reuss Voigt Hill
#
# Bulk Modulus (GPa) = 44.98701 59.22922 52.10811
# Shear Modulus (GPa) = 12.74106 20.29894 16.52000
#
# Velocity S-wave (km/s) = 2.57801 3.25401 2.93554
# Velocity P-wave (km/s) = 5.68579 6.70925 6.21861
#
# Compressibility (1/GPa) = 0.02222864
#
# Stress axis : x y z
#
# Youngs Moduli (GPa) = 66.91374 42.10711 102.13544
#
# Poissons Ratio (x) = 0.18063 0.52257
# Poissons Ratio (y) = 0.28705 0.38010
# Poissons Ratio (z) = 0.34236 0.15670
#
# Static dielectric constant tensor:
#      x y z
#    x 3.472740 0.000000 0.000000 
#    y 0.000000 3.363370 0.000000 
#    z 0.000000 0.000000 3.612550 
# 
# 
# High freq. dielectric constant tensor:
#      x y z
#    x 1.731050 0.000000 0.000000 
#    y 0.000000 1.725250 0.000000 
#    z 0.000000 0.000000 1.747910 
# 
# From -- ./inp_files/7279.got.cif
#   From: 2010.03.12/outbox.cif.g09.slc.cpg/sg47_4_cif.got.tgz:7279.got - 2010.04.14 03:12:58.
