data_PCOD8194701
_publ_section_title
;
Structure prediction by ZEFSAII (Michael W. Deem and Ramdas Pophale) SiO2 
 PCOD8194701
Probable space group: P M M M
;
_chemical_formula_sum "Si O2"
_cell_formula_units_Z 64
_cell_length_a 9.358506
_cell_length_b 27.108787
_cell_length_c 17.941022
_cell_angle_alpha 90.000000
_cell_angle_beta 90.000000
_cell_angle_gamma 90.000000
_cell_volume 4551.596839
_symmetry_space_group_name_H-M "P M M M"
_symmetry_group_IT_number 47
_symmetry_cell_setting 'orthorhombic'
loop_
_space_group_symop_operation_xyz
x,y,z
-x,-y,z
x,-y,-z
-x,y,-z
-x,-y,-z
x,y,-z
-x,y,z
x,-y,z
loop_
_atom_site_type_symbol
_atom_site_label
_atom_site_fract_x
_atom_site_fract_y
_atom_site_fract_z
Si Si1 0.661098 0.445977 0.588563
Si Si2 0.664241 0.836478 0.587327
Si Si3 0.667666 0.146718 0.915976
Si Si4 0.166462 0.353616 0.585446
Si Si5 0.161037 0.895402 0.302352
Si Si6 0.168142 0.251719 0.342615
Si Si7 0.842483 0.800027 0.800823
Si Si8 0.664146 0.944676 0.816864
O O1 0.668601 0.445307 0.500000
O O2 0.500000 0.437048 0.616113
O O3 0.714628 0.500000 0.616868
O O4 0.757861 0.401836 0.620362
O O5 0.671924 0.845191 0.500000
O O6 0.500000 0.835027 0.615391
O O7 0.746978 0.882537 0.624519
O O8 0.739763 0.785036 0.607029
O O9 0.500000 0.155027 0.914593
O O10 0.735337 0.192095 0.869576
O O11 0.710398 0.093745 0.881175
O O12 0.727360 0.147910 0.000000
O O13 0.213212 0.343732 0.500000
O O14 0.211812 0.306857 0.634810
O O15 0.000000 0.363944 0.590538
O O16 0.157299 0.847639 0.251034
O O17 0.238841 0.938799 0.256649
O O18 0.000000 0.911755 0.324266
O O19 0.203127 0.244819 0.254223
O O20 0.000000 0.241244 0.357849
O O21 0.000000 0.790622 0.834259
O O22 0.500000 0.935070 0.793947
O O23 0.685318 0.000000 0.848335
#
# Coordination Sequence:
#
# PCOD8194701 Si02
#       8
#     8   8   8   8   8   8   8   8
#     4   8  14  24  35  46  64  93 128 165 203 239
#     4  10  19  28  40  59  79  98 123 156 192 229
#     4   9  17  28  42  61  83 104 126 151 177 209
#     4   9  16  24  35  52  73  97 127 165 204 236
#     4   9  17  29  44  59  76 100 127 153 182 220
#     4   9  17  28  40  55  77 103 129 158 194 233
#     4   8  15  27  41  56  74  99 128 153 180 218
#     4   9  17  29  45  63  82 103 124 148 180 216
#
# _framework density 14.060999000000001
#
# number of rings (size 3 to 8) (size 9 to 14) (size 15 to 20)
#    0.000    3.125    0.000    2.250    0.000    6.000 
#    0.000    3.750    0.000    0.375    0.000    6.125 
#    0.000    0.000    0.000    0.000    0.000    0.625 
#
# Total GULP energy -793241.702309 kJ/mol
# GULP energy per Si atom -12394.401599 kJ/mol
# Density = 1.402900 g / cm^3
# Si number density = 14.060999 Si / 1000 Ang^3
#
#
#
# Elastic Constant Matrix: (Units=GPa)
#
#
# Indices 1 2 3 4 5 6 
#
# 1 62.7086 30.6537 39.8768 0.0000 0.0000 0.0000
# 2 30.6537 73.7328 43.0616 0.0000 0.0000 0.0000
# 3 39.8768 43.0616 72.3730 0.0000 0.0000 0.0000
# 4 0.0000 0.0000 0.0000 11.9480 0.0000 0.0000
# 5 0.0000 0.0000 0.0000 0.0000 18.9359 0.0000
# 6 0.0000 0.0000 0.0000 0.0000 0.0000 22.0538
#
#
#
# Elastic Compliance Matrix: (Units=1/GPa)
#
#
# Indices 1 2 3 4 5 6 
#
# 1 0.025164 -0.003623 -0.011709 0.000000 0.000000 0.000000
# 2 -0.003623 0.021307 -0.010681 0.000000 0.000000 0.000000
# 3 -0.011709 -0.010681 0.026624 0.000000 0.000000 0.000000
# 4 0.000000 0.000000 0.000000 0.083696 0.000000 0.000000
# 5 0.000000 0.000000 0.000000 0.000000 0.052810 0.000000
# 6 0.000000 0.000000 0.000000 0.000000 0.000000 0.045344
#
#
# Mechanical properties :
#
#
# Convention : Reuss Voigt Hill
#
# Bulk Modulus (GPa) = 47.46586 48.44429 47.95507
# Shear Modulus (GPa) = 15.92384 16.93567 16.42976
#
# Velocity S-wave (km/s) = 3.36889 3.47427 3.42199
# Velocity P-wave (km/s) = 6.99735 7.11490 7.05637
#
# Compressibility (1/GPa) = 0.02106777
#
# Stress axis : x y z
#
# Youngs Moduli (GPa) = 39.73944 46.93340 37.55975
#
# Poissons Ratio (x) = 0.17005 0.43980
# Poissons Ratio (y) = 0.14398 0.40118
# Poissons Ratio (z) = 0.46532 0.50130
#
# Static dielectric constant tensor:
#      x y z
#    x 2.921160 0.000000 0.000000 
#    y 0.000000 2.813410 0.000000 
#    z 0.000000 0.000000 2.653510 
# 
# 
# High freq. dielectric constant tensor:
#      x y z
#    x 1.544170 0.000000 0.000000 
#    y 0.000000 1.514320 0.000000 
#    z 0.000000 0.000000 1.502390 
# 
# From -- ./inp_files/22195.got.cif
#   From: 2010.03.12/outbox.cif.g09.slc.cpg/sg47_12_cif.got.tgz:22195.got - 2010.04.14 03:12:58.
