data_PCOD8194205
_publ_section_title
;
Structure prediction by ZEFSAII (Michael W. Deem and Ramdas Pophale) SiO2 
 PCOD8194205
Probable space group: P M M M
;
_chemical_formula_sum "Si O2"
_cell_formula_units_Z 60
_cell_length_a 15.377833
_cell_length_b 14.925312
_cell_length_c 14.504588
_cell_angle_alpha 90.000000
_cell_angle_beta 90.000000
_cell_angle_gamma 90.000000
_cell_volume 3329.077886
_symmetry_space_group_name_H-M "P M M M"
_symmetry_group_IT_number 47
_symmetry_cell_setting 'orthorhombic'
loop_
_space_group_symop_operation_xyz
x,y,z
-x,-y,z
x,-y,-z
-x,y,-z
-x,-y,-z
x,y,-z
-x,y,z
x,-y,z
loop_
_atom_site_type_symbol
_atom_site_label
_atom_site_fract_x
_atom_site_fract_y
_atom_site_fract_z
Si Si1 0.595432 0.394771 0.276101
Si Si2 0.096468 0.291780 0.282260
Si Si3 0.863477 0.600534 0.895551
Si Si4 0.901868 0.098217 0.775788
Si Si5 0.739538 0.135047 0.106878
Si Si6 0.402452 0.000000 0.109523
Si Si7 0.317541 0.669414 0.896758
Si Si8 0.241771 0.394585 0.393550
O O1 0.500000 0.366733 0.313249
O O2 0.601749 0.500000 0.263945
O O3 0.606762 0.351510 0.175174
O O4 0.668283 0.361303 0.347582
O O5 0.098356 0.328586 0.177031
O O6 0.117017 0.184936 0.288453
O O7 0.162548 0.343994 0.346690
O O8 0.000000 0.309121 0.321487
O O9 0.897772 0.500000 0.874157
O O10 0.758518 0.595874 0.888953
O O11 0.890647 0.629675 0.000000
O O12 0.829232 0.096716 0.854296
O O13 0.000000 0.109383 0.816870
O O14 0.896029 0.000000 0.724736
O O15 0.729951 0.238717 0.131032
O O16 0.652663 0.085812 0.144896
O O17 0.745868 0.115695 0.000000
O O18 0.500000 0.000000 0.153286
O O19 0.412194 0.000000 0.000000
O O20 0.357787 0.673569 0.000000
O O21 0.246080 0.368207 0.500000
O O22 0.227570 0.500000 0.379299
#
# Coordination Sequence:
#
# PCOD8194205 Si02
#       8
#     8   8   8   8   8   4   8   8
#     4  10  20  34  53  77 106 140 178 220 267 316
#     4  11  22  36  55  79 109 142 177 220 267 318
#     4  10  19  31  49  72 103 145 187 224 263 309
#     4  10  20  33  51  75 102 135 173 215 266 320
#     4  10  18  30  47  66  95 135 178 224 269 309
#     4   9  18  30  43  61  87 121 165 220 276 318
#     4  10  19  31  49  73 104 145 187 224 260 304
#     4  10  21  38  59  82 109 139 174 219 270 323
#
# _framework density 18.023008000000001
#
# number of rings (size 3 to 8) (size 9 to 14) (size 15 to 20)
#    0.000    1.933    3.333    0.800    0.000    3.733 
#    0.000    6.667    0.000    0.400    0.000    1.867 
#    0.000    0.000    0.000    2.933    0.000    0.133 
#
# Total GULP energy -743542.208095 kJ/mol
# GULP energy per Si atom -12392.370135 kJ/mol
# Density = 1.798199 g / cm^3
# Si number density = 18.023008 Si / 1000 Ang^3
#
#
#
# Elastic Constant Matrix: (Units=GPa)
#
#
# Indices 1 2 3 4 5 6 
#
# 1 140.3255 39.8062 52.6944 0.0000 0.0000 0.0000
# 2 39.8062 77.4407 36.0763 0.0000 0.0000 0.0000
# 3 52.6944 36.0763 83.5710 0.0000 0.0000 0.0000
# 4 0.0000 0.0000 0.0000 13.7616 0.0000 0.0000
# 5 0.0000 0.0000 0.0000 0.0000 7.5068 0.0000
# 6 0.0000 0.0000 0.0000 0.0000 0.0000 22.9650
#
#
#
# Elastic Compliance Matrix: (Units=1/GPa)
#
#
# Indices 1 2 3 4 5 6 
#
# 1 0.009766 -0.002693 -0.004995 0.000000 0.000000 0.000000
# 2 -0.002693 0.016906 -0.005600 0.000000 0.000000 0.000000
# 3 -0.004995 -0.005600 0.017533 0.000000 0.000000 0.000000
# 4 0.000000 0.000000 0.000000 0.072666 0.000000 0.000000
# 5 0.000000 0.000000 0.000000 0.000000 0.133212 0.000000
# 6 0.000000 0.000000 0.000000 0.000000 0.000000 0.043545
#
#
# Mechanical properties :
#
#
# Convention : Reuss Voigt Hill
#
# Bulk Modulus (GPa) = 56.72619 62.05456 59.39038
# Shear Modulus (GPa) = 15.33362 20.36404 17.84883
#
# Velocity S-wave (km/s) = 2.91998 3.36503 3.15037
# Velocity P-wave (km/s) = 6.55065 7.04297 6.80127
#
# Compressibility (1/GPa) = 0.01762854
#
# Stress axis : x y z
#
# Youngs Moduli (GPa) = 102.39613 59.15003 57.03486
#
# Poissons Ratio (x) = 0.15928 0.28491
# Poissons Ratio (y) = 0.27573 0.31941
# Poissons Ratio (z) = 0.51151 0.33125
#
# Static dielectric constant tensor:
#      x y z
#    x 3.509910 0.000000 0.000000 
#    y 0.000000 3.550260 0.000000 
#    z 0.000000 0.000000 2.994440 
# 
# 
# High freq. dielectric constant tensor:
#      x y z
#    x 1.706960 0.000000 0.000000 
#    y 0.000000 1.701270 0.000000 
#    z 0.000000 0.000000 1.647060 
# 
# From -- ./inp_files/23939.got.cif
#   From: 2010.03.12/outbox.cif.g09.slc.cpg/sg47_12_cif.got.tgz:23939.got - 2010.04.14 03:12:58.
