data_PCOD8194902
_publ_section_title
;
Structure prediction by ZEFSAII (Michael W. Deem and Ramdas Pophale) SiO2 
 PCOD8194902
Probable space group: P M M M
;
_chemical_formula_sum "Si O2"
_cell_formula_units_Z 44
_cell_length_a 12.735943
_cell_length_b 21.972313
_cell_length_c 9.528875
_cell_angle_alpha 90.000000
_cell_angle_beta 90.000000
_cell_angle_gamma 90.000000
_cell_volume 2666.542522
_symmetry_space_group_name_H-M "P M M M"
_symmetry_group_IT_number 47
_symmetry_cell_setting 'orthorhombic'
loop_
_space_group_symop_operation_xyz
x,y,z
-x,-y,z
x,-y,-z
-x,y,-z
-x,-y,-z
x,y,-z
-x,y,z
x,-y,z
loop_
_atom_site_type_symbol
_atom_site_label
_atom_site_fract_x
_atom_site_fract_y
_atom_site_fract_z
Si Si1 0.798758 0.825529 0.664199
Si Si2 0.122871 0.933173 0.845744
Si Si3 0.120067 0.306780 0.663904
Si Si4 0.500000 0.430878 0.833104
Si Si5 0.308936 0.650076 0.838168
Si Si6 0.619385 0.784848 0.156427
O O1 0.789729 0.834999 0.500000
O O2 0.854073 0.884024 0.727445
O O3 0.862495 0.764161 0.702775
O O4 0.683005 0.822451 0.728949
O O5 0.000000 0.939155 0.857305
O O6 0.169137 0.000000 0.804363
O O7 0.167246 0.913830 0.000000
O O8 0.141969 0.317456 0.500000
O O9 0.200132 0.349915 0.750012
O O10 0.000000 0.323895 0.702998
O O11 0.500000 0.500000 0.779383
O O12 0.608031 0.399613 0.778664
O O13 0.500000 0.425372 0.000000
O O14 0.368724 0.713287 0.818880
O O15 0.279267 0.637144 0.000000
O O16 0.500000 0.803997 0.176690
O O17 0.659008 0.801485 0.000000
#
# Coordination Sequence:
#
# PCOD8194902 Si02
#       6
#     8   8   8   4   8   8
#     4  10  19  29  44  68  94 120 150 187 232 280
#     4   9  18  32  48  65  87 117 152 188 225 269
#     4   9  18  31  45  65  96 129 156 188 234 281
#     4   9  16  28  49  75 101 125 150 191 242 279
#     4   9  16  28  47  71  95 121 156 193 230 276
#     4   9  16  28  46  66  91 121 151 186 227 273
#
# _framework density 16.500768000000001
#
# number of rings (size 3 to 8) (size 9 to 14) (size 15 to 20)
#    0.000    2.818    0.909    1.636    0.000    2.909 
#    0.000    1.364    0.000    2.182    0.000    7.636 
#    0.000    0.000    0.000    0.000    0.000    0.000 
#
# Total GULP energy -545364.826961 kJ/mol
# GULP energy per Si atom -12394.655158 kJ/mol
# Density = 1.646321 g / cm^3
# Si number density = 16.500768 Si / 1000 Ang^3
#
#
#
# Elastic Constant Matrix: (Units=GPa)
#
#
# Indices 1 2 3 4 5 6 
#
# 1 106.1120 47.5343 51.1398 0.0000 0.0000 0.0000
# 2 47.5343 77.0049 41.2783 0.0000 0.0000 0.0000
# 3 51.1398 41.2783 76.4667 0.0000 0.0000 0.0000
# 4 0.0000 0.0000 0.0000 15.8059 0.0000 0.0000
# 5 0.0000 0.0000 0.0000 0.0000 23.5887 0.0000
# 6 0.0000 0.0000 0.0000 0.0000 0.0000 23.6159
#
#
#
# Elastic Compliance Matrix: (Units=1/GPa)
#
#
# Indices 1 2 3 4 5 6 
#
# 1 0.015467 -0.005633 -0.007304 0.000000 0.000000 0.000000
# 2 -0.005633 0.020325 -0.007205 0.000000 0.000000 0.000000
# 3 -0.007304 -0.007205 0.021852 0.000000 0.000000 0.000000
# 4 0.000000 0.000000 0.000000 0.063268 0.000000 0.000000
# 5 0.000000 0.000000 0.000000 0.000000 0.042393 0.000000
# 6 0.000000 0.000000 0.000000 0.000000 0.000000 0.042344
#
#
# Mechanical properties :
#
#
# Convention : Reuss Voigt Hill
#
# Bulk Modulus (GPa) = 57.59848 59.94314 58.77081
# Shear Modulus (GPa) = 19.86342 20.57750 20.22046
#
# Velocity S-wave (km/s) = 3.47333 3.53521 3.50441
# Velocity P-wave (km/s) = 7.14616 7.28491 7.21587
#
# Compressibility (1/GPa) = 0.01736157
#
# Stress axis : x y z
#
# Youngs Moduli (GPa) = 64.65333 49.19950 45.76335
#
# Poissons Ratio (x) = 0.27712 0.33424
# Poissons Ratio (y) = 0.36417 0.32973
# Poissons Ratio (z) = 0.47220 0.35448
#
# Static dielectric constant tensor:
#      x y z
#    x 3.123160 0.000000 0.000000 
#    y 0.000000 3.023350 0.000000 
#    z 0.000000 0.000000 3.072930 
# 
# 
# High freq. dielectric constant tensor:
#      x y z
#    x 1.630600 0.000000 0.000000 
#    y 0.000000 1.609980 0.000000 
#    z 0.000000 0.000000 1.627310 
# 
# From -- ./inp_files/4305.got.cif
#   From: 2010.03.12/outbox.cif.g09.slc.cpg/sg47_3_cif.got.tgz:4305.got - 2010.04.14 03:12:58.
