data_PCOD8194134
_publ_section_title
;
Structure prediction by ZEFSAII (Michael W. Deem and Ramdas Pophale) SiO2 
 PCOD8194134
Probable space group: P M M M
;
_chemical_formula_sum "Si O2"
_cell_formula_units_Z 52
_cell_length_a 9.154368
_cell_length_b 28.140046
_cell_length_c 11.840386
_cell_angle_alpha 90.000000
_cell_angle_beta 90.000000
_cell_angle_gamma 90.000000
_cell_volume 3050.134781
_symmetry_space_group_name_H-M "P M M M"
_symmetry_group_IT_number 47
_symmetry_cell_setting 'orthorhombic'
loop_
_space_group_symop_operation_xyz
x,y,z
-x,-y,z
x,-y,-z
-x,y,-z
-x,-y,-z
x,y,-z
-x,y,z
x,-y,z
loop_
_atom_site_type_symbol
_atom_site_label
_atom_site_fract_x
_atom_site_fract_y
_atom_site_fract_z
Si Si1 0.332261 0.172406 0.000000
Si Si2 0.671142 0.773996 0.224051
Si Si3 0.830809 0.947853 0.247232
Si Si4 0.664616 0.591870 0.133644
Si Si5 0.166705 0.076172 0.000000
Si Si6 0.827443 0.687470 0.131175
Si Si7 0.834241 0.500000 0.865141
Si Si8 0.327493 0.137918 0.371261
O O1 0.285731 0.201395 0.108232
O O2 0.254527 0.123466 0.000000
O O3 0.500000 0.159926 0.000000
O O4 0.500000 0.761237 0.232892
O O5 0.765098 0.725846 0.220901
O O6 0.720147 0.810522 0.322597
O O7 0.795913 0.952603 0.113658
O O8 0.739146 0.906193 0.304096
O O9 0.000000 0.935960 0.268267
O O10 0.791883 0.000000 0.299004
O O11 0.500000 0.593908 0.183573
O O12 0.754099 0.638378 0.169210
O O13 0.749742 0.546157 0.182253
O O14 0.656569 0.587839 0.000000
O O15 0.000000 0.091421 0.000000
O O16 0.000000 0.683281 0.146213
O O17 0.787112 0.699411 0.000000
O O18 0.000000 0.500000 0.818847
O O19 0.836060 0.500000 0.000000
O O20 0.274128 0.135615 0.500000
O O21 0.500000 0.132731 0.359413
#
# Coordination Sequence:
#
# PCOD8194134 Si02
#       8
#     4   8   8   8   4   8   4   8
#     4  10  18  29  49  73  94 119 153 190 233 284
#     4  10  19  32  49  68  92 119 149 189 237 285
#     4  10  21  36  54  76 101 127 154 188 232 281
#     4   9  16  25  37  54  80 117 160 199 236 279
#     4  10  19  32  52  76 102 126 151 185 229 280
#     4  10  19  28  41  64  92 119 151 192 237 283
#     4   9  15  23  35  51  77 115 160 205 242 275
#     4  10  22  39  56  73  94 123 160 198 235 279
#
# _framework density 17.048428000000001
#
# number of rings (size 3 to 8) (size 9 to 14) (size 15 to 20)
#    0.000    2.231    2.308    1.385    0.000    6.462 
#    0.000    1.538    0.000    1.385    0.000    0.000 
#    0.000    0.000    0.000    0.692    0.000   14.385 
#
# Total GULP energy -644531.375704 kJ/mol
# GULP energy per Si atom -12394.834148 kJ/mol
# Density = 1.700962 g / cm^3
# Si number density = 17.048428 Si / 1000 Ang^3
#
#
#
# Elastic Constant Matrix: (Units=GPa)
#
#
# Indices 1 2 3 4 5 6 
#
# 1 83.8111 69.8031 30.7303 0.0000 0.0000 0.0000
# 2 69.8031 153.4551 38.4659 0.0000 0.0000 0.0000
# 3 30.7303 38.4659 69.5036 0.0000 0.0000 0.0000
# 4 0.0000 0.0000 0.0000 5.1758 0.0000 0.0000
# 5 0.0000 0.0000 0.0000 0.0000 16.2749 0.0000
# 6 0.0000 0.0000 0.0000 0.0000 0.0000 35.9983
#
#
#
# Elastic Compliance Matrix: (Units=1/GPa)
#
#
# Indices 1 2 3 4 5 6 
#
# 1 0.020352 -0.008130 -0.004499 0.000000 0.000000 0.000000
# 2 -0.008130 0.010814 -0.002390 0.000000 0.000000 0.000000
# 3 -0.004499 -0.002390 0.017700 0.000000 0.000000 0.000000
# 4 0.000000 0.000000 0.000000 0.193208 0.000000 0.000000
# 5 0.000000 0.000000 0.000000 0.000000 0.061444 0.000000
# 6 0.000000 0.000000 0.000000 0.000000 0.000000 0.027779
#
#
# Mechanical properties :
#
#
# Convention : Reuss Voigt Hill
#
# Bulk Modulus (GPa) = 53.11418 64.97426 59.04422
# Shear Modulus (GPa) = 13.60129 22.67450 18.13789
#
# Velocity S-wave (km/s) = 2.82761 3.65088 3.26529
# Velocity P-wave (km/s) = 6.47171 7.48106 6.99461
#
# Compressibility (1/GPa) = 0.01882736
#
# Stress axis : x y z
#
# Youngs Moduli (GPa) = 49.13407 92.47379 56.49780
#
# Poissons Ratio (x) = 0.75182 0.25419
# Poissons Ratio (y) = 0.39946 0.13504
# Poissons Ratio (z) = 0.22106 0.22103
#
# Static dielectric constant tensor:
#      x y z
#    x 3.330330 0.000000 0.000000 
#    y 0.000000 3.291280 0.000000 
#    z 0.000000 0.000000 2.911320 
# 
# 
# High freq. dielectric constant tensor:
#      x y z
#    x 1.661820 0.000000 0.000000 
#    y 0.000000 1.670870 0.000000 
#    z 0.000000 0.000000 1.601690 
# 
# From -- ./inp_files/15588.got.cif
#   From: 2010.03.12/outbox.cif.g09.slc.cpg/sg47_8_cif.got.tgz:15588.got - 2010.04.14 03:12:58.
