data_PCOD8194288
_publ_section_title
;
Structure prediction by ZEFSAII (Michael W. Deem and Ramdas Pophale) SiO2 
 PCOD8194288
Probable space group: P M M M
;
_chemical_formula_sum "Si O2"
_cell_formula_units_Z 64
_cell_length_a 14.372104
_cell_length_b 31.317549
_cell_length_c 9.147274
_cell_angle_alpha 90.000000
_cell_angle_beta 90.000000
_cell_angle_gamma 90.000000
_cell_volume 4117.179532
_symmetry_space_group_name_H-M "P M M M"
_symmetry_group_IT_number 47
_symmetry_cell_setting 'orthorhombic'
loop_
_space_group_symop_operation_xyz
x,y,z
-x,-y,z
x,-y,-z
-x,y,-z
-x,-y,-z
x,y,-z
-x,y,z
x,-y,z
loop_
_atom_site_type_symbol
_atom_site_label
_atom_site_fract_x
_atom_site_fract_y
_atom_site_fract_z
Si Si1 0.719594 0.282684 0.673778
Si Si2 0.610568 0.454799 0.336158
Si Si3 0.894827 0.256650 0.830190
Si Si4 0.899032 0.840509 0.826400
Si Si5 0.290484 0.121986 0.828023
Si Si6 0.395492 0.636521 0.674681
Si Si7 0.391764 0.208385 0.170484
Si Si8 0.394686 0.048679 0.329607
O O1 0.719993 0.279702 0.500000
O O2 0.824601 0.284764 0.734074
O O3 0.670471 0.325792 0.730901
O O4 0.664654 0.242313 0.735893
O O5 0.650620 0.456771 0.500000
O O6 0.500000 0.452547 0.342140
O O7 0.641144 0.500000 0.256830
O O8 0.642640 0.409653 0.263118
O O9 0.884616 0.208048 0.774759
O O10 0.000000 0.273055 0.804067
O O11 0.867567 0.260459 0.000000
O O12 0.814111 0.869172 0.767582
O O13 0.000000 0.857567 0.769577
O O14 0.898688 0.840446 0.000000
O O15 0.357431 0.161202 0.785606
O O16 0.324414 0.078757 0.755362
O O17 0.289905 0.114743 0.000000
O O18 0.396224 0.634260 0.500000
O O19 0.500000 0.645868 0.732042
O O20 0.500000 0.211989 0.209561
O O21 0.372248 0.217014 0.000000
O O22 0.386795 0.058551 0.500000
O O23 0.500000 0.057097 0.275876
O O24 0.366252 0.000000 0.296120
#
# Coordination Sequence:
#
# PCOD8194288 Si02
#       8
#     8   8   8   8   8   8   8   8
#     4  11  20  28  41  62  91 121 146 177 217 264
#     4   7   9  15  29  47  68 100 143 184 215 247
#     4   9  17  32  51  64  80 112 150 185 221 259
#     4   8  14  27  48  69  87 109 138 175 218 257
#     4  10  18  30  50  72  90 109 144 188 219 246
#     4   8  14  23  33  50  81 118 149 175 211 259
#     4  10  20  32  44  61  89 122 154 186 214 247
#     4   9  19  35  51  67  91 121 147 173 212 262
#
# _framework density 15.544622
#
# number of rings (size 3 to 8) (size 9 to 14) (size 15 to 20)
#    0.000    3.000    1.250    3.375    0.000    2.500 
#    0.000    0.625    0.000    0.750    0.000    2.625 
#    0.000    2.500    0.000   20.375    0.000   12.750 
#
# Total GULP energy -792947.834275 kJ/mol
# GULP energy per Si atom -12389.809911 kJ/mol
# Density = 1.550924 g / cm^3
# Si number density = 15.544622 Si / 1000 Ang^3
#
#
#
# Elastic Constant Matrix: (Units=GPa)
#
#
# Indices 1 2 3 4 5 6 
#
# 1 105.8564 57.3172 29.0541 0.0000 0.0000 0.0000
# 2 57.3172 110.5261 31.4621 0.0000 0.0000 0.0000
# 3 29.0541 31.4621 30.1328 0.0000 0.0000 0.0000
# 4 0.0000 0.0000 0.0000 1.0367 0.0000 0.0000
# 5 0.0000 0.0000 0.0000 0.0000 19.8104 0.0000
# 6 0.0000 0.0000 0.0000 0.0000 0.0000 9.5972
#
#
#
# Elastic Compliance Matrix: (Units=1/GPa)
#
#
# Indices 1 2 3 4 5 6 
#
# 1 0.014605 -0.005073 -0.008785 0.000000 0.000000 0.000000
# 2 -0.005073 0.014636 -0.010390 0.000000 0.000000 0.000000
# 3 -0.008785 -0.010390 0.052506 0.000000 0.000000 0.000000
# 4 0.000000 0.000000 0.000000 0.964596 0.000000 0.000000
# 5 0.000000 0.000000 0.000000 0.000000 0.050479 0.000000
# 6 0.000000 0.000000 0.000000 0.000000 0.000000 0.104197
#
#
# Mechanical properties :
#
#
# Convention : Reuss Voigt Hill
#
# Bulk Modulus (GPa) = 30.07549 53.57578 41.82564
# Shear Modulus (GPa) = 3.96637 14.66766 9.31702
#
# Velocity S-wave (km/s) = 1.59911 3.07511 2.45086
# Velocity P-wave (km/s) = 4.77487 6.86652 5.91390
#
# Compressibility (1/GPa) = 0.03324966
#
# Stress axis : x y z
#
# Youngs Moduli (GPa) = 68.47025 68.32381 19.04551
#
# Poissons Ratio (x) = 0.34661 0.16732
# Poissons Ratio (y) = 0.34736 0.19789
# Poissons Ratio (z) = 0.60152 0.70991
#
# Static dielectric constant tensor:
#      x y z
#    x 3.122800 0.000000 0.000000 
#    y 0.000000 3.200460 0.000000 
#    z 0.000000 0.000000 2.622290 
# 
# 
# High freq. dielectric constant tensor:
#      x y z
#    x 1.583530 0.000000 0.000000 
#    y 0.000000 1.592220 0.000000 
#    z 0.000000 0.000000 1.560250 
# 
# From -- ./inp_files/8260.got.cif
#   From: 2010.03.12/outbox.cif.g09.slc.cpg/sg47_5_cif.got.tgz:8260.got - 2010.04.14 03:12:58.
