data_PCOD8194404
_publ_section_title
;
Structure prediction by ZEFSAII (Michael W. Deem and Ramdas Pophale) SiO2 
 PCOD8194404
Probable space group: P M M M
;
_chemical_formula_sum "Si O2"
_cell_formula_units_Z 52
_cell_length_a 17.627216
_cell_length_b 9.124381
_cell_length_c 18.023380
_cell_angle_alpha 90.000000
_cell_angle_beta 90.000000
_cell_angle_gamma 90.000000
_cell_volume 2898.834205
_symmetry_space_group_name_H-M "P M M M"
_symmetry_group_IT_number 47
_symmetry_cell_setting 'orthorhombic'
loop_
_space_group_symop_operation_xyz
x,y,z
-x,-y,z
x,-y,-z
-x,y,-z
-x,-y,-z
x,y,-z
-x,y,z
x,-y,z
loop_
_atom_site_type_symbol
_atom_site_label
_atom_site_fract_x
_atom_site_fract_y
_atom_site_fract_z
Si Si1 0.282542 0.160494 0.878044
Si Si2 0.878408 0.828174 0.918404
Si Si3 0.634664 0.329760 0.332381
Si Si4 0.417166 0.667442 0.164315
Si Si5 0.223774 0.834995 0.288049
Si Si6 0.084896 0.331315 0.227911
Si Si7 0.500000 0.832459 0.412247
O O1 0.210154 0.218429 0.923485
O O2 0.355905 0.260493 0.890393
O O3 0.259669 0.157988 0.792531
O O4 0.305477 0.000000 0.905986
O O5 0.919237 0.734430 0.855348
O O6 0.885056 0.000000 0.896793
O O7 0.914602 0.798915 0.000000
O O8 0.641250 0.500000 0.355094
O O9 0.604261 0.312013 0.249603
O O10 0.717960 0.254940 0.340475
O O11 0.575750 0.249369 0.385836
O O12 0.500000 0.739178 0.151546
O O13 0.419557 0.500000 0.141749
O O14 0.142241 0.754146 0.282439
O O15 0.212060 0.000000 0.319506
O O16 0.111379 0.500000 0.222547
O O17 0.000000 0.319091 0.261342
O O18 0.500000 0.829779 0.500000
O O19 0.500000 0.000000 0.382393
#
# Coordination Sequence:
#
# PCOD8194404 Si02
#       7
#     8   8   8   8   8   8   4
#     4   8  15  26  40  60  80 102 138 184 230 276
#     4   9  18  32  47  61  81 113 152 191 234 290
#     4  10  18  31  49  69  95 128 166 203 240 282
#     4   9  16  26  40  61  85 108 139 182 231 279
#     4   9  17  30  48  69  92 121 156 195 239 287
#     4  10  20  32  46  68  97 124 152 192 241 291
#     4  11  23  35  47  69 105 145 180 211 238 267
#
# _framework density 17.938244999999998
#
# number of rings (size 3 to 8) (size 9 to 14) (size 15 to 20)
#    0.000    2.692    0.769    2.538    0.000    7.077 
#    0.000    1.538    0.000    0.462    0.000    3.231 
#    0.000    0.615    0.000    6.462    0.000    2.769 
#
# Total GULP energy -644459.512183 kJ/mol
# GULP energy per Si atom -12393.452157 kJ/mol
# Density = 1.789742 g / cm^3
# Si number density = 17.938245 Si / 1000 Ang^3
#
#
#
# Elastic Constant Matrix: (Units=GPa)
#
#
# Indices 1 2 3 4 5 6 
#
# 1 130.5875 64.3400 18.1301 0.0000 0.0000 0.0000
# 2 64.3400 116.8813 23.1240 0.0000 0.0000 0.0000
# 3 18.1301 23.1240 27.9468 0.0000 0.0000 0.0000
# 4 0.0000 0.0000 0.0000 15.3078 0.0000 0.0000
# 5 0.0000 0.0000 0.0000 0.0000 -10.8373 0.0000
# 6 0.0000 0.0000 0.0000 0.0000 0.0000 27.7305
#
#
#
# Elastic Compliance Matrix: (Units=1/GPa)
#
#
# Indices 1 2 3 4 5 6 
#
# 1 0.010647 -0.005374 -0.002460 0.000000 0.000000 0.000000
# 2 -0.005374 0.012943 -0.007223 0.000000 0.000000 0.000000
# 3 -0.002460 -0.007223 0.043355 0.000000 0.000000 0.000000
# 4 0.000000 0.000000 0.000000 0.065326 0.000000 0.000000
# 5 0.000000 0.000000 0.000000 0.000000 -0.092274 0.000000
# 6 0.000000 0.000000 0.000000 0.000000 0.000000 0.036061
#
#
# Mechanical properties :
#
#
# Convention : Reuss Voigt Hill
#
# Bulk Modulus (GPa) = 27.15183 54.06708 40.60946
# Shear Modulus (GPa) = 42.21152 17.76162 29.98657
#
# Velocity S-wave (km/s) = 4.85620 3.15008 4.09302
# Velocity P-wave (km/s) = 6.82735 6.59066 6.71005
#
# Compressibility (1/GPa) = 0.03682992
#
# Stress axis : x y z
#
# Youngs Moduli (GPa) = 93.92190 77.26152 23.06536
#
# Poissons Ratio (x) = 0.41522 0.05675
# Poissons Ratio (y) = 0.50475 0.16660
# Poissons Ratio (z) = 0.23109 0.55806
#
# Static dielectric constant tensor:
#      x y z
#    x 3.603420 0.000000 0.000000 
#    y 0.000000 3.509440 0.000000 
#    z 0.000000 0.000000 2.822860 
# 
# 
# High freq. dielectric constant tensor:
#      x y z
#    x 1.704250 0.000000 0.000000 
#    y 0.000000 1.700950 0.000000 
#    z 0.000000 0.000000 1.628550 
# 
# From -- ./inp_files/28494.got.cif
#   From: 2010.03.12/outbox.cif.g09.slc.cpg/sg47_15_cif.got.tgz:28494.got - 2010.04.14 03:12:58.
