data_PCOD8194044
_publ_section_title
;
Structure prediction by ZEFSAII (Michael W. Deem and Ramdas Pophale) SiO2 
 PCOD8194044
Probable space group: P M M M
;
_chemical_formula_sum "Si O2"
_cell_formula_units_Z 44
_cell_length_a 13.783513
_cell_length_b 14.828376
_cell_length_c 12.694636
_cell_angle_alpha 90.000000
_cell_angle_beta 90.000000
_cell_angle_gamma 90.000000
_cell_volume 2594.620007
_symmetry_space_group_name_H-M "P M M M"
_symmetry_group_IT_number 47
_symmetry_cell_setting 'orthorhombic'
loop_
_space_group_symop_operation_xyz
x,y,z
-x,-y,z
x,-y,-z
-x,y,-z
-x,-y,-z
x,y,-z
-x,y,z
x,-y,z
loop_
_atom_site_type_symbol
_atom_site_label
_atom_site_fract_x
_atom_site_fract_y
_atom_site_fract_z
Si Si1 0.756414 0.108726 0.000000
Si Si2 0.606380 0.500000 0.624815
Si Si3 0.114584 0.720751 0.000000
Si Si4 0.114317 0.604900 0.201001
Si Si5 0.395244 0.101992 0.832509
Si Si6 0.390892 0.177020 0.615161
Si Si7 0.255396 0.655460 0.620581
O O1 0.693801 0.141168 0.101074
O O2 0.848671 0.175066 0.000000
O O3 0.783925 0.000000 0.000000
O O4 0.500000 0.500000 0.677509
O O5 0.596044 0.500000 0.500000
O O6 0.664339 0.413252 0.663683
O O7 0.150134 0.663979 0.898450
O O8 0.000000 0.728563 0.000000
O O9 0.143628 0.500000 0.184528
O O10 0.161437 0.647142 0.306062
O O11 0.000000 0.613718 0.216334
O O12 0.500000 0.149373 0.857739
O O13 0.374326 0.105170 0.707558
O O14 0.404470 0.000000 0.868502
O O15 0.379510 0.130525 0.500000
O O16 0.500000 0.219830 0.622846
O O17 0.305990 0.248630 0.629569
O O18 0.223963 0.634438 0.500000
#
# Coordination Sequence:
#
# PCOD8194044 Si02
#       7
#     4   4   4   8   8   8   8
#     4  10  19  32  51  73  96 120 148 188 236 282
#     4   9  16  26  41  62  89 120 151 182 215 255
#     4  10  21  36  53  71  91 119 155 193 233 281
#     4  10  20  34  51  70  92 119 155 196 237 280
#     4   9  17  29  46  69  95 122 153 188 228 274
#     4   9  17  28  43  65  94 127 160 191 223 265
#     4  10  18  29  45  68  95 122 153 189 229 272
#
# _framework density 16.958167
#
# number of rings (size 3 to 8) (size 9 to 14) (size 15 to 20)
#    0.000    2.455    0.909    2.182    0.000    5.273 
#    0.000    2.727    0.000    0.000    0.000    0.636 
#    0.000    0.000    0.000   33.818    0.000    0.545 
#
# Total GULP energy -545111.027275 kJ/mol
# GULP energy per Si atom -12388.886984 kJ/mol
# Density = 1.691957 g / cm^3
# Si number density = 16.958167 Si / 1000 Ang^3
#
#
#
# Elastic Constant Matrix: (Units=GPa)
#
#
# Indices 1 2 3 4 5 6 
#
# 1 55.8826 24.3048 41.2343 0.0000 0.0000 0.0000
# 2 24.3048 51.9972 29.7219 0.0000 0.0000 0.0000
# 3 41.2343 29.7219 111.2049 0.0000 0.0000 0.0000
# 4 0.0000 0.0000 0.0000 24.5290 0.0000 0.0000
# 5 0.0000 0.0000 0.0000 0.0000 24.4038 0.0000
# 6 0.0000 0.0000 0.0000 0.0000 0.0000 25.5463
#
#
#
# Elastic Compliance Matrix: (Units=1/GPa)
#
#
# Indices 1 2 3 4 5 6 
#
# 1 0.027332 -0.008242 -0.007932 0.000000 0.000000 0.000000
# 2 -0.008242 0.025185 -0.003675 0.000000 0.000000 0.000000
# 3 -0.007932 -0.003675 0.012916 0.000000 0.000000 0.000000
# 4 0.000000 0.000000 0.000000 0.040768 0.000000 0.000000
# 5 0.000000 0.000000 0.000000 0.000000 0.040977 0.000000
# 6 0.000000 0.000000 0.000000 0.000000 0.000000 0.039145
#
#
# Mechanical properties :
#
#
# Convention : Reuss Voigt Hill
#
# Bulk Modulus (GPa) = 38.85739 45.51186 42.18463
# Shear Modulus (GPa) = 21.31304 23.15075 22.23189
#
# Velocity S-wave (km/s) = 3.54898 3.69883 3.62468
# Velocity P-wave (km/s) = 6.30533 6.71846 6.51517
#
# Compressibility (1/GPa) = 0.02573513
#
# Stress axis : x y z
#
# Youngs Moduli (GPa) = 36.58741 39.70619 77.42491
#
# Poissons Ratio (x) = 0.32725 0.61411
# Poissons Ratio (y) = 0.30154 0.28455
# Poissons Ratio (z) = 0.29020 0.14593
#
# Static dielectric constant tensor:
#      x y z
#    x 3.147240 0.000000 0.000000 
#    y 0.000000 3.008440 0.000000 
#    z 0.000000 0.000000 3.302300 
# 
# 
# High freq. dielectric constant tensor:
#      x y z
#    x 1.643000 0.000000 0.000000 
#    y 0.000000 1.635100 0.000000 
#    z 0.000000 0.000000 1.657740 
# 
# From -- ./inp_files/17452.got.cif
#   From: 2010.03.12/outbox.cif.g09.slc.cpg/sg47_9_cif.got.tgz:17452.got - 2010.04.14 03:12:58.
