data_PCOD8194660
_publ_section_title
;
Structure prediction by ZEFSAII (Michael W. Deem and Ramdas Pophale) SiO2 
 PCOD8194660
Probable space group: P M M M
;
_chemical_formula_sum "Si O2"
_cell_formula_units_Z 64
_cell_length_a 18.846954
_cell_length_b 13.665021
_cell_length_c 14.442802
_cell_angle_alpha 90.000000
_cell_angle_beta 90.000000
_cell_angle_gamma 90.000000
_cell_volume 3719.657319
_symmetry_space_group_name_H-M "P M M M"
_symmetry_group_IT_number 47
_symmetry_cell_setting 'orthorhombic'
loop_
_space_group_symop_operation_xyz
x,y,z
-x,-y,z
x,-y,-z
-x,y,-z
-x,-y,-z
x,y,-z
-x,y,z
x,-y,z
loop_
_atom_site_type_symbol
_atom_site_label
_atom_site_fract_x
_atom_site_fract_y
_atom_site_fract_z
Si Si1 0.802694 0.110641 0.605514
Si Si2 0.421985 0.886119 0.761904
Si Si3 0.304836 0.115552 0.898159
Si Si4 0.917430 0.206592 0.279474
Si Si5 0.579163 0.392705 0.390251
Si Si6 0.658314 0.204811 0.391511
Si Si7 0.856058 0.885757 0.107942
Si Si8 0.916015 0.391174 0.395970
O O1 0.824128 0.131136 0.500000
O O2 0.872584 0.125067 0.666557
O O3 0.739253 0.182484 0.637333
O O4 0.775339 0.000000 0.619384
O O5 0.500000 0.839237 0.778141
O O6 0.363618 0.837143 0.830385
O O7 0.396086 0.869252 0.657292
O O8 0.426855 0.000000 0.781513
O O9 0.225112 0.137686 0.863910
O O10 0.314656 0.000000 0.902808
O O11 0.316710 0.160859 0.000000
O O12 0.903884 0.187840 0.170037
O O13 0.891264 0.312945 0.317927
O O14 0.000000 0.191609 0.301549
O O15 0.577752 0.395673 0.500000
O O16 0.500000 0.364405 0.354555
O O17 0.600703 0.500000 0.351680
O O18 0.637724 0.314194 0.357456
O O19 0.647311 0.188878 0.500000
O O20 0.874234 0.000000 0.127257
O O21 0.870088 0.862120 0.000000
O O22 0.888897 0.361806 0.500000
O O23 0.886823 0.500000 0.370323
O O24 0.000000 0.394807 0.397775
#
# Coordination Sequence:
#
# PCOD8194660 Si02
#       8
#     8   8   8   8   8   8   8   8
#     4  10  21  34  46  63  90 126 166 203 239 285
#     4  10  19  27  39  64  93 119 151 189 223 262
#     4   8  15  30  49  64  83 116 153 188 229 274
#     4  11  21  32  50  73  95 121 156 203 259 308
#     4   8  14  26  45  67  89 115 150 193 237 273
#     4  10  19  31  45  60  87 128 163 188 223 277
#     4   9  18  32  49  69  94 126 162 197 239 299
#     4   8  15  30  51  72  94 121 153 190 236 294
#
# _framework density 17.205886
#
# number of rings (size 3 to 8) (size 9 to 14) (size 15 to 20)
#    0.000    2.750    0.000    3.750    0.000    4.750 
#    0.000    3.750    0.000    2.625    0.000    1.750 
#    0.000    1.500    0.000    2.625    0.000    0.250 
#
# Total GULP energy -793066.391557 kJ/mol
# GULP energy per Si atom -12391.662368 kJ/mol
# Density = 1.716672 g / cm^3
# Si number density = 17.205886 Si / 1000 Ang^3
#
#
#
# Elastic Constant Matrix: (Units=GPa)
#
#
# Indices 1 2 3 4 5 6 
#
# 1 94.5793 40.1469 37.4599 0.0000 0.0000 0.0000
# 2 40.1469 71.7995 43.1564 0.0000 0.0000 0.0000
# 3 37.4599 43.1564 73.6835 0.0000 0.0000 0.0000
# 4 0.0000 0.0000 0.0000 18.3337 0.0000 0.0000
# 5 0.0000 0.0000 0.0000 0.0000 23.0880 0.0000
# 6 0.0000 0.0000 0.0000 0.0000 0.0000 21.9886
#
#
#
# Elastic Compliance Matrix: (Units=1/GPa)
#
#
# Indices 1 2 3 4 5 6 
#
# 1 0.014618 -0.005721 -0.004081 0.000000 0.000000 0.000000
# 2 -0.005721 0.023734 -0.010992 0.000000 0.000000 0.000000
# 3 -0.004081 -0.010992 0.022085 0.000000 0.000000 0.000000
# 4 0.000000 0.000000 0.000000 0.054544 0.000000 0.000000
# 5 0.000000 0.000000 0.000000 0.000000 0.043313 0.000000
# 6 0.000000 0.000000 0.000000 0.000000 0.000000 0.045478
#
#
# Mechanical properties :
#
#
# Convention : Reuss Voigt Hill
#
# Bulk Modulus (GPa) = 53.05648 53.50987 53.28317
# Shear Modulus (GPa) = 19.86953 20.63533 20.25243
#
# Velocity S-wave (km/s) = 3.40194 3.46687 3.43456
# Velocity P-wave (km/s) = 6.80691 6.86971 6.83838
#
# Compressibility (1/GPa) = 0.01884784
#
# Stress axis : x y z
#
# Youngs Moduli (GPa) = 68.40993 42.13433 45.28055
#
# Poissons Ratio (x) = 0.24104 0.18479
# Poissons Ratio (y) = 0.39135 0.49774
# Poissons Ratio (z) = 0.27918 0.46316
#
# Static dielectric constant tensor:
#      x y z
#    x 3.284480 0.000000 0.000000 
#    y 0.000000 3.256070 0.000000 
#    z 0.000000 0.000000 3.236400 
# 
# 
# High freq. dielectric constant tensor:
#      x y z
#    x 1.660840 0.000000 0.000000 
#    y 0.000000 1.632300 0.000000 
#    z 0.000000 0.000000 1.647890 
# 
# From -- ./inp_files/24778.got.cif
#   From: 2010.03.12/outbox.cif.g09.slc.cpg/sg47_13_cif.got.tgz:24778.got - 2010.04.14 03:12:58.
