data_PCOD8194818
_publ_section_title
;
Structure prediction by ZEFSAII (Michael W. Deem and Ramdas Pophale) SiO2 
 PCOD8194818
Probable space group: P M M M
;
_chemical_formula_sum "Si O2"
_cell_formula_units_Z 56
_cell_length_a 28.822474
_cell_length_b 13.693978
_cell_length_c 9.075526
_cell_angle_alpha 90.000000
_cell_angle_beta 90.000000
_cell_angle_gamma 90.000000
_cell_volume 3582.058607
_symmetry_space_group_name_H-M "P M M M"
_symmetry_group_IT_number 47
_symmetry_cell_setting 'orthorhombic'
loop_
_space_group_symop_operation_xyz
x,y,z
-x,-y,z
x,-y,-z
-x,y,-z
-x,-y,-z
x,y,-z
-x,y,z
x,-y,z
loop_
_atom_site_type_symbol
_atom_site_label
_atom_site_fract_x
_atom_site_fract_y
_atom_site_fract_z
Si Si1 0.770892 0.888317 0.827280
Si Si2 0.550992 0.384223 0.335048
Si Si3 0.191582 0.610023 0.830913
Si Si4 0.273755 0.712498 0.325133
Si Si5 0.641193 0.614923 0.829209
Si Si6 0.133795 0.792515 0.168727
Si Si7 0.051894 0.109626 0.673891
O O1 0.735412 0.820984 0.737229
O O2 0.823637 0.861979 0.782659
O O3 0.760834 0.000000 0.785258
O O4 0.763682 0.867903 0.000000
O O5 0.562490 0.346131 0.500000
O O6 0.500000 0.345137 0.285420
O O7 0.549863 0.500000 0.336518
O O8 0.590197 0.348704 0.221081
O O9 0.175628 0.500000 0.796661
O O10 0.234307 0.637585 0.727317
O O11 0.147781 0.680072 0.801301
O O12 0.208452 0.622194 0.000000
O O13 0.274447 0.716247 0.500000
O O14 0.322685 0.675141 0.266989
O O15 0.648169 0.500000 0.799262
O O16 0.647785 0.640110 0.000000
O O17 0.088266 0.814132 0.261839
O O18 0.121108 0.811384 0.000000
O O19 0.055434 0.113370 0.500000
O O20 0.000000 0.139277 0.724739
O O21 0.063198 0.000000 0.729885
#
# Coordination Sequence:
#
# PCOD8194818 Si02
#       7
#     8   8   8   8   8   8   8
#     4   9  18  33  50  66  88 117 145 175 214 261
#     4   8  14  25  40  58  82 112 145 182 224 266
#     4   9  18  33  49  63  85 117 149 181 217 257
#     4  11  21  30  43  65  91 116 146 184 221 259
#     4  10  19  29  42  60  85 119 155 188 221 259
#     4   9  17  29  47  70  89 108 140 178 214 252
#     4   9  18  31  45  63  89 118 143 169 208 258
#
# _framework density 15.633469
#
# number of rings (size 3 to 8) (size 9 to 14) (size 15 to 20)
#    0.000    2.714    0.000    4.286    0.000    6.857 
#    0.000    2.143    0.000    0.429    0.000    3.000 
#    0.000    0.571    0.000    6.000    0.000    2.857 
#
# Total GULP energy -694272.511598 kJ/mol
# GULP energy per Si atom -12397.723421 kJ/mol
# Density = 1.559789 g / cm^3
# Si number density = 15.633469 Si / 1000 Ang^3
#
#
#
# Elastic Constant Matrix: (Units=GPa)
#
#
# Indices 1 2 3 4 5 6 
#
# 1 112.6576 51.9868 54.8680 0.0000 0.0000 0.0000
# 2 51.9868 96.1550 43.6276 0.0000 0.0000 0.0000
# 3 54.8680 43.6276 80.8053 0.0000 0.0000 0.0000
# 4 0.0000 0.0000 0.0000 18.2704 0.0000 0.0000
# 5 0.0000 0.0000 0.0000 0.0000 30.7929 0.0000
# 6 0.0000 0.0000 0.0000 0.0000 0.0000 18.7520
#
#
#
# Elastic Compliance Matrix: (Units=1/GPa)
#
#
# Indices 1 2 3 4 5 6 
#
# 1 0.014596 -0.004496 -0.007483 0.000000 0.000000 0.000000
# 2 -0.004496 0.015159 -0.005132 0.000000 0.000000 0.000000
# 3 -0.007483 -0.005132 0.020227 0.000000 0.000000 0.000000
# 4 0.000000 0.000000 0.000000 0.054733 0.000000 0.000000
# 5 0.000000 0.000000 0.000000 0.000000 0.032475 0.000000
# 6 0.000000 0.000000 0.000000 0.000000 0.000000 0.053328
#
#
# Mechanical properties :
#
#
# Convention : Reuss Voigt Hill
#
# Bulk Modulus (GPa) = 63.45096 65.62030 64.53563
# Shear Modulus (GPa) = 21.73975 22.83876 22.28926
#
# Velocity S-wave (km/s) = 3.73311 3.82630 3.77999
# Velocity P-wave (km/s) = 7.69780 7.84769 7.77311
#
# Compressibility (1/GPa) = 0.01576020
#
# Stress axis : x y z
#
# Youngs Moduli (GPa) = 68.51294 65.96743 49.43797
#
# Poissons Ratio (x) = 0.29659 0.36996
# Poissons Ratio (y) = 0.30803 0.25370
# Poissons Ratio (z) = 0.51271 0.33852
#
# Static dielectric constant tensor:
#      x y z
#    x 3.049330 0.000000 0.000000 
#    y 0.000000 2.897070 0.000000 
#    z 0.000000 0.000000 2.957950 
# 
# 
# High freq. dielectric constant tensor:
#      x y z
#    x 1.594410 0.000000 0.000000 
#    y 0.000000 1.572100 0.000000 
#    z 0.000000 0.000000 1.600860 
# 
# From -- ./inp_files/8157.got.cif
#   From: 2010.03.12/outbox.cif.g09.slc.cpg/sg47_5_cif.got.tgz:8157.got - 2010.04.14 03:12:58.
