data_PCOD8194294
_publ_section_title
;
Structure prediction by ZEFSAII (Michael W. Deem and Ramdas Pophale) SiO2 
 PCOD8194294
Probable space group: P M M M
;
_chemical_formula_sum "Si O2"
_cell_formula_units_Z 52
_cell_length_a 12.641012
_cell_length_b 8.982230
_cell_length_c 27.573092
_cell_angle_alpha 90.000000
_cell_angle_beta 90.000000
_cell_angle_gamma 90.000000
_cell_volume 3130.772316
_symmetry_space_group_name_H-M "P M M M"
_symmetry_group_IT_number 47
_symmetry_cell_setting 'orthorhombic'
loop_
_space_group_symop_operation_xyz
x,y,z
-x,-y,z
x,-y,-z
-x,y,-z
-x,-y,-z
x,y,-z
-x,y,z
x,-y,z
loop_
_atom_site_type_symbol
_atom_site_label
_atom_site_fract_x
_atom_site_fract_y
_atom_site_fract_z
Si Si1 0.000000 0.324652 0.765014
Si Si2 0.214147 0.174449 0.762131
Si Si3 0.000000 0.831562 0.863443
Si Si4 0.617624 0.324322 0.053608
Si Si5 0.376260 0.325862 0.693097
Si Si6 0.625702 0.167727 0.404637
Si Si7 0.227915 0.833120 0.124196
Si Si8 0.626268 0.668309 0.500000
O O1 0.893875 0.250923 0.742566
O O2 0.000000 0.293160 0.822231
O O3 0.000000 0.500000 0.754563
O O4 0.314772 0.246204 0.736300
O O5 0.229833 0.206255 0.819065
O O6 0.208801 0.000000 0.750746
O O7 0.106661 0.813807 0.895135
O O8 0.000000 0.000000 0.839654
O O9 0.500000 0.264372 0.065975
O O10 0.616467 0.500000 0.053241
O O11 0.698052 0.275427 0.094686
O O12 0.651424 0.265886 0.000000
O O13 0.500000 0.293833 0.701177
O O14 0.351317 0.500000 0.693129
O O15 0.336136 0.258728 0.642228
O O16 0.500000 0.165410 0.406986
O O17 0.670791 0.247965 0.452562
O O18 0.670678 0.000000 0.402112
O O19 0.268642 0.000000 0.115237
O O20 0.669355 0.500000 0.500000
O O21 0.500000 0.668815 0.500000
#
# Coordination Sequence:
#
# PCOD8194294 Si02
#       8
#     4   8   4   8   8   8   8   4
#     4  10  18  30  50  73  93 117 155 197 234 271
#     4  10  20  34  50  69  96 127 157 190 232 283
#     4   8  16  32  49  69  98 123 143 177 228 277
#     4   9  19  35  51  67  91 122 153 188 230 271
#     4  10  20  32  45  65  95 128 161 197 237 280
#     4   9  16  26  40  58  83 118 157 194 235 283
#     4   9  18  32  51  72  92 117 150 186 224 271
#     4   9  15  23  37  57  81 112 153 198 237 275
#
# _framework density 16.60932
#
# number of rings (size 3 to 8) (size 9 to 14) (size 15 to 20)
#    0.000    2.692    0.000    3.692    0.000    8.000 
#    0.000    4.231    0.000    2.308    0.000    0.000 
#    0.000    0.615    0.000    6.154    0.000    5.538 
#
# Total GULP energy -644586.996907 kJ/mol
# GULP energy per Si atom -12395.903787 kJ/mol
# Density = 1.657152 g / cm^3
# Si number density = 16.609320 Si / 1000 Ang^3
#
#
#
# Elastic Constant Matrix: (Units=GPa)
#
#
# Indices 1 2 3 4 5 6 
#
# 1 81.0479 47.6886 51.7355 0.0000 0.0000 0.0000
# 2 47.6886 111.6767 47.9058 0.0000 0.0000 0.0000
# 3 51.7355 47.9058 79.9491 0.0000 0.0000 0.0000
# 4 0.0000 0.0000 0.0000 30.1423 0.0000 0.0000
# 5 0.0000 0.0000 0.0000 0.0000 0.2951 0.0000
# 6 0.0000 0.0000 0.0000 0.0000 0.0000 26.3287
#
#
#
# Elastic Compliance Matrix: (Units=1/GPa)
#
#
# Indices 1 2 3 4 5 6 
#
# 1 0.022618 -0.004549 -0.011910 0.000000 0.000000 0.000000
# 2 -0.004549 0.012967 -0.004826 0.000000 0.000000 0.000000
# 3 -0.011910 -0.004826 0.023107 0.000000 0.000000 0.000000
# 4 0.000000 0.000000 0.000000 0.033176 0.000000 0.000000
# 5 0.000000 0.000000 0.000000 0.000000 3.388591 0.000000
# 6 0.000000 0.000000 0.000000 0.000000 0.000000 0.037981
#
#
# Mechanical properties :
#
#
# Convention : Reuss Voigt Hill
#
# Bulk Modulus (GPa) = 62.03156 63.03705 62.53431
# Shear Modulus (GPa) = 1.40198 19.70947 10.55573
#
# Velocity S-wave (km/s) = 0.91974 3.44852 2.52371
# Velocity P-wave (km/s) = 6.20938 7.34109 6.79882
#
# Compressibility (1/GPa) = 0.01612083
#
# Stress axis : x y z
#
# Youngs Moduli (GPa) = 44.21298 77.11671 43.27686
#
# Poissons Ratio (x) = 0.35082 0.51544
# Poissons Ratio (y) = 0.20113 0.20887
# Poissons Ratio (z) = 0.52658 0.37219
#
# Static dielectric constant tensor:
#      x y z
#    x 3.053350 0.000000 0.000000 
#    y 0.000000 3.180740 0.000000 
#    z 0.000000 0.000000 3.022740 
# 
# 
# High freq. dielectric constant tensor:
#      x y z
#    x 1.613630 0.000000 0.000000 
#    y 0.000000 1.651130 0.000000 
#    z 0.000000 0.000000 1.622450 
# 
# From -- ./inp_files/33675.got.cif
#   From: 2010.03.12/outbox.cif.g09.slc.cpg/sg47_17_cif.got.tgz:33675.got - 2010.04.14 03:12:58.
