data_PCOD8194095
_publ_section_title
;
Structure prediction by ZEFSAII (Michael W. Deem and Ramdas Pophale) SiO2 
 PCOD8194095
Probable space group: P M M M
;
_chemical_formula_sum "Si O2"
_cell_formula_units_Z 52
_cell_length_a 25.963671
_cell_length_b 12.761017
_cell_length_c 9.416811
_cell_angle_alpha 90.000000
_cell_angle_beta 90.000000
_cell_angle_gamma 90.000000
_cell_volume 3120.004630
_symmetry_space_group_name_H-M "P M M M"
_symmetry_group_IT_number 47
_symmetry_cell_setting 'orthorhombic'
loop_
_space_group_symop_operation_xyz
x,y,z
-x,-y,z
x,-y,-z
-x,y,-z
-x,-y,-z
x,y,-z
-x,y,z
x,-y,z
loop_
_atom_site_type_symbol
_atom_site_label
_atom_site_fract_x
_atom_site_fract_y
_atom_site_fract_z
Si Si1 0.175470 0.000000 0.333362
Si Si2 0.718969 0.000000 0.165623
Si Si3 0.000000 0.883029 0.331603
Si Si4 0.558412 0.879576 0.335728
Si Si5 0.108660 0.201310 0.667399
Si Si6 0.650708 0.198367 0.167191
Si Si7 0.836371 0.378698 0.165010
Si Si8 0.720523 0.384809 0.168806
O O1 0.228865 0.000000 0.252046
O O2 0.143811 0.102848 0.288230
O O3 0.186683 0.000000 0.500000
O O4 0.685794 0.899656 0.209054
O O5 0.732928 0.000000 0.000000
O O6 0.949406 0.821283 0.280801
O O7 0.000000 0.893550 0.500000
O O8 0.000000 0.000000 0.265917
O O9 0.572878 0.866695 0.500000
O O10 0.500000 0.842480 0.307917
O O11 0.595620 0.807285 0.242827
O O12 0.564811 0.000000 0.288551
O O13 0.111379 0.220586 0.500000
O O14 0.125777 0.306752 0.744964
O O15 0.679643 0.301097 0.226797
O O16 0.640831 0.203751 0.000000
O O17 0.850891 0.500000 0.190465
O O18 0.778190 0.356687 0.219348
O O19 0.841881 0.349468 0.000000
O O20 0.704637 0.500000 0.225446
O O21 0.720824 0.384422 0.000000
#
# Coordination Sequence:
#
# PCOD8194095 Si02
#       8
#     4   4   4   8   8   8   8   8
#     4  10  20  31  46  71  99 126 160 196 238 291
#     4  10  20  30  42  68 101 129 152 187 242 293
#     4   9  16  32  54  71  94 130 167 200 241 294
#     4   9  18  32  48  66  92 128 162 190 231 287
#     4  10  19  32  52  75  96 124 163 206 245 284
#     4  10  18  29  47  71  96 120 154 199 238 272
#     4   9  18  34  54  73  97 132 166 196 240 295
#     4   8  15  29  49  70  93 126 163 192 227 282
#
# _framework density 16.666640999999998
#
# number of rings (size 3 to 8) (size 9 to 14) (size 15 to 20)
#    0.000    2.692    1.538    2.308    0.000    3.077 
#    0.000    2.308    0.000    4.615    0.000    3.231 
#    0.000    0.000    0.000    0.000    0.000    0.000 
#
# Total GULP energy -644747.613512 kJ/mol
# GULP energy per Si atom -12398.992568 kJ/mol
# Density = 1.662871 g / cm^3
# Si number density = 16.666641 Si / 1000 Ang^3
#
#
#
# Elastic Constant Matrix: (Units=GPa)
#
#
# Indices 1 2 3 4 5 6 
#
# 1 136.2531 73.6756 45.2768 0.0000 0.0000 0.0000
# 2 73.6756 117.5532 37.6149 0.0000 0.0000 0.0000
# 3 45.2768 37.6149 36.7765 0.0000 0.0000 0.0000
# 4 0.0000 0.0000 0.0000 21.1041 0.0000 0.0000
# 5 0.0000 0.0000 0.0000 0.0000 26.2242 0.0000
# 6 0.0000 0.0000 0.0000 0.0000 0.0000 24.5317
#
#
#
# Elastic Compliance Matrix: (Units=1/GPa)
#
#
# Indices 1 2 3 4 5 6 
#
# 1 0.014076 -0.004871 -0.012348 0.000000 0.000000 0.000000
# 2 -0.004871 0.014331 -0.008661 0.000000 0.000000 0.000000
# 3 -0.012348 -0.008661 0.051251 0.000000 0.000000 0.000000
# 4 0.000000 0.000000 0.000000 0.047384 0.000000 0.000000
# 5 0.000000 0.000000 0.000000 0.000000 0.038133 0.000000
# 6 0.000000 0.000000 0.000000 0.000000 0.000000 0.040764
#
#
# Mechanical properties :
#
#
# Convention : Reuss Voigt Hill
#
# Bulk Modulus (GPa) = 35.84304 67.07970 51.46137
# Shear Modulus (GPa) = 18.72677 23.30637 21.01657
#
# Velocity S-wave (km/s) = 3.35566 3.74355 3.55490
# Velocity P-wave (km/s) = 6.04702 7.68250 6.91330
#
# Compressibility (1/GPa) = 0.02789942
#
# Stress axis : x y z
#
# Youngs Moduli (GPa) = 71.04086 69.77868 19.51186
#
# Poissons Ratio (x) = 0.33991 0.24093
# Poissons Ratio (y) = 0.34606 0.16898
# Poissons Ratio (z) = 0.87719 0.60432
#
# Static dielectric constant tensor:
#      x y z
#    x 3.174440 0.000000 0.000000 
#    y 0.000000 3.243770 0.000000 
#    z 0.000000 0.000000 2.825040 
# 
# 
# High freq. dielectric constant tensor:
#      x y z
#    x 1.644540 0.000000 0.000000 
#    y 0.000000 1.638650 0.000000 
#    z 0.000000 0.000000 1.615220 
# 
# From -- ./inp_files/13300.got.cif
#   From: 2010.03.12/outbox.cif.g09.slc.cpg/sg47_7_cif.got.tgz:13300.got - 2010.04.14 03:12:58.
