data_PCOD8194750
_publ_section_title
;
Structure prediction by ZEFSAII (Michael W. Deem and Ramdas Pophale) SiO2 
 PCOD8194750
Probable space group: P M M M
;
_chemical_formula_sum "Si O2"
_cell_formula_units_Z 52
_cell_length_a 25.964058
_cell_length_b 9.436670
_cell_length_c 14.199530
_cell_angle_alpha 90.000000
_cell_angle_beta 90.000000
_cell_angle_gamma 90.000000
_cell_volume 3479.087154
_symmetry_space_group_name_H-M "P M M M"
_symmetry_group_IT_number 47
_symmetry_cell_setting 'orthorhombic'
loop_
_space_group_symop_operation_xyz
x,y,z
-x,-y,z
x,-y,-z
-x,y,-z
-x,-y,-z
x,y,-z
-x,y,z
x,-y,z
loop_
_atom_site_type_symbol
_atom_site_label
_atom_site_fract_x
_atom_site_fract_y
_atom_site_fract_z
Si Si1 0.888311 0.667366 0.609756
Si Si2 0.557066 0.159034 0.112002
Si Si3 0.848705 0.166926 0.228245
Si Si4 0.000000 0.334223 0.391739
Si Si5 0.651071 0.340602 0.887864
Si Si6 0.749011 0.163961 0.108730
Si Si7 0.943195 0.168221 0.105694
O O1 0.879871 0.704060 0.500000
O O2 0.882105 0.500000 0.625771
O O3 0.846589 0.752371 0.671570
O O4 0.945076 0.722845 0.646894
O O5 0.500000 0.208851 0.144704
O O6 0.600020 0.264833 0.153804
O O7 0.568064 0.000000 0.148909
O O8 0.559882 0.159237 0.000000
O O9 0.798129 0.206765 0.169978
O O10 0.897937 0.227760 0.171304
O O11 0.852513 0.000000 0.246356
O O12 0.000000 0.500000 0.377018
O O13 0.000000 0.294978 0.500000
O O14 0.653243 0.500000 0.847991
O O15 0.701343 0.256180 0.853713
O O16 0.648869 0.340493 0.000000
O O17 0.734226 0.000000 0.121486
O O18 0.761959 0.197097 0.000000
O O19 0.000000 0.214858 0.143676
O O20 0.939428 0.000000 0.102653
O O21 0.935432 0.227722 0.000000
#
# Coordination Sequence:
#
# PCOD8194750 Si02
#       7
#     8   8   8   4   8   8   8
#     4   9  18  32  47  61  79 104 129 152 188 243
#     4   8  13  21  33  49  70  98 131 164 200 242
#     4  10  19  28  43  65  82  98 128 167 203 236
#     4   7  12  26  45  59  72  95 124 146 171 223
#     4   9  16  24  35  52  73  98 131 171 208 235
#     4   9  17  29  42  55  76 106 137 167 200 242
#     4   8  14  25  40  58  81 105 126 153 194 242
#
# _framework density 14.94645
#
# number of rings (size 3 to 8) (size 9 to 14) (size 15 to 20)
#    0.000    3.308    0.000    2.769    1.077    4.923 
#    0.000    1.538    0.000    2.769    0.000    1.077 
#    0.000    0.000    0.000    0.000    0.000    0.769 
#
# Total GULP energy -644301.397443 kJ/mol
# GULP energy per Si atom -12390.411489 kJ/mol
# Density = 1.491243 g / cm^3
# Si number density = 14.946450 Si / 1000 Ang^3
#
#
#
# Elastic Constant Matrix: (Units=GPa)
#
#
# Indices 1 2 3 4 5 6 
#
# 1 128.3262 61.5342 44.1357 0.0000 0.0000 0.0000
# 2 61.5342 63.6664 29.5962 0.0000 0.0000 0.0000
# 3 44.1357 29.5962 46.4029 0.0000 0.0000 0.0000
# 4 0.0000 0.0000 0.0000 14.4180 0.0000 0.0000
# 5 0.0000 0.0000 0.0000 0.0000 5.9872 0.0000
# 6 0.0000 0.0000 0.0000 0.0000 0.0000 18.9905
#
#
#
# Elastic Compliance Matrix: (Units=1/GPa)
#
#
# Indices 1 2 3 4 5 6 
#
# 1 0.016270 -0.012127 -0.007740 0.000000 0.000000 0.000000
# 2 -0.012127 0.031365 -0.008471 0.000000 0.000000 0.000000
# 3 -0.007740 -0.008471 0.034315 0.000000 0.000000 0.000000
# 4 0.000000 0.000000 0.000000 0.069358 0.000000 0.000000
# 5 0.000000 0.000000 0.000000 0.000000 0.167024 0.000000
# 6 0.000000 0.000000 0.000000 0.000000 0.000000 0.052658
#
#
# Mechanical properties :
#
#
# Convention : Reuss Voigt Hill
#
# Bulk Modulus (GPa) = 39.56542 56.54750 48.05646
# Shear Modulus (GPa) = 11.46553 14.75443 13.10998
#
# Velocity S-wave (km/s) = 2.77267 3.14531 2.96485
# Velocity P-wave (km/s) = 6.06459 7.14886 6.62893
#
# Compressibility (1/GPa) = 0.02527460
#
# Stress axis : x y z
#
# Youngs Moduli (GPa) = 61.46405 31.88248 29.14155
#
# Poissons Ratio (x) = 0.38663 0.22556
# Poissons Ratio (y) = 0.74535 0.24685
# Poissons Ratio (z) = 0.47575 0.27007
#
# Static dielectric constant tensor:
#      x y z
#    x 3.054800 0.000000 0.000000 
#    y 0.000000 2.751340 0.000000 
#    z 0.000000 0.000000 2.506770 
# 
# 
# High freq. dielectric constant tensor:
#      x y z
#    x 1.572180 0.000000 0.000000 
#    y 0.000000 1.557050 0.000000 
#    z 0.000000 0.000000 1.519150 
# 
# From -- ./inp_files/25708.got.cif
#   From: 2010.03.12/outbox.cif.g09.slc.cpg/sg47_13_cif.got.tgz:25708.got - 2010.04.14 03:12:58.
