data_PCOD8194117
_publ_section_title
;
Structure prediction by ZEFSAII (Michael W. Deem and Ramdas Pophale) SiO2 
 PCOD8194117
Probable space group: P M M M
;
_chemical_formula_sum "Si O2"
_cell_formula_units_Z 56
_cell_length_a 16.067207
_cell_length_b 19.431808
_cell_length_c 9.521871
_cell_angle_alpha 90.000000
_cell_angle_beta 90.000000
_cell_angle_gamma 90.000000
_cell_volume 2972.869826
_symmetry_space_group_name_H-M "P M M M"
_symmetry_group_IT_number 47
_symmetry_cell_setting 'orthorhombic'
loop_
_space_group_symop_operation_xyz
x,y,z
-x,-y,z
x,-y,-z
-x,y,-z
-x,-y,-z
x,y,-z
-x,y,z
x,-y,z
loop_
_atom_site_type_symbol
_atom_site_label
_atom_site_fract_x
_atom_site_fract_y
_atom_site_fract_z
Si Si1 0.258177 0.081073 0.662691
Si Si2 0.173239 0.288141 0.338700
Si Si3 0.326881 0.712738 0.160685
Si Si4 0.092964 0.574844 0.333471
Si Si5 0.593965 0.146889 0.161056
Si Si6 0.090801 0.850246 0.338135
Si Si7 0.593006 0.425065 0.166517
O O1 0.267013 0.103687 0.500000
O O2 0.338792 0.108410 0.743928
O O3 0.171255 0.110991 0.727978
O O4 0.254898 0.000000 0.679934
O O5 0.200571 0.295873 0.500000
O O6 0.250321 0.259614 0.251037
O O7 0.146123 0.361794 0.272799
O O8 0.100129 0.232259 0.322710
O O9 0.398298 0.770278 0.174009
O O10 0.355376 0.639366 0.226747
O O11 0.298559 0.703516 0.000000
O O12 0.088587 0.582494 0.500000
O O13 0.131681 0.500000 0.291833
O O14 0.000000 0.579598 0.271687
O O15 0.500000 0.127133 0.208473
O O16 0.608992 0.124308 0.000000
O O17 0.087869 0.871978 0.500000
O O18 0.000000 0.870094 0.270357
O O19 0.500000 0.420867 0.228151
O O20 0.632003 0.500000 0.208389
O O21 0.588832 0.417759 0.000000
#
# Coordination Sequence:
#
# PCOD8194117 Si02
#       7
#     8   8   8   8   8   8   8
#     4  10  21  37  57  83 112 137 166 210 263 315
#     4  10  18  29  48  72  99 131 169 210 253 302
#     4  10  19  31  49  73 101 131 168 214 259 301
#     4   8  14  25  42  66  95 127 167 213 254 295
#     4  10  21  37  57  79 105 141 181 216 254 306
#     4   9  17  31  53  79 105 135 172 211 251 300
#     4   8  14  26  45  68  93 124 166 213 255 297
#
# _framework density 18.837015999999998
#
# number of rings (size 3 to 8) (size 9 to 14) (size 15 to 20)
#    0.000    2.714    1.429    1.714    0.000    5.143 
#    0.000    2.857    0.000    4.286    0.000    3.000 
#    0.000    0.000    0.000    0.000    0.000    0.000 
#
# Total GULP energy -693877.740361 kJ/mol
# GULP energy per Si atom -12390.673935 kJ/mol
# Density = 1.879414 g / cm^3
# Si number density = 18.837016 Si / 1000 Ang^3
#
#
#
# Elastic Constant Matrix: (Units=GPa)
#
#
# Indices 1 2 3 4 5 6 
#
# 1 141.4945 51.0504 40.2273 0.0000 0.0000 0.0000
# 2 51.0504 99.0006 26.2053 0.0000 0.0000 0.0000
# 3 40.2273 26.2053 36.3559 0.0000 0.0000 0.0000
# 4 0.0000 0.0000 0.0000 18.2883 0.0000 0.0000
# 5 0.0000 0.0000 0.0000 0.0000 -24.1991 0.0000
# 6 0.0000 0.0000 0.0000 0.0000 0.0000 27.2203
#
#
#
# Elastic Compliance Matrix: (Units=1/GPa)
#
#
# Indices 1 2 3 4 5 6 
#
# 1 0.011000 -0.003028 -0.009988 0.000000 0.000000 0.000000
# 2 -0.003028 0.013316 -0.006248 0.000000 0.000000 0.000000
# 3 -0.009988 -0.006248 0.043061 0.000000 0.000000 0.000000
# 4 0.000000 0.000000 0.000000 0.054680 0.000000 0.000000
# 5 0.000000 0.000000 0.000000 0.000000 -0.041324 0.000000
# 6 0.000000 0.000000 0.000000 0.000000 0.000000 0.036737
#
#
# Mechanical properties :
#
#
# Convention : Reuss Voigt Hill
#
# Bulk Modulus (GPa) = 34.66362 56.86855 45.76609
# Shear Modulus (GPa) = 30.19054 14.88641 22.53848
#
# Velocity S-wave (km/s) = 4.00775 2.81423 3.46280
# Velocity P-wave (km/s) = 6.31331 6.38868 6.35110
#
# Compressibility (1/GPa) = 0.02884869
#
# Stress axis : x y z
#
# Youngs Moduli (GPa) = 90.91195 75.09652 23.22284
#
# Poissons Ratio (x) = 0.22741 0.23196
# Poissons Ratio (y) = 0.27530 0.14509
# Poissons Ratio (z) = 0.90805 0.46918
#
# Static dielectric constant tensor:
#      x y z
#    x 3.508370 0.000000 0.000000 
#    y 0.000000 3.675930 0.000000 
#    z 0.000000 0.000000 2.937800 
# 
# 
# High freq. dielectric constant tensor:
#      x y z
#    x 1.730100 0.000000 0.000000 
#    y 0.000000 1.746560 0.000000 
#    z 0.000000 0.000000 1.670030 
# 
# From -- ./inp_files/7323.got.cif
#   From: 2010.03.12/outbox.cif.g09.slc.cpg/sg47_4_cif.got.tgz:7323.got - 2010.04.14 03:12:58.
