data_PCOD8194760
_publ_section_title
;
Structure prediction by ZEFSAII (Michael W. Deem and Ramdas Pophale) SiO2 
 PCOD8194760
Probable space group: P M M M
;
_chemical_formula_sum "Si O2"
_cell_formula_units_Z 40
_cell_length_a 22.385360
_cell_length_b 8.934661
_cell_length_c 12.924011
_cell_angle_alpha 90.000000
_cell_angle_beta 90.000000
_cell_angle_gamma 90.000000
_cell_volume 2584.874613
_symmetry_space_group_name_H-M "P M M M"
_symmetry_group_IT_number 47
_symmetry_cell_setting 'orthorhombic'
loop_
_space_group_symop_operation_xyz
x,y,z
-x,-y,z
x,-y,-z
-x,y,-z
-x,-y,-z
x,y,-z
-x,y,z
x,-y,z
loop_
_atom_site_type_symbol
_atom_site_label
_atom_site_fract_x
_atom_site_fract_y
_atom_site_fract_z
Si Si1 0.500000 0.322009 0.886486
Si Si2 0.627712 0.667814 0.123507
Si Si3 0.862533 0.677677 0.188644
Si Si4 0.066788 0.322371 0.385923
Si Si5 0.745629 0.827452 0.878284
Si Si6 0.070441 0.826380 0.000000
O O1 0.500000 0.500000 0.897618
O O2 0.562891 0.276143 0.830713
O O3 0.500000 0.247385 0.000000
O O4 0.642357 0.500000 0.162418
O O5 0.680245 0.777167 0.161209
O O6 0.622730 0.668525 0.000000
O O7 0.865690 0.500000 0.176982
O O8 0.887717 0.735699 0.298729
O O9 0.794384 0.730426 0.181813
O O10 0.902805 0.750290 0.100768
O O11 0.087485 0.266084 0.500000
O O12 0.065450 0.500000 0.384514
O O13 0.000000 0.261843 0.362109
O O14 0.754583 0.000000 0.850938
O O15 0.753070 0.796774 0.000000
O O16 0.000000 0.802672 0.000000
O O17 0.088840 0.000000 0.000000
#
# Coordination Sequence:
#
# PCOD8194760 Si02
#       6
#     4   8   8   8   8   4
#     4   7  10  18  33  53  73  97 132 179 220 243
#     4   8  13  22  37  54  74 102 141 180 212 248
#     4  11  20  30  48  68  85 110 146 179 209 255
#     4   8  15  29  48  69  89 105 128 172 225 265
#     4  10  19  29  39  54  83 118 146 175 215 253
#     4  11  23  35  45  61  89 118 139 170 217 257
#
# _framework density 15.474638000000001
#
# number of rings (size 3 to 8) (size 9 to 14) (size 15 to 20)
#    0.000    2.800    1.000    3.900    0.000    2.400 
#    0.000    0.500    0.000    5.400    0.000    7.000 
#    0.000    0.000    0.000    0.900    0.000   20.700 
#
# Total GULP energy -495644.667498 kJ/mol
# GULP energy per Si atom -12391.116687 kJ/mol
# Density = 1.543942 g / cm^3
# Si number density = 15.474638 Si / 1000 Ang^3
#
#
#
# Elastic Constant Matrix: (Units=GPa)
#
#
# Indices 1 2 3 4 5 6 
#
# 1 138.4343 45.4022 53.7631 0.0000 0.0000 0.0000
# 2 45.4022 58.2885 28.2717 0.0000 0.0000 0.0000
# 3 53.7631 28.2717 75.2898 0.0000 0.0000 0.0000
# 4 0.0000 0.0000 0.0000 1.0811 0.0000 0.0000
# 5 0.0000 0.0000 0.0000 0.0000 9.2711 0.0000
# 6 0.0000 0.0000 0.0000 0.0000 0.0000 18.8214
#
#
#
# Elastic Compliance Matrix: (Units=1/GPa)
#
#
# Indices 1 2 3 4 5 6 
#
# 1 0.011533 -0.006100 -0.005945 0.000000 0.000000 0.000000
# 2 -0.006100 0.024203 -0.004732 0.000000 0.000000 0.000000
# 3 -0.005945 -0.004732 0.019304 0.000000 0.000000 0.000000
# 4 0.000000 0.000000 0.000000 0.924952 0.000000 0.000000
# 5 0.000000 0.000000 0.000000 0.000000 0.107862 0.000000
# 6 0.000000 0.000000 0.000000 0.000000 0.000000 0.053131
#
#
# Mechanical properties :
#
#
# Convention : Reuss Voigt Hill
#
# Bulk Modulus (GPa) = 46.54313 58.54296 52.54305
# Shear Modulus (GPa) = 4.23118 15.47308 9.85213
#
# Velocity S-wave (km/s) = 1.65536 3.16555 2.52596
# Velocity P-wave (km/s) = 5.81343 7.16063 6.52191
#
# Compressibility (1/GPa) = 0.02148545
#
# Stress axis : x y z
#
# Youngs Moduli (GPa) = 86.70734 41.31766 51.80188
#
# Poissons Ratio (x) = 0.25203 0.30796
# Poissons Ratio (y) = 0.52890 0.24515
# Poissons Ratio (z) = 0.51548 0.19553
#
# Static dielectric constant tensor:
#      x y z
#    x 3.371740 0.000000 0.000000 
#    y 0.000000 2.817060 0.000000 
#    z 0.000000 0.000000 2.776150 
# 
# 
# High freq. dielectric constant tensor:
#      x y z
#    x 1.610640 0.000000 0.000000 
#    y 0.000000 1.578320 0.000000 
#    z 0.000000 0.000000 1.534500 
# 
# From -- ./inp_files/18920.got.cif
#   From: 2010.03.12/outbox.cif.g09.slc.cpg/sg47_10_cif.got.tgz:18920.got - 2010.04.14 03:12:58.
