data_PCOD8194230
_publ_section_title
;
Structure prediction by ZEFSAII (Michael W. Deem and Ramdas Pophale) SiO2 
 PCOD8194230
Probable space group: P M M M
;
_chemical_formula_sum "Si O2"
_cell_formula_units_Z 60
_cell_length_a 18.960334
_cell_length_b 21.175517
_cell_length_c 8.932061
_cell_angle_alpha 90.000000
_cell_angle_beta 90.000000
_cell_angle_gamma 90.000000
_cell_volume 3586.176714
_symmetry_space_group_name_H-M "P M M M"
_symmetry_group_IT_number 47
_symmetry_cell_setting 'orthorhombic'
loop_
_space_group_symop_operation_xyz
x,y,z
-x,-y,z
x,-y,-z
-x,y,-z
-x,-y,-z
x,y,-z
-x,y,z
x,-y,z
loop_
_atom_site_type_symbol
_atom_site_label
_atom_site_fract_x
_atom_site_fract_y
_atom_site_fract_z
Si Si1 0.920296 0.240552 0.174235
Si Si2 0.844375 0.873449 0.322654
Si Si3 0.705090 0.569887 0.177568
Si Si4 0.920477 0.000000 0.677561
Si Si5 0.419753 0.634964 0.671480
Si Si6 0.788728 0.313411 0.175161
Si Si7 0.715654 0.814005 0.177278
Si Si8 0.579124 0.779993 0.324459
O O1 0.898090 0.181043 0.272486
O O2 0.870912 0.300850 0.214245
O O3 0.000000 0.260133 0.211894
O O4 0.910277 0.222267 0.000000
O O5 0.835505 0.871292 0.500000
O O6 0.767324 0.866508 0.247756
O O7 0.878065 0.938830 0.266116
O O8 0.723052 0.500000 0.240511
O O9 0.627000 0.589784 0.226190
O O10 0.761404 0.620568 0.245777
O O11 0.707619 0.568818 0.000000
O O12 0.925320 0.000000 0.500000
O O13 0.000000 0.000000 0.744566
O O14 0.395546 0.628351 0.500000
O O15 0.500000 0.612525 0.690767
O O16 0.411883 0.707281 0.724499
O O17 0.743044 0.254316 0.234641
O O18 0.776605 0.318045 0.000000
O O19 0.635761 0.822811 0.235911
O O20 0.717865 0.821067 0.000000
O O21 0.592306 0.787632 0.500000
O O22 0.500000 0.803014 0.283018
#
# Coordination Sequence:
#
# PCOD8194230 Si02
#       8
#     8   8   8   4   8   8   8   8
#     4   9  17  30  48  69  93 119 150 191 238 282
#     4  10  19  31  49  72  99 130 162 194 225 265
#     4  10  19  30  44  61  83 116 158 197 232 277
#     4   9  18  32  49  71 102 137 166 191 223 266
#     4   9  18  31  45  62  87 117 149 188 234 281
#     4   8  15  28  43  61  85 114 146 186 235 278
#     4  10  18  30  48  69  95 125 159 196 236 280
#     4   9  17  29  46  69  95 122 154 195 241 285
#
# _framework density 16.730910000000002
#
# number of rings (size 3 to 8) (size 9 to 14) (size 15 to 20)
#    0.000    2.733    1.333    2.800    0.000    1.867 
#    0.000    4.000    0.000    2.800    0.000    3.267 
#    0.000    3.733    0.000    4.667    0.000    5.867 
#
# Total GULP energy -743734.636703 kJ/mol
# GULP energy per Si atom -12395.577278 kJ/mol
# Density = 1.669283 g / cm^3
# Si number density = 16.730910 Si / 1000 Ang^3
#
#
#
# Elastic Constant Matrix: (Units=GPa)
#
#
# Indices 1 2 3 4 5 6 
#
# 1 144.4147 65.2856 37.2276 0.0000 0.0000 0.0000
# 2 65.2856 96.2555 24.7017 0.0000 0.0000 0.0000
# 3 37.2276 24.7017 41.0914 0.0000 0.0000 0.0000
# 4 0.0000 0.0000 0.0000 17.0961 0.0000 0.0000
# 5 0.0000 0.0000 0.0000 0.0000 25.1957 0.0000
# 6 0.0000 0.0000 0.0000 0.0000 0.0000 24.9823
#
#
#
# Elastic Compliance Matrix: (Units=1/GPa)
#
#
# Indices 1 2 3 4 5 6 
#
# 1 0.011354 -0.005984 -0.006689 0.000000 0.000000 0.000000
# 2 -0.005984 0.015438 -0.003859 0.000000 0.000000 0.000000
# 3 -0.006689 -0.003859 0.032716 0.000000 0.000000 0.000000
# 4 0.000000 0.000000 0.000000 0.058493 0.000000 0.000000
# 5 0.000000 0.000000 0.000000 0.000000 0.039689 0.000000
# 6 0.000000 0.000000 0.000000 0.000000 0.000000 0.040028
#
#
# Mechanical properties :
#
#
# Convention : Reuss Voigt Hill
#
# Bulk Modulus (GPa) = 37.81641 59.57684 48.69662
# Shear Modulus (GPa) = 20.86828 23.75794 22.31311
#
# Velocity S-wave (km/s) = 3.53553 3.77238 3.65587
# Velocity P-wave (km/s) = 6.27044 7.39328 6.85489
#
# Compressibility (1/GPa) = 0.02644355
#
# Stress axis : x y z
#
# Youngs Moduli (GPa) = 88.07295 64.77416 30.56623
#
# Poissons Ratio (x) = 0.38764 0.20446
# Poissons Ratio (y) = 0.52707 0.11795
# Poissons Ratio (z) = 0.58913 0.24995
#
# Static dielectric constant tensor:
#      x y z
#    x 3.304240 0.000000 0.000000 
#    y 0.000000 3.146660 0.000000 
#    z 0.000000 0.000000 2.921960 
# 
# 
# High freq. dielectric constant tensor:
#      x y z
#    x 1.650530 0.000000 0.000000 
#    y 0.000000 1.613010 0.000000 
#    z 0.000000 0.000000 1.628840 
# 
# From -- ./inp_files/10058.got.cif
#   From: 2010.03.12/outbox.cif.g09.slc.cpg/sg47_6_cif.got.tgz:10058.got - 2010.04.14 03:12:58.
