data_PCOD8194262
_publ_section_title
;
Structure prediction by ZEFSAII (Michael W. Deem and Ramdas Pophale) SiO2 
 PCOD8194262
Probable space group: P M M M
;
_chemical_formula_sum "Si O2"
_cell_formula_units_Z 52
_cell_length_a 10.010798
_cell_length_b 10.558732
_cell_length_c 29.087324
_cell_angle_alpha 90.000000
_cell_angle_beta 90.000000
_cell_angle_gamma 90.000000
_cell_volume 3074.568926
_symmetry_space_group_name_H-M "P M M M"
_symmetry_group_IT_number 47
_symmetry_cell_setting 'orthorhombic'
loop_
_space_group_symop_operation_xyz
x,y,z
-x,-y,z
x,-y,-z
-x,y,-z
-x,-y,-z
x,y,-z
-x,y,z
x,-y,z
loop_
_atom_site_type_symbol
_atom_site_label
_atom_site_fract_x
_atom_site_fract_y
_atom_site_fract_z
Si Si1 0.841761 0.000000 0.448476
Si Si2 0.851333 0.649895 0.949114
Si Si3 0.844703 0.237157 0.610390
Si Si4 0.849887 0.146407 0.289829
Si Si5 0.355305 0.645257 0.549804
Si Si6 0.654074 0.854400 0.792316
Si Si7 0.654323 0.646932 0.130408
O O1 0.792200 0.880968 0.419343
O O2 0.780951 0.000000 0.500000
O O3 0.000000 0.000000 0.450775
O O4 0.850817 0.500000 0.951114
O O5 0.741849 0.695258 0.912540
O O6 0.000000 0.697368 0.934756
O O7 0.815091 0.703151 0.000000
O O8 0.815321 0.223552 0.664385
O O9 0.753808 0.347585 0.590380
O O10 0.000000 0.265509 0.601869
O O11 0.744914 0.183120 0.250776
O O12 0.000000 0.178593 0.272505
O O13 0.840096 0.000000 0.303269
O O14 0.306537 0.701998 0.500000
O O15 0.500000 0.706821 0.563354
O O16 0.380205 0.500000 0.542283
O O17 0.500000 0.844079 0.777387
O O18 0.687922 0.748049 0.830037
O O19 0.684901 0.000000 0.808921
O O20 0.500000 0.656286 0.115923
O O21 0.688084 0.500000 0.144722
#
# Coordination Sequence:
#
# PCOD8194262 Si02
#       7
#     4   8   8   8   8   8   8
#     4   9  16  26  43  69  97 119 137 167 220 275
#     4   8  14  25  42  66  96 127 157 190 231 280
#     4  10  18  30  49  72  94 116 146 185 225 270
#     4   9  17  31  49  69  93 119 149 186 228 272
#     4   9  19  35  50  64  88 122 155 186 222 265
#     4   9  18  32  49  68  91 122 161 198 233 279
#     4   9  17  29  46  69  95 121 153 197 242 278
#
# _framework density 16.912941
#
# number of rings (size 3 to 8) (size 9 to 14) (size 15 to 20)
#    0.000    3.000    0.769    1.385    0.000    2.769 
#    0.000    3.462    0.000    4.615    0.000    3.231 
#    0.000    0.000    0.000    0.000    0.000    0.000 
#
# Total GULP energy -644218.424703 kJ/mol
# GULP energy per Si atom -12388.815860 kJ/mol
# Density = 1.687445 g / cm^3
# Si number density = 16.912941 Si / 1000 Ang^3
#
#
#
# Elastic Constant Matrix: (Units=GPa)
#
#
# Indices 1 2 3 4 5 6 
#
# 1 100.3645 34.4125 88.2553 0.0000 0.0000 0.0000
# 2 34.4125 48.4883 43.2014 0.0000 0.0000 0.0000
# 3 88.2553 43.2014 131.0639 0.0000 0.0000 0.0000
# 4 0.0000 0.0000 0.0000 21.6441 0.0000 0.0000
# 5 0.0000 0.0000 0.0000 0.0000 35.3345 0.0000
# 6 0.0000 0.0000 0.0000 0.0000 0.0000 17.5959
#
#
#
# Elastic Compliance Matrix: (Units=1/GPa)
#
#
# Indices 1 2 3 4 5 6 
#
# 1 0.024932 -0.003874 -0.015512 0.000000 0.000000 0.000000
# 2 -0.003874 0.029801 -0.007214 0.000000 0.000000 0.000000
# 3 -0.015512 -0.007214 0.020453 0.000000 0.000000 0.000000
# 4 0.000000 0.000000 0.000000 0.046202 0.000000 0.000000
# 5 0.000000 0.000000 0.000000 0.000000 0.028301 0.000000
# 6 0.000000 0.000000 0.000000 0.000000 0.000000 0.056831
#
#
# Mechanical properties :
#
#
# Convention : Reuss Voigt Hill
#
# Bulk Modulus (GPa) = 45.48395 67.96167 56.72281
# Shear Modulus (GPa) = 18.72315 22.51806 20.62060
#
# Velocity S-wave (km/s) = 3.33082 3.65281 3.49552
# Velocity P-wave (km/s) = 6.46095 7.61979 7.06417
#
# Compressibility (1/GPa) = 0.02198578
#
# Stress axis : x y z
#
# Youngs Moduli (GPa) = 40.10857 33.55642 48.89236
#
# Poissons Ratio (x) = 0.13000 0.75841
# Poissons Ratio (y) = 0.15539 0.35272
# Poissons Ratio (z) = 0.62216 0.24208
#
# Static dielectric constant tensor:
#      x y z
#    x 3.219590 0.000000 0.000000 
#    y 0.000000 2.962810 0.000000 
#    z 0.000000 0.000000 3.201750 
# 
# 
# High freq. dielectric constant tensor:
#      x y z
#    x 1.654540 0.000000 0.000000 
#    y 0.000000 1.622100 0.000000 
#    z 0.000000 0.000000 1.646550 
# 
# From -- ./inp_files/13268.got.cif
#   From: 2010.03.12/outbox.cif.g09.slc.cpg/sg47_7_cif.got.tgz:13268.got - 2010.04.14 03:12:58.
