data_PCOD8194342
_publ_section_title
;
Structure prediction by ZEFSAII (Michael W. Deem and Ramdas Pophale) SiO2 
 PCOD8194342
Probable space group: P M M M
;
_chemical_formula_sum "Si O2"
_cell_formula_units_Z 40
_cell_length_a 22.038443
_cell_length_b 9.182256
_cell_length_c 10.629980
_cell_angle_alpha 90.000000
_cell_angle_beta 90.000000
_cell_angle_gamma 90.000000
_cell_volume 2151.110661
_symmetry_space_group_name_H-M "P M M M"
_symmetry_group_IT_number 47
_symmetry_cell_setting 'orthorhombic'
loop_
_space_group_symop_operation_xyz
x,y,z
-x,-y,z
x,-y,-z
-x,y,-z
-x,-y,-z
x,y,-z
-x,y,z
x,-y,z
loop_
_atom_site_type_symbol
_atom_site_label
_atom_site_fract_x
_atom_site_fract_y
_atom_site_fract_z
Si Si1 0.221044 0.337010 0.229334
Si Si2 0.362095 0.671769 0.247684
Si Si3 0.431381 0.673010 0.000000
Si Si4 0.887230 0.841016 0.855759
Si Si5 0.761372 0.337991 0.500000
Si Si6 0.358810 0.172927 0.500000
Si Si7 0.000000 0.337411 0.150498
O O1 0.212417 0.500000 0.175895
O O2 0.291489 0.291958 0.221887
O O3 0.179355 0.229796 0.150343
O O4 0.198285 0.325958 0.374664
O O5 0.371811 0.500000 0.269220
O O6 0.398490 0.730321 0.126224
O O7 0.386632 0.756200 0.372071
O O8 0.429121 0.500000 0.000000
O O9 0.500000 0.731894 0.000000
O O10 0.939968 0.742117 0.794880
O O11 0.886256 0.000000 0.789958
O O12 0.904101 0.861522 0.000000
O O13 0.728932 0.500000 0.500000
O O14 0.712267 0.209899 0.500000
O O15 0.369856 0.000000 0.500000
O O16 0.000000 0.500000 0.205408
O O17 0.000000 0.341828 0.000000
#
# Coordination Sequence:
#
# PCOD8194342 Si02
#       7
#     8   8   4   8   4   4   4
#     4   9  17  29  49  73  97 126 162 202 248 299
#     4   9  18  33  54  78 106 137 172 219 268 312
#     4   9  18  34  57  83 107 136 177 222 267 311
#     4  10  20  31  44  67 100 131 160 198 246 295
#     4   8  16  32  50  70  98 130 164 208 257 297
#     4  10  18  30  51  77 103 136 176 215 256 311
#     4   9  17  31  49  66  87 124 169 207 243 291
#
# _framework density 18.595044000000001
#
# number of rings (size 3 to 8) (size 9 to 14) (size 15 to 20)
#    0.000    2.800    0.000    3.000    1.400    5.600 
#    0.000    1.000    0.000    4.800    0.000    4.200 
#    0.000    0.000    0.000    0.000    0.000    0.000 
#
# Total GULP energy -495685.327657 kJ/mol
# GULP energy per Si atom -12392.133191 kJ/mol
# Density = 1.855272 g / cm^3
# Si number density = 18.595044 Si / 1000 Ang^3
#
#
#
# Elastic Constant Matrix: (Units=GPa)
#
#
# Indices 1 2 3 4 5 6 
#
# 1 98.0570 49.7616 41.7978 0.0000 0.0000 0.0000
# 2 49.7616 111.2109 41.5761 0.0000 0.0000 0.0000
# 3 41.7978 41.5761 92.5883 0.0000 0.0000 0.0000
# 4 0.0000 0.0000 0.0000 17.4402 0.0000 0.0000
# 5 0.0000 0.0000 0.0000 0.0000 5.3528 0.0000
# 6 0.0000 0.0000 0.0000 0.0000 0.0000 12.1139
#
#
#
# Elastic Compliance Matrix: (Units=1/GPa)
#
#
# Indices 1 2 3 4 5 6 
#
# 1 0.014533 -0.004867 -0.004375 0.000000 0.000000 0.000000
# 2 -0.004867 0.012436 -0.003387 0.000000 0.000000 0.000000
# 3 -0.004375 -0.003387 0.014297 0.000000 0.000000 0.000000
# 4 0.000000 0.000000 0.000000 0.057339 0.000000 0.000000
# 5 0.000000 0.000000 0.000000 0.000000 0.186817 0.000000
# 6 0.000000 0.000000 0.000000 0.000000 0.000000 0.082550
#
#
# Mechanical properties :
#
#
# Convention : Reuss Voigt Hill
#
# Bulk Modulus (GPa) = 62.47364 63.12523 62.79944
# Shear Modulus (GPa) = 12.54496 18.22943 15.38720
#
# Velocity S-wave (km/s) = 2.60020 3.13443 2.87973
# Velocity P-wave (km/s) = 6.53335 6.86444 6.70094
#
# Compressibility (1/GPa) = 0.01600675
#
# Stress axis : x y z
#
# Youngs Moduli (GPa) = 68.80833 80.41161 69.94693
#
# Poissons Ratio (x) = 0.39138 0.30603
# Poissons Ratio (y) = 0.33490 0.23691
# Poissons Ratio (z) = 0.30105 0.27236
#
# Static dielectric constant tensor:
#      x y z
#    x 3.167010 0.000000 0.000000 
#    y 0.000000 3.372880 0.000000 
#    z 0.000000 0.000000 3.485050 
# 
# 
# High freq. dielectric constant tensor:
#      x y z
#    x 1.694840 0.000000 0.000000 
#    y 0.000000 1.709010 0.000000 
#    z 0.000000 0.000000 1.706400 
# 
# From -- ./inp_files/19001.got.cif
#   From: 2010.03.12/outbox.cif.g09.slc.cpg/sg47_10_cif.got.tgz:19001.got - 2010.04.14 03:12:58.
