data_PCOD8194604
_publ_section_title
;
Structure prediction by ZEFSAII (Michael W. Deem and Ramdas Pophale) SiO2 
 PCOD8194604
Probable space group: P M M M
;
_chemical_formula_sum "Si O2"
_cell_formula_units_Z 48
_cell_length_a 9.379348
_cell_length_b 14.849910
_cell_length_c 17.654846
_cell_angle_alpha 90.000000
_cell_angle_beta 90.000000
_cell_angle_gamma 90.000000
_cell_volume 2459.010623
_symmetry_space_group_name_H-M "P M M M"
_symmetry_group_IT_number 47
_symmetry_cell_setting 'orthorhombic'
loop_
_space_group_symop_operation_xyz
x,y,z
-x,-y,z
x,-y,-z
-x,y,-z
-x,-y,-z
x,y,-z
-x,y,z
x,-y,z
loop_
_atom_site_type_symbol
_atom_site_label
_atom_site_fract_x
_atom_site_fract_y
_atom_site_fract_z
Si Si1 0.335594 0.601066 0.225614
Si Si2 0.160284 0.853997 0.147396
Si Si3 0.169190 0.398513 0.500000
Si Si4 0.829816 0.708248 0.352885
Si Si5 0.167106 0.099309 0.683771
Si Si6 0.649397 0.000000 0.084436
Si Si7 0.837326 0.653578 0.912144
O O1 0.500000 0.633314 0.220696
O O2 0.326922 0.500000 0.259158
O O3 0.247496 0.668313 0.279240
O O4 0.267853 0.596559 0.141160
O O5 0.212532 0.869671 0.232818
O O6 0.261357 0.910836 0.095370
O O7 0.173960 0.753304 0.119881
O O8 0.000000 0.889640 0.138546
O O9 0.231024 0.500000 0.500000
O O10 0.223934 0.346519 0.425838
O O11 0.000000 0.400470 0.500000
O O12 0.787275 0.814077 0.367283
O O13 0.000000 0.699687 0.339092
O O14 0.000000 0.086721 0.677145
O O15 0.235780 0.000000 0.662971
O O16 0.500000 0.000000 0.132331
O O17 0.599862 0.000000 0.000000
O O18 0.000000 0.618355 0.904887
O O19 0.788222 0.647727 0.000000
#
# Coordination Sequence:
#
# PCOD8194604 Si02
#       7
#     8   8   4   8   8   4   8
#     4  11  24  39  56  81 113 149 188 232 288 348
#     4  10  18  33  54  74  99 137 185 234 283 334
#     4   9  18  32  56  92 122 145 181 233 288 331
#     4  10  19  36  61  86 115 149 187 231 277 334
#     4   9  16  29  53  82 109 140 181 226 272 324
#     4  11  23  33  43  69 107 142 181 232 288 338
#     4  10  21  37  57  80 105 140 191 243 289 339
#
# _framework density 19.520045
#
# number of rings (size 3 to 8) (size 9 to 14) (size 15 to 20)
#    0.000    2.000    2.500    1.750    0.000    4.667 
#    0.000    2.500    0.000    4.000    0.000    0.000 
#    0.000    1.333    0.000    0.000    0.000    0.000 
#
# Total GULP energy -594700.940078 kJ/mol
# GULP energy per Si atom -12389.602918 kJ/mol
# Density = 1.947562 g / cm^3
# Si number density = 19.520045 Si / 1000 Ang^3
#
#
#
# Elastic Constant Matrix: (Units=GPa)
#
#
# Indices 1 2 3 4 5 6 
#
# 1 65.9712 32.1130 28.9539 0.0000 0.0000 0.0000
# 2 32.1130 138.8741 54.1956 0.0000 0.0000 0.0000
# 3 28.9539 54.1956 103.2251 0.0000 0.0000 0.0000
# 4 0.0000 0.0000 0.0000 35.6950 0.0000 0.0000
# 5 0.0000 0.0000 0.0000 0.0000 8.8428 0.0000
# 6 0.0000 0.0000 0.0000 0.0000 0.0000 272.3602
#
#
#
# Elastic Compliance Matrix: (Units=1/GPa)
#
#
# Indices 1 2 3 4 5 6 
#
# 1 0.018096 -0.002772 -0.003621 0.000000 0.000000 0.000000
# 2 -0.002772 0.009481 -0.004200 0.000000 0.000000 0.000000
# 3 -0.003621 -0.004200 0.012908 0.000000 0.000000 0.000000
# 4 0.000000 0.000000 0.000000 0.028015 0.000000 0.000000
# 5 0.000000 0.000000 0.000000 0.000000 0.113087 0.000000
# 6 0.000000 0.000000 0.000000 0.000000 0.000000 0.003672
#
#
# Mechanical properties :
#
#
# Convention : Reuss Voigt Hill
#
# Bulk Modulus (GPa) = 51.81235 59.84393 55.82814
# Shear Modulus (GPa) = 23.48767 76.23345 49.86056
#
# Velocity S-wave (km/s) = 3.47257 6.25609 5.05952
# Velocity P-wave (km/s) = 6.53292 9.10545 7.92427
#
# Compressibility (1/GPa) = 0.01930042
#
# Stress axis : x y z
#
# Youngs Moduli (GPa) = 55.25976 105.47634 77.46901
#
# Poissons Ratio (x) = 0.29233 0.28050
# Poissons Ratio (y) = 0.15316 0.32539
# Poissons Ratio (z) = 0.20008 0.44303
#
# Static dielectric constant tensor:
#      x y z
#    x 3.299870 0.000000 0.000000 
#    y 0.000000 3.436880 0.000000 
#    z 0.000000 0.000000 3.497350 
# 
# 
# High freq. dielectric constant tensor:
#      x y z
#    x 1.726080 0.000000 0.000000 
#    y 0.000000 1.778560 0.000000 
#    z 0.000000 0.000000 1.742830 
# 
# From -- ./inp_files/9181.got.cif
#   From: 2010.03.12/outbox.cif.g09.slc.cpg/sg47_5_cif.got.tgz:9181.got - 2010.04.14 03:12:58.
