data_PCOD8194124
_publ_section_title
;
Structure prediction by ZEFSAII (Michael W. Deem and Ramdas Pophale) SiO2 
 PCOD8194124
Probable space group: P M M M
;
_chemical_formula_sum "Si O2"
_cell_formula_units_Z 64
_cell_length_a 15.205087
_cell_length_b 24.794432
_cell_length_c 9.344969
_cell_angle_alpha 90.000000
_cell_angle_beta 90.000000
_cell_angle_gamma 90.000000
_cell_volume 3523.067290
_symmetry_space_group_name_H-M "P M M M"
_symmetry_group_IT_number 47
_symmetry_cell_setting 'orthorhombic'
loop_
_space_group_symop_operation_xyz
x,y,z
-x,-y,z
x,-y,-z
-x,y,-z
-x,-y,-z
x,y,-z
-x,y,z
x,-y,z
loop_
_atom_site_type_symbol
_atom_site_label
_atom_site_fract_x
_atom_site_fract_y
_atom_site_fract_z
Si Si1 0.099382 0.360230 0.165382
Si Si2 0.595218 0.177712 0.336680
Si Si3 0.370955 0.281124 0.161989
Si Si4 0.899909 0.062921 0.164567
Si Si5 0.214093 0.145573 0.668274
Si Si6 0.403735 0.385821 0.337534
Si Si7 0.826102 0.750125 0.161317
Si Si8 0.226011 0.560424 0.331942
O O1 0.106027 0.296745 0.207982
O O2 0.162219 0.397465 0.257584
O O3 0.000000 0.379148 0.193171
O O4 0.126509 0.366722 0.000000
O O5 0.608410 0.196660 0.500000
O O6 0.500000 0.146778 0.320002
O O7 0.587925 0.229821 0.239041
O O8 0.681065 0.142292 0.293675
O O9 0.404832 0.334424 0.236543
O O10 0.266526 0.279726 0.170150
O O11 0.405113 0.280937 0.000000
O O12 0.831512 0.093622 0.264696
O O13 0.000000 0.079678 0.202309
O O14 0.886359 0.000000 0.193410
O O15 0.879742 0.077004 0.000000
O O16 0.197177 0.145469 0.500000
O O17 0.169226 0.199327 0.732188
O O18 0.386979 0.366210 0.500000
O O19 0.500000 0.414041 0.324308
O O20 0.327517 0.427319 0.291887
O O21 0.845153 0.771227 0.000000
O O22 0.209961 0.565229 0.500000
O O23 0.205000 0.500000 0.277967
#
# Coordination Sequence:
#
# PCOD8194124 Si02
#       8
#     8   8   8   8   8   8   8   8
#     4  10  21  38  59  80 102 133 172 211 257 315
#     4   9  18  32  48  70 107 150 183 211 251 306
#     4  10  18  29  48  74 103 134 171 214 255 299
#     4   9  19  37  59  80 105 142 184 222 266 321
#     4  10  20  32  52  83 113 142 179 222 264 306
#     4  10  20  33  51  74 100 132 168 206 254 313
#     4   9  18  33  51  74 107 142 173 207 254 311
#     4  10  22  39  57  76 100 131 168 214 264 313
#
# _framework density 18.165989
#
# number of rings (size 3 to 8) (size 9 to 14) (size 15 to 20)
#    0.000    2.375    1.250    1.500    0.000    5.500 
#    0.000    4.375    0.000    0.375    0.000    4.375 
#    0.000    0.000    0.000    0.000    0.000    0.000 
#
# Total GULP energy -793334.297009 kJ/mol
# GULP energy per Si atom -12395.848391 kJ/mol
# Density = 1.812464 g / cm^3
# Si number density = 18.165989 Si / 1000 Ang^3
#
#
#
# Elastic Constant Matrix: (Units=GPa)
#
#
# Indices 1 2 3 4 5 6 
#
# 1 105.6744 55.0682 49.9894 0.0000 0.0000 0.0000
# 2 55.0682 85.8505 50.7082 0.0000 0.0000 0.0000
# 3 49.9894 50.7082 82.6553 0.0000 0.0000 0.0000
# 4 0.0000 0.0000 0.0000 29.8004 0.0000 0.0000
# 5 0.0000 0.0000 0.0000 0.0000 19.3616 0.0000
# 6 0.0000 0.0000 0.0000 0.0000 0.0000 4.3399
#
#
#
# Elastic Compliance Matrix: (Units=1/GPa)
#
#
# Indices 1 2 3 4 5 6 
#
# 1 0.015488 -0.006904 -0.005132 0.000000 0.000000 0.000000
# 2 -0.006904 0.021345 -0.008920 0.000000 0.000000 0.000000
# 3 -0.005132 -0.008920 0.020674 0.000000 0.000000 0.000000
# 4 0.000000 0.000000 0.000000 0.033557 0.000000 0.000000
# 5 0.000000 0.000000 0.000000 0.000000 0.051649 0.000000
# 6 0.000000 0.000000 0.000000 0.000000 0.000000 0.230419
#
#
# Mechanical properties :
#
#
# Convention : Reuss Voigt Hill
#
# Bulk Modulus (GPa) = 64.11429 65.07908 64.59669
# Shear Modulus (GPa) = 11.89795 18.59469 15.24632
#
# Velocity S-wave (km/s) = 2.56199 3.20284 2.90017
# Velocity P-wave (km/s) = 6.64243 7.04131 6.84478
#
# Compressibility (1/GPa) = 0.01559715
#
# Stress axis : x y z
#
# Youngs Moduli (GPa) = 64.56515 46.84974 48.36935
#
# Poissons Ratio (x) = 0.32343 0.24823
# Poissons Ratio (y) = 0.44573 0.43143
# Poissons Ratio (z) = 0.33134 0.41788
#
# Static dielectric constant tensor:
#      x y z
#    x 3.571150 0.000000 0.000000 
#    y 0.000000 3.097410 0.000000 
#    z 0.000000 0.000000 3.365010 
# 
# 
# High freq. dielectric constant tensor:
#      x y z
#    x 1.716390 0.000000 0.000000 
#    y 0.000000 1.675480 0.000000 
#    z 0.000000 0.000000 1.703690 
# 
# From -- ./inp_files/7799.got.cif
#   From: 2010.03.12/outbox.cif.g09.slc.cpg/sg47_4_cif.got.tgz:7799.got - 2010.04.14 03:12:58.
