data_PCOD8194223
_publ_section_title
;
Structure prediction by ZEFSAII (Michael W. Deem and Ramdas Pophale) SiO2 
 PCOD8194223
Probable space group: P M M M
;
_chemical_formula_sum "Si O2"
_cell_formula_units_Z 64
_cell_length_a 9.055199
_cell_length_b 20.181144
_cell_length_c 20.289387
_cell_angle_alpha 90.000000
_cell_angle_beta 90.000000
_cell_angle_gamma 90.000000
_cell_volume 3707.769317
_symmetry_space_group_name_H-M "P M M M"
_symmetry_group_IT_number 47
_symmetry_cell_setting 'orthorhombic'
loop_
_space_group_symop_operation_xyz
x,y,z
-x,-y,z
x,-y,-z
-x,y,-z
-x,-y,-z
x,y,-z
-x,y,z
x,-y,z
loop_
_atom_site_type_symbol
_atom_site_label
_atom_site_fract_x
_atom_site_fract_y
_atom_site_fract_z
Si Si1 0.171854 0.659029 0.693187
Si Si2 0.668352 0.895427 0.927452
Si Si3 0.330578 0.251446 0.108275
Si Si4 0.828217 0.786883 0.761738
Si Si5 0.175354 0.425510 0.573002
Si Si6 0.170204 0.379227 0.926664
Si Si7 0.329679 0.425829 0.197848
Si Si8 0.826570 0.071248 0.203959
O O1 0.195915 0.739430 0.697422
O O2 0.237305 0.628715 0.625113
O O3 0.249470 0.625315 0.754803
O O4 0.000000 0.641317 0.698021
O O5 0.500000 0.914913 0.911330
O O6 0.686155 0.816574 0.930738
O O7 0.767838 0.926005 0.870539
O O8 0.713677 0.922862 0.000000
O O9 0.500000 0.275063 0.111372
O O10 0.271866 0.244544 0.182269
O O11 0.233556 0.305076 0.070577
O O12 0.777963 0.864484 0.751880
O O13 0.000000 0.784792 0.782978
O O14 0.237102 0.407995 0.500000
O O15 0.226516 0.500000 0.593087
O O16 0.000000 0.422800 0.571106
O O17 0.260479 0.423239 0.874990
O O18 0.000000 0.377206 0.904623
O O19 0.186135 0.410057 0.000000
O O20 0.500000 0.405618 0.193236
O O21 0.310006 0.500000 0.225616
O O22 0.000000 0.071639 0.197846
O O23 0.774532 0.000000 0.235167
#
# Coordination Sequence:
#
# PCOD8194223 Si02
#       8
#     8   8   8   8   8   8   8   8
#     4  10  18  30  52  76  97 123 158 199 235 272
#     4   9  18  30  43  61  84 110 142 181 228 285
#     4  10  18  30  48  67  88 114 145 185 236 289
#     4   9  17  29  46  68  91 115 151 194 233 274
#     4   8  14  25  43  71 105 135 160 187 226 277
#     4  11  23  36  50  67  87 114 151 197 246 292
#     4  11  24  38  51  69  93 121 154 194 240 290
#     4   9  18  31  44  59  84 116 147 185 234 284
#
# _framework density 17.261053
#
# number of rings (size 3 to 8) (size 9 to 14) (size 15 to 20)
#    0.000    2.375    1.250    2.250    0.000    4.500 
#    0.000    2.500    0.000    0.375    0.000    1.750 
#    0.000    0.500    0.000    7.000    0.000    0.000 
#
# Total GULP energy -792968.539850 kJ/mol
# GULP energy per Si atom -12390.133435 kJ/mol
# Density = 1.722177 g / cm^3
# Si number density = 17.261053 Si / 1000 Ang^3
#
#
#
# Elastic Constant Matrix: (Units=GPa)
#
#
# Indices 1 2 3 4 5 6 
#
# 1 40.1776 19.2538 17.0599 0.0000 0.0000 0.0000
# 2 19.2538 121.2684 54.9337 0.0000 0.0000 0.0000
# 3 17.0599 54.9337 84.0323 0.0000 0.0000 0.0000
# 4 0.0000 0.0000 0.0000 12.5571 0.0000 0.0000
# 5 0.0000 0.0000 0.0000 0.0000 3.2649 0.0000
# 6 0.0000 0.0000 0.0000 0.0000 0.0000 15.1969
#
#
#
# Elastic Compliance Matrix: (Units=1/GPa)
#
#
# Indices 1 2 3 4 5 6 
#
# 1 0.027820 -0.002640 -0.003922 0.000000 0.000000 0.000000
# 2 -0.002640 0.011966 -0.007286 0.000000 0.000000 0.000000
# 3 -0.003922 -0.007286 0.017460 0.000000 0.000000 0.000000
# 4 0.000000 0.000000 0.000000 0.079636 0.000000 0.000000
# 5 0.000000 0.000000 0.000000 0.000000 0.306291 0.000000
# 6 0.000000 0.000000 0.000000 0.000000 0.000000 0.065803
#
#
# Mechanical properties :
#
#
# Convention : Reuss Voigt Hill
#
# Bulk Modulus (GPa) = 33.84268 47.55257 40.69762
# Shear Modulus (GPa) = 9.14874 16.48581 12.81728
#
# Velocity S-wave (km/s) = 2.30472 3.09380 2.72794
# Velocity P-wave (km/s) = 5.17023 6.35382 5.79233
#
# Compressibility (1/GPa) = 0.02954849
#
# Stress axis : x y z
#
# Youngs Moduli (GPa) = 35.94521 83.56938 57.27484
#
# Poissons Ratio (x) = 0.22066 0.22462
# Poissons Ratio (y) = 0.09491 0.41733
# Poissons Ratio (z) = 0.14097 0.60892
#
# Static dielectric constant tensor:
#      x y z
#    x 3.138230 0.000000 0.000000 
#    y 0.000000 3.716000 0.000000 
#    z 0.000000 0.000000 3.107180 
# 
# 
# High freq. dielectric constant tensor:
#      x y z
#    x 1.656340 0.000000 0.000000 
#    y 0.000000 1.674420 0.000000 
#    z 0.000000 0.000000 1.622570 
# 
# From -- ./inp_files/30160.got.cif
#   From: 2010.03.12/outbox.cif.g09.slc.cpg/sg47_16_cif.got.tgz:30160.got - 2010.04.14 03:12:58.
