data_PCOD8194978
_publ_section_title
;
Structure prediction by ZEFSAII (Michael W. Deem and Ramdas Pophale) SiO2 
 PCOD8194978
Probable space group: P M M M
;
_chemical_formula_sum "Si O2"
_cell_formula_units_Z 44
_cell_length_a 10.989967
_cell_length_b 19.001105
_cell_length_c 13.742696
_cell_angle_alpha 90.000000
_cell_angle_beta 90.000000
_cell_angle_gamma 90.000000
_cell_volume 2869.770625
_symmetry_space_group_name_H-M "P M M M"
_symmetry_group_IT_number 47
_symmetry_cell_setting 'orthorhombic'
loop_
_space_group_symop_operation_xyz
x,y,z
-x,-y,z
x,-y,-z
-x,y,-z
-x,-y,-z
x,y,-z
-x,y,z
x,-y,z
loop_
_atom_site_type_symbol
_atom_site_label
_atom_site_fract_x
_atom_site_fract_y
_atom_site_fract_z
Si Si1 0.642610 0.286419 0.711023
Si Si2 0.641545 0.791888 0.894179
Si Si3 0.358201 0.143917 0.610922
Si Si4 0.749111 0.918372 0.795099
Si Si5 0.644760 0.577267 0.390487
Si Si6 0.000000 0.917094 0.889808
O O1 0.500000 0.296980 0.725025
O O2 0.699791 0.261754 0.814709
O O3 0.667557 0.226314 0.630760
O O4 0.701202 0.360568 0.676460
O O5 0.500000 0.776778 0.902799
O O6 0.655878 0.872273 0.858472
O O7 0.703577 0.780486 0.000000
O O8 0.322828 0.126686 0.500000
O O9 0.500000 0.126687 0.631053
O O10 0.274224 0.095799 0.680509
O O11 0.883365 0.892910 0.827402
O O12 0.727256 0.000000 0.818957
O O13 0.694339 0.586761 0.500000
O O14 0.500000 0.583377 0.392201
O O15 0.683710 0.500000 0.350259
O O16 0.000000 0.000000 0.900058
O O17 0.000000 0.884711 0.000000
#
# Coordination Sequence:
#
# PCOD8194978 Si02
#       6
#     8   8   8   8   8   4
#     4   8  13  22  35  50  72 101 130 158 187 224
#     4   9  17  27  39  56  76  99 127 160 200 241
#     4   9  17  28  42  60  82 109 136 160 193 238
#     4  10  19  30  43  59  77  98 129 166 201 238
#     4   8  12  17  28  48  71  95 125 158 186 212
#     4   9  18  32  47  59  73  97 127 162 206 248
#
# _framework density 15.332235000000001
#
# number of rings (size 3 to 8) (size 9 to 14) (size 15 to 20)
#    0.000    3.182    0.000    3.273    0.000    5.091 
#    0.000    2.273    0.000    2.182    0.000    3.818 
#    0.000    0.000    0.000   13.091    0.000  102.545 
#
# Total GULP energy -545132.294405 kJ/mol
# GULP energy per Si atom -12389.370327 kJ/mol
# Density = 1.529734 g / cm^3
# Si number density = 15.332235 Si / 1000 Ang^3
#
#
#
# Elastic Constant Matrix: (Units=GPa)
#
#
# Indices 1 2 3 4 5 6 
#
# 1 25.5792 9.4336 27.6155 0.0000 0.0000 0.0000
# 2 9.4336 100.5810 49.6596 0.0000 0.0000 0.0000
# 3 27.6155 49.6596 134.7768 0.0000 0.0000 0.0000
# 4 0.0000 0.0000 0.0000 18.9567 0.0000 0.0000
# 5 0.0000 0.0000 0.0000 0.0000 15.5662 0.0000
# 6 0.0000 0.0000 0.0000 0.0000 0.0000 2.1479
#
#
#
# Elastic Compliance Matrix: (Units=1/GPa)
#
#
# Indices 1 2 3 4 5 6 
#
# 1 0.050216 0.000453 -0.010456 0.000000 0.000000 0.000000
# 2 0.000453 0.012157 -0.004572 0.000000 0.000000 0.000000
# 3 -0.010456 -0.004572 0.011247 0.000000 0.000000 0.000000
# 4 0.000000 0.000000 0.000000 0.052752 0.000000 0.000000
# 5 0.000000 0.000000 0.000000 0.000000 0.064242 0.000000
# 6 0.000000 0.000000 0.000000 0.000000 0.000000 0.465571
#
#
# Mechanical properties :
#
#
# Convention : Reuss Voigt Hill
#
# Bulk Modulus (GPa) = 22.48775 48.26161 35.37468
# Shear Modulus (GPa) = 7.14125 18.94939 13.04532
#
# Velocity S-wave (km/s) = 2.16051 3.51938 2.92009
# Velocity P-wave (km/s) = 4.57411 6.93255 5.87294
#
# Compressibility (1/GPa) = 0.04446865
#
# Stress axis : x y z
#
# Youngs Moduli (GPa) = 19.91414 82.25592 88.91509
#
# Poissons Ratio (x) = -0.03722 0.92968
# Poissons Ratio (y) = -0.00901 0.40653
# Poissons Ratio (z) = 0.20822 0.37609
#
# Static dielectric constant tensor:
#      x y z
#    x 2.546420 0.000000 0.000000 
#    y 0.000000 3.061870 0.000000 
#    z 0.000000 0.000000 3.363520 
# 
# 
# High freq. dielectric constant tensor:
#      x y z
#    x 1.524960 0.000000 0.000000 
#    y 0.000000 1.576440 0.000000 
#    z 0.000000 0.000000 1.595120 
# 
# From -- ./inp_files/18483.got.cif
#   From: 2010.03.12/outbox.cif.g09.slc.cpg/sg47_10_cif.got.tgz:18483.got - 2010.04.14 03:12:58.
