data_PCOD8194835
_publ_section_title
;
Structure prediction by ZEFSAII (Michael W. Deem and Ramdas Pophale) SiO2 
 PCOD8194835
Probable space group: P M M M
;
_chemical_formula_sum "Si O2"
_cell_formula_units_Z 56
_cell_length_a 13.665094
_cell_length_b 9.474722
_cell_length_c 28.665671
_cell_angle_alpha 90.000000
_cell_angle_beta 90.000000
_cell_angle_gamma 90.000000
_cell_volume 3711.429468
_symmetry_space_group_name_H-M "P M M M"
_symmetry_group_IT_number 47
_symmetry_cell_setting 'orthorhombic'
loop_
_space_group_symop_operation_xyz
x,y,z
-x,-y,z
x,-y,-z
-x,y,-z
-x,-y,-z
x,y,-z
-x,y,z
x,-y,z
loop_
_atom_site_type_symbol
_atom_site_label
_atom_site_fract_x
_atom_site_fract_y
_atom_site_fract_z
Si Si1 0.889056 0.335009 0.053003
Si Si2 0.112287 0.164137 0.772098
Si Si3 0.610736 0.838529 0.809764
Si Si4 0.283768 0.666698 0.732701
Si Si5 0.611773 0.663487 0.637111
Si Si6 0.383735 0.841094 0.551202
Si Si7 0.207471 0.160506 0.131041
O O1 0.879950 0.500000 0.062406
O O2 0.814814 0.257083 0.087029
O O3 0.000000 0.284602 0.062655
O O4 0.859513 0.298815 0.000000
O O5 0.177813 0.260886 0.738354
O O6 0.137097 0.199865 0.825729
O O7 0.000000 0.201428 0.762173
O O8 0.135363 0.000000 0.762104
O O9 0.500000 0.808670 0.825572
O O10 0.638479 0.733258 0.768292
O O11 0.680101 0.812119 0.854277
O O12 0.624654 0.000000 0.792140
O O13 0.275972 0.500000 0.742184
O O14 0.321371 0.700491 0.681104
O O15 0.500000 0.710887 0.647634
O O16 0.615394 0.500000 0.624938
O O17 0.657570 0.743039 0.592386
O O18 0.346000 0.790475 0.500000
O O19 0.500000 0.834002 0.551508
O O20 0.347622 0.000000 0.560589
O O21 0.190046 0.000000 0.115673
#
# Coordination Sequence:
#
# PCOD8194835 Si02
#       7
#     8   8   8   8   8   8   8
#     4   9  18  31  45  63  88 114 137 164 203 252
#     4   9  18  32  47  63  86 114 142 173 209 251
#     4   9  18  32  47  62  84 115 147 177 210 248
#     4  10  19  29  42  63  89 113 142 179 213 248
#     4   9  17  27  38  55  82 114 143 172 207 245
#     4   8  14  24  37  54  76 103 138 177 211 244
#     4   9  17  29  46  67  86 106 137 174 208 243
#
# _framework density 15.088526
#
# number of rings (size 3 to 8) (size 9 to 14) (size 15 to 20)
#    0.000    3.000    0.000    3.000    0.000    6.000 
#    0.000    3.571    0.000    0.429    0.000    3.000 
#    0.000    0.571    0.000    6.286    0.000    4.857 
#
# Total GULP energy -694247.240796 kJ/mol
# GULP energy per Si atom -12397.272157 kJ/mol
# Density = 1.505418 g / cm^3
# Si number density = 15.088526 Si / 1000 Ang^3
#
#
#
# Elastic Constant Matrix: (Units=GPa)
#
#
# Indices 1 2 3 4 5 6 
#
# 1 94.8004 44.7778 53.7398 0.0000 0.0000 0.0000
# 2 44.7778 72.7096 67.2452 0.0000 0.0000 0.0000
# 3 53.7398 67.2452 116.8874 0.0000 0.0000 0.0000
# 4 0.0000 0.0000 0.0000 31.2872 0.0000 0.0000
# 5 0.0000 0.0000 0.0000 0.0000 17.5899 0.0000
# 6 0.0000 0.0000 0.0000 0.0000 0.0000 21.6338
#
#
#
# Elastic Compliance Matrix: (Units=1/GPa)
#
#
# Indices 1 2 3 4 5 6 
#
# 1 0.015517 -0.006322 -0.003497 0.000000 0.000000 0.000000
# 2 -0.006322 0.031967 -0.015484 0.000000 0.000000 0.000000
# 3 -0.003497 -0.015484 0.019071 0.000000 0.000000 0.000000
# 4 0.000000 0.000000 0.000000 0.031962 0.000000 0.000000
# 5 0.000000 0.000000 0.000000 0.000000 0.056851 0.000000
# 6 0.000000 0.000000 0.000000 0.000000 0.000000 0.046224
#
#
# Mechanical properties :
#
#
# Convention : Reuss Voigt Hill
#
# Bulk Modulus (GPa) = 62.69969 68.43587 65.56778
# Shear Modulus (GPa) = 19.41642 22.01114 20.71378
#
# Velocity S-wave (km/s) = 3.59114 3.82357 3.70917
# Velocity P-wave (km/s) = 7.67071 8.05901 7.86725
#
# Compressibility (1/GPa) = 0.01594904
#
# Stress axis : x y z
#
# Youngs Moduli (GPa) = 64.44597 31.28231 52.43545
#
# Poissons Ratio (x) = 0.19776 0.18337
# Poissons Ratio (y) = 0.40741 0.81192
# Poissons Ratio (z) = 0.22538 0.48438
#
# Static dielectric constant tensor:
#      x y z
#    x 2.800190 0.000000 0.000000 
#    y 0.000000 2.930740 0.000000 
#    z 0.000000 0.000000 2.900290 
# 
# 
# High freq. dielectric constant tensor:
#      x y z
#    x 1.551990 0.000000 0.000000 
#    y 0.000000 1.582260 0.000000 
#    z 0.000000 0.000000 1.568420 
# 
# From -- ./inp_files/22082.got.cif
#   From: 2010.03.12/outbox.cif.g09.slc.cpg/sg47_12_cif.got.tgz:22082.got - 2010.04.14 03:12:58.
