data_PCOD8194692
_publ_section_title
;
Structure prediction by ZEFSAII (Michael W. Deem and Ramdas Pophale) SiO2 
 PCOD8194692
Probable space group: P M M M
;
_chemical_formula_sum "Si O2"
_cell_formula_units_Z 60
_cell_length_a 9.073812
_cell_length_b 17.980399
_cell_length_c 24.246241
_cell_angle_alpha 90.000000
_cell_angle_beta 90.000000
_cell_angle_gamma 90.000000
_cell_volume 3955.792651
_symmetry_space_group_name_H-M "P M M M"
_symmetry_group_IT_number 47
_symmetry_cell_setting 'orthorhombic'
loop_
_space_group_symop_operation_xyz
x,y,z
-x,-y,z
x,-y,-z
-x,y,-z
-x,-y,-z
x,y,-z
-x,y,z
x,-y,z
loop_
_atom_site_type_symbol
_atom_site_label
_atom_site_fract_x
_atom_site_fract_y
_atom_site_fract_z
Si Si1 0.824987 0.655970 0.785557
Si Si2 0.330083 0.914466 0.662440
Si Si3 0.173834 0.158594 0.561821
Si Si4 0.833816 0.411838 0.000000
Si Si5 0.162235 0.301796 0.618630
Si Si6 0.331366 0.586020 0.316976
Si Si7 0.327155 0.587045 0.110138
Si Si8 0.838394 0.201239 0.726179
O O1 0.764861 0.604233 0.736590
O O2 0.747025 0.633613 0.841656
O O3 0.786154 0.743350 0.775139
O O4 0.000000 0.643608 0.789445
O O5 0.500000 0.895552 0.654703
O O6 0.252077 0.895819 0.604765
O O7 0.271515 0.866912 0.714644
O O8 0.301862 0.000000 0.676942
O O9 0.220394 0.135456 0.500000
O O10 0.218306 0.245533 0.570886
O O11 0.000000 0.149869 0.571250
O O12 0.746090 0.384189 0.946325
O O13 0.838997 0.500000 0.000000
O O14 0.000000 0.379216 0.000000
O O15 0.275126 0.369204 0.629011
O O16 0.151501 0.252325 0.672875
O O17 0.000000 0.334390 0.604435
O O18 0.500000 0.608020 0.304731
O O19 0.315224 0.500000 0.331503
O O20 0.500000 0.603809 0.107838
O O21 0.296567 0.500000 0.120092
O O22 0.000000 0.168065 0.739665
#
# Coordination Sequence:
#
# PCOD8194692 Si02
#       8
#     8   8   8   4   8   8   8   8
#     4  10  19  29  42  61  83 107 139 177 212 247
#     4  10  20  31  44  65  90 112 134 161 194 236
#     4   9  18  32  48  64  81 103 133 166 198 236
#     4   9  17  29  43  57  77 111 152 189 224 257
#     4   8  15  28  44  60  77  99 129 164 201 242
#     4  10  19  28  39  58  82 105 131 165 206 251
#     4  10  19  29  41  59  84 114 149 186 221 256
#     4   8  16  30  45  61  81 107 138 168 200 242
#
# _framework density 15.167630000000001
#
# number of rings (size 3 to 8) (size 9 to 14) (size 15 to 20)
#    0.000    2.733    0.000    3.800    0.000   11.200 
#    0.000    1.333    0.000    0.400    0.000    2.800 
#    0.000    0.000    0.000    0.600    0.000   11.200 
#
# Total GULP energy -743710.660305 kJ/mol
# GULP energy per Si atom -12395.177672 kJ/mol
# Density = 1.513311 g / cm^3
# Si number density = 15.167630 Si / 1000 Ang^3
#
#
#
# Elastic Constant Matrix: (Units=GPa)
#
#
# Indices 1 2 3 4 5 6 
#
# 1 95.3782 50.2512 40.2427 0.0000 0.0000 0.0000
# 2 50.2512 73.8941 36.0968 0.0000 0.0000 0.0000
# 3 40.2427 36.0968 61.2149 0.0000 0.0000 0.0000
# 4 0.0000 0.0000 0.0000 16.3507 0.0000 0.0000
# 5 0.0000 0.0000 0.0000 0.0000 20.0507 0.0000
# 6 0.0000 0.0000 0.0000 0.0000 0.0000 24.1815
#
#
#
# Elastic Compliance Matrix: (Units=1/GPa)
#
#
# Indices 1 2 3 4 5 6 
#
# 1 0.018001 -0.009075 -0.006483 0.000000 0.000000 0.000000
# 2 -0.009075 0.023583 -0.007941 0.000000 0.000000 0.000000
# 3 -0.006483 -0.007941 0.025280 0.000000 0.000000 0.000000
# 4 0.000000 0.000000 0.000000 0.061160 0.000000 0.000000
# 5 0.000000 0.000000 0.000000 0.000000 0.049874 0.000000
# 6 0.000000 0.000000 0.000000 0.000000 0.000000 0.041354
#
#
# Mechanical properties :
#
#
# Convention : Reuss Voigt Hill
#
# Bulk Modulus (GPa) = 50.33229 53.74098 52.03664
# Shear Modulus (GPa) = 18.32377 19.04300 18.68339
#
# Velocity S-wave (km/s) = 3.47952 3.54715 3.51350
# Velocity P-wave (km/s) = 7.02843 7.23081 7.13034
#
# Compressibility (1/GPa) = 0.01986796
#
# Stress axis : x y z
#
# Youngs Moduli (GPa) = 55.55278 42.40345 39.55696
#
# Poissons Ratio (x) = 0.38480 0.25644
# Poissons Ratio (y) = 0.50412 0.31411
# Poissons Ratio (z) = 0.36013 0.33671
#
# Static dielectric constant tensor:
#      x y z
#    x 3.062240 0.000000 0.000000 
#    y 0.000000 2.903090 0.000000 
#    z 0.000000 0.000000 2.967170 
# 
# 
# High freq. dielectric constant tensor:
#      x y z
#    x 1.593980 0.000000 0.000000 
#    y 0.000000 1.556550 0.000000 
#    z 0.000000 0.000000 1.554100 
# 
# From -- ./inp_files/32230.got.cif
#   From: 2010.03.12/outbox.cif.g09.slc.cpg/sg47_17_cif.got.tgz:32230.got - 2010.04.14 03:12:58.
