data_PCOD8194321
_publ_section_title
;
Structure prediction by ZEFSAII (Michael W. Deem and Ramdas Pophale) SiO2 
 PCOD8194321
Probable space group: P M M M
;
_chemical_formula_sum "Si O2"
_cell_formula_units_Z 52
_cell_length_a 9.060402
_cell_length_b 28.274792
_cell_length_c 11.660280
_cell_angle_alpha 90.000000
_cell_angle_beta 90.000000
_cell_angle_gamma 90.000000
_cell_volume 2987.141981
_symmetry_space_group_name_H-M "P M M M"
_symmetry_group_IT_number 47
_symmetry_cell_setting 'orthorhombic'
loop_
_space_group_symop_operation_xyz
x,y,z
-x,-y,z
x,-y,-z
-x,y,-z
-x,-y,-z
x,y,-z
-x,y,z
x,-y,z
loop_
_atom_site_type_symbol
_atom_site_label
_atom_site_fract_x
_atom_site_fract_y
_atom_site_fract_z
Si Si1 0.676803 0.406616 0.279203
Si Si2 0.327681 0.352473 0.500000
Si Si3 0.333279 0.948470 0.136327
Si Si4 0.829024 0.142737 0.134056
Si Si5 0.171743 0.331374 0.865956
Si Si6 0.833915 0.258156 0.500000
Si Si7 0.823830 0.500000 0.635427
Si Si8 0.170255 0.235592 0.248771
O O1 0.500000 0.412567 0.272248
O O2 0.735883 0.377046 0.387517
O O3 0.735949 0.378167 0.168481
O O4 0.754710 0.456794 0.293925
O O5 0.500000 0.358181 0.500000
O O6 0.286150 0.298441 0.500000
O O7 0.500000 0.942537 0.179314
O O8 0.240514 0.904934 0.187961
O O9 0.271895 0.000000 0.177501
O O10 0.325677 0.946683 0.000000
O O11 0.755661 0.189658 0.190026
O O12 0.000000 0.140102 0.164141
O O13 0.797757 0.146053 0.000000
O O14 0.236273 0.285414 0.797400
O O15 0.000000 0.340046 0.836391
O O16 0.195444 0.321995 0.000000
O O17 0.808411 0.227929 0.614898
O O18 0.000000 0.279627 0.500000
O O19 0.776626 0.500000 0.500000
O O20 0.000000 0.500000 0.646363
O O21 0.000000 0.236658 0.211966
#
# Coordination Sequence:
#
# PCOD8194321 Si02
#       8
#     8   4   8   8   8   4   4   8
#     4  11  22  37  56  79 109 137 164 202 250 299
#     4  10  20  33  51  76 105 133 159 200 251 291
#     4   8  14  25  40  59  86 119 154 193 237 284
#     4   9  16  26  41  63  93 125 156 192 236 287
#     4  10  20  35  55  77 103 136 173 208 242 289
#     4  10  18  30  51  73  95 127 167 205 237 286
#     4  11  23  37  58  85 108 131 165 207 249 296
#     4   9  17  29  47  72  98 127 162 201 244 285
#
# _framework density 17.407943
#
# number of rings (size 3 to 8) (size 9 to 14) (size 15 to 20)
#    0.000    2.385    2.308    1.615    0.000    3.385 
#    0.000    3.462    0.000    4.154    0.000    0.538 
#    0.000    4.308    0.000    0.000    0.000    0.000 
#
# Total GULP energy -644486.891768 kJ/mol
# GULP energy per Si atom -12393.978688 kJ/mol
# Density = 1.736832 g / cm^3
# Si number density = 17.407943 Si / 1000 Ang^3
#
#
#
# Elastic Constant Matrix: (Units=GPa)
#
#
# Indices 1 2 3 4 5 6 
#
# 1 46.0936 45.3790 26.9519 0.0000 0.0000 0.0000
# 2 45.3790 158.6947 41.7025 0.0000 0.0000 0.0000
# 3 26.9519 41.7025 65.9256 0.0000 0.0000 0.0000
# 4 0.0000 0.0000 0.0000 21.7514 0.0000 0.0000
# 5 0.0000 0.0000 0.0000 0.0000 16.0319 0.0000
# 6 0.0000 0.0000 0.0000 0.0000 0.0000 22.7488
#
#
#
# Elastic Compliance Matrix: (Units=1/GPa)
#
#
# Indices 1 2 3 4 5 6 
#
# 1 0.034472 -0.007381 -0.009424 0.000000 0.000000 0.000000
# 2 -0.007381 0.009138 -0.002763 0.000000 0.000000 0.000000
# 3 -0.009424 -0.002763 0.020769 0.000000 0.000000 0.000000
# 4 0.000000 0.000000 0.000000 0.045974 0.000000 0.000000
# 5 0.000000 0.000000 0.000000 0.000000 0.062376 0.000000
# 6 0.000000 0.000000 0.000000 0.000000 0.000000 0.043958
#
#
# Mechanical properties :
#
#
# Convention : Reuss Voigt Hill
#
# Bulk Modulus (GPa) = 39.61434 55.42008 47.51721
# Shear Modulus (GPa) = 18.92242 22.55179 20.73710
#
# Velocity S-wave (km/s) = 3.30054 3.60319 3.45518
# Velocity P-wave (km/s) = 6.10988 7.01540 6.57824
#
# Compressibility (1/GPa) = 0.02524339
#
# Stress axis : x y z
#
# Youngs Moduli (GPa) = 29.00930 109.43283 48.14834
#
# Poissons Ratio (x) = 0.80770 0.45375
# Poissons Ratio (y) = 0.21411 0.13303
# Poissons Ratio (z) = 0.27338 0.30236
#
# Static dielectric constant tensor:
#      x y z
#    x 3.072040 0.000000 0.000000 
#    y 0.000000 3.541960 0.000000 
#    z 0.000000 0.000000 3.103990 
# 
# 
# High freq. dielectric constant tensor:
#      x y z
#    x 1.652110 0.000000 0.000000 
#    y 0.000000 1.680420 0.000000 
#    z 0.000000 0.000000 1.644680 
# 
# From -- ./inp_files/15548.got.cif
#   From: 2010.03.12/outbox.cif.g09.slc.cpg/sg47_8_cif.got.tgz:15548.got - 2010.04.14 03:12:58.
