data_PCOD8194308
_publ_section_title
;
Structure prediction by ZEFSAII (Michael W. Deem and Ramdas Pophale) SiO2 
 PCOD8194308
Probable space group: P M M M
;
_chemical_formula_sum "Si O2"
_cell_formula_units_Z 64
_cell_length_a 15.306415
_cell_length_b 25.084907
_cell_length_c 8.945157
_cell_angle_alpha 90.000000
_cell_angle_beta 90.000000
_cell_angle_gamma 90.000000
_cell_volume 3434.582453
_symmetry_space_group_name_H-M "P M M M"
_symmetry_group_IT_number 47
_symmetry_cell_setting 'orthorhombic'
loop_
_space_group_symop_operation_xyz
x,y,z
-x,-y,z
x,-y,-z
-x,y,-z
-x,-y,-z
x,y,-z
-x,y,z
x,-y,z
loop_
_atom_site_type_symbol
_atom_site_label
_atom_site_fract_x
_atom_site_fract_y
_atom_site_fract_z
Si Si1 0.099287 0.437744 0.328011
Si Si2 0.231934 0.940011 0.323199
Si Si3 0.771380 0.641170 0.177956
Si Si4 0.177092 0.754261 0.166017
Si Si5 0.402820 0.667557 0.674286
Si Si6 0.098793 0.140657 0.823760
Si Si7 0.595009 0.882949 0.670179
Si Si8 0.625844 0.223599 0.167365
O O1 0.117709 0.423133 0.500000
O O2 0.113405 0.500000 0.300235
O O3 0.167531 0.407639 0.223056
O O4 0.000000 0.421723 0.285296
O O5 0.222122 0.937330 0.500000
O O6 0.159303 0.902607 0.252604
O O7 0.328947 0.922084 0.272151
O O8 0.217352 0.000000 0.264489
O O9 0.815233 0.695950 0.244321
O O10 0.673112 0.633959 0.241895
O O11 0.762397 0.644880 0.000000
O O12 0.115190 0.799093 0.242504
O O13 0.270618 0.782149 0.164869
O O14 0.141221 0.743285 0.000000
O O15 0.380381 0.666711 0.500000
O O16 0.500000 0.642736 0.703579
O O17 0.404911 0.728083 0.729672
O O18 0.000000 0.124192 0.788589
O O19 0.119042 0.141393 0.000000
O O20 0.615386 0.865746 0.500000
O O21 0.500000 0.911902 0.680795
O O22 0.587444 0.830540 0.769620
O O23 0.590081 0.233301 0.000000
#
# Coordination Sequence:
#
# PCOD8194308 Si02
#       8
#     8   8   8   8   8   8   8   8
#     4   9  19  37  59  82 112 152 195 236 278 327
#     4  10  22  39  56  74  99 131 168 217 270 316
#     4  10  20  33  54  85 116 147 185 231 281 327
#     4   8  16  31  49  74 107 138 168 206 258 313
#     4  10  20  33  50  75 111 153 191 225 265 319
#     4  10  20  36  58  79 101 133 172 212 258 317
#     4  10  20  33  51  75 100 130 170 211 258 320
#     4  10  18  30  50  75 105 139 174 215 262 312
#
# _framework density 18.633997999999998
#
# number of rings (size 3 to 8) (size 9 to 14) (size 15 to 20)
#    0.000    2.375    1.250    2.625    0.000    4.750 
#    0.000    5.000    0.000    0.375    0.000    4.375 
#    0.000    0.000    0.000    0.000    0.000    0.000 
#
# Total GULP energy -793177.706191 kJ/mol
# GULP energy per Si atom -12393.401659 kJ/mol
# Density = 1.859159 g / cm^3
# Si number density = 18.633998 Si / 1000 Ang^3
#
#
#
# Elastic Constant Matrix: (Units=GPa)
#
#
# Indices 1 2 3 4 5 6 
#
# 1 129.1306 60.9290 43.7804 0.0000 0.0000 0.0000
# 2 60.9290 83.2204 32.1524 0.0000 0.0000 0.0000
# 3 43.7804 32.1524 62.3119 0.0000 0.0000 0.0000
# 4 0.0000 0.0000 0.0000 25.4039 0.0000 0.0000
# 5 0.0000 0.0000 0.0000 0.0000 21.2487 0.0000
# 6 0.0000 0.0000 0.0000 0.0000 0.0000 15.3637
#
#
#
# Elastic Compliance Matrix: (Units=1/GPa)
#
#
# Indices 1 2 3 4 5 6 
#
# 1 0.013104 -0.007540 -0.005316 0.000000 0.000000 0.000000
# 2 -0.007540 0.019347 -0.004685 0.000000 0.000000 0.000000
# 3 -0.005316 -0.004685 0.022201 0.000000 0.000000 0.000000
# 4 0.000000 0.000000 0.000000 0.039364 0.000000 0.000000
# 5 0.000000 0.000000 0.000000 0.000000 0.047062 0.000000
# 6 0.000000 0.000000 0.000000 0.000000 0.000000 0.065088
#
#
# Mechanical properties :
#
#
# Convention : Reuss Voigt Hill
#
# Bulk Modulus (GPa) = 51.10158 60.93187 56.01672
# Shear Modulus (GPa) = 20.17978 21.59000 20.88489
#
# Velocity S-wave (km/s) = 3.29440 3.40757 3.35146
# Velocity P-wave (km/s) = 6.47720 6.94639 6.71589
#
# Compressibility (1/GPa) = 0.01956887
#
# Stress axis : x y z
#
# Youngs Moduli (GPa) = 76.31044 51.68800 45.04282
#
# Poissons Ratio (x) = 0.38974 0.23947
# Poissons Ratio (y) = 0.57540 0.21103
# Poissons Ratio (z) = 0.40570 0.24216
#
# Static dielectric constant tensor:
#      x y z
#    x 3.581390 0.000000 0.000000 
#    y 0.000000 3.268350 0.000000 
#    z 0.000000 0.000000 3.303670 
# 
# 
# High freq. dielectric constant tensor:
#      x y z
#    x 1.734250 0.000000 0.000000 
#    y 0.000000 1.701640 0.000000 
#    z 0.000000 0.000000 1.708660 
# 
# From -- ./inp_files/7798.got.cif
#   From: 2010.03.12/outbox.cif.g09.slc.cpg/sg47_4_cif.got.tgz:7798.got - 2010.04.14 03:12:58.
