data_PCOD8194132
_publ_section_title
;
Structure prediction by ZEFSAII (Michael W. Deem and Ramdas Pophale) SiO2 
 PCOD8194132
Probable space group: P M M M
;
_chemical_formula_sum "Si O2"
_cell_formula_units_Z 56
_cell_length_a 19.115853
_cell_length_b 8.927930
_cell_length_c 18.794633
_cell_angle_alpha 90.000000
_cell_angle_beta 90.000000
_cell_angle_gamma 90.000000
_cell_volume 3207.585993
_symmetry_space_group_name_H-M "P M M M"
_symmetry_group_IT_number 47
_symmetry_cell_setting 'orthorhombic'
loop_
_space_group_symop_operation_xyz
x,y,z
-x,-y,z
x,-y,-z
-x,y,-z
-x,-y,-z
x,y,-z
-x,y,z
x,-y,z
loop_
_atom_site_type_symbol
_atom_site_label
_atom_site_fract_x
_atom_site_fract_y
_atom_site_fract_z
Si Si1 0.220732 0.672941 0.336873
Si Si2 0.076607 0.329902 0.715072
Si Si3 0.212241 0.672214 0.918611
Si Si4 0.333679 0.176246 0.579661
Si Si5 0.078958 0.174776 0.862195
Si Si6 0.290959 0.177182 0.204414
Si Si7 0.422955 0.823357 0.711114
O O1 0.242439 0.500000 0.334385
O O2 0.136736 0.695057 0.344328
O O3 0.258685 0.749364 0.403755
O O4 0.241369 0.750058 0.263010
O O5 0.081688 0.500000 0.744594
O O6 0.088879 0.218362 0.780255
O O7 0.000000 0.301004 0.680430
O O8 0.211451 0.500000 0.894674
O O9 0.134239 0.737172 0.910274
O O10 0.270225 0.759401 0.872360
O O11 0.235620 0.690426 0.000000
O O12 0.357684 0.219939 0.500000
O O13 0.390795 0.236443 0.636321
O O14 0.323589 0.000000 0.587868
O O15 0.000000 0.213426 0.887850
O O16 0.094702 0.000000 0.870021
O O17 0.371737 0.218937 0.223383
O O18 0.279625 0.000000 0.205588
O O19 0.500000 0.751301 0.723025
O O20 0.430348 0.000000 0.705230
#
# Coordination Sequence:
#
# PCOD8194132 Si02
#       7
#     8   8   8   8   8   8   8
#     4  10  18  29  49  72  96 129 166 204 247 295
#     4   9  17  29  46  68  94 125 163 207 252 295
#     4  11  23  36  50  69  96 133 172 208 249 296
#     4   9  18  31  48  73 104 136 167 200 239 285
#     4  10  20  32  48  71  98 128 163 206 255 301
#     4  10  19  32  52  75  99 126 161 205 247 292
#     4   8  15  29  51  79 105 128 157 196 244 294
#
# _framework density 17.458611000000001
#
# number of rings (size 3 to 8) (size 9 to 14) (size 15 to 20)
#    0.000    2.429    1.429    2.571    0.000    3.429 
#    0.000    2.857    0.000   11.571    0.000   10.000 
#    0.000    0.000    0.000    0.000    0.000    0.000 
#
# Total GULP energy -694129.863959 kJ/mol
# GULP energy per Si atom -12395.176142 kJ/mol
# Density = 1.741887 g / cm^3
# Si number density = 17.458611 Si / 1000 Ang^3
#
#
#
# Elastic Constant Matrix: (Units=GPa)
#
#
# Indices 1 2 3 4 5 6 
#
# 1 133.5060 30.1768 53.5894 0.0000 0.0000 0.0000
# 2 30.1768 56.4781 30.1371 0.0000 0.0000 0.0000
# 3 53.5894 30.1371 76.3155 0.0000 0.0000 0.0000
# 4 0.0000 0.0000 0.0000 23.8505 0.0000 0.0000
# 5 0.0000 0.0000 0.0000 0.0000 20.8247 0.0000
# 6 0.0000 0.0000 0.0000 0.0000 0.0000 15.6674
#
#
#
# Elastic Compliance Matrix: (Units=1/GPa)
#
#
# Indices 1 2 3 4 5 6 
#
# 1 0.010632 -0.002150 -0.006617 0.000000 0.000000 0.000000
# 2 -0.002150 0.022868 -0.007521 0.000000 0.000000 0.000000
# 3 -0.006617 -0.007521 0.020720 0.000000 0.000000 0.000000
# 4 0.000000 0.000000 0.000000 0.041928 0.000000 0.000000
# 5 0.000000 0.000000 0.000000 0.000000 0.048020 0.000000
# 6 0.000000 0.000000 0.000000 0.000000 0.000000 0.063827
#
#
# Mechanical properties :
#
#
# Convention : Reuss Voigt Hill
#
# Bulk Modulus (GPa) = 46.20115 54.90068 50.55092
# Shear Modulus (GPa) = 20.17874 22.22828 21.20351
#
# Velocity S-wave (km/s) = 3.40340 3.57206 3.48875
# Velocity P-wave (km/s) = 6.47803 6.96615 6.72652
#
# Compressibility (1/GPa) = 0.02164448
#
# Stress axis : x y z
#
# Youngs Moduli (GPa) = 94.05222 43.72939 48.26244
#
# Poissons Ratio (x) = 0.09402 0.31936
# Poissons Ratio (y) = 0.20222 0.36297
# Poissons Ratio (z) = 0.62235 0.32888
#
# Static dielectric constant tensor:
#      x y z
#    x 3.622240 0.000000 0.000000 
#    y 0.000000 3.237660 0.000000 
#    z 0.000000 0.000000 3.033340 
# 
# 
# High freq. dielectric constant tensor:
#      x y z
#    x 1.676440 0.000000 0.000000 
#    y 0.000000 1.672230 0.000000 
#    z 0.000000 0.000000 1.641740 
# 
# From -- ./inp_files/9811.got.cif
#   From: 2010.03.12/outbox.cif.g09.slc.cpg/sg47_5_cif.got.tgz:9811.got - 2010.04.14 03:12:58.
