data_PCOD8194228
_publ_section_title
;
Structure prediction by ZEFSAII (Michael W. Deem and Ramdas Pophale) SiO2 
 PCOD8194228
Probable space group: P M M M
;
_chemical_formula_sum "Si O2"
_cell_formula_units_Z 52
_cell_length_a 15.882737
_cell_length_b 20.153287
_cell_length_c 9.286481
_cell_angle_alpha 90.000000
_cell_angle_beta 90.000000
_cell_angle_gamma 90.000000
_cell_volume 2972.503733
_symmetry_space_group_name_H-M "P M M M"
_symmetry_group_IT_number 47
_symmetry_cell_setting 'orthorhombic'
loop_
_space_group_symop_operation_xyz
x,y,z
-x,-y,z
x,-y,-z
-x,y,-z
-x,-y,-z
x,y,-z
-x,y,z
x,-y,z
loop_
_atom_site_type_symbol
_atom_site_label
_atom_site_fract_x
_atom_site_fract_y
_atom_site_fract_z
Si Si1 0.803819 0.821133 0.668446
Si Si2 0.900845 0.073866 0.161140
Si Si3 0.221649 0.331645 0.334904
Si Si4 0.500000 0.928734 0.830346
Si Si5 0.362214 0.171329 0.170022
Si Si6 0.406973 0.298872 0.665480
Si Si7 0.905644 0.576104 0.830670
O O1 0.793607 0.834252 0.500000
O O2 0.878662 0.866523 0.729296
O O3 0.812493 0.742400 0.698858
O O4 0.724182 0.846507 0.755043
O O5 0.000000 0.071788 0.156373
O O6 0.868170 0.000000 0.209924
O O7 0.865994 0.089307 0.000000
O O8 0.205701 0.349816 0.500000
O O9 0.322197 0.341356 0.297818
O O10 0.167204 0.381289 0.241109
O O11 0.417383 0.890545 0.782558
O O12 0.500000 0.000000 0.753433
O O13 0.500000 0.936313 0.000000
O O14 0.407239 0.236515 0.230242
O O15 0.351364 0.180329 0.000000
O O16 0.397072 0.275025 0.500000
O O17 0.500000 0.334672 0.685277
O O18 0.891381 0.500000 0.786233
O O19 0.000000 0.598415 0.781891
O O20 0.896978 0.585261 0.000000
#
# Coordination Sequence:
#
# PCOD8194228 Si02
#       7
#     8   8   8   4   8   8   8
#     4  10  21  35  50  73 104 134 166 208 259 308
#     4   9  19  36  55  73  94 125 168 214 260 312
#     4   9  19  33  50  78 108 135 172 214 254 302
#     4   9  18  30  43  63  91 121 156 203 254 299
#     4  10  18  30  48  69  92 123 166 209 250 300
#     4   9  17  31  51  72 101 136 166 206 259 307
#     4   9  19  36  56  78 106 140 174 209 255 309
#
# _framework density 17.493670999999999
#
# number of rings (size 3 to 8) (size 9 to 14) (size 15 to 20)
#    0.000    2.692    0.769    2.769    0.000    5.538 
#    0.000    6.154    0.000    3.692    0.000    3.231 
#    0.000    0.000    0.000    0.000    0.000    0.000 
#
# Total GULP energy -644213.458816 kJ/mol
# GULP energy per Si atom -12388.720362 kJ/mol
# Density = 1.745385 g / cm^3
# Si number density = 17.493671 Si / 1000 Ang^3
#
#
#
# Elastic Constant Matrix: (Units=GPa)
#
#
# Indices 1 2 3 4 5 6 
#
# 1 117.1728 65.2895 48.7614 0.0000 0.0000 0.0000
# 2 65.2895 86.2891 46.7421 0.0000 0.0000 0.0000
# 3 48.7614 46.7421 75.6737 0.0000 0.0000 0.0000
# 4 0.0000 0.0000 0.0000 17.0265 0.0000 0.0000
# 5 0.0000 0.0000 0.0000 0.0000 28.0756 0.0000
# 6 0.0000 0.0000 0.0000 0.0000 0.0000 25.4645
#
#
#
# Elastic Compliance Matrix: (Units=1/GPa)
#
#
# Indices 1 2 3 4 5 6 
#
# 1 0.015574 -0.009540 -0.004143 0.000000 0.000000 0.000000
# 2 -0.009540 0.023260 -0.008220 0.000000 0.000000 0.000000
# 3 -0.004143 -0.008220 0.020961 0.000000 0.000000 0.000000
# 4 0.000000 0.000000 0.000000 0.058732 0.000000 0.000000
# 5 0.000000 0.000000 0.000000 0.000000 0.035618 0.000000
# 6 0.000000 0.000000 0.000000 0.000000 0.000000 0.039270
#
#
# Mechanical properties :
#
#
# Convention : Reuss Voigt Hill
#
# Bulk Modulus (GPa) = 62.53884 66.74685 64.64285
# Shear Modulus (GPa) = 20.61420 22.00284 21.30852
#
# Velocity S-wave (km/s) = 3.43648 3.55034 3.49387
# Velocity P-wave (km/s) = 7.18143 7.41918 7.30127
#
# Compressibility (1/GPa) = 0.01599006
#
# Stress axis : x y z
#
# Youngs Moduli (GPa) = 64.20933 42.99257 47.70657
#
# Poissons Ratio (x) = 0.41014 0.19764
# Poissons Ratio (y) = 0.61254 0.39215
# Poissons Ratio (z) = 0.26601 0.35340
#
# Static dielectric constant tensor:
#      x y z
#    x 3.414720 0.000000 0.000000 
#    y 0.000000 3.176490 0.000000 
#    z 0.000000 0.000000 3.226630 
# 
# 
# High freq. dielectric constant tensor:
#      x y z
#    x 1.686120 0.000000 0.000000 
#    y 0.000000 1.650790 0.000000 
#    z 0.000000 0.000000 1.673500 
# 
# From -- ./inp_files/7063.got.cif
#   From: 2010.03.12/outbox.cif.g09.slc.cpg/sg47_4_cif.got.tgz:7063.got - 2010.04.14 03:12:58.
