data_PCOD8194500
_publ_section_title
;
Structure prediction by ZEFSAII (Michael W. Deem and Ramdas Pophale) SiO2 
 PCOD8194500
Probable space group: P M M M
;
_chemical_formula_sum "Si O2"
_cell_formula_units_Z 64
_cell_length_a 8.988530
_cell_length_b 15.353356
_cell_length_c 24.033355
_cell_angle_alpha 90.000000
_cell_angle_beta 90.000000
_cell_angle_gamma 90.000000
_cell_volume 3316.701551
_symmetry_space_group_name_H-M "P M M M"
_symmetry_group_IT_number 47
_symmetry_cell_setting 'orthorhombic'
loop_
_space_group_symop_operation_xyz
x,y,z
-x,-y,z
x,-y,-z
-x,y,-z
-x,-y,-z
x,y,-z
-x,y,z
x,-y,z
loop_
_atom_site_type_symbol
_atom_site_label
_atom_site_fract_x
_atom_site_fract_y
_atom_site_fract_z
Si Si1 0.174415 0.250000 0.935462
Si Si2 0.829764 0.647802 0.761470
Si Si3 0.823234 0.402823 0.640061
Si Si4 0.829764 0.852198 0.761470
Si Si5 0.670820 0.901819 0.869663
Si Si6 0.670820 0.598181 0.130337
Si Si7 0.823235 0.902823 0.359938
Si Si8 0.822261 0.750000 0.562564
O O1 0.238960 0.162631 0.908994
O O2 0.238960 0.337368 0.908994
O O3 0.000000 0.250000 0.924178
O O4 0.215346 0.250000 0.000000
O O5 0.764187 0.623246 0.701065
O O6 0.818033 0.750000 0.771668
O O7 0.731522 0.599266 0.806967
O O8 0.000000 0.615981 0.766906
O O9 0.769210 0.500000 0.624372
O O10 0.760784 0.335672 0.594186
O O11 0.000000 0.396577 0.640910
O O12 0.731523 0.900734 0.806967
O O13 0.764185 0.876755 0.701065
O O14 0.000000 0.884020 0.766905
O O15 0.500000 0.872050 0.869170
O O16 0.687774 0.000000 0.892951
O O17 0.500000 0.627949 0.130830
O O18 0.687776 0.500000 0.107049
O O19 0.760785 0.835672 0.405814
O O20 0.000000 0.896574 0.359088
O O21 0.769215 0.000000 0.375628
O O22 0.758670 0.750000 0.500000
O O23 0.000000 0.750000 0.561992
#
# Coordination Sequence:
#
# PCOD8194500 Si02
#       8
#     8   8   8   8   8   8   8   8
#     4  11  25  44  65  88 114 149 194 237 272 315
#     4  10  18  31  54  80 107 142 181 223 274 331
#     4   9  16  26  41  63  93 130 172 218 269 324
#     4  10  18  31  54  80 107 142 181 223 274 331
#     4  11  24  40  60  88 120 151 183 225 281 339
#     4  11  24  40  60  88 120 151 183 225 281 339
#     4   9  16  26  41  63  93 130 172 218 269 324
#     4   9  16  25  36  55  88 129 174 221 268 323
#
# _framework density 19.296278999999998
#
# number of rings (size 3 to 8) (size 9 to 14) (size 15 to 20)
#    0.000    2.000    2.500    1.875    0.000    5.000 
#    0.000    5.000    0.000    0.000    0.000    0.000 
#    0.000    2.000    0.000    5.250    0.000    5.000 
#
# Total GULP energy -793653.302872 kJ/mol
# GULP energy per Si atom -12400.832857 kJ/mol
# Density = 1.925236 g / cm^3
# Si number density = 19.296279 Si / 1000 Ang^3
#
#
#
# Elastic Constant Matrix: (Units=GPa)
#
#
# Indices 1 2 3 4 5 6 
#
# 1 46.4397 32.9490 53.1079 0.0000 0.0000 0.0000
# 2 32.9490 131.5185 70.3659 0.0000 0.0000 0.0000
# 3 53.1079 70.3659 155.8546 0.0000 0.0000 0.0000
# 4 0.0000 0.0000 0.0000 14.7116 0.0000 0.0000
# 5 0.0000 0.0000 0.0000 0.0000 -2.5362 0.0000
# 6 0.0000 0.0000 0.0000 0.0000 0.0000 19.0252
#
#
#
# Elastic Compliance Matrix: (Units=1/GPa)
#
#
# Indices 1 2 3 4 5 6 
#
# 1 0.036316 -0.003266 -0.010900 0.000000 0.000000 0.000000
# 2 -0.003266 0.010319 -0.003546 0.000000 0.000000 0.000000
# 3 -0.010900 -0.003546 0.011731 0.000000 0.000000 0.000000
# 4 0.000000 0.000000 0.000000 0.067974 0.000000 0.000000
# 5 0.000000 0.000000 0.000000 0.000000 -0.394295 0.000000
# 6 0.000000 0.000000 0.000000 0.000000 0.000000 0.052562
#
#
# Mechanical properties :
#
#
# Convention : Reuss Voigt Hill
#
# Bulk Modulus (GPa) = 43.58862 71.85095 57.71979
# Shear Modulus (GPa) = -29.01558 18.06612 -5.47473
#
# Velocity S-wave (km/s) = -3.88195 3.06314 -1.68622
# Velocity P-wave (km/s) = 1.59545 7.05882 5.11724
#
# Compressibility (1/GPa) = 0.02294177
#
# Stress axis : x y z
#
# Youngs Moduli (GPa) = 27.53612 96.90959 85.24168
#
# Poissons Ratio (x) = 0.31654 0.92914
# Poissons Ratio (y) = 0.08994 0.30225
# Poissons Ratio (z) = 0.30015 0.34362
#
# Static dielectric constant tensor:
#      x y z
#    x 3.120680 0.000000 0.000000 
#    y 0.000000 3.702200 0.000000 
#    z 0.000000 0.000000 3.629770 
# 
# 
# High freq. dielectric constant tensor:
#      x y z
#    x 1.703300 0.000000 0.000000 
#    y 0.000000 1.769020 0.000000 
#    z 0.000000 0.000000 1.752020 
# 
# From -- ./inp_files/32098.got.cif
#   From: 2010.03.12/outbox.cif.g09.slc.cpg/sg47_17_cif.got.tgz:32098.got - 2010.04.14 03:12:58.
