data_PCOD8194808
_publ_section_title
;
Structure prediction by ZEFSAII (Michael W. Deem and Ramdas Pophale) SiO2 
 PCOD8194808
Probable space group: P M M M
;
_chemical_formula_sum "Si O2"
_cell_formula_units_Z 48
_cell_length_a 9.211021
_cell_length_b 13.620860
_cell_length_c 24.465309
_cell_angle_alpha 90.000000
_cell_angle_beta 90.000000
_cell_angle_gamma 90.000000
_cell_volume 3069.467271
_symmetry_space_group_name_H-M "P M M M"
_symmetry_group_IT_number 47
_symmetry_cell_setting 'orthorhombic'
loop_
_space_group_symop_operation_xyz
x,y,z
-x,-y,z
x,-y,-z
-x,y,-z
-x,-y,-z
x,y,-z
-x,y,z
x,-y,z
loop_
_atom_site_type_symbol
_atom_site_label
_atom_site_fract_x
_atom_site_fract_y
_atom_site_fract_z
Si Si1 0.170927 0.796312 0.724465
Si Si2 0.665840 0.890235 0.629118
Si Si3 0.662192 0.883633 0.057764
Si Si4 0.673134 0.113347 0.176087
Si Si5 0.167441 0.390042 0.656922
Si Si6 0.669711 0.704541 0.438690
O O1 0.229507 0.874169 0.680563
O O2 0.248756 0.814531 0.781858
O O3 0.212756 0.686474 0.704280
O O4 0.000000 0.810667 0.731564
O O5 0.500000 0.874765 0.649052
O O6 0.704310 0.815620 0.580431
O O7 0.689822 0.000000 0.606494
O O8 0.500000 0.840517 0.055802
O O9 0.732664 0.851800 0.115786
O O10 0.653573 0.000000 0.059594
O O11 0.741406 0.850783 0.000000
O O12 0.500000 0.125786 0.179673
O O13 0.715593 0.000000 0.188002
O O14 0.199588 0.500000 0.678346
O O15 0.254547 0.372895 0.601098
O O16 0.000000 0.374991 0.642018
O O17 0.730735 0.691804 0.500000
O O18 0.500000 0.682533 0.437040
#
# Coordination Sequence:
#
# PCOD8194808 Si02
#       6
#     8   8   8   8   8   8
#     4  10  19  29  42  60  81 104 133 170 207 241
#     4   9  17  29  44  60  81 111 140 162 188 227
#     4   7  10  18  33  53  77 107 143 174 192 213
#     4   9  16  25  39  60  86 115 142 166 194 230
#     4   9  19  35  50  61  76 102 134 166 203 247
#     4   9  18  31  46  66  88 105 126 160 199 238
#
# _framework density 15.637892000000001
#
# number of rings (size 3 to 8) (size 9 to 14) (size 15 to 20)
#    0.000    3.167    0.000    2.500    0.000    4.667 
#    0.000    3.333    0.000    0.500    0.000    7.000 
#    0.000    0.667    0.000    8.333    0.000    0.333 
#
# Total GULP energy -594696.346343 kJ/mol
# GULP energy per Si atom -12389.507215 kJ/mol
# Density = 1.560230 g / cm^3
# Si number density = 15.637892 Si / 1000 Ang^3
#
#
#
# Elastic Constant Matrix: (Units=GPa)
#
#
# Indices 1 2 3 4 5 6 
#
# 1 37.0556 22.7345 40.2141 0.0000 0.0000 0.0000
# 2 22.7345 73.3658 41.8436 0.0000 0.0000 0.0000
# 3 40.2141 41.8436 145.1885 0.0000 0.0000 0.0000
# 4 0.0000 0.0000 0.0000 13.9961 0.0000 0.0000
# 5 0.0000 0.0000 0.0000 0.0000 6.8318 0.0000
# 6 0.0000 0.0000 0.0000 0.0000 0.0000 18.5703
#
#
#
# Elastic Compliance Matrix: (Units=1/GPa)
#
#
# Indices 1 2 3 4 5 6 
#
# 1 0.041856 -0.007609 -0.009400 0.000000 0.000000 0.000000
# 2 -0.007609 0.017695 -0.002992 0.000000 0.000000 0.000000
# 3 -0.009400 -0.002992 0.010354 0.000000 0.000000 0.000000
# 4 0.000000 0.000000 0.000000 0.071448 0.000000 0.000000
# 5 0.000000 0.000000 0.000000 0.000000 0.146374 0.000000
# 6 0.000000 0.000000 0.000000 0.000000 0.000000 0.053850
#
#
# Mechanical properties :
#
#
# Convention : Reuss Voigt Hill
#
# Bulk Modulus (GPa) = 33.44284 51.68824 42.56554
# Shear Modulus (GPa) = 12.76988 17.93416 15.35202
#
# Velocity S-wave (km/s) = 2.86072 3.39018 3.13664
# Velocity P-wave (km/s) = 5.68716 6.96056 6.35583
#
# Compressibility (1/GPa) = 0.02990176
#
# Stress axis : x y z
#
# Youngs Moduli (GPa) = 23.89122 56.51403 96.58433
#
# Poissons Ratio (x) = 0.43001 0.90793
# Poissons Ratio (y) = 0.18179 0.28899
# Poissons Ratio (z) = 0.22459 0.16910
#
# Static dielectric constant tensor:
#      x y z
#    x 2.825170 0.000000 0.000000 
#    y 0.000000 2.812400 0.000000 
#    z 0.000000 0.000000 3.320480 
# 
# 
# High freq. dielectric constant tensor:
#      x y z
#    x 1.581530 0.000000 0.000000 
#    y 0.000000 1.567830 0.000000 
#    z 0.000000 0.000000 1.603840 
# 
# From -- ./inp_files/7510.got.cif
#   From: 2010.03.12/outbox.cif.g09.slc.cpg/sg47_4_cif.got.tgz:7510.got - 2010.04.14 03:12:58.
