data_PCOD8194454
_publ_section_title
;
Structure prediction by ZEFSAII (Michael W. Deem and Ramdas Pophale) SiO2 
 PCOD8194454
Probable space group: P M M M
;
_chemical_formula_sum "Si O2"
_cell_formula_units_Z 52
_cell_length_a 28.752733
_cell_length_b 8.983604
_cell_length_c 11.577814
_cell_angle_alpha 90.000000
_cell_angle_beta 90.000000
_cell_angle_gamma 90.000000
_cell_volume 2990.586025
_symmetry_space_group_name_H-M "P M M M"
_symmetry_group_IT_number 47
_symmetry_cell_setting 'orthorhombic'
loop_
_space_group_symop_operation_xyz
x,y,z
-x,-y,z
x,-y,-z
-x,y,-z
-x,-y,-z
x,y,-z
-x,y,z
x,-y,z
loop_
_atom_site_type_symbol
_atom_site_label
_atom_site_fract_x
_atom_site_fract_y
_atom_site_fract_z
Si Si1 0.450839 0.666082 0.636866
Si Si2 0.908523 0.323808 0.755631
Si Si3 0.875319 0.675418 0.000000
Si Si4 0.649666 0.677929 0.632270
Si Si5 0.000000 0.677894 0.368361
Si Si6 0.733428 0.174985 0.243024
Si Si7 0.184027 0.330632 0.635379
Si Si8 0.224646 0.825741 0.000000
O O1 0.449445 0.656230 0.500000
O O2 0.500000 0.747235 0.675438
O O3 0.452337 0.500000 0.688397
O O4 0.401531 0.739993 0.673326
O O5 0.910398 0.500000 0.742770
O O6 0.954742 0.256398 0.697034
O O7 0.862704 0.263883 0.691380
O O8 0.905323 0.274089 0.889175
O O9 0.824636 0.745824 0.000000
O O10 0.867081 0.500000 0.000000
O O11 0.660828 0.726965 0.500000
O O12 0.651128 0.500000 0.640185
O O13 0.685721 0.746956 0.721487
O O14 0.000000 0.500000 0.364957
O O15 0.000000 0.735128 0.500000
O O16 0.773496 0.227469 0.329187
O O17 0.745935 0.221925 0.112292
O O18 0.727142 0.000000 0.255647
O O19 0.177299 0.325202 0.500000
O O20 0.193433 0.500000 0.677457
O O21 0.214274 0.000000 0.000000
#
# Coordination Sequence:
#
# PCOD8194454 Si02
#       8
#     8   8   4   8   4   8   8   4
#     4   7  10  19  38  64  93 125 158 188 221 268
#     4   9  17  28  45  70  97 126 156 188 230 277
#     4  10  18  31  52  74  94 117 155 204 241 273
#     4   9  17  29  46  71 102 130 156 190 233 281
#     4   9  16  27  43  67 103 135 152 178 231 292
#     4  11  22  34  48  66  90 122 159 200 242 284
#     4  10  19  31  48  70  96 124 155 189 228 281
#     4  10  22  38  51  65  88 123 164 203 241 284
#
# _framework density 17.387895
#
# number of rings (size 3 to 8) (size 9 to 14) (size 15 to 20)
#    0.000    2.692    1.538    2.769    0.000    5.231 
#    0.000    1.538    0.000    0.462    0.000    5.385 
#    0.000    8.000    0.000    0.000    0.000    0.000 
#
# Total GULP energy -644329.624662 kJ/mol
# GULP energy per Si atom -12390.954320 kJ/mol
# Density = 1.734832 g / cm^3
# Si number density = 17.387895 Si / 1000 Ang^3
#
#
#
# Elastic Constant Matrix: (Units=GPa)
#
#
# Indices 1 2 3 4 5 6 
#
# 1 176.0750 24.8295 66.9438 0.0000 0.0000 0.0000
# 2 24.8295 22.0532 20.2607 0.0000 0.0000 0.0000
# 3 66.9438 20.2607 103.2887 0.0000 0.0000 0.0000
# 4 0.0000 0.0000 0.0000 17.4271 0.0000 0.0000
# 5 0.0000 0.0000 0.0000 0.0000 15.8226 0.0000
# 6 0.0000 0.0000 0.0000 0.0000 0.0000 -2.2568
#
#
#
# Elastic Compliance Matrix: (Units=1/GPa)
#
#
# Indices 1 2 3 4 5 6 
#
# 1 0.007992 -0.005172 -0.004166 0.000000 0.000000 0.000000
# 2 -0.005172 0.058659 -0.008155 0.000000 0.000000 0.000000
# 3 -0.004166 -0.008155 0.013981 0.000000 0.000000 0.000000
# 4 0.000000 0.000000 0.000000 0.057382 0.000000 0.000000
# 5 0.000000 0.000000 0.000000 0.000000 0.063201 0.000000
# 6 0.000000 0.000000 0.000000 0.000000 0.000000 -0.443105
#
#
# Mechanical properties :
#
#
# Convention : Reuss Voigt Hill
#
# Bulk Modulus (GPa) = 21.90620 58.38720 40.14670
# Shear Modulus (GPa) = -26.08373 18.82413 -3.62980
#
# Velocity S-wave (km/s) = -3.87733 3.29386 -1.44640
# Velocity P-wave (km/s) = 2.72378 6.93672 4.51105
#
# Compressibility (1/GPa) = 0.04564918
#
# Stress axis : x y z
#
# Youngs Moduli (GPa) = 125.11789 17.04762 71.52553
#
# Poissons Ratio (x) = 0.08816 0.29795
# Poissons Ratio (y) = 0.64706 0.58326
# Poissons Ratio (z) = 0.52120 0.13902
#
# Static dielectric constant tensor:
#      x y z
#    x 3.742750 0.000000 0.000000 
#    y 0.000000 2.843700 0.000000 
#    z 0.000000 0.000000 3.254630 
# 
# 
# High freq. dielectric constant tensor:
#      x y z
#    x 1.689520 0.000000 0.000000 
#    y 0.000000 1.623340 0.000000 
#    z 0.000000 0.000000 1.655120 
# 
# From -- ./inp_files/20079.got.cif
#   From: 2010.03.12/outbox.cif.g09.slc.cpg/sg47_11_cif.got.tgz:20079.got - 2010.04.14 03:12:58.
