data_PCOD8194410
_publ_section_title
;
Structure prediction by ZEFSAII (Michael W. Deem and Ramdas Pophale) SiO2 
 PCOD8194410
Probable space group: P M M M
;
_chemical_formula_sum "Si O2"
_cell_formula_units_Z 40
_cell_length_a 20.648623
_cell_length_b 12.032505
_cell_length_c 8.552801
_cell_angle_alpha 90.000000
_cell_angle_beta 90.000000
_cell_angle_gamma 90.000000
_cell_volume 2124.983260
_symmetry_space_group_name_H-M "P M M M"
_symmetry_group_IT_number 47
_symmetry_cell_setting 'orthorhombic'
loop_
_space_group_symop_operation_xyz
x,y,z
-x,-y,z
x,-y,-z
-x,y,-z
-x,-y,-z
x,y,-z
-x,y,z
x,-y,z
loop_
_atom_site_type_symbol
_atom_site_label
_atom_site_fract_x
_atom_site_fract_y
_atom_site_fract_z
Si Si1 0.813724 0.124116 0.185599
Si Si2 0.732059 0.500000 0.816107
Si Si3 0.926720 0.283128 0.819101
Si Si4 0.872587 0.500000 0.319822
Si Si5 0.691561 0.736791 0.813118
Si Si6 0.571761 0.875184 0.185975
O O1 0.879143 0.185810 0.239803
O O2 0.751843 0.191259 0.250554
O O3 0.813457 0.000000 0.257011
O O4 0.810376 0.117597 0.000000
O O5 0.807824 0.500000 0.781599
O O6 0.698057 0.610983 0.747438
O O7 0.723464 0.500000 0.000000
O O8 0.915475 0.393003 0.718601
O O9 0.000000 0.241267 0.794036
O O10 0.912966 0.311954 0.000000
O O11 0.852977 0.500000 0.500000
O O12 0.625152 0.790055 0.746574
O O13 0.691975 0.737069 0.000000
O O14 0.500000 0.838751 0.243464
O O15 0.587297 0.000000 0.245381
O O16 0.574129 0.874325 0.000000
#
# Coordination Sequence:
#
# PCOD8194410 Si02
#       6
#     8   4   8   4   8   8
#     4   9  16  26  44  70  95 120 155 197 236 279
#     4  10  18  31  50  70  94 124 158 200 247 287
#     4  10  20  34  52  73  98 126 156 195 242 287
#     4  12  23  35  52  72  95 124 162 204 242 287
#     4   9  15  24  41  63  90 124 161 194 230 279
#     4   8  13  21  34  57  93 131 159 186 228 282
#
# _framework density 18.823677
#
# number of rings (size 3 to 8) (size 9 to 14) (size 15 to 20)
#    0.000    2.600    2.000    2.400    0.000    4.400 
#    0.000    2.500    0.000    3.600    0.000    1.400 
#    0.000    1.600    0.000    2.200    0.000    2.000 
#
# Total GULP energy -495871.736195 kJ/mol
# GULP energy per Si atom -12396.793405 kJ/mol
# Density = 1.878083 g / cm^3
# Si number density = 18.823677 Si / 1000 Ang^3
#
#
#
# Elastic Constant Matrix: (Units=GPa)
#
#
# Indices 1 2 3 4 5 6 
#
# 1 169.9429 98.3324 3.3291 0.0000 0.0000 0.0000
# 2 98.3324 180.2906 12.5408 0.0000 0.0000 0.0000
# 3 3.3291 12.5408 7.2687 0.0000 0.0000 0.0000
# 4 0.0000 0.0000 0.0000 -0.2308 0.0000 0.0000
# 5 0.0000 0.0000 0.0000 0.0000 2.1611 0.0000
# 6 0.0000 0.0000 0.0000 0.0000 0.0000 39.5243
#
#
#
# Elastic Compliance Matrix: (Units=1/GPa)
#
#
# Indices 1 2 3 4 5 6 
#
# 1 0.008742 -0.005102 0.004798 0.000000 0.000000 0.000000
# 2 -0.005102 0.009281 -0.013675 0.000000 0.000000 0.000000
# 3 0.004798 -0.013675 0.158973 0.000000 0.000000 0.000000
# 4 0.000000 0.000000 0.000000 -4.331911 0.000000 0.000000
# 5 0.000000 0.000000 0.000000 0.000000 0.462736 0.000000
# 6 0.000000 0.000000 0.000000 0.000000 0.000000 0.025301
#
#
# Mechanical properties :
#
#
# Convention : Reuss Voigt Hill
#
# Bulk Modulus (GPa) = 6.70967 65.10076 35.90521
# Shear Modulus (GPa) = -1.39305 24.51089 11.55892
#
# Velocity S-wave (km/s) = -0.86120 3.61242 2.48072
# Velocity P-wave (km/s) = 1.60728 7.21519 5.22697
#
# Compressibility (1/GPa) = 0.14903860
#
# Stress axis : x y z
#
# Youngs Moduli (GPa) = 114.38442 107.75268 6.29038
#
# Poissons Ratio (x) = 0.54975 -0.03018
# Poissons Ratio (y) = 0.58359 0.08602
# Poissons Ratio (z) = -0.54887 1.47353
#
# Static dielectric constant tensor:
#      x y z
#    x 3.661260 0.000000 0.000000 
#    y 0.000000 3.801560 0.000000 
#    z 0.000000 0.000000 2.720850 
# 
# 
# High freq. dielectric constant tensor:
#      x y z
#    x 1.738070 0.000000 0.000000 
#    y 0.000000 1.736610 0.000000 
#    z 0.000000 0.000000 1.657850 
# 
# From -- ./inp_files/4092.got.cif
#   From: 2010.03.12/outbox.cif.g09.slc.cpg/sg47_3_cif.got.tgz:4092.got - 2010.04.14 03:12:58.
