data_PCOD8194545
_publ_section_title
;
Structure prediction by ZEFSAII (Michael W. Deem and Ramdas Pophale) SiO2 
 PCOD8194545
Probable space group: P M M M
;
_chemical_formula_sum "Si O2"
_cell_formula_units_Z 48
_cell_length_a 16.012081
_cell_length_b 8.803121
_cell_length_c 16.993307
_cell_angle_alpha 90.000000
_cell_angle_beta 90.000000
_cell_angle_gamma 90.000000
_cell_volume 2395.313450
_symmetry_space_group_name_H-M "P M M M"
_symmetry_group_IT_number 47
_symmetry_cell_setting 'orthorhombic'
loop_
_space_group_symop_operation_xyz
x,y,z
-x,-y,z
x,-y,-z
-x,y,-z
-x,-y,-z
x,y,-z
-x,y,z
x,-y,z
loop_
_atom_site_type_symbol
_atom_site_label
_atom_site_fract_x
_atom_site_fract_y
_atom_site_fract_z
Si Si1 0.908726 0.323284 0.678916
Si Si2 0.405260 0.320407 0.000000
Si Si3 0.343767 0.822282 0.158546
Si Si4 0.252659 0.681234 0.411115
Si Si5 0.592813 0.675891 0.307747
Si Si6 0.826696 0.323491 0.160970
Si Si7 0.092619 0.680550 0.000000
O O1 0.911010 0.500000 0.658492
O O2 0.831516 0.251512 0.629687
O O3 0.896284 0.299270 0.772208
O O4 0.000000 0.252239 0.656552
O O5 0.359399 0.259525 0.923588
O O6 0.399121 0.500000 0.000000
O O7 0.500000 0.262104 0.000000
O O8 0.406991 0.766240 0.225605
O O9 0.251598 0.777053 0.186963
O O10 0.353885 0.000000 0.146483
O O11 0.255830 0.742848 0.500000
O O12 0.251507 0.500000 0.408976
O O13 0.336262 0.739860 0.366840
O O14 0.500000 0.697080 0.345073
O O15 0.610533 0.500000 0.288912
O O16 0.800196 0.500000 0.155792
O O17 0.860338 0.261836 0.077749
O O18 0.087545 0.500000 0.000000
O O19 0.000000 0.750380 0.000000
#
# Coordination Sequence:
#
# PCOD8194545 Si02
#       7
#     8   4   8   8   8   8   4
#     4   9  16  27  48  78 111 146 184 231 285 337
#     4  11  24  41  60  82 110 147 190 232 277 329
#     4  12  24  37  56  82 114 149 188 232 280 330
#     4   9  17  30  50  80 116 147 180 231 289 341
#     4  10  20  36  58  82 110 147 189 231 281 340
#     4  10  18  32  53  76 108 147 188 231 277 334
#     4   9  17  28  48  80 108 135 180 232 275 321
#
# _framework density 20.039131000000001
#
# number of rings (size 3 to 8) (size 9 to 14) (size 15 to 20)
#    0.000    2.000    1.667    3.250    0.000    6.333 
#    0.000    3.333    0.000    3.000    0.000    1.167 
#    0.000    1.333    0.000    0.000    0.000    0.000 
#
# Total GULP energy -595122.360009 kJ/mol
# GULP energy per Si atom -12398.382500 kJ/mol
# Density = 1.999352 g / cm^3
# Si number density = 20.039131 Si / 1000 Ang^3
#
#
#
# Elastic Constant Matrix: (Units=GPa)
#
#
# Indices 1 2 3 4 5 6 
#
# 1 159.0992 18.2753 59.7942 0.0000 0.0000 0.0000
# 2 18.2753 37.1994 13.2196 0.0000 0.0000 0.0000
# 3 59.7942 13.2196 138.0202 0.0000 0.0000 0.0000
# 4 0.0000 0.0000 0.0000 3.5678 0.0000 0.0000
# 5 0.0000 0.0000 0.0000 0.0000 23.9623 0.0000
# 6 0.0000 0.0000 0.0000 0.0000 0.0000 4.1159
#
#
#
# Elastic Compliance Matrix: (Units=1/GPa)
#
#
# Indices 1 2 3 4 5 6 
#
# 1 0.007763 -0.002711 -0.003104 0.000000 0.000000 0.000000
# 2 -0.002711 0.028776 -0.001582 0.000000 0.000000 0.000000
# 3 -0.003104 -0.001582 0.008741 0.000000 0.000000 0.000000
# 4 0.000000 0.000000 0.000000 0.280283 0.000000 0.000000
# 5 0.000000 0.000000 0.000000 0.000000 0.041732 0.000000
# 6 0.000000 0.000000 0.000000 0.000000 0.000000 0.242962
#
#
# Mechanical properties :
#
#
# Convention : Reuss Voigt Hill
#
# Bulk Modulus (GPa) = 32.79961 57.43299 45.11630
# Shear Modulus (GPa) = 7.87137 22.53118 15.20127
#
# Velocity S-wave (km/s) = 1.98407 3.35678 2.75722
# Velocity P-wave (km/s) = 4.65317 6.61412 5.71833
#
# Compressibility (1/GPa) = 0.03048817
#
# Stress axis : x y z
#
# Youngs Moduli (GPa) = 128.81270 34.75101 114.39857
#
# Poissons Ratio (x) = 0.09421 0.35504
# Poissons Ratio (y) = 0.34921 0.18094
# Poissons Ratio (z) = 0.39978 0.05497
#
# Static dielectric constant tensor:
#      x y z
#    x 3.951710 0.000000 0.000000 
#    y 0.000000 3.054550 0.000000 
#    z 0.000000 0.000000 3.707040 
# 
# 
# High freq. dielectric constant tensor:
#      x y z
#    x 1.800440 0.000000 0.000000 
#    y 0.000000 1.716810 0.000000 
#    z 0.000000 0.000000 1.783370 
# 
# From -- ./inp_files/9232.got.cif
#   From: 2010.03.12/outbox.cif.g09.slc.cpg/sg47_5_cif.got.tgz:9232.got - 2010.04.14 03:12:58.
