data_PCOD8194463
_publ_section_title
;
Structure prediction by ZEFSAII (Michael W. Deem and Ramdas Pophale) SiO2 
 PCOD8194463
Probable space group: P M M M
;
_chemical_formula_sum "Si O2"
_cell_formula_units_Z 44
_cell_length_a 9.736276
_cell_length_b 9.062702
_cell_length_c 26.977561
_cell_angle_alpha 90.000000
_cell_angle_beta 90.000000
_cell_angle_gamma 90.000000
_cell_volume 2380.418186
_symmetry_space_group_name_H-M "P M M M"
_symmetry_group_IT_number 47
_symmetry_cell_setting 'orthorhombic'
loop_
_space_group_symop_operation_xyz
x,y,z
-x,-y,z
x,-y,-z
-x,y,-z
-x,-y,-z
x,y,-z
-x,y,z
x,-y,z
loop_
_atom_site_type_symbol
_atom_site_label
_atom_site_fract_x
_atom_site_fract_y
_atom_site_fract_z
Si Si1 0.158923 0.175839 0.500000
Si Si2 0.000000 0.175156 0.944837
Si Si3 0.158631 0.672300 0.784619
Si Si4 0.750575 0.825245 0.879838
Si Si5 0.157586 0.827232 0.316838
Si Si6 0.500000 0.824963 0.944586
Si Si7 0.342269 0.824949 0.591494
O O1 0.246135 0.234794 0.453006
O O2 0.000000 0.235733 0.500000
O O3 0.152269 0.000000 0.500000
O O4 0.126542 0.232355 0.913426
O O5 0.000000 0.000000 0.949636
O O6 0.000000 0.244649 0.000000
O O7 0.188995 0.500000 0.783078
O O8 0.251255 0.746939 0.826704
O O9 0.201001 0.740155 0.732132
O O10 0.000000 0.708037 0.796084
O O11 0.625747 0.768917 0.912474
O O12 0.752256 0.000000 0.870654
O O13 0.264886 0.774396 0.358585
O O14 0.000000 0.790678 0.332807
O O15 0.172564 0.000000 0.306121
O O16 0.500000 0.000000 0.949809
O O17 0.500000 0.755851 0.000000
O O18 0.500000 0.762719 0.589206
O O19 0.349180 0.000000 0.588404
#
# Coordination Sequence:
#
# PCOD8194463 Si02
#       7
#     4   4   8   8   8   4   8
#     4   9  15  23  39  65 100 137 168 197 240 296
#     4   9  16  26  47  77 101 123 157 198 237 284
#     4  10  20  34  52  73  98 128 165 210 255 296
#     4  10  18  31  52  76 101 129 162 200 244 294
#     4   9  17  30  49  70  94 126 166 206 245 292
#     4   9  18  32  51  77 105 129 157 198 245 292
#     4   9  16  26  41  66  99 132 164 203 247 290
#
# _framework density 18.484147
#
# number of rings (size 3 to 8) (size 9 to 14) (size 15 to 20)
#    0.000    2.636    0.909    1.909    0.000    6.182 
#    1.636    0.455    0.000    3.273    0.000    0.636 
#    0.000    5.091    0.000    0.000    0.000    0.000 
#
# Total GULP energy -545361.202619 kJ/mol
# GULP energy per Si atom -12394.572787 kJ/mol
# Density = 1.844208 g / cm^3
# Si number density = 18.484147 Si / 1000 Ang^3
#
#
#
# Elastic Constant Matrix: (Units=GPa)
#
#
# Indices 1 2 3 4 5 6 
#
# 1 158.6127 24.2849 97.4569 0.0000 0.0000 0.0000
# 2 24.2849 33.1591 42.6275 0.0000 0.0000 0.0000
# 3 97.4569 42.6275 187.0271 0.0000 0.0000 0.0000
# 4 0.0000 0.0000 0.0000 -0.3353 0.0000 0.0000
# 5 0.0000 0.0000 0.0000 0.0000 100.6660 0.0000
# 6 0.0000 0.0000 0.0000 0.0000 0.0000 10.3971
#
#
#
# Elastic Compliance Matrix: (Units=1/GPa)
#
#
# Indices 1 2 3 4 5 6 
#
# 1 0.009290 -0.000821 -0.004654 0.000000 0.000000 0.000000
# 2 -0.000821 0.042728 -0.009311 0.000000 0.000000 0.000000
# 3 -0.004654 -0.009311 0.009894 0.000000 0.000000 0.000000
# 4 0.000000 0.000000 0.000000 -2.982605 0.000000 0.000000
# 5 0.000000 0.000000 0.000000 0.000000 0.009934 0.000000
# 6 0.000000 0.000000 0.000000 0.000000 0.000000 0.096180
#
#
# Mechanical properties :
#
#
# Convention : Reuss Voigt Hill
#
# Bulk Modulus (GPa) = 30.92062 78.61528 54.76795
# Shear Modulus (GPa) = -1.80230 36.44087 17.31928
#
# Velocity S-wave (km/s) = -0.98852 4.44494 3.06433
# Velocity P-wave (km/s) = 3.93212 8.30463 6.49725
#
# Compressibility (1/GPa) = 0.03234088
#
# Stress axis : x y z
#
# Youngs Moduli (GPa) = 107.64621 23.40360 101.07287
#
# Poissons Ratio (x) = 0.01922 0.47035
# Poissons Ratio (y) = 0.08840 0.94107
# Poissons Ratio (z) = 0.50094 0.21791
#
# Static dielectric constant tensor:
#      x y z
#    x 3.549060 0.000000 0.000000 
#    y 0.000000 2.805780 0.000000 
#    z 0.000000 0.000000 3.561130 
# 
# 
# High freq. dielectric constant tensor:
#      x y z
#    x 1.718630 0.000000 0.000000 
#    y 0.000000 1.656170 0.000000 
#    z 0.000000 0.000000 1.734300 
# 
# From -- ./inp_files/34004.got.cif
#   From: 2010.03.12/outbox.cif.g09.slc.cpg/sg47_18_cif.got.tgz:34004.got - 2010.04.14 03:12:58.
