data_PCOD8194286
_publ_section_title
;
Structure prediction by ZEFSAII (Michael W. Deem and Ramdas Pophale) SiO2 
 PCOD8194286
Probable space group: P M M M
;
_chemical_formula_sum "Si O2"
_cell_formula_units_Z 56
_cell_length_a 18.726855
_cell_length_b 9.090926
_cell_length_c 18.913778
_cell_angle_alpha 90.000000
_cell_angle_beta 90.000000
_cell_angle_gamma 90.000000
_cell_volume 3219.965790
_symmetry_space_group_name_H-M "P M M M"
_symmetry_group_IT_number 47
_symmetry_cell_setting 'orthorhombic'
loop_
_space_group_symop_operation_xyz
x,y,z
-x,-y,z
x,-y,-z
-x,y,-z
-x,-y,-z
x,y,-z
-x,y,z
x,-y,z
loop_
_atom_site_type_symbol
_atom_site_label
_atom_site_fract_x
_atom_site_fract_y
_atom_site_fract_z
Si Si1 0.665600 0.672715 0.211276
Si Si2 0.705019 0.170392 0.579101
Si Si3 0.308134 0.171179 0.920913
Si Si4 0.161043 0.332542 0.078321
Si Si5 0.081371 0.328672 0.218484
Si Si6 0.419799 0.327246 0.347575
Si Si7 0.792714 0.173457 0.713247
O O1 0.677562 0.500000 0.205056
O O2 0.642866 0.740047 0.135331
O O3 0.605096 0.712978 0.268195
O O4 0.740614 0.746592 0.231828
O O5 0.730785 0.210844 0.500000
O O6 0.631711 0.254666 0.595139
O O7 0.768056 0.213852 0.633367
O O8 0.686458 0.000000 0.586479
O O9 0.226895 0.223122 0.913342
O O10 0.311761 0.000000 0.902901
O O11 0.336967 0.203355 0.000000
O O12 0.188755 0.500000 0.088393
O O13 0.102381 0.293354 0.137329
O O14 0.126580 0.313446 0.000000
O O15 0.091862 0.500000 0.235565
O O16 0.128124 0.235394 0.274105
O O17 0.000000 0.279322 0.229229
O O18 0.500000 0.267108 0.357879
O O19 0.416531 0.500000 0.359994
O O20 0.790690 0.000000 0.726844
#
# Coordination Sequence:
#
# PCOD8194286 Si02
#       7
#     8   8   8   8   8   8   8
#     4  10  18  30  50  71  94 127 165 202 241 286
#     4   9  19  35  54  77 103 130 161 197 237 284
#     4  10  19  29  44  68  96 124 159 207 254 290
#     4   9  17  29  45  65  92 127 163 198 241 292
#     4  10  20  32  47  69  98 131 165 204 248 292
#     4   9  19  34  51  75 106 135 162 194 233 282
#     4  10  19  32  51  72  95 125 162 202 243 287
#
# _framework density 17.391489
#
# number of rings (size 3 to 8) (size 9 to 14) (size 15 to 20)
#    0.000    2.429    1.429    1.286    0.000    3.429 
#    0.000    2.857    0.000    0.857    0.000    9.000 
#    0.000    0.000    0.000    0.000    0.000    0.000 
#
# Total GULP energy -694316.823559 kJ/mol
# GULP energy per Si atom -12398.514706 kJ/mol
# Density = 1.735191 g / cm^3
# Si number density = 17.391489 Si / 1000 Ang^3
#
#
#
# Elastic Constant Matrix: (Units=GPa)
#
#
# Indices 1 2 3 4 5 6 
#
# 1 72.3239 22.4963 42.6033 0.0000 0.0000 0.0000
# 2 22.4963 58.6249 41.4885 0.0000 0.0000 0.0000
# 3 42.6033 41.4885 123.3590 0.0000 0.0000 0.0000
# 4 0.0000 0.0000 0.0000 27.1264 0.0000 0.0000
# 5 0.0000 0.0000 0.0000 0.0000 19.1304 0.0000
# 6 0.0000 0.0000 0.0000 0.0000 0.0000 15.1480
#
#
#
# Elastic Compliance Matrix: (Units=1/GPa)
#
#
# Indices 1 2 3 4 5 6 
#
# 1 0.017820 -0.003258 -0.005058 0.000000 0.000000 0.000000
# 2 -0.003258 0.022981 -0.006604 0.000000 0.000000 0.000000
# 3 -0.005058 -0.006604 0.012074 0.000000 0.000000 0.000000
# 4 0.000000 0.000000 0.000000 0.036865 0.000000 0.000000
# 5 0.000000 0.000000 0.000000 0.000000 0.052273 0.000000
# 6 0.000000 0.000000 0.000000 0.000000 0.000000 0.066015
#
#
# Mechanical properties :
#
#
# Convention : Reuss Voigt Hill
#
# Bulk Modulus (GPa) = 43.41301 51.94268 47.67784
# Shear Modulus (GPa) = 20.36263 22.12894 21.24578
#
# Velocity S-wave (km/s) = 3.42546 3.57094 3.49896
# Velocity P-wave (km/s) = 6.37664 6.85082 6.61798
#
# Compressibility (1/GPa) = 0.02303457
#
# Stress axis : x y z
#
# Youngs Moduli (GPa) = 56.11698 43.51332 82.81930
#
# Poissons Ratio (x) = 0.14178 0.41894
# Poissons Ratio (y) = 0.18284 0.54693
# Poissons Ratio (z) = 0.28387 0.28736
#
# Static dielectric constant tensor:
#      x y z
#    x 3.019010 0.000000 0.000000 
#    y 0.000000 3.245120 0.000000 
#    z 0.000000 0.000000 3.520040 
# 
# 
# High freq. dielectric constant tensor:
#      x y z
#    x 1.635920 0.000000 0.000000 
#    y 0.000000 1.675630 0.000000 
#    z 0.000000 0.000000 1.677970 
# 
# From -- ./inp_files/9808.got.cif
#   From: 2010.03.12/outbox.cif.g09.slc.cpg/sg47_5_cif.got.tgz:9808.got - 2010.04.14 03:12:58.
