data_PCOD8194461
_publ_section_title
;
Structure prediction by ZEFSAII (Michael W. Deem and Ramdas Pophale) SiO2 
 PCOD8194461
Probable space group: P M M M
;
_chemical_formula_sum "Si O2"
_cell_formula_units_Z 64
_cell_length_a 20.312378
_cell_length_b 19.696040
_cell_length_c 9.423123
_cell_angle_alpha 90.000000
_cell_angle_beta 90.000000
_cell_angle_gamma 90.000000
_cell_volume 3769.940948
_symmetry_space_group_name_H-M "P M M M"
_symmetry_group_IT_number 47
_symmetry_cell_setting 'orthorhombic'
loop_
_space_group_symop_operation_xyz
x,y,z
-x,-y,z
x,-y,-z
-x,y,-z
-x,-y,-z
x,y,-z
-x,y,z
x,-y,z
loop_
_atom_site_type_symbol
_atom_site_label
_atom_site_fract_x
_atom_site_fract_y
_atom_site_fract_z
Si Si1 0.808127 0.833425 0.832828
Si Si2 0.393023 0.751035 0.842374
Si Si3 0.073105 0.076093 0.831536
Si Si4 0.749345 0.696598 0.836363
Si Si5 0.428877 0.123820 0.664829
Si Si6 0.427496 0.398621 0.839052
Si Si7 0.290189 0.924538 0.664929
Si Si8 0.299311 0.424029 0.336123
O O1 0.875692 0.867313 0.774567
O O2 0.806853 0.751976 0.800311
O O3 0.747432 0.869898 0.757906
O O4 0.799862 0.845743 0.000000
O O5 0.317366 0.736695 0.804108
O O6 0.424605 0.803067 0.735352
O O7 0.433621 0.682089 0.829956
O O8 0.398059 0.781902 0.000000
O O9 0.000000 0.094020 0.773663
O O10 0.093276 0.000000 0.780065
O O11 0.072171 0.077365 0.000000
O O12 0.751037 0.628751 0.739968
O O13 0.753321 0.672911 0.000000
O O14 0.425683 0.138629 0.500000
O O15 0.500000 0.090144 0.704811
O O16 0.367534 0.076592 0.708577
O O17 0.500000 0.428257 0.799519
O O18 0.371752 0.425717 0.733570
O O19 0.408160 0.420164 0.000000
O O20 0.280377 0.906368 0.500000
O O21 0.263679 0.000000 0.697888
O O22 0.306527 0.402435 0.500000
O O23 0.269391 0.500000 0.323077
#
# Coordination Sequence:
#
# PCOD8194461 Si02
#       8
#     8   8   8   8   8   8   8   8
#     4  10  18  31  52  75  97 124 161 199 230 269
#     4   9  16  29  45  62  84 108 138 183 235 282
#     4   8  14  25  44  74 109 139 164 191 226 268
#     4   9  18  31  48  69  91 117 152 191 233 279
#     4  10  20  31  43  59  79 108 148 193 242 291
#     4   9  18  31  46  64  86 114 147 183 230 290
#     4  10  21  34  46  63  89 120 155 197 244 289
#     4  10  21  34  47  65  90 119 150 189 237 285
#
# _framework density 16.976393999999999
#
# number of rings (size 3 to 8) (size 9 to 14) (size 15 to 20)
#    0.000    2.625    1.250    2.250    0.000    5.750 
#    0.000    2.500    0.000    0.375    0.000    3.500 
#    0.000    0.500    0.000    6.250    0.000    1.000 
#
# Total GULP energy -793044.160798 kJ/mol
# GULP energy per Si atom -12391.315012 kJ/mol
# Density = 1.693776 g / cm^3
# Si number density = 16.976394 Si / 1000 Ang^3
#
#
#
# Elastic Constant Matrix: (Units=GPa)
#
#
# Indices 1 2 3 4 5 6 
#
# 1 78.1098 43.7013 28.0522 0.0000 0.0000 0.0000
# 2 43.7013 98.7943 40.5157 0.0000 0.0000 0.0000
# 3 28.0522 40.5157 51.7438 0.0000 0.0000 0.0000
# 4 0.0000 0.0000 0.0000 15.5577 0.0000 0.0000
# 5 0.0000 0.0000 0.0000 0.0000 9.3489 0.0000
# 6 0.0000 0.0000 0.0000 0.0000 0.0000 2.7913
#
#
#
# Elastic Compliance Matrix: (Units=1/GPa)
#
#
# Indices 1 2 3 4 5 6 
#
# 1 0.017903 -0.005802 -0.005163 0.000000 0.000000 0.000000
# 2 -0.005802 0.016790 -0.010001 0.000000 0.000000 0.000000
# 3 -0.005163 -0.010001 0.029956 0.000000 0.000000 0.000000
# 4 0.000000 0.000000 0.000000 0.064277 0.000000 0.000000
# 5 0.000000 0.000000 0.000000 0.000000 0.106964 0.000000
# 6 0.000000 0.000000 0.000000 0.000000 0.000000 0.358251
#
#
# Mechanical properties :
#
#
# Convention : Reuss Voigt Hill
#
# Bulk Modulus (GPa) = 44.02029 50.35403 47.18716
# Shear Modulus (GPa) = 7.76826 13.29816 10.53321
#
# Velocity S-wave (km/s) = 2.14146 2.80184 2.49361
# Velocity P-wave (km/s) = 5.66578 6.33977 6.01223
#
# Compressibility (1/GPa) = 0.02271680
#
# Stress axis : x y z
#
# Youngs Moduli (GPa) = 55.85735 59.55911 33.38233
#
# Poissons Ratio (x) = 0.34556 0.17235
# Poissons Ratio (y) = 0.32408 0.33387
# Poissons Ratio (z) = 0.28838 0.59567
#
# Static dielectric constant tensor:
#      x y z
#    x 3.287930 0.000000 0.000000 
#    y 0.000000 3.238190 0.000000 
#    z 0.000000 0.000000 3.037940 
# 
# 
# High freq. dielectric constant tensor:
#      x y z
#    x 1.621340 0.000000 0.000000 
#    y 0.000000 1.651290 0.000000 
#    z 0.000000 0.000000 1.639300 
# 
# From -- ./inp_files/11819.got.cif
#   From: 2010.03.12/outbox.cif.g09.slc.cpg/sg47_6_cif.got.tgz:11819.got - 2010.04.14 03:12:58.
