data_PCOD8194559
_publ_section_title
;
Structure prediction by ZEFSAII (Michael W. Deem and Ramdas Pophale) SiO2 
 PCOD8194559
Probable space group: P M M M
;
_chemical_formula_sum "Si O2"
_cell_formula_units_Z 64
_cell_length_a 9.441754
_cell_length_b 19.878088
_cell_length_c 20.021087
_cell_angle_alpha 90.000000
_cell_angle_beta 90.000000
_cell_angle_gamma 90.000000
_cell_volume 3757.638031
_symmetry_space_group_name_H-M "P M M M"
_symmetry_group_IT_number 47
_symmetry_cell_setting 'orthorhombic'
loop_
_space_group_symop_operation_xyz
x,y,z
-x,-y,z
x,-y,-z
-x,y,-z
-x,-y,-z
x,y,-z
-x,y,z
x,-y,z
loop_
_atom_site_type_symbol
_atom_site_label
_atom_site_fract_x
_atom_site_fract_y
_atom_site_fract_z
Si Si1 0.839686 0.301846 0.252919
Si Si2 0.168041 0.924724 0.573932
Si Si3 0.837072 0.890140 0.924727
Si Si4 0.337134 0.924869 0.198111
Si Si5 0.840460 0.261783 0.102989
Si Si6 0.167532 0.161925 0.302949
Si Si7 0.666286 0.425563 0.215422
Si Si8 0.663875 0.615938 0.071626
O O1 0.818614 0.266208 0.182137
O O2 0.799514 0.242354 0.305327
O O3 0.742618 0.368342 0.259679
O O4 0.000000 0.326482 0.264128
O O5 0.224797 0.904877 0.500000
O O6 0.222874 0.870528 0.627757
O O7 0.000000 0.924465 0.573261
O O8 0.221539 0.000000 0.592703
O O9 0.731715 0.928587 0.875410
O O10 0.800582 0.811576 0.921959
O O11 0.000000 0.902847 0.902949
O O12 0.811980 0.916540 0.000000
O O13 0.500000 0.900804 0.193113
O O14 0.250240 0.873145 0.242986
O O15 0.328775 0.000000 0.228798
O O16 0.739241 0.312791 0.065332
O O17 0.000000 0.280569 0.083006
O O18 0.000000 0.150109 0.291260
O O19 0.500000 0.412580 0.221384
O O20 0.705697 0.500000 0.242625
O O21 0.717170 0.423999 0.137370
O O22 0.500000 0.630713 0.081363
O O23 0.690301 0.577638 0.000000
#
# Coordination Sequence:
#
# PCOD8194559 Si02
#       8
#     8   8   8   8   8   8   8   8
#     4   9  17  29  47  69  91 116 151 192 233 274
#     4   8  14  25  45  77 111 137 162 194 232 274
#     4  10  20  34  51  67  84 112 153 200 250 303
#     4  11  24  37  48  66  93 123 157 201 249 292
#     4   9  16  29  45  62  84 108 139 184 233 280
#     4  10  18  32  54  76  98 128 165 200 233 277
#     4   9  18  31  45  62  87 119 151 186 234 288
#     4   9  17  27  40  60  83 108 141 179 223 280
#
# _framework density 17.031974999999999
#
# number of rings (size 3 to 8) (size 9 to 14) (size 15 to 20)
#    0.000    2.625    1.250    1.500    0.000    4.250 
#    0.000    2.500    0.000    0.375    0.000    5.250 
#    0.000    0.500    0.000    6.250    0.000    1.000 
#
# Total GULP energy -793127.306340 kJ/mol
# GULP energy per Si atom -12392.614162 kJ/mol
# Density = 1.699321 g / cm^3
# Si number density = 17.031975 Si / 1000 Ang^3
#
#
#
# Elastic Constant Matrix: (Units=GPa)
#
#
# Indices 1 2 3 4 5 6 
#
# 1 52.2934 42.6282 25.8039 0.0000 0.0000 0.0000
# 2 42.6282 111.1288 45.4689 0.0000 0.0000 0.0000
# 3 25.8039 45.4689 72.9129 0.0000 0.0000 0.0000
# 4 0.0000 0.0000 0.0000 15.2274 0.0000 0.0000
# 5 0.0000 0.0000 0.0000 0.0000 7.7012 0.0000
# 6 0.0000 0.0000 0.0000 0.0000 0.0000 24.2670
#
#
#
# Elastic Compliance Matrix: (Units=1/GPa)
#
#
# Indices 1 2 3 4 5 6 
#
# 1 0.028857 -0.009251 -0.004443 0.000000 0.000000 0.000000
# 2 -0.009251 0.015047 -0.006109 0.000000 0.000000 0.000000
# 3 -0.004443 -0.006109 0.019097 0.000000 0.000000 0.000000
# 4 0.000000 0.000000 0.000000 0.065671 0.000000 0.000000
# 5 0.000000 0.000000 0.000000 0.000000 0.129849 0.000000
# 6 0.000000 0.000000 0.000000 0.000000 0.000000 0.041208
#
#
# Mechanical properties :
#
#
# Convention : Reuss Voigt Hill
#
# Bulk Modulus (GPa) = 42.74740 51.57080 47.15910
# Shear Modulus (GPa) = 14.40362 17.60140 16.00251
#
# Velocity S-wave (km/s) = 2.91121 3.21819 3.06854
# Velocity P-wave (km/s) = 6.03764 6.64481 6.34849
#
# Compressibility (1/GPa) = 0.02339323
#
# Stress axis : x y z
#
# Youngs Moduli (GPa) = 34.65395 66.45863 52.36338
#
# Poissons Ratio (x) = 0.61482 0.23267
# Poissons Ratio (y) = 0.32059 0.31991
# Poissons Ratio (z) = 0.15398 0.40602
#
# Static dielectric constant tensor:
#      x y z
#    x 3.052160 0.000000 0.000000 
#    y 0.000000 3.221930 0.000000 
#    z 0.000000 0.000000 3.202570 
# 
# 
# High freq. dielectric constant tensor:
#      x y z
#    x 1.639710 0.000000 0.000000 
#    y 0.000000 1.651750 0.000000 
#    z 0.000000 0.000000 1.622460 
# 
# From -- ./inp_files/11875.got.cif
#   From: 2010.03.12/outbox.cif.g09.slc.cpg/sg47_6_cif.got.tgz:11875.got - 2010.04.14 03:12:58.
