data_PCOD8194052
_publ_section_title
;
Structure prediction by ZEFSAII (Michael W. Deem and Ramdas Pophale) SiO2 
 PCOD8194052
Probable space group: P M M M
;
_chemical_formula_sum "Si O2"
_cell_formula_units_Z 52
_cell_length_a 30.325229
_cell_length_b 12.597547
_cell_length_c 9.471206
_cell_angle_alpha 90.000000
_cell_angle_beta 90.000000
_cell_angle_gamma 90.000000
_cell_volume 3618.223243
_symmetry_space_group_name_H-M "P M M M"
_symmetry_group_IT_number 47
_symmetry_cell_setting 'orthorhombic'
loop_
_space_group_symop_operation_xyz
x,y,z
-x,-y,z
x,-y,-z
-x,y,-z
-x,-y,-z
x,y,-z
-x,y,z
x,-y,z
loop_
_atom_site_type_symbol
_atom_site_label
_atom_site_fract_x
_atom_site_fract_y
_atom_site_fract_z
Si Si1 0.449820 0.122905 0.163227
Si Si2 0.694917 0.377236 0.338235
Si Si3 0.450130 0.500000 0.332010
Si Si4 0.399870 0.706409 0.665044
Si Si5 0.222365 0.626421 0.159417
Si Si6 0.953321 0.618805 0.667678
Si Si7 0.858784 0.372799 0.659510
O O1 0.500000 0.150967 0.206316
O O2 0.415820 0.188940 0.256211
O O3 0.440270 0.000000 0.192957
O O4 0.442037 0.150060 0.000000
O O5 0.710117 0.364136 0.500000
O O6 0.683674 0.500000 0.306854
O O7 0.651893 0.307925 0.305414
O O8 0.733925 0.333666 0.239334
O O9 0.500000 0.500000 0.275761
O O10 0.447639 0.500000 0.500000
O O11 0.425934 0.395355 0.273785
O O12 0.409536 0.720253 0.500000
O O13 0.221098 0.500000 0.162498
O O14 0.179210 0.672176 0.238371
O O15 0.222932 0.670179 0.000000
O O16 0.951166 0.613549 0.500000
O O17 0.955184 0.500000 0.729226
O O18 0.906707 0.671758 0.715842
O O19 0.000000 0.676338 0.714280
O O20 0.848999 0.333620 0.500000
O O21 0.860096 0.500000 0.661979
#
# Coordination Sequence:
#
# PCOD8194052 Si02
#       7
#     8   8   4   8   8   8   8
#     4   9  19  35  50  63  83 110 135 159 189 223
#     4   9  16  27  40  54  75  99 122 147 182 227
#     4   9  16  26  41  63  89 109 123 147 188 231
#     4  10  18  29  46  67  85 104 130 160 192 228
#     4   9  16  23  31  44  62  85 114 145 176 212
#     4   7   9  13  22  36  51  66  90 128 171 214
#     4   8  12  18  28  40  53  73 102 135 174 216
#
# _framework density 14.371694
#
# number of rings (size 3 to 8) (size 9 to 14) (size 15 to 20)
#    0.000    3.308    0.769    2.769    0.000    3.692 
#    0.000    1.154    0.000    1.846    0.000    3.231 
#    0.000    0.000    0.000    0.000    0.000    0.000 
#
# Total GULP energy -644244.278008 kJ/mol
# GULP energy per Si atom -12389.313039 kJ/mol
# Density = 1.433898 g / cm^3
# Si number density = 14.371694 Si / 1000 Ang^3
#
#
#
# Elastic Constant Matrix: (Units=GPa)
#
#
# Indices 1 2 3 4 5 6 
#
# 1 139.9521 33.5195 64.5635 0.0000 0.0000 0.0000
# 2 33.5195 33.0769 23.2734 0.0000 0.0000 0.0000
# 3 64.5635 23.2734 68.1214 0.0000 0.0000 0.0000
# 4 0.0000 0.0000 0.0000 13.1866 0.0000 0.0000
# 5 0.0000 0.0000 0.0000 0.0000 12.3859 0.0000
# 6 0.0000 0.0000 0.0000 0.0000 0.0000 6.1180
#
#
#
# Elastic Compliance Matrix: (Units=1/GPa)
#
#
# Indices 1 2 3 4 5 6 
#
# 1 0.013599 -0.006204 -0.010770 0.000000 0.000000 0.000000
# 2 -0.006204 0.042630 -0.008685 0.000000 0.000000 0.000000
# 3 -0.010770 -0.008685 0.027854 0.000000 0.000000 0.000000
# 4 0.000000 0.000000 0.000000 0.075835 0.000000 0.000000
# 5 0.000000 0.000000 0.000000 0.000000 0.080737 0.000000
# 6 0.000000 0.000000 0.000000 0.000000 0.000000 0.163452
#
#
# Mechanical properties :
#
#
# Convention : Reuss Voigt Hill
#
# Bulk Modulus (GPa) = 30.51829 53.76259 42.14044
# Shear Modulus (GPa) = 10.72166 14.32436 12.52301
#
# Velocity S-wave (km/s) = 2.73431 3.16049 2.95509
# Velocity P-wave (km/s) = 5.59014 7.12798 6.40538
#
# Compressibility (1/GPa) = 0.03276723
#
# Stress axis : x y z
#
# Youngs Moduli (GPa) = 73.53218 23.45769 35.90148
#
# Poissons Ratio (x) = 0.14552 0.38665
# Poissons Ratio (y) = 0.45617 0.31179
# Poissons Ratio (z) = 0.79192 0.20372
#
# Static dielectric constant tensor:
#      x y z
#    x 3.194180 0.000000 0.000000 
#    y 0.000000 2.233690 0.000000 
#    z 0.000000 0.000000 2.670610 
# 
# 
# High freq. dielectric constant tensor:
#      x y z
#    x 1.569670 0.000000 0.000000 
#    y 0.000000 1.470650 0.000000 
#    z 0.000000 0.000000 1.531660 
# 
# From -- ./inp_files/4808.got.cif
#   From: 2010.03.12/outbox.cif.g09.slc.cpg/sg47_3_cif.got.tgz:4808.got - 2010.04.14 03:12:58.
