data_PCOD8194441
_publ_section_title
;
Structure prediction by ZEFSAII (Michael W. Deem and Ramdas Pophale) SiO2 
 PCOD8194441
Probable space group: P M M M
;
_chemical_formula_sum "Si O2"
_cell_formula_units_Z 52
_cell_length_a 20.578279
_cell_length_b 16.275620
_cell_length_c 9.078556
_cell_angle_alpha 90.000000
_cell_angle_beta 90.000000
_cell_angle_gamma 90.000000
_cell_volume 3040.628553
_symmetry_space_group_name_H-M "P M M M"
_symmetry_group_IT_number 47
_symmetry_cell_setting 'orthorhombic'
loop_
_space_group_symop_operation_xyz
x,y,z
-x,-y,z
x,-y,-z
-x,y,-z
-x,-y,-z
x,y,-z
-x,y,z
x,-y,z
loop_
_atom_site_type_symbol
_atom_site_label
_atom_site_fract_x
_atom_site_fract_y
_atom_site_fract_z
Si Si1 0.820086 0.734106 0.328427
Si Si2 0.074159 0.165724 0.825676
Si Si3 0.500000 0.404753 0.674813
Si Si4 0.754313 0.594115 0.831178
Si Si5 0.619604 0.318871 0.829478
Si Si6 0.723599 0.000000 0.669611
Si Si7 0.859605 0.000000 0.174338
Si Si8 0.312679 0.821540 0.670033
O O1 0.834488 0.731754 0.500000
O O2 0.885057 0.761476 0.246527
O O3 0.803242 0.643080 0.273172
O O4 0.760830 0.795321 0.288781
O O5 0.000000 0.174292 0.774196
O O6 0.101726 0.079138 0.767168
O O7 0.080639 0.172262 0.000000
O O8 0.500000 0.500000 0.724788
O O9 0.500000 0.397033 0.500000
O O10 0.562342 0.359090 0.737856
O O11 0.759475 0.500000 0.784818
O O12 0.680872 0.622587 0.805051
O O13 0.774566 0.608794 0.000000
O O14 0.635577 0.227498 0.769193
O O15 0.599670 0.311632 0.000000
O O16 0.786751 0.000000 0.768953
O O17 0.680484 0.081087 0.702873
O O18 0.746612 0.000000 0.500000
O O19 0.856897 0.000000 0.000000
O O20 0.327181 0.800709 0.500000
#
# Coordination Sequence:
#
# PCOD8194441 Si02
#       8
#     8   8   4   8   8   4   4   8
#     4  10  19  31  49  72  99 130 166 209 254 303
#     4  10  20  33  48  68  98 135 171 208 254 307
#     4  11  23  37  55  80 111 144 173 203 246 303
#     4   9  18  33  53  76 102 131 164 204 250 301
#     4  10  20  34  54  79 108 138 171 209 249 295
#     4  10  18  31  51  74 105 138 171 212 256 300
#     4  10  19  30  48  72  99 131 171 214 253 297
#     4   9  18  32  50  73 103 138 173 210 253 300
#
# _framework density 17.101727
#
# number of rings (size 3 to 8) (size 9 to 14) (size 15 to 20)
#    0.000    2.231    1.538    1.846    0.000    4.615 
#    0.000    0.000    0.000    2.308    0.000    6.462 
#    0.000    0.000    0.000    0.000    0.000    0.000 
#
# Total GULP energy -644916.336970 kJ/mol
# GULP energy per Si atom -12402.237249 kJ/mol
# Density = 1.706280 g / cm^3
# Si number density = 17.101727 Si / 1000 Ang^3
#
#
#
# Elastic Constant Matrix: (Units=GPa)
#
#
# Indices 1 2 3 4 5 6 
#
# 1 84.6009 51.9442 37.3648 0.0000 0.0000 0.0000
# 2 51.9442 127.5788 36.8644 0.0000 0.0000 0.0000
# 3 37.3648 36.8644 48.4803 0.0000 0.0000 0.0000
# 4 0.0000 0.0000 0.0000 24.2480 0.0000 0.0000
# 5 0.0000 0.0000 0.0000 0.0000 27.6050 0.0000
# 6 0.0000 0.0000 0.0000 0.0000 0.0000 21.6788
#
#
#
# Elastic Compliance Matrix: (Units=1/GPa)
#
#
# Indices 1 2 3 4 5 6 
#
# 1 0.019904 -0.004705 -0.011763 0.000000 0.000000 0.000000
# 2 -0.004705 0.011158 -0.004858 0.000000 0.000000 0.000000
# 3 -0.011763 -0.004858 0.033387 0.000000 0.000000 0.000000
# 4 0.000000 0.000000 0.000000 0.041241 0.000000 0.000000
# 5 0.000000 0.000000 0.000000 0.000000 0.036225 0.000000
# 6 0.000000 0.000000 0.000000 0.000000 0.000000 0.046128
#
#
# Mechanical properties :
#
#
# Convention : Reuss Voigt Hill
#
# Bulk Modulus (GPa) = 45.87818 57.00075 51.43947
# Shear Modulus (GPa) = 21.01190 23.67214 22.34202
#
# Velocity S-wave (km/s) = 3.50900 3.72451 3.61836
# Velocity P-wave (km/s) = 6.58045 7.20408 6.89932
#
# Compressibility (1/GPa) = 0.02179686
#
# Stress axis : x y z
#
# Youngs Moduli (GPa) = 50.24029 89.62378 29.95197
#
# Poissons Ratio (x) = 0.42170 0.35232
# Poissons Ratio (y) = 0.23639 0.14551
# Poissons Ratio (z) = 0.59097 0.43539
#
# Static dielectric constant tensor:
#      x y z
#    x 2.997980 0.000000 0.000000 
#    y 0.000000 3.324950 0.000000 
#    z 0.000000 0.000000 3.193850 
# 
# 
# High freq. dielectric constant tensor:
#      x y z
#    x 1.637440 0.000000 0.000000 
#    y 0.000000 1.663400 0.000000 
#    z 0.000000 0.000000 1.663210 
# 
# From -- ./inp_files/9627.got.cif
#   From: 2010.03.12/outbox.cif.g09.slc.cpg/sg47_5_cif.got.tgz:9627.got - 2010.04.14 03:12:58.
