data_PCOD8194673
_publ_section_title
;
Structure prediction by ZEFSAII (Michael W. Deem and Ramdas Pophale) SiO2 
 PCOD8194673
Probable space group: P M M M
;
_chemical_formula_sum "Si O2"
_cell_formula_units_Z 52
_cell_length_a 26.762204
_cell_length_b 8.994857
_cell_length_c 13.946252
_cell_angle_alpha 90.000000
_cell_angle_beta 90.000000
_cell_angle_gamma 90.000000
_cell_volume 3357.172435
_symmetry_space_group_name_H-M "P M M M"
_symmetry_group_IT_number 47
_symmetry_cell_setting 'orthorhombic'
loop_
_space_group_symop_operation_xyz
x,y,z
-x,-y,z
x,-y,-z
-x,y,-z
-x,-y,-z
x,y,-z
-x,y,z
x,-y,z
loop_
_atom_site_type_symbol
_atom_site_label
_atom_site_fract_x
_atom_site_fract_y
_atom_site_fract_z
Si Si1 0.444854 0.677451 0.212096
Si Si2 0.000000 0.167861 0.385520
Si Si3 0.289498 0.674790 0.289582
Si Si4 0.198632 0.175384 0.389990
Si Si5 0.651646 0.323405 0.105917
Si Si6 0.097844 0.667078 0.386154
Si Si7 0.610633 0.675840 0.604933
O O1 0.500000 0.739224 0.185491
O O2 0.445049 0.500000 0.211538
O O3 0.403297 0.736615 0.137225
O O4 0.429922 0.735197 0.318588
O O5 0.048971 0.250691 0.344817
O O6 0.000000 0.168992 0.500000
O O7 0.000000 0.000000 0.346468
O O8 0.277461 0.500000 0.294201
O O9 0.241310 0.766569 0.319656
O O10 0.305901 0.724497 0.182014
O O11 0.333754 0.718710 0.361896
O O12 0.209835 0.223380 0.500000
O O13 0.147011 0.245485 0.352822
O O14 0.194099 0.000000 0.381232
O O15 0.648989 0.500000 0.104739
O O16 0.664504 0.260331 0.000000
O O17 0.094832 0.664558 0.500000
O O18 0.099621 0.500000 0.344880
O O19 0.600350 0.746592 0.500000
O O20 0.606499 0.500000 0.599336
#
# Coordination Sequence:
#
# PCOD8194673 Si02
#       7
#     8   4   8   8   8   8   8
#     4   8  13  19  27  44  71 100 127 153 186 232
#     4   9  15  23  35  51  75 107 142 179 212 235
#     4   9  16  26  40  55  72  98 131 163 195 237
#     4  10  19  28  38  55  79 104 131 166 206 241
#     4   8  14  24  37  53  72  95 125 160 198 240
#     4   9  16  25  37  53  74 104 142 176 203 235
#     4   8  13  20  30  45  66  94 127 159 190 227
#
# _framework density 15.489226
#
# number of rings (size 3 to 8) (size 9 to 14) (size 15 to 20)
#    0.000    3.308    0.000    3.462    0.000    4.923 
#    0.000    3.077    0.000    0.462    0.000    0.000 
#    0.000    9.846    0.000   40.077    0.000   48.846 
#
# Total GULP energy -644397.222299 kJ/mol
# GULP energy per Si atom -12392.254275 kJ/mol
# Density = 1.545397 g / cm^3
# Si number density = 15.489226 Si / 1000 Ang^3
#
#
#
# Elastic Constant Matrix: (Units=GPa)
#
#
# Indices 1 2 3 4 5 6 
#
# 1 129.7191 42.2603 43.1282 0.0000 0.0000 0.0000
# 2 42.2603 52.7353 18.0561 0.0000 0.0000 0.0000
# 3 43.1282 18.0561 87.9354 0.0000 0.0000 0.0000
# 4 0.0000 0.0000 0.0000 6.6062 0.0000 0.0000
# 5 0.0000 0.0000 0.0000 0.0000 11.1331 0.0000
# 6 0.0000 0.0000 0.0000 0.0000 0.0000 1.4417
#
#
#
# Elastic Compliance Matrix: (Units=1/GPa)
#
#
# Indices 1 2 3 4 5 6 
#
# 1 0.011654 -0.007940 -0.004085 0.000000 0.000000 0.000000
# 2 -0.007940 0.025807 -0.001405 0.000000 0.000000 0.000000
# 3 -0.004085 -0.001405 0.013664 0.000000 0.000000 0.000000
# 4 0.000000 0.000000 0.000000 0.151373 0.000000 0.000000
# 5 0.000000 0.000000 0.000000 0.000000 0.089822 0.000000
# 6 0.000000 0.000000 0.000000 0.000000 0.000000 0.693633
#
#
# Mechanical properties :
#
#
# Convention : Reuss Voigt Hill
#
# Bulk Modulus (GPa) = 41.21302 53.03100 47.12201
# Shear Modulus (GPa) = 4.89763 14.96588 9.93176
#
# Velocity S-wave (km/s) = 1.78012 3.11177 2.53495
# Velocity P-wave (km/s) = 5.55791 6.87186 6.24951
#
# Compressibility (1/GPa) = 0.02426418
#
# Stress axis : x y z
#
# Youngs Moduli (GPa) = 85.80676 38.74959 73.18471
#
# Poissons Ratio (x) = 0.30769 0.29899
# Poissons Ratio (y) = 0.68134 0.10279
# Poissons Ratio (z) = 0.35055 0.05443
#
# Static dielectric constant tensor:
#      x y z
#    x 3.057410 0.000000 0.000000 
#    y 0.000000 2.621840 0.000000 
#    z 0.000000 0.000000 3.071170 
# 
# 
# High freq. dielectric constant tensor:
#      x y z
#    x 1.596910 0.000000 0.000000 
#    y 0.000000 1.557580 0.000000 
#    z 0.000000 0.000000 1.554630 
# 
# From -- ./inp_files/25426.got.cif
#   From: 2010.03.12/outbox.cif.g09.slc.cpg/sg47_13_cif.got.tgz:25426.got - 2010.04.14 03:12:58.
