data_PCOD8194543
_publ_section_title
;
Structure prediction by ZEFSAII (Michael W. Deem and Ramdas Pophale) SiO2 
 PCOD8194543
Probable space group: P M M M
;
_chemical_formula_sum "Si O2"
_cell_formula_units_Z 48
_cell_length_a 8.624966
_cell_length_b 20.672388
_cell_length_c 14.259176
_cell_angle_alpha 90.000000
_cell_angle_beta 90.000000
_cell_angle_gamma 90.000000
_cell_volume 2542.391740
_symmetry_space_group_name_H-M "P M M M"
_symmetry_group_IT_number 47
_symmetry_cell_setting 'orthorhombic'
loop_
_space_group_symop_operation_xyz
x,y,z
-x,-y,z
x,-y,-z
-x,y,-z
-x,-y,-z
x,y,-z
-x,y,z
x,-y,z
loop_
_atom_site_type_symbol
_atom_site_label
_atom_site_fract_x
_atom_site_fract_y
_atom_site_fract_z
Si Si1 0.681785 0.000000 0.604477
Si Si2 0.181308 0.877929 0.293831
Si Si3 0.183810 0.679606 0.102080
Si Si4 0.816000 0.824735 0.102360
Si Si5 0.677576 0.243954 0.389557
Si Si6 0.815836 0.500000 0.394044
Si Si7 0.184370 0.369292 0.297710
O O1 0.729473 0.063593 0.659537
O O2 0.500000 0.000000 0.594657
O O3 0.756411 0.000000 0.500000
O O4 0.240906 0.871555 0.185852
O O5 0.214720 0.811109 0.346027
O O6 0.000000 0.892896 0.298842
O O7 0.249066 0.752162 0.118709
O O8 0.237719 0.634398 0.188308
O O9 0.000000 0.682416 0.100047
O O10 0.243390 0.653546 0.000000
O O11 0.000000 0.821246 0.105544
O O12 0.760381 0.850769 0.000000
O O13 0.696137 0.240215 0.500000
O O14 0.500000 0.232918 0.358841
O O15 0.734872 0.313473 0.356487
O O16 0.749388 0.500000 0.500000
O O17 0.755362 0.562900 0.338826
O O18 0.000000 0.500000 0.396654
O O19 0.000000 0.361806 0.307768
#
# Coordination Sequence:
#
# PCOD8194543 Si02
#       7
#     4   8   8   8   8   4   8
#     4  11  25  43  58  75 110 154 181 211 268 319
#     4  11  21  36  60  86 106 136 182 223 258 307
#     4   8  13  24  46  76 106 133 165 212 267 316
#     4   8  14  27  50  81 111 134 163 211 268 316
#     4  11  23  36  51  75 107 139 173 220 274 320
#     4   9  18  30  46  72 106 139 175 227 280 313
#     4  10  18  32  53  76 101 137 181 221 264 317
#
# _framework density 18.879860000000001
#
# number of rings (size 3 to 8) (size 9 to 14) (size 15 to 20)
#    0.000    2.333    1.667    3.250    0.000    4.667 
#    0.000    1.250    0.000   10.000    0.000    0.000 
#    0.000    1.333    0.000    0.000    0.000    0.000 
#
# Total GULP energy -594949.209217 kJ/mol
# GULP energy per Si atom -12394.775192 kJ/mol
# Density = 1.883689 g / cm^3
# Si number density = 18.879860 Si / 1000 Ang^3
#
#
#
# Elastic Constant Matrix: (Units=GPa)
#
#
# Indices 1 2 3 4 5 6 
#
# 1 27.6085 10.8671 26.9631 0.0000 0.0000 0.0000
# 2 10.8671 117.7352 76.8587 0.0000 0.0000 0.0000
# 3 26.9631 76.8587 171.0911 0.0000 0.0000 0.0000
# 4 0.0000 0.0000 0.0000 33.0089 0.0000 0.0000
# 5 0.0000 0.0000 0.0000 0.0000 7.3097 0.0000
# 6 0.0000 0.0000 0.0000 0.0000 0.0000 15.8639
#
#
#
# Elastic Compliance Matrix: (Units=1/GPa)
#
#
# Indices 1 2 3 4 5 6 
#
# 1 0.042844 0.000641 -0.007040 0.000000 0.000000 0.000000
# 2 0.000641 0.012028 -0.005504 0.000000 0.000000 0.000000
# 3 -0.007040 -0.005504 0.009427 0.000000 0.000000 0.000000
# 4 0.000000 0.000000 0.000000 0.030295 0.000000 0.000000
# 5 0.000000 0.000000 0.000000 0.000000 0.136804 0.000000
# 6 0.000000 0.000000 0.000000 0.000000 0.000000 0.063036
#
#
# Mechanical properties :
#
#
# Convention : Reuss Voigt Hill
#
# Bulk Modulus (GPa) = 24.69598 60.64583 42.67091
# Shear Modulus (GPa) = 15.07221 24.68624 19.87923
#
# Velocity S-wave (km/s) = 2.82853 3.61992 3.24841
# Velocity P-wave (km/s) = 4.87610 7.04723 6.05970
#
# Compressibility (1/GPa) = 0.04049242
#
# Stress axis : x y z
#
# Youngs Moduli (GPa) = 23.34063 83.14181 106.07885
#
# Poissons Ratio (x) = -0.05332 0.74680
# Poissons Ratio (y) = -0.01497 0.58388
# Poissons Ratio (z) = 0.16432 0.45763
#
# Static dielectric constant tensor:
#      x y z
#    x 3.097450 0.000000 0.000000 
#    y 0.000000 4.982970 0.000000 
#    z 0.000000 0.000000 4.115120 
# 
# 
# High freq. dielectric constant tensor:
#      x y z
#    x 1.693280 0.000000 0.000000 
#    y 0.000000 1.716040 0.000000 
#    z 0.000000 0.000000 1.759320 
# 
# From -- ./inp_files/21115.got.cif
#   From: 2010.03.12/outbox.cif.g09.slc.cpg/sg47_11_cif.got.tgz:21115.got - 2010.04.14 03:12:58.
