data_PCOD8194472
_publ_section_title
;
Structure prediction by ZEFSAII (Michael W. Deem and Ramdas Pophale) SiO2 
 PCOD8194472
Probable space group: P M M M
;
_chemical_formula_sum "Si O2"
_cell_formula_units_Z 40
_cell_length_a 21.602985
_cell_length_b 9.044115
_cell_length_c 10.825130
_cell_angle_alpha 90.000000
_cell_angle_beta 90.000000
_cell_angle_gamma 90.000000
_cell_volume 2115.012608
_symmetry_space_group_name_H-M "P M M M"
_symmetry_group_IT_number 47
_symmetry_cell_setting 'orthorhombic'
loop_
_space_group_symop_operation_xyz
x,y,z
-x,-y,z
x,-y,-z
-x,y,-z
-x,-y,-z
x,y,-z
-x,y,z
x,-y,z
loop_
_atom_site_type_symbol
_atom_site_label
_atom_site_fract_x
_atom_site_fract_y
_atom_site_fract_z
Si Si1 0.351553 0.324773 0.268431
Si Si2 0.130542 0.674763 0.764020
Si Si3 0.000000 0.675661 0.859976
Si Si4 0.656618 0.674509 0.000000
Si Si5 0.206082 0.325021 0.000000
Si Si6 0.569691 0.323781 0.500000
Si Si7 0.232793 0.831939 0.641181
O O1 0.345197 0.500000 0.281167
O O2 0.377031 0.279917 0.129960
O O3 0.396925 0.263515 0.375586
O O4 0.283069 0.258893 0.280478
O O5 0.133407 0.500000 0.741622
O O6 0.168781 0.730031 0.881952
O O7 0.164400 0.758467 0.651526
O O8 0.059895 0.728414 0.782742
O O9 0.000000 0.500000 0.872263
O O10 0.000000 0.740819 0.000000
O O11 0.725370 0.744219 0.000000
O O12 0.663125 0.500000 0.000000
O O13 0.208475 0.500000 0.000000
O O14 0.569557 0.500000 0.500000
O O15 0.500000 0.261488 0.500000
O O16 0.253762 0.824243 0.500000
O O17 0.230793 0.000000 0.688639
#
# Coordination Sequence:
#
# PCOD8194472 Si02
#       7
#     8   8   4   4   4   4   8
#     4  10  18  32  56  80 106 141 177 214 261 314
#     4  10  18  31  52  77 103 133 168 210 263 320
#     4   9  16  28  52  81 104 130 169 216 263 318
#     4   9  16  26  46  82 111 131 168 215 263 313
#     4   9  14  23  46  76 104 126 158 207 256 311
#     4   9  18  32  53  83 113 142 181 220 251 299
#     4  11  23  36  50  72 103 135 176 226 268 308
#
# _framework density 18.912419
#
# number of rings (size 3 to 8) (size 9 to 14) (size 15 to 20)
#    0.000    2.200    4.000    0.600    0.000    1.200 
#    0.000    3.500    0.000    7.800    0.000    0.000 
#    0.000    1.600    0.000    0.000    0.000    0.000 
#
# Total GULP energy -495666.173336 kJ/mol
# GULP energy per Si atom -12391.654333 kJ/mol
# Density = 1.886937 g / cm^3
# Si number density = 18.912419 Si / 1000 Ang^3
#
#
#
# Elastic Constant Matrix: (Units=GPa)
#
#
# Indices 1 2 3 4 5 6 
#
# 1 115.5834 18.5803 55.9466 0.0000 0.0000 0.0000
# 2 18.5803 36.8024 22.2504 0.0000 0.0000 0.0000
# 3 55.9466 22.2504 127.9635 0.0000 0.0000 0.0000
# 4 0.0000 0.0000 0.0000 12.9355 0.0000 0.0000
# 5 0.0000 0.0000 0.0000 0.0000 27.2115 0.0000
# 6 0.0000 0.0000 0.0000 0.0000 0.0000 6.6235
#
#
#
# Elastic Compliance Matrix: (Units=1/GPa)
#
#
# Indices 1 2 3 4 5 6 
#
# 1 0.011268 -0.003029 -0.004400 0.000000 0.000000 0.000000
# 2 -0.003029 0.031178 -0.004097 0.000000 0.000000 0.000000
# 3 -0.004400 -0.004097 0.010451 0.000000 0.000000 0.000000
# 4 0.000000 0.000000 0.000000 0.077307 0.000000 0.000000
# 5 0.000000 0.000000 0.000000 0.000000 0.036749 0.000000
# 6 0.000000 0.000000 0.000000 0.000000 0.000000 0.150977
#
#
# Mechanical properties :
#
#
# Convention : Reuss Voigt Hill
#
# Bulk Modulus (GPa) = 33.50555 52.65597 43.08076
# Shear Modulus (GPa) = 14.24779 21.59222 17.92001
#
# Velocity S-wave (km/s) = 2.74771 3.38256 3.08153
# Velocity P-wave (km/s) = 5.27458 6.56948 5.95732
#
# Compressibility (1/GPa) = 0.02984580
#
# Stress axis : x y z
#
# Youngs Moduli (GPa) = 88.74365 32.07349 95.68614
#
# Poissons Ratio (x) = 0.09715 0.42102
# Poissons Ratio (y) = 0.26879 0.39203
# Poissons Ratio (z) = 0.39047 0.13141
#
# Static dielectric constant tensor:
#      x y z
#    x 3.483970 0.000000 0.000000 
#    y 0.000000 2.963230 0.000000 
#    z 0.000000 0.000000 3.808630 
# 
# 
# High freq. dielectric constant tensor:
#      x y z
#    x 1.719440 0.000000 0.000000 
#    y 0.000000 1.680820 0.000000 
#    z 0.000000 0.000000 1.743890 
# 
# From -- ./inp_files/18999.got.cif
#   From: 2010.03.12/outbox.cif.g09.slc.cpg/sg47_10_cif.got.tgz:18999.got - 2010.04.14 03:12:58.
