data_PCOD8194737
_publ_section_title
;
Structure prediction by ZEFSAII (Michael W. Deem and Ramdas Pophale) SiO2 
 PCOD8194737
Probable space group: P M M M
;
_chemical_formula_sum "Si O2"
_cell_formula_units_Z 44
_cell_length_a 13.812884
_cell_length_b 13.498634
_cell_length_c 15.602793
_cell_angle_alpha 90.000000
_cell_angle_beta 90.000000
_cell_angle_gamma 90.000000
_cell_volume 2909.219792
_symmetry_space_group_name_H-M "P M M M"
_symmetry_group_IT_number 47
_symmetry_cell_setting 'orthorhombic'
loop_
_space_group_symop_operation_xyz
x,y,z
-x,-y,z
x,-y,-z
-x,y,-z
-x,-y,-z
x,y,-z
-x,y,z
x,-y,z
loop_
_atom_site_type_symbol
_atom_site_label
_atom_site_fract_x
_atom_site_fract_y
_atom_site_fract_z
Si Si1 0.886326 0.229653 0.332894
Si Si2 0.760464 0.388615 0.401194
Si Si3 0.391994 0.117458 0.905639
Si Si4 0.387097 0.780707 0.598001
Si Si5 0.885657 0.889781 0.500000
Si Si6 0.726400 0.116468 0.744485
O O1 0.848868 0.341696 0.346005
O O2 0.851649 0.169738 0.417098
O O3 0.829347 0.173902 0.257126
O O4 0.000000 0.227771 0.314360
O O5 0.792447 0.389347 0.500000
O O6 0.742228 0.500000 0.367906
O O7 0.662404 0.326268 0.387156
O O8 0.500000 0.160338 0.892031
O O9 0.323427 0.158190 0.830768
O O10 0.396304 0.000000 0.899306
O O11 0.353073 0.149548 0.000000
O O12 0.370308 0.817167 0.500000
O O13 0.500000 0.768663 0.618279
O O14 0.341019 0.860470 0.662472
O O15 0.000000 0.897863 0.500000
O O16 0.839843 0.000000 0.500000
O O17 0.746349 0.000000 0.748184
#
# Coordination Sequence:
#
# PCOD8194737 Si02
#       6
#     8   8   8   8   4   8
#     4  10  19  30  41  58  83 111 147 185 217 253
#     4   9  17  29  44  60  78 105 145 189 226 255
#     4   8  14  26  44  64  84 107 139 178 216 252
#     4   9  18  30  41  58  87 117 144 173 208 257
#     4   9  16  26  39  53  74 109 147 177 205 239
#     4  10  19  28  42  62  86 117 149 179 208 246
#
# _framework density 15.124331
#
# number of rings (size 3 to 8) (size 9 to 14) (size 15 to 20)
#    0.000    2.818    0.909    1.636    1.273    3.273 
#    0.000    3.636    0.000    0.545    0.000    2.545 
#    0.000   11.636    0.000   46.545    0.000    3.273 
#
# Total GULP energy -545398.297636 kJ/mol
# GULP energy per Si atom -12395.415855 kJ/mol
# Density = 1.508991 g / cm^3
# Si number density = 15.124331 Si / 1000 Ang^3
#
#
#
# Elastic Constant Matrix: (Units=GPa)
#
#
# Indices 1 2 3 4 5 6 
#
# 1 100.1598 16.9678 43.5026 0.0000 0.0000 0.0000
# 2 16.9678 58.7889 16.3361 0.0000 0.0000 0.0000
# 3 43.5026 16.3361 76.3093 0.0000 0.0000 0.0000
# 4 0.0000 0.0000 0.0000 6.1707 0.0000 0.0000
# 5 0.0000 0.0000 0.0000 0.0000 21.4293 0.0000
# 6 0.0000 0.0000 0.0000 0.0000 0.0000 16.2791
#
#
#
# Elastic Compliance Matrix: (Units=1/GPa)
#
#
# Indices 1 2 3 4 5 6 
#
# 1 0.013459 -0.001863 -0.007274 0.000000 0.000000 0.000000
# 2 -0.001863 0.018344 -0.002865 0.000000 0.000000 0.000000
# 3 -0.007274 -0.002865 0.017865 0.000000 0.000000 0.000000
# 4 0.000000 0.000000 0.000000 0.162056 0.000000 0.000000
# 5 0.000000 0.000000 0.000000 0.000000 0.046665 0.000000
# 6 0.000000 0.000000 0.000000 0.000000 0.000000 0.061428
#
#
# Mechanical properties :
#
#
# Convention : Reuss Voigt Hill
#
# Bulk Modulus (GPa) = 38.96581 43.20790 41.08685
# Shear Modulus (GPa) = 14.18941 19.33927 16.76434
#
# Velocity S-wave (km/s) = 3.06630 3.57975 3.33293
# Velocity P-wave (km/s) = 6.19321 6.76141 6.48354
#
# Compressibility (1/GPa) = 0.02566352
#
# Stress axis : x y z
#
# Youngs Moduli (GPa) = 74.29996 54.51419 55.97691
#
# Poissons Ratio (x) = 0.10158 0.40717
# Poissons Ratio (y) = 0.13845 0.16036
# Poissons Ratio (z) = 0.54044 0.15617
#
# Static dielectric constant tensor:
#      x y z
#    x 2.934580 0.000000 0.000000 
#    y 0.000000 2.804290 0.000000 
#    z 0.000000 0.000000 2.909190 
# 
# 
# High freq. dielectric constant tensor:
#      x y z
#    x 1.583210 0.000000 0.000000 
#    y 0.000000 1.556420 0.000000 
#    z 0.000000 0.000000 1.549430 
# 
# From -- ./inp_files/17701.got.cif
#   From: 2010.03.12/outbox.cif.g09.slc.cpg/sg47_9_cif.got.tgz:17701.got - 2010.04.14 03:12:58.
