data_PCOD8194888
_publ_section_title
;
Structure prediction by ZEFSAII (Michael W. Deem and Ramdas Pophale) SiO2 
 PCOD8194888
Probable space group: P M M M
;
_chemical_formula_sum "Si O2"
_cell_formula_units_Z 52
_cell_length_a 12.880582
_cell_length_b 8.087610
_cell_length_c 29.456468
_cell_angle_alpha 90.000000
_cell_angle_beta 90.000000
_cell_angle_gamma 90.000000
_cell_volume 3068.572287
_symmetry_space_group_name_H-M "P M M M"
_symmetry_group_IT_number 47
_symmetry_cell_setting 'orthorhombic'
loop_
_space_group_symop_operation_xyz
x,y,z
-x,-y,z
x,-y,-z
-x,y,-z
-x,-y,-z
x,y,-z
-x,y,z
x,-y,z
loop_
_atom_site_type_symbol
_atom_site_label
_atom_site_fract_x
_atom_site_fract_y
_atom_site_fract_z
Si Si1 0.219567 0.691793 0.948259
Si Si2 0.115785 0.182286 0.553715
Si Si3 0.000000 0.188461 0.053626
Si Si4 0.623760 0.183082 0.690835
Si Si5 0.379352 0.687963 0.784313
Si Si6 0.377927 0.500000 0.363698
Si Si7 0.616139 0.190602 0.878411
Si Si8 0.754324 0.500000 0.553669
O O1 0.243326 0.500000 0.945510
O O2 0.105059 0.727240 0.927342
O O3 0.309135 0.783906 0.920962
O O4 0.224867 0.757251 0.000000
O O5 0.109819 0.189096 0.500000
O O6 0.185150 0.335531 0.569961
O O7 0.000000 0.205199 0.573774
O O8 0.159574 0.000000 0.568690
O O9 0.000000 0.000000 0.069319
O O10 0.000000 0.211059 0.000000
O O11 0.500000 0.195311 0.691108
O O12 0.665990 0.204978 0.742491
O O13 0.667800 0.332121 0.659468
O O14 0.659133 0.000000 0.673398
O O15 0.500000 0.728483 0.789912
O O16 0.358447 0.500000 0.770767
O O17 0.330615 0.727659 0.833627
O O18 0.500000 0.500000 0.358804
O O19 0.350810 0.500000 0.417186
O O20 0.500000 0.262859 0.888871
O O21 0.606212 0.000000 0.867560
O O22 0.728798 0.500000 0.500000
#
# Coordination Sequence:
#
# PCOD8194888 Si02
#       8
#     8   8   4   8   8   4   8   4
#     4  10  20  33  48  66  91 124 161 199 237 277
#     4   8  14  26  45  68  92 116 145 188 241 288
#     4   9  17  31  51  69  85 111 151 201 247 277
#     4   9  16  28  46  64  84 114 153 200 247 280
#     4   9  15  26  45  67  91 115 143 186 239 288
#     4  10  20  32  43  62  92 127 168 203 228 262
#     4  10  20  31  44  67  98 129 158 187 228 288
#     4  10  19  29  44  65  93 128 161 194 231 274
#
# _framework density 16.945992
#
# number of rings (size 3 to 8) (size 9 to 14) (size 15 to 20)
#    0.000    2.692    0.769    2.308    0.000    6.615 
#    0.000    1.538    0.000    0.000    0.000    4.308 
#    4.615    0.000    1.846    0.000    0.000    0.000 
#
# Total GULP energy -644298.538457 kJ/mol
# GULP energy per Si atom -12390.356509 kJ/mol
# Density = 1.690742 g / cm^3
# Si number density = 16.945992 Si / 1000 Ang^3
#
#
#
# Elastic Constant Matrix: (Units=GPa)
#
#
# Indices 1 2 3 4 5 6 
#
# 1 46.1718 22.3941 29.9517 0.0000 0.0000 0.0000
# 2 22.3941 99.9901 34.2627 0.0000 0.0000 0.0000
# 3 29.9517 34.2627 74.7925 0.0000 0.0000 0.0000
# 4 0.0000 0.0000 0.0000 15.8933 0.0000 0.0000
# 5 0.0000 0.0000 0.0000 0.0000 3.6018 0.0000
# 6 0.0000 0.0000 0.0000 0.0000 0.0000 15.3186
#
#
#
# Elastic Compliance Matrix: (Units=1/GPa)
#
#
# Indices 1 2 3 4 5 6 
#
# 1 0.030044 -0.003091 -0.010615 0.000000 0.000000 0.000000
# 2 -0.003091 0.012181 -0.004342 0.000000 0.000000 0.000000
# 3 -0.010615 -0.004342 0.019611 0.000000 0.000000 0.000000
# 4 0.000000 0.000000 0.000000 0.062920 0.000000 0.000000
# 5 0.000000 0.000000 0.000000 0.000000 0.277641 0.000000
# 6 0.000000 0.000000 0.000000 0.000000 0.000000 0.065280
#
#
# Mechanical properties :
#
#
# Convention : Reuss Voigt Hill
#
# Bulk Modulus (GPa) = 38.85339 43.79684 41.32512
# Shear Modulus (GPa) = 9.75889 15.91912 12.83900
#
# Velocity S-wave (km/s) = 2.40236 3.06829 2.75552
# Velocity P-wave (km/s) = 5.53829 6.20110 5.87904
#
# Compressibility (1/GPa) = 0.02573778
#
# Stress axis : x y z
#
# Youngs Moduli (GPa) = 33.28483 82.09319 50.99269
#
# Poissons Ratio (x) = 0.25377 0.54130
# Poissons Ratio (y) = 0.10289 0.22143
# Poissons Ratio (z) = 0.35333 0.35648
#
# Static dielectric constant tensor:
#      x y z
#    x 2.873590 0.000000 0.000000 
#    y 0.000000 3.484040 0.000000 
#    z 0.000000 0.000000 2.974580 
# 
# 
# High freq. dielectric constant tensor:
#      x y z
#    x 1.603080 0.000000 0.000000 
#    y 0.000000 1.675400 0.000000 
#    z 0.000000 0.000000 1.629040 
# 
# From -- ./inp_files/33670.got.cif
#   From: 2010.03.12/outbox.cif.g09.slc.cpg/sg47_17_cif.got.tgz:33670.got - 2010.04.14 03:12:58.
