data_PCOD8194507
_publ_section_title
;
Structure prediction by ZEFSAII (Michael W. Deem and Ramdas Pophale) SiO2 
 PCOD8194507
Probable space group: P M M M
;
_chemical_formula_sum "Si O2"
_cell_formula_units_Z 44
_cell_length_a 8.992481
_cell_length_b 13.611923
_cell_length_c 19.163080
_cell_angle_alpha 90.000000
_cell_angle_beta 90.000000
_cell_angle_gamma 90.000000
_cell_volume 2345.656021
_symmetry_space_group_name_H-M "P M M M"
_symmetry_group_IT_number 47
_symmetry_cell_setting 'orthorhombic'
loop_
_space_group_symop_operation_xyz
x,y,z
-x,-y,z
x,-y,-z
-x,y,-z
-x,-y,-z
x,y,-z
-x,y,z
x,-y,z
loop_
_atom_site_type_symbol
_atom_site_label
_atom_site_fract_x
_atom_site_fract_y
_atom_site_fract_z
Si Si1 0.329576 0.392553 0.304243
Si Si2 0.830890 0.389445 0.841037
Si Si3 0.674866 0.778378 0.080121
Si Si4 0.672613 0.182198 0.669182
Si Si5 0.172279 0.888150 0.197072
Si Si6 0.322955 0.000000 0.578210
O O1 0.500000 0.388748 0.278323
O O2 0.299245 0.500000 0.340990
O O3 0.224947 0.382450 0.237863
O O4 0.302536 0.296963 0.355189
O O5 0.820938 0.500000 0.868973
O O6 0.731353 0.326331 0.893006
O O7 0.000000 0.350518 0.842313
O O8 0.500000 0.784829 0.091108
O O9 0.752328 0.865471 0.123157
O O10 0.720244 0.792035 0.000000
O O11 0.500000 0.158947 0.680739
O O12 0.753988 0.177052 0.743132
O O13 0.736397 0.100168 0.615563
O O14 0.000000 0.861924 0.192184
O O15 0.200750 0.000000 0.217037
O O16 0.500000 0.000000 0.575896
O O17 0.257603 0.000000 0.500000
#
# Coordination Sequence:
#
# PCOD8194507 Si02
#       6
#     8   8   8   8   8   4
#     4   9  17  29  48  76 107 139 179 225 270 319
#     4  10  20  33  51  76 105 137 175 223 277 328
#     4  11  24  39  54  73 100 138 183 228 274 327
#     4  10  18  31  55  81 107 144 183 222 266 318
#     4  11  23  37  55  79 105 134 172 223 279 334
#     4   9  18  32  53  85 118 147 184 225 265 314
#
# _framework density 18.758078000000001
#
# number of rings (size 3 to 8) (size 9 to 14) (size 15 to 20)
#    0.000    1.909    2.727    1.636    0.000    4.364 
#    0.000    3.636    0.000    1.636    0.000    3.818 
#    0.000    0.000    0.000    6.182    0.000    6.545 
#
# Total GULP energy -545294.292439 kJ/mol
# GULP energy per Si atom -12393.052101 kJ/mol
# Density = 1.871538 g / cm^3
# Si number density = 18.758078 Si / 1000 Ang^3
#
#
#
# Elastic Constant Matrix: (Units=GPa)
#
#
# Indices 1 2 3 4 5 6 
#
# 1 44.0167 29.1430 16.7830 0.0000 0.0000 0.0000
# 2 29.1430 150.4746 52.7878 0.0000 0.0000 0.0000
# 3 16.7830 52.7878 74.8684 0.0000 0.0000 0.0000
# 4 0.0000 0.0000 0.0000 21.0012 0.0000 0.0000
# 5 0.0000 0.0000 0.0000 0.0000 1.3175 0.0000
# 6 0.0000 0.0000 0.0000 0.0000 0.0000 22.6719
#
#
#
# Elastic Compliance Matrix: (Units=1/GPa)
#
#
# Indices 1 2 3 4 5 6 
#
# 1 0.026589 -0.004064 -0.003095 0.000000 0.000000 0.000000
# 2 -0.004064 0.009451 -0.005752 0.000000 0.000000 0.000000
# 3 -0.003095 -0.005752 0.018107 0.000000 0.000000 0.000000
# 4 0.000000 0.000000 0.000000 0.047616 0.000000 0.000000
# 5 0.000000 0.000000 0.000000 0.000000 0.759038 0.000000
# 6 0.000000 0.000000 0.000000 0.000000 0.000000 0.044107
#
#
# Mechanical properties :
#
#
# Convention : Reuss Voigt Hill
#
# Bulk Modulus (GPa) = 35.30613 51.86526 43.58570
# Shear Modulus (GPa) = 5.31817 20.37450 12.84633
#
# Velocity S-wave (km/s) = 1.68561 3.29929 2.61979
# Velocity P-wave (km/s) = 4.75932 6.49795 5.69537
#
# Compressibility (1/GPa) = 0.02832369
#
# Stress axis : x y z
#
# Youngs Moduli (GPa) = 37.60893 105.81195 55.22872
#
# Poissons Ratio (x) = 0.43001 0.17094
# Poissons Ratio (y) = 0.15284 0.31770
# Poissons Ratio (z) = 0.11640 0.60868
#
# Static dielectric constant tensor:
#      x y z
#    x 3.392910 0.000000 0.000000 
#    y 0.000000 3.973860 0.000000 
#    z 0.000000 0.000000 3.139100 
# 
# 
# High freq. dielectric constant tensor:
#      x y z
#    x 1.723950 0.000000 0.000000 
#    y 0.000000 1.757720 0.000000 
#    z 0.000000 0.000000 1.679700 
# 
# From -- ./inp_files/8968.got.cif
#   From: 2010.03.12/outbox.cif.g09.slc.cpg/sg47_5_cif.got.tgz:8968.got - 2010.04.14 03:12:58.
