data_PCOD8194788
_publ_section_title
;
Structure prediction by ZEFSAII (Michael W. Deem and Ramdas Pophale) SiO2 
 PCOD8194788
Probable space group: P M M M
;
_chemical_formula_sum "Si O2"
_cell_formula_units_Z 64
_cell_length_a 14.351234
_cell_length_b 31.451325
_cell_length_c 9.272942
_cell_angle_alpha 90.000000
_cell_angle_beta 90.000000
_cell_angle_gamma 90.000000
_cell_volume 4185.484477
_symmetry_space_group_name_H-M "P M M M"
_symmetry_group_IT_number 47
_symmetry_cell_setting 'orthorhombic'
loop_
_space_group_symop_operation_xyz
x,y,z
-x,-y,z
x,-y,-z
-x,y,-z
-x,-y,-z
x,y,-z
-x,y,z
x,-y,z
loop_
_atom_site_type_symbol
_atom_site_label
_atom_site_fract_x
_atom_site_fract_y
_atom_site_fract_z
Si Si1 0.294324 0.120888 0.331502
Si Si2 0.709568 0.717348 0.170095
Si Si3 0.897346 0.245124 0.831212
Si Si4 0.394584 0.364043 0.827179
Si Si5 0.609498 0.802312 0.832266
Si Si6 0.103378 0.840509 0.334552
Si Si7 0.389256 0.454979 0.838230
Si Si8 0.606892 0.049195 0.166091
O O1 0.317630 0.121852 0.500000
O O2 0.350228 0.158713 0.257034
O O3 0.183068 0.124740 0.302570
O O4 0.325171 0.075979 0.267005
O O5 0.818787 0.720628 0.213424
O O6 0.668951 0.673816 0.237652
O O7 0.654464 0.758642 0.227354
O O8 0.695277 0.715124 0.000000
O O9 0.873604 0.200721 0.758123
O O10 0.000000 0.262078 0.785539
O O11 0.892415 0.236117 0.000000
O O12 0.500000 0.355340 0.775389
O O13 0.356570 0.410076 0.766344
O O14 0.391040 0.365626 0.000000
O O15 0.500000 0.799493 0.806905
O O16 0.633951 0.809459 0.000000
O O17 0.107243 0.826017 0.500000
O O18 0.000000 0.858823 0.296539
O O19 0.500000 0.452595 0.843791
O O20 0.358689 0.500000 0.760080
O O21 0.349504 0.456984 0.000000
O O22 0.500000 0.060695 0.201732
O O23 0.626353 0.000000 0.198314
O O24 0.628001 0.059999 0.000000
#
# Coordination Sequence:
#
# PCOD8194788 Si02
#       8
#     8   8   8   8   8   8   8   8
#     4  11  21  31  47  70  91 111 139 174 208 240
#     4   9  15  23  34  50  73 100 131 166 200 239
#     4   9  16  26  41  59  77  99 132 174 211 238
#     4   8  12  17  26  41  63  93 127 161 198 240
#     4  10  19  29  41  58  83 115 144 167 195 237
#     4   9  18  32  47  63  85 112 141 171 204 244
#     4   7   9  13  21  34  54  82 118 160 201 236
#     4   9  19  36  55  72  91 117 145 170 200 240
#
# _framework density 15.290941999999999
#
# number of rings (size 3 to 8) (size 9 to 14) (size 15 to 20)
#    0.000    3.000    1.250    2.625    0.000    4.250 
#    0.000    0.625    0.000    0.375    0.000    2.625 
#    0.000    0.500    0.000    7.000    0.000    2.750 
#
# Total GULP energy -792875.081832 kJ/mol
# GULP energy per Si atom -12388.673154 kJ/mol
# Density = 1.525614 g / cm^3
# Si number density = 15.290942 Si / 1000 Ang^3
#
#
#
# Elastic Constant Matrix: (Units=GPa)
#
#
# Indices 1 2 3 4 5 6 
#
# 1 97.5374 65.2997 30.2627 0.0000 0.0000 0.0000
# 2 65.2997 124.6166 33.0182 0.0000 0.0000 0.0000
# 3 30.2627 33.0182 31.9938 0.0000 0.0000 0.0000
# 4 0.0000 0.0000 0.0000 -1.6037 0.0000 0.0000
# 5 0.0000 0.0000 0.0000 0.0000 15.0472 0.0000
# 6 0.0000 0.0000 0.0000 0.0000 0.0000 11.5401
#
#
#
# Elastic Compliance Matrix: (Units=1/GPa)
#
#
# Indices 1 2 3 4 5 6 
#
# 1 0.017827 -0.006708 -0.009940 0.000000 0.000000 0.000000
# 2 -0.006708 0.013569 -0.007658 0.000000 0.000000 0.000000
# 3 -0.009940 -0.007658 0.048562 0.000000 0.000000 0.000000
# 4 0.000000 0.000000 0.000000 -0.623542 0.000000 0.000000
# 5 0.000000 0.000000 0.000000 0.000000 0.066457 0.000000
# 6 0.000000 0.000000 0.000000 0.000000 0.000000 0.086655
#
#
# Mechanical properties :
#
#
# Convention : Reuss Voigt Hill
#
# Bulk Modulus (GPa) = 31.90259 56.81211 44.35735
# Shear Modulus (GPa) = -15.08701 13.36786 -0.85958
#
# Velocity S-wave (km/s) = -3.14453 2.95995 -0.75058
# Velocity P-wave (km/s) = 2.77938 6.99403 5.32172
#
# Compressibility (1/GPa) = 0.03134542
#
# Stress axis : x y z
#
# Youngs Moduli (GPa) = 56.09332 73.69901 20.59235
#
# Poissons Ratio (x) = 0.49437 0.20469
# Poissons Ratio (y) = 0.37627 0.15770
# Poissons Ratio (z) = 0.55757 0.56440
#
# Static dielectric constant tensor:
#      x y z
#    x 3.052430 0.000000 0.000000 
#    y 0.000000 3.204510 0.000000 
#    z 0.000000 0.000000 2.641180 
# 
# 
# High freq. dielectric constant tensor:
#      x y z
#    x 1.572610 0.000000 0.000000 
#    y 0.000000 1.582300 0.000000 
#    z 0.000000 0.000000 1.548880 
# 
# From -- ./inp_files/8203.got.cif
#   From: 2010.03.12/outbox.cif.g09.slc.cpg/sg47_5_cif.got.tgz:8203.got - 2010.04.14 03:12:58.
