data_PCOD8194450
_publ_section_title
;
Structure prediction by ZEFSAII (Michael W. Deem and Ramdas Pophale) SiO2 
 PCOD8194450
Probable space group: P M M M
;
_chemical_formula_sum "Si O2"
_cell_formula_units_Z 56
_cell_length_a 18.854812
_cell_length_b 8.993982
_cell_length_c 19.094581
_cell_angle_alpha 90.000000
_cell_angle_beta 90.000000
_cell_angle_gamma 90.000000
_cell_volume 3238.055986
_symmetry_space_group_name_H-M "P M M M"
_symmetry_group_IT_number 47
_symmetry_cell_setting 'orthorhombic'
loop_
_space_group_symop_operation_xyz
x,y,z
-x,-y,z
x,-y,-z
-x,y,-z
-x,-y,-z
x,y,-z
-x,y,z
x,-y,z
loop_
_atom_site_type_symbol
_atom_site_label
_atom_site_fract_x
_atom_site_fract_y
_atom_site_fract_z
Si Si1 0.692358 0.672925 0.421200
Si Si2 0.700080 0.824209 0.920630
Si Si3 0.581511 0.671483 0.162893
Si Si4 0.160022 0.170080 0.421930
Si Si5 0.210202 0.826791 0.205462
Si Si6 0.350278 0.173200 0.289164
Si Si7 0.078113 0.176361 0.713099
O O1 0.665058 0.705688 0.500000
O O2 0.688875 0.500000 0.403323
O O3 0.772835 0.724999 0.412822
O O4 0.641780 0.760066 0.367033
O O5 0.626936 0.747099 0.898625
O O6 0.763949 0.765581 0.870312
O O7 0.689225 0.000000 0.910680
O O8 0.719538 0.781741 0.000000
O O9 0.500000 0.690653 0.141514
O O10 0.603434 0.500000 0.169130
O O11 0.594223 0.748620 0.237653
O O12 0.127571 0.186434 0.500000
O O13 0.100439 0.218102 0.366157
O O14 0.184864 0.000000 0.407923
O O15 0.270491 0.794081 0.262822
O O16 0.135860 0.755236 0.231985
O O17 0.197218 0.000000 0.198085
O O18 0.368123 0.000000 0.290535
O O19 0.000000 0.244376 0.728227
O O20 0.075291 0.000000 0.721012
#
# Coordination Sequence:
#
# PCOD8194450 Si02
#       7
#     8   8   8   8   8   8   8
#     4  10  19  29  44  68  96 126 162 206 254 295
#     4   9  18  32  51  73  97 129 166 202 238 280
#     4  10  21  35  51  75 106 133 155 186 233 288
#     4   9  16  26  40  60  88 121 160 205 251 298
#     4   8  14  26  43  65  91 118 154 200 246 286
#     4  10  18  31  52  72  94 127 166 205 240 280
#     4   9  15  23  39  64  92 122 159 206 256 297
#
# _framework density 17.294329000000001
#
# number of rings (size 3 to 8) (size 9 to 14) (size 15 to 20)
#    0.000    2.714    1.429    2.143    0.000    2.857 
#    0.000    2.857    0.000    1.286    0.000    8.000 
#    0.000    0.000    0.000    3.714    0.000    4.857 
#
# Total GULP energy -694113.850876 kJ/mol
# GULP energy per Si atom -12394.890194 kJ/mol
# Density = 1.725497 g / cm^3
# Si number density = 17.294329 Si / 1000 Ang^3
#
#
#
# Elastic Constant Matrix: (Units=GPa)
#
#
# Indices 1 2 3 4 5 6 
#
# 1 71.4817 19.1916 50.8801 0.0000 0.0000 0.0000
# 2 19.1916 53.9595 42.2592 0.0000 0.0000 0.0000
# 3 50.8801 42.2592 141.2564 0.0000 0.0000 0.0000
# 4 0.0000 0.0000 0.0000 20.7894 0.0000 0.0000
# 5 0.0000 0.0000 0.0000 0.0000 16.0313 0.0000
# 6 0.0000 0.0000 0.0000 0.0000 0.0000 11.6111
#
#
#
# Elastic Compliance Matrix: (Units=1/GPa)
#
#
# Indices 1 2 3 4 5 6 
#
# 1 0.018949 -0.001821 -0.006281 0.000000 0.000000 0.000000
# 2 -0.001821 0.024378 -0.006637 0.000000 0.000000 0.000000
# 3 -0.006281 -0.006637 0.011327 0.000000 0.000000 0.000000
# 4 0.000000 0.000000 0.000000 0.048101 0.000000 0.000000
# 5 0.000000 0.000000 0.000000 0.000000 0.062378 0.000000
# 6 0.000000 0.000000 0.000000 0.000000 0.000000 0.086125
#
#
# Mechanical properties :
#
#
# Convention : Reuss Voigt Hill
#
# Bulk Modulus (GPa) = 39.71883 54.59550 47.15717
# Shear Modulus (GPa) = 17.29340 19.97748 18.63544
#
# Velocity S-wave (km/s) = 3.16562 3.40243 3.28616
# Velocity P-wave (km/s) = 6.03140 6.86093 6.45950
#
# Compressibility (1/GPa) = 0.02517697
#
# Stress axis : x y z
#
# Youngs Moduli (GPa) = 52.77340 41.02040 88.28263
#
# Poissons Ratio (x) = 0.07469 0.55447
# Poissons Ratio (y) = 0.09608 0.58596
# Poissons Ratio (z) = 0.33145 0.27227
#
# Static dielectric constant tensor:
#      x y z
#    x 3.196730 0.000000 0.000000 
#    y 0.000000 3.030520 0.000000 
#    z 0.000000 0.000000 3.470190 
# 
# 
# High freq. dielectric constant tensor:
#      x y z
#    x 1.639930 0.000000 0.000000 
#    y 0.000000 1.644280 0.000000 
#    z 0.000000 0.000000 1.671700 
# 
# From -- ./inp_files/9874.got.cif
#   From: 2010.03.12/outbox.cif.g09.slc.cpg/sg47_5_cif.got.tgz:9874.got - 2010.04.14 03:12:58.
