data_PCOD8194681
_publ_section_title
;
Structure prediction by ZEFSAII (Michael W. Deem and Ramdas Pophale) SiO2 
 PCOD8194681
Probable space group: P M M M
;
_chemical_formula_sum "Si O2"
_cell_formula_units_Z 64
_cell_length_a 31.233299
_cell_length_b 14.299375
_cell_length_c 9.635455
_cell_angle_alpha 90.000000
_cell_angle_beta 90.000000
_cell_angle_gamma 90.000000
_cell_volume 4303.354680
_symmetry_space_group_name_H-M "P M M M"
_symmetry_group_IT_number 47
_symmetry_cell_setting 'orthorhombic'
loop_
_space_group_symop_operation_xyz
x,y,z
-x,-y,z
x,-y,-z
-x,y,-z
-x,-y,-z
x,y,-z
-x,y,z
x,-y,z
loop_
_atom_site_type_symbol
_atom_site_label
_atom_site_fract_x
_atom_site_fract_y
_atom_site_fract_z
Si Si1 0.047194 0.888919 0.655919
Si Si2 0.787952 0.796978 0.839083
Si Si3 0.713990 0.109879 0.661423
Si Si4 0.547000 0.894165 0.665110
Si Si5 0.628484 0.790217 0.337099
Si Si6 0.248787 0.396259 0.158422
Si Si7 0.875342 0.891562 0.161027
Si Si8 0.331401 0.603643 0.660582
O O1 0.057278 0.854728 0.500000
O O2 0.083768 0.849981 0.757607
O O3 0.000000 0.852347 0.701941
O O4 0.047165 0.000000 0.662175
O O5 0.752926 0.849257 0.748379
O O6 0.786300 0.684542 0.814945
O O7 0.834385 0.832073 0.791106
O O8 0.779962 0.822753 0.000000
O O9 0.721200 0.135009 0.500000
O O10 0.669993 0.154744 0.719216
O O11 0.711248 0.000000 0.685336
O O12 0.547331 0.888861 0.500000
O O13 0.500000 0.861365 0.719130
O O14 0.584415 0.828963 0.730119
O O15 0.555952 0.000000 0.713574
O O16 0.626066 0.808074 0.500000
O O17 0.632471 0.679927 0.300932
O O18 0.229747 0.500000 0.192187
O O19 0.289131 0.374096 0.253765
O O20 0.264864 0.392527 0.000000
O O21 0.866635 0.000000 0.197287
O O22 0.885322 0.878082 0.000000
O O23 0.318356 0.613149 0.500000
O O24 0.349476 0.500000 0.694046
#
# Coordination Sequence:
#
# PCOD8194681 Si02
#       8
#     8   8   8   8   8   8   8   8
#     4   8  14  25  40  57  77 102 134 171 205 233
#     4  10  19  30  42  57  82 112 138 167 203 243
#     4  10  19  28  39  57  80 107 138 168 197 233
#     4   8  13  21  34  52  74 102 133 162 196 239
#     4   9  15  24  37  54  77 102 130 166 202 236
#     4   9  17  29  44  60  78 103 137 174 207 239
#     4   9  17  27  38  54  78 109 139 162 191 235
#     4   9  16  26  41  59  78 101 129 162 203 248
#
# _framework density 14.872119
#
# number of rings (size 3 to 8) (size 9 to 14) (size 15 to 20)
#    0.000    3.000    1.250    1.500    0.000    3.000 
#    0.000    2.500    0.000    0.375    0.000    2.625 
#    0.000    2.500    0.000   16.250    0.000   10.750 
#
# Total GULP energy -793149.890729 kJ/mol
# GULP energy per Si atom -12392.967043 kJ/mol
# Density = 1.483827 g / cm^3
# Si number density = 14.872119 Si / 1000 Ang^3
#
#
#
# Elastic Constant Matrix: (Units=GPa)
#
#
# Indices 1 2 3 4 5 6 
#
# 1 142.9817 67.5459 44.5213 0.0000 0.0000 0.0000
# 2 67.5459 89.3174 28.5728 0.0000 0.0000 0.0000
# 3 44.5213 28.5728 35.3172 0.0000 0.0000 0.0000
# 4 0.0000 0.0000 0.0000 13.5024 0.0000 0.0000
# 5 0.0000 0.0000 0.0000 0.0000 1.4463 0.0000
# 6 0.0000 0.0000 0.0000 0.0000 0.0000 11.3396
#
#
#
# Elastic Compliance Matrix: (Units=1/GPa)
#
#
# Indices 1 2 3 4 5 6 
#
# 1 0.013919 -0.006629 -0.012184 0.000000 0.000000 0.000000
# 2 -0.006629 0.018262 -0.006419 0.000000 0.000000 0.000000
# 3 -0.012184 -0.006419 0.048867 0.000000 0.000000 0.000000
# 4 0.000000 0.000000 0.000000 0.074061 0.000000 0.000000
# 5 0.000000 0.000000 0.000000 0.000000 0.691423 0.000000
# 6 0.000000 0.000000 0.000000 0.000000 0.000000 0.088186
#
#
# Mechanical properties :
#
#
# Convention : Reuss Voigt Hill
#
# Bulk Modulus (GPa) = 32.69477 60.98846 46.84161
# Shear Modulus (GPa) = 5.02323 13.72276 9.37300
#
# Velocity S-wave (km/s) = 1.83982 3.04092 2.51318
# Velocity P-wave (km/s) = 5.15218 7.30939 6.32345
#
# Compressibility (1/GPa) = 0.03058594
#
# Stress axis : x y z
#
# Youngs Moduli (GPa) = 71.84386 54.75786 20.46386
#
# Poissons Ratio (x) = 0.36297 0.24933
# Poissons Ratio (y) = 0.47623 0.13135
# Poissons Ratio (z) = 0.87533 0.35147
#
# Static dielectric constant tensor:
#      x y z
#    x 3.064400 0.000000 0.000000 
#    y 0.000000 2.967400 0.000000 
#    z 0.000000 0.000000 2.740300 
# 
# 
# High freq. dielectric constant tensor:
#      x y z
#    x 1.557830 0.000000 0.000000 
#    y 0.000000 1.556580 0.000000 
#    z 0.000000 0.000000 1.546960 
# 
# From -- ./inp_files/14311.got.cif
#   From: 2010.03.12/outbox.cif.g09.slc.cpg/sg47_8_cif.got.tgz:14311.got - 2010.04.14 03:12:58.
