data_PCOD8194719
_publ_section_title
;
Structure prediction by ZEFSAII (Michael W. Deem and Ramdas Pophale) SiO2 
 PCOD8194719
Probable space group: P M M M
;
_chemical_formula_sum "Si O2"
_cell_formula_units_Z 52
_cell_length_a 26.170337
_cell_length_b 9.126199
_cell_length_c 13.491805
_cell_angle_alpha 90.000000
_cell_angle_beta 90.000000
_cell_angle_gamma 90.000000
_cell_volume 3222.324737
_symmetry_space_group_name_H-M "P M M M"
_symmetry_group_IT_number 47
_symmetry_cell_setting 'orthorhombic'
loop_
_space_group_symop_operation_xyz
x,y,z
-x,-y,z
x,-y,-z
-x,y,-z
-x,-y,-z
x,y,-z
-x,y,z
x,-y,z
loop_
_atom_site_type_symbol
_atom_site_label
_atom_site_fract_x
_atom_site_fract_y
_atom_site_fract_z
Si Si1 0.500000 0.673016 0.115258
Si Si2 0.751049 0.328942 0.287080
Si Si3 0.845542 0.831452 0.383087
Si Si4 0.056160 0.664655 0.382273
Si Si5 0.702328 0.168924 0.886538
Si Si6 0.645165 0.669964 0.385827
Si Si7 0.595432 0.170659 0.787724
O O1 0.500000 0.500000 0.132058
O O2 0.549377 0.740688 0.165784
O O3 0.500000 0.714847 0.000000
O O4 0.761313 0.500000 0.279290
O O5 0.800763 0.255173 0.330829
O O6 0.740415 0.267568 0.177567
O O7 0.703559 0.291913 0.358675
O O8 0.840841 0.806412 0.500000
O O9 0.899827 0.772073 0.342078
O O10 0.841347 0.000000 0.353645
O O11 0.056207 0.666935 0.500000
O O12 0.067343 0.500000 0.344473
O O13 0.000000 0.716474 0.344145
O O14 0.643854 0.199532 0.857696
O O15 0.716058 0.000000 0.867534
O O16 0.710079 0.214115 0.000000
O O17 0.635989 0.709166 0.500000
O O18 0.633843 0.500000 0.363404
O O19 0.606595 0.768904 0.322343
O O20 0.581292 0.000000 0.780588
#
# Coordination Sequence:
#
# PCOD8194719 Si02
#       7
#     4   8   8   8   8   8   8
#     4  11  23  37  54  75  98 123 151 186 228 273
#     4  10  19  30  46  68  93 121 155 192 227 269
#     4  10  19  28  40  61  90 123 157 193 231 270
#     4   8  14  25  40  57  80 114 154 192 230 272
#     4   9  18  33  51  70  94 122 149 181 226 276
#     4   9  18  33  51  70  95 127 159 190 226 268
#     4  10  20  34  53  76  99 122 151 187 226 271
#
# _framework density 16.137418
#
# number of rings (size 3 to 8) (size 9 to 14) (size 15 to 20)
#    0.000    2.538    0.000    3.000    0.000    4.923 
#    0.000    1.923    0.000    2.308    0.000    0.000 
#    0.000    0.615    0.000    6.462    0.000    3.077 
#
# Total GULP energy -644814.417043 kJ/mol
# GULP energy per Si atom -12400.277251 kJ/mol
# Density = 1.610069 g / cm^3
# Si number density = 16.137418 Si / 1000 Ang^3
#
#
#
# Elastic Constant Matrix: (Units=GPa)
#
#
# Indices 1 2 3 4 5 6 
#
# 1 108.9306 71.8262 48.9668 0.0000 0.0000 0.0000
# 2 71.8262 102.7275 57.2062 0.0000 0.0000 0.0000
# 3 48.9668 57.2062 84.7763 0.0000 0.0000 0.0000
# 4 0.0000 0.0000 0.0000 24.4111 0.0000 0.0000
# 5 0.0000 0.0000 0.0000 0.0000 16.4405 0.0000
# 6 0.0000 0.0000 0.0000 0.0000 0.0000 28.9904
#
#
#
# Elastic Compliance Matrix: (Units=1/GPa)
#
#
# Indices 1 2 3 4 5 6 
#
# 1 0.017485 -0.010575 -0.002963 0.000000 0.000000 0.000000
# 2 -0.010575 0.021991 -0.008731 0.000000 0.000000 0.000000
# 3 -0.002963 -0.008731 0.019399 0.000000 0.000000 0.000000
# 4 0.000000 0.000000 0.000000 0.040965 0.000000 0.000000
# 5 0.000000 0.000000 0.000000 0.000000 0.060825 0.000000
# 6 0.000000 0.000000 0.000000 0.000000 0.000000 0.034494
#
#
# Mechanical properties :
#
#
# Convention : Reuss Voigt Hill
#
# Bulk Modulus (GPa) = 69.75530 72.49255 71.12392
# Shear Modulus (GPa) = 20.45181 21.86408 21.15795
#
# Velocity S-wave (km/s) = 3.56385 3.68485 3.62486
# Velocity P-wave (km/s) = 7.76237 7.94504 7.85424
#
# Compressibility (1/GPa) = 0.01433583
#
# Stress axis : x y z
#
# Youngs Moduli (GPa) = 57.19029 45.47380 51.54960
#
# Poissons Ratio (x) = 0.48091 0.15276
# Poissons Ratio (y) = 0.60482 0.45006
# Poissons Ratio (z) = 0.16948 0.39702
#
# Static dielectric constant tensor:
#      x y z
#    x 3.128550 0.000000 0.000000 
#    y 0.000000 3.181720 0.000000 
#    z 0.000000 0.000000 2.916800 
# 
# 
# High freq. dielectric constant tensor:
#      x y z
#    x 1.617580 0.000000 0.000000 
#    y 0.000000 1.631680 0.000000 
#    z 0.000000 0.000000 1.592890 
# 
# From -- ./inp_files/15468.got.cif
#   From: 2010.03.12/outbox.cif.g09.slc.cpg/sg47_8_cif.got.tgz:15468.got - 2010.04.14 03:12:58.
