data_PCOD8194859
_publ_section_title
;
Structure prediction by ZEFSAII (Michael W. Deem and Ramdas Pophale) SiO2 
 PCOD8194859
Probable space group: P M M M
;
_chemical_formula_sum "Si O2"
_cell_formula_units_Z 52
_cell_length_a 26.650196
_cell_length_b 13.794114
_cell_length_c 9.097222
_cell_angle_alpha 90.000000
_cell_angle_beta 90.000000
_cell_angle_gamma 90.000000
_cell_volume 3344.282923
_symmetry_space_group_name_H-M "P M M M"
_symmetry_group_IT_number 47
_symmetry_cell_setting 'orthorhombic'
loop_
_space_group_symop_operation_xyz
x,y,z
-x,-y,z
x,-y,-z
-x,y,-z
-x,-y,-z
x,y,-z
-x,y,z
x,-y,z
loop_
_atom_site_type_symbol
_atom_site_label
_atom_site_fract_x
_atom_site_fract_y
_atom_site_fract_z
Si Si1 0.500000 0.115260 0.165701
Si Si2 0.847643 0.290606 0.172399
Si Si3 0.253473 0.610562 0.173671
Si Si4 0.788166 0.890575 0.171395
Si Si5 0.401829 0.110922 0.671451
Si Si6 0.945034 0.609877 0.825052
Si Si7 0.300005 0.784833 0.673411
O O1 0.549929 0.154287 0.245106
O O2 0.500000 0.000000 0.174185
O O3 0.500000 0.154134 0.000000
O O4 0.802323 0.359457 0.227083
O O5 0.834917 0.179175 0.213691
O O6 0.900791 0.322947 0.243858
O O7 0.853049 0.304191 0.000000
O O8 0.263865 0.500000 0.219236
O O9 0.293622 0.678772 0.255070
O O10 0.259010 0.626400 0.000000
O O11 0.739602 0.861743 0.263740
O O12 0.804157 0.000000 0.209321
O O13 0.774602 0.877655 0.000000
O O14 0.413546 0.116678 0.500000
O O15 0.354821 0.176846 0.715740
O O16 0.390519 0.000000 0.718426
O O17 0.935099 0.500000 0.773356
O O18 0.000000 0.644865 0.767948
O O19 0.944633 0.614725 0.000000
O O20 0.292310 0.777684 0.500000
#
# Coordination Sequence:
#
# PCOD8194859 Si02
#       7
#     4   8   8   8   8   8   8
#     4   9  17  27  41  63  86 109 140 175 205 234
#     4   8  13  22  36  53  75 105 138 168 201 246
#     4   9  17  29  44  61  83 112 142 170 205 251
#     4   9  17  28  41  57  79 109 142 173 207 249
#     4   9  17  29  43  59  84 116 142 165 200 246
#     4   8  12  17  28  49  75 101 130 166 208 252
#     4  10  19  29  43  64  87 111 140 173 209 247
#
# _framework density 15.548924
#
# number of rings (size 3 to 8) (size 9 to 14) (size 15 to 20)
#    0.000    3.154    0.000    3.000    0.000    5.231 
#    0.000    1.538    0.000    0.462    0.000    3.769 
#    0.000   14.154    0.000   39.385    0.000   36.923 
#
# Total GULP energy -644499.235166 kJ/mol
# GULP energy per Si atom -12394.216061 kJ/mol
# Density = 1.551353 g / cm^3
# Si number density = 15.548924 Si / 1000 Ang^3
#
#
#
# Elastic Constant Matrix: (Units=GPa)
#
#
# Indices 1 2 3 4 5 6 
#
# 1 146.8977 73.9963 42.4108 0.0000 0.0000 0.0000
# 2 73.9963 118.9519 32.7952 0.0000 0.0000 0.0000
# 3 42.4108 32.7952 37.1621 0.0000 0.0000 0.0000
# 4 0.0000 0.0000 0.0000 16.3015 0.0000 0.0000
# 5 0.0000 0.0000 0.0000 0.0000 6.1235 0.0000
# 6 0.0000 0.0000 0.0000 0.0000 0.0000 24.2026
#
#
#
# Elastic Compliance Matrix: (Units=1/GPa)
#
#
# Indices 1 2 3 4 5 6 
#
# 1 0.011956 -0.004857 -0.009358 0.000000 0.000000 0.000000
# 2 -0.004857 0.013083 -0.006002 0.000000 0.000000 0.000000
# 3 -0.009358 -0.006002 0.042886 0.000000 0.000000 0.000000
# 4 0.000000 0.000000 0.000000 0.061344 0.000000 0.000000
# 5 0.000000 0.000000 0.000000 0.000000 0.163305 0.000000
# 6 0.000000 0.000000 0.000000 0.000000 0.000000 0.041318
#
#
# Mechanical properties :
#
#
# Convention : Reuss Voigt Hill
#
# Bulk Modulus (GPa) = 36.37744 66.82402 51.60073
# Shear Modulus (GPa) = 13.03813 19.57949 16.30881
#
# Velocity S-wave (km/s) = 2.89887 3.55240 3.24214
# Velocity P-wave (km/s) = 5.88650 7.73925 6.87556
#
# Compressibility (1/GPa) = 0.02748956
#
# Stress axis : x y z
#
# Youngs Moduli (GPa) = 83.63969 76.43332 23.31766
#
# Poissons Ratio (x) = 0.37127 0.21821
# Poissons Ratio (y) = 0.40628 0.13996
# Poissons Ratio (z) = 0.78270 0.45878
#
# Static dielectric constant tensor:
#      x y z
#    x 3.168880 0.000000 0.000000 
#    y 0.000000 2.973310 0.000000 
#    z 0.000000 0.000000 2.716140 
# 
# 
# High freq. dielectric constant tensor:
#      x y z
#    x 1.593280 0.000000 0.000000 
#    y 0.000000 1.579320 0.000000 
#    z 0.000000 0.000000 1.569090 
# 
# From -- ./inp_files/12497.got.cif
#   From: 2010.03.12/outbox.cif.g09.slc.cpg/sg47_7_cif.got.tgz:12497.got - 2010.04.14 03:12:58.
