data_PCOD8194851
_publ_section_title
;
Structure prediction by ZEFSAII (Michael W. Deem and Ramdas Pophale) SiO2 
 PCOD8194851
Probable space group: P M M M
;
_chemical_formula_sum "Si O2"
_cell_formula_units_Z 56
_cell_length_a 18.059767
_cell_length_b 21.548650
_cell_length_c 9.172061
_cell_angle_alpha 90.000000
_cell_angle_beta 90.000000
_cell_angle_gamma 90.000000
_cell_volume 3569.432261
_symmetry_space_group_name_H-M "P M M M"
_symmetry_group_IT_number 47
_symmetry_cell_setting 'orthorhombic'
loop_
_space_group_symop_operation_xyz
x,y,z
-x,-y,z
x,-y,-z
-x,y,-z
-x,-y,-z
x,y,-z
-x,y,z
x,-y,z
loop_
_atom_site_type_symbol
_atom_site_label
_atom_site_fract_x
_atom_site_fract_y
_atom_site_fract_z
Si Si1 0.913382 0.707941 0.832766
Si Si2 0.680996 0.569605 0.831675
Si Si3 0.416939 0.684106 0.828276
Si Si4 0.802081 0.632551 0.336536
Si Si5 0.841000 0.179229 0.672738
Si Si6 0.300044 0.752754 0.660993
Si Si7 0.085268 0.928403 0.167628
O O1 0.875111 0.648834 0.755775
O O2 0.894076 0.771912 0.752454
O O3 0.000000 0.696292 0.822774
O O4 0.886422 0.712440 0.000000
O O5 0.650418 0.500000 0.806659
O O6 0.618080 0.618100 0.779929
O O7 0.756476 0.577523 0.740439
O O8 0.700608 0.581654 0.000000
O O9 0.500000 0.687027 0.764648
O O10 0.369600 0.742122 0.767104
O O11 0.417832 0.690933 0.000000
O O12 0.824409 0.612071 0.500000
O O13 0.751028 0.692622 0.340063
O O14 0.853493 0.185613 0.500000
O O15 0.754082 0.191242 0.711811
O O16 0.861704 0.110878 0.727428
O O17 0.331950 0.765887 0.500000
O O18 0.000000 0.915455 0.208209
O O19 0.104925 0.000000 0.193859
O O20 0.099587 0.909903 0.000000
#
# Coordination Sequence:
#
# PCOD8194851 Si02
#       7
#     8   8   8   8   8   8   8
#     4  10  19  29  43  63  85 109 138 174 218 265
#     4   9  17  29  45  63  84 113 144 170 202 249
#     4   9  17  28  43  65  90 113 139 172 208 247
#     4   9  17  29  44  61  82 107 137 176 216 252
#     4  10  19  29  43  64  88 114 148 186 217 250
#     4   8  16  29  42  59  83 111 141 172 210 254
#     4   9  18  31  44  60  87 123 158 188 219 256
#
# _framework density 15.68877
#
# number of rings (size 3 to 8) (size 9 to 14) (size 15 to 20)
#    0.000    2.857    0.000    3.000    0.000    8.286 
#    0.000    2.143    0.000    0.429    0.000    7.000 
#    0.000    0.571    0.000    6.286    0.000    4.571 
#
# Total GULP energy -694222.506127 kJ/mol
# GULP energy per Si atom -12396.830467 kJ/mol
# Density = 1.565306 g / cm^3
# Si number density = 15.688770 Si / 1000 Ang^3
#
#
#
# Elastic Constant Matrix: (Units=GPa)
#
#
# Indices 1 2 3 4 5 6 
#
# 1 97.4063 47.0133 51.9631 0.0000 0.0000 0.0000
# 2 47.0133 59.5432 32.5972 0.0000 0.0000 0.0000
# 3 51.9631 32.5972 81.7492 0.0000 0.0000 0.0000
# 4 0.0000 0.0000 0.0000 21.1196 0.0000 0.0000
# 5 0.0000 0.0000 0.0000 0.0000 20.7346 0.0000
# 6 0.0000 0.0000 0.0000 0.0000 0.0000 20.2038
#
#
#
# Elastic Compliance Matrix: (Units=1/GPa)
#
#
# Indices 1 2 3 4 5 6 
#
# 1 0.020192 -0.011407 -0.008287 0.000000 0.000000 0.000000
# 2 -0.011407 0.027928 -0.003886 0.000000 0.000000 0.000000
# 3 -0.008287 -0.003886 0.019049 0.000000 0.000000 0.000000
# 4 0.000000 0.000000 0.000000 0.047349 0.000000 0.000000
# 5 0.000000 0.000000 0.000000 0.000000 0.048229 0.000000
# 6 0.000000 0.000000 0.000000 0.000000 0.000000 0.049496
#
#
# Mechanical properties :
#
#
# Convention : Reuss Voigt Hill
#
# Bulk Modulus (GPa) = 49.97087 55.76065 52.86576
# Shear Modulus (GPa) = 18.79189 19.55328 19.17259
#
# Velocity S-wave (km/s) = 3.46467 3.53416 3.49959
# Velocity P-wave (km/s) = 6.92284 7.22998 7.07808
#
# Compressibility (1/GPa) = 0.02001166
#
# Stress axis : x y z
#
# Youngs Moduli (GPa) = 49.52347 35.80624 52.49520
#
# Poissons Ratio (x) = 0.40843 0.43502
# Poissons Ratio (y) = 0.56490 0.20398
# Poissons Ratio (z) = 0.41039 0.13913
#
# Static dielectric constant tensor:
#      x y z
#    x 3.018750 0.000000 0.000000 
#    y 0.000000 2.841760 0.000000 
#    z 0.000000 0.000000 3.131470 
# 
# 
# High freq. dielectric constant tensor:
#      x y z
#    x 1.585370 0.000000 0.000000 
#    y 0.000000 1.571590 0.000000 
#    z 0.000000 0.000000 1.610660 
# 
# From -- ./inp_files/9818.got.cif
#   From: 2010.03.12/outbox.cif.g09.slc.cpg/sg47_5_cif.got.tgz:9818.got - 2010.04.14 03:12:58.
