data_PCOD8194773
_publ_section_title
;
Structure prediction by ZEFSAII (Michael W. Deem and Ramdas Pophale) SiO2 
 PCOD8194773
Probable space group: P M M M
;
_chemical_formula_sum "Si O2"
_cell_formula_units_Z 64
_cell_length_a 13.656824
_cell_length_b 33.847637
_cell_length_c 9.167029
_cell_angle_alpha 90.000000
_cell_angle_beta 90.000000
_cell_angle_gamma 90.000000
_cell_volume 4237.470351
_symmetry_space_group_name_H-M "P M M M"
_symmetry_group_IT_number 47
_symmetry_cell_setting 'orthorhombic'
loop_
_space_group_symop_operation_xyz
x,y,z
-x,-y,z
x,-y,-z
-x,y,-z
-x,-y,-z
x,y,-z
-x,y,z
x,-y,z
loop_
_atom_site_type_symbol
_atom_site_label
_atom_site_fract_x
_atom_site_fract_y
_atom_site_fract_z
Si Si1 0.613962 0.303916 0.828566
Si Si2 0.113049 0.808065 0.169642
Si Si3 0.388267 0.847309 0.330736
Si Si4 0.719623 0.233024 0.670802
Si Si5 0.616312 0.382079 0.663231
Si Si6 0.112124 0.045321 0.667592
Si Si7 0.221214 0.112312 0.170191
Si Si8 0.383552 0.456407 0.836115
O O1 0.500000 0.296276 0.793635
O O2 0.677908 0.270601 0.753083
O O3 0.649457 0.345551 0.762997
O O4 0.634308 0.304192 0.000000
O O5 0.173156 0.776911 0.266307
O O6 0.145703 0.852586 0.208157
O O7 0.000000 0.803450 0.211487
O O8 0.132438 0.799038 0.000000
O O9 0.374733 0.857176 0.500000
O O10 0.500000 0.850972 0.280368
O O11 0.353235 0.803047 0.296391
O O12 0.326532 0.878956 0.240163
O O13 0.728071 0.242260 0.500000
O O14 0.658404 0.376866 0.500000
O O15 0.500000 0.384556 0.659150
O O16 0.660077 0.422564 0.731052
O O17 0.125752 0.057926 0.500000
O O18 0.180985 0.071558 0.767758
O O19 0.000000 0.051424 0.715679
O O20 0.143253 0.000000 0.690040
O O21 0.236613 0.107199 0.000000
O O22 0.500000 0.453967 0.836932
O O23 0.350341 0.500000 0.780915
O O24 0.344525 0.449168 0.000000
#
# Coordination Sequence:
#
# PCOD8194773 Si02
#       8
#     8   8   8   8   8   8   8   8
#     4  10  19  29  41  56  77 107 140 173 211 255
#     4   9  18  32  47  64  89 117 142 168 200 243
#     4   9  18  32  48  65  87 116 147 177 210 249
#     4  10  19  30  45  65  86 107 137 176 213 248
#     4   9  16  24  34  49  69  94 127 168 210 248
#     4   9  18  32  49  69  93 120 147 173 204 247
#     4  10  19  30  47  71  95 117 142 174 211 247
#     4   8  13  21  32  45  63  89 122 161 204 249
#
# _framework density 15.103351
#
# number of rings (size 3 to 8) (size 9 to 14) (size 15 to 20)
#    0.000    2.750    0.000    3.000    0.000    5.500 
#    0.000    1.875    0.000    0.375    0.000    2.625 
#    0.000    0.000    0.000    0.000    0.000    0.625 
#
# Total GULP energy -793576.097701 kJ/mol
# GULP energy per Si atom -12399.626527 kJ/mol
# Density = 1.506898 g / cm^3
# Si number density = 15.103351 Si / 1000 Ang^3
#
#
#
# Elastic Constant Matrix: (Units=GPa)
#
#
# Indices 1 2 3 4 5 6 
#
# 1 79.4503 48.2677 46.8695 0.0000 0.0000 0.0000
# 2 48.2677 106.0065 60.4895 0.0000 0.0000 0.0000
# 3 46.8695 60.4895 89.2825 0.0000 0.0000 0.0000
# 4 0.0000 0.0000 0.0000 31.3112 0.0000 0.0000
# 5 0.0000 0.0000 0.0000 0.0000 19.0181 0.0000
# 6 0.0000 0.0000 0.0000 0.0000 0.0000 12.0855
#
#
#
# Elastic Compliance Matrix: (Units=1/GPa)
#
#
# Indices 1 2 3 4 5 6 
#
# 1 0.019742 -0.005014 -0.006967 0.000000 0.000000 0.000000
# 2 -0.005014 0.016652 -0.008650 0.000000 0.000000 0.000000
# 3 -0.006967 -0.008650 0.020718 0.000000 0.000000 0.000000
# 4 0.000000 0.000000 0.000000 0.031937 0.000000 0.000000
# 5 0.000000 0.000000 0.000000 0.000000 0.052582 0.000000
# 6 0.000000 0.000000 0.000000 0.000000 0.000000 0.082744
#
#
# Mechanical properties :
#
#
# Convention : Reuss Voigt Hill
#
# Bulk Modulus (GPa) = 63.08643 65.11031 64.09837
# Shear Modulus (GPa) = 18.45554 20.42377 19.43966
#
# Velocity S-wave (km/s) = 3.49943 3.68131 3.59152
# Velocity P-wave (km/s) = 7.62814 7.82769 7.72856
#
# Compressibility (1/GPa) = 0.01585127
#
# Stress axis : x y z
#
# Youngs Moduli (GPa) = 50.65215 60.05245 48.26666
#
# Poissons Ratio (x) = 0.30109 0.33628
# Poissons Ratio (y) = 0.25396 0.41750
# Poissons Ratio (z) = 0.35290 0.51945
#
# Static dielectric constant tensor:
#      x y z
#    x 2.621680 0.000000 0.000000 
#    y 0.000000 2.945420 0.000000 
#    z 0.000000 0.000000 3.021830 
# 
# 
# High freq. dielectric constant tensor:
#      x y z
#    x 1.532280 0.000000 0.000000 
#    y 0.000000 1.577430 0.000000 
#    z 0.000000 0.000000 1.590290 
# 
# From -- ./inp_files/4915.got.cif
#   From: 2010.03.12/outbox.cif.g09.slc.cpg/sg47_3_cif.got.tgz:4915.got - 2010.04.14 03:12:58.
