data_PCOD8194516
_publ_section_title
;
Structure prediction by ZEFSAII (Michael W. Deem and Ramdas Pophale) SiO2 
 PCOD8194516
Probable space group: P M M M
;
_chemical_formula_sum "Si O2"
_cell_formula_units_Z 64
_cell_length_a 17.522328
_cell_length_b 12.570207
_cell_length_c 15.988374
_cell_angle_alpha 90.000000
_cell_angle_beta 90.000000
_cell_angle_gamma 90.000000
_cell_volume 3521.587907
_symmetry_space_group_name_H-M "P M M M"
_symmetry_group_IT_number 47
_symmetry_cell_setting 'orthorhombic'
loop_
_space_group_symop_operation_xyz
x,y,z
-x,-y,z
x,-y,-z
-x,y,-z
-x,-y,-z
x,y,-z
-x,y,z
x,-y,z
loop_
_atom_site_type_symbol
_atom_site_label
_atom_site_fract_x
_atom_site_fract_y
_atom_site_fract_z
Si Si1 0.588422 0.378539 0.296543
Si Si2 0.582507 0.114160 0.904283
Si Si3 0.773686 0.121931 0.722462
Si Si4 0.839337 0.623990 0.904439
Si Si5 0.856622 0.375633 0.406391
Si Si6 0.703909 0.741894 0.405131
Si Si7 0.688585 0.286524 0.840089
Si Si8 0.086829 0.747032 0.750205
O O1 0.500000 0.346902 0.285153
O O2 0.595953 0.500000 0.327604
O O3 0.625795 0.297954 0.362914
O O4 0.633004 0.366782 0.208880
O O5 0.500000 0.140692 0.861763
O O6 0.639501 0.211785 0.899013
O O7 0.613103 0.000000 0.866562
O O8 0.568082 0.094833 0.000000
O O9 0.739509 0.147685 0.630726
O O10 0.730850 0.206227 0.779128
O O11 0.863684 0.146836 0.732561
O O12 0.758559 0.000000 0.746428
O O13 0.855541 0.500000 0.890096
O O14 0.749213 0.645983 0.892998
O O15 0.887956 0.687973 0.835728
O O16 0.862149 0.656651 0.000000
O O17 0.881634 0.335607 0.500000
O O18 0.868052 0.500000 0.400047
O O19 0.767572 0.349552 0.392068
O O20 0.906982 0.326336 0.332300
O O21 0.683410 0.764958 0.500000
O O22 0.000000 0.783065 0.761930
#
# Coordination Sequence:
#
# PCOD8194516 Si02
#       8
#     8   8   8   8   8   8   8   8
#     4  10  20  31  46  72 103 135 171 210 256 310
#     4   9  17  28  44  68  94 120 154 198 250 304
#     4   9  19  34  53  75  94 121 164 205 245 296
#     4  10  21  35  52  75 101 134 177 217 253 302
#     4   9  17  30  50  75 101 130 164 201 244 297
#     4   9  18  32  50  71  98 131 167 208 248 291
#     4  10  18  32  51  69  95 128 164 210 257 298
#     4  10  21  35  52  75 104 133 161 202 255 309
#
# _framework density 18.17362
#
# number of rings (size 3 to 8) (size 9 to 14) (size 15 to 20)
#    0.000    2.500    0.000    3.375    0.000    3.000 
#    0.000    1.875    0.000    6.750    0.000   15.750 
#    0.000    0.000    0.000    0.000    0.000    0.000 
#
# Total GULP energy -792999.902803 kJ/mol
# GULP energy per Si atom -12390.623481 kJ/mol
# Density = 1.813226 g / cm^3
# Si number density = 18.173620 Si / 1000 Ang^3
#
#
#
# Elastic Constant Matrix: (Units=GPa)
#
#
# Indices 1 2 3 4 5 6 
#
# 1 103.7433 23.3957 25.5787 0.0000 0.0000 0.0000
# 2 23.3957 63.2536 18.0894 0.0000 0.0000 0.0000
# 3 25.5787 18.0894 88.9757 0.0000 0.0000 0.0000
# 4 0.0000 0.0000 0.0000 -130.2097 0.0000 0.0000
# 5 0.0000 0.0000 0.0000 0.0000 19.5211 0.0000
# 6 0.0000 0.0000 0.0000 0.0000 0.0000 26.8110
#
#
#
# Elastic Compliance Matrix: (Units=1/GPa)
#
#
# Indices 1 2 3 4 5 6 
#
# 1 0.011009 -0.003362 -0.002481 0.000000 0.000000 0.000000
# 2 -0.003362 0.017812 -0.002655 0.000000 0.000000 0.000000
# 3 -0.002481 -0.002655 0.012492 0.000000 0.000000 0.000000
# 4 0.000000 0.000000 0.000000 -0.007680 0.000000 0.000000
# 5 0.000000 0.000000 0.000000 0.000000 0.051227 0.000000
# 6 0.000000 0.000000 0.000000 0.000000 0.000000 0.037298
#
#
# Mechanical properties :
#
#
# Convention : Reuss Voigt Hill
#
# Bulk Modulus (GPa) = 41.12411 43.34447 42.23429
# Shear Modulus (GPa) = 33.95336 -4.18159 14.88589
#
# Velocity S-wave (km/s) = 4.32705 -1.51852 2.86509
# Velocity P-wave (km/s) = 6.90232 4.56371 5.85105
#
# Compressibility (1/GPa) = 0.02431663
#
# Stress axis : x y z
#
# Youngs Moduli (GPa) = 90.83286 56.14122 80.05075
#
# Poissons Ratio (x) = 0.18877 0.19863
# Poissons Ratio (y) = 0.30542 0.21251
# Poissons Ratio (z) = 0.22539 0.14904
#
# Static dielectric constant tensor:
#      x y z
#    x 3.390140 0.000000 0.000000 
#    y 0.000000 3.444080 0.000000 
#    z 0.000000 0.000000 3.479420 
# 
# 
# High freq. dielectric constant tensor:
#      x y z
#    x 1.701270 0.000000 0.000000 
#    y 0.000000 1.688710 0.000000 
#    z 0.000000 0.000000 1.702600 
# 
# From -- ./inp_files/17882.got.cif
#   From: 2010.03.12/outbox.cif.g09.slc.cpg/sg47_9_cif.got.tgz:17882.got - 2010.04.14 03:12:58.
