data_PCOD8194188
_publ_section_title
;
Structure prediction by ZEFSAII (Michael W. Deem and Ramdas Pophale) SiO2 
 PCOD8194188
Probable space group: P M M M
;
_chemical_formula_sum "Si O2"
_cell_formula_units_Z 52
_cell_length_a 11.928630
_cell_length_b 27.781805
_cell_length_c 9.017760
_cell_angle_alpha 90.000000
_cell_angle_beta 90.000000
_cell_angle_gamma 90.000000
_cell_volume 2988.475497
_symmetry_space_group_name_H-M "P M M M"
_symmetry_group_IT_number 47
_symmetry_cell_setting 'orthorhombic'
loop_
_space_group_symop_operation_xyz
x,y,z
-x,-y,z
x,-y,-z
-x,y,-z
-x,-y,-z
x,y,-z
-x,y,z
x,-y,z
loop_
_atom_site_type_symbol
_atom_site_label
_atom_site_fract_x
_atom_site_fract_y
_atom_site_fract_z
Si Si1 0.632280 0.000000 0.834530
Si Si2 0.370970 0.554735 0.326771
Si Si3 0.281617 0.358905 0.175776
Si Si4 0.267629 0.182091 0.165741
Si Si5 0.126412 0.727347 0.176378
Si Si6 0.500000 0.768149 0.842639
Si Si7 0.369818 0.096865 0.325415
Si Si8 0.500000 0.679814 0.671585
O O1 0.671432 0.047235 0.747096
O O2 0.500000 0.000000 0.845117
O O3 0.684633 0.000000 0.000000
O O4 0.346178 0.559005 0.500000
O O5 0.500000 0.571780 0.294628
O O6 0.356172 0.500000 0.272534
O O7 0.277368 0.586672 0.240586
O O8 0.182049 0.323221 0.229278
O O9 0.392776 0.338381 0.244756
O O10 0.286933 0.361451 0.000000
O O11 0.191003 0.225029 0.235756
O O12 0.393611 0.198799 0.155863
O O13 0.276882 0.135715 0.271039
O O14 0.223901 0.168352 0.000000
O O15 0.000000 0.728263 0.237860
O O16 0.130728 0.728789 0.000000
O O17 0.500000 0.737085 0.692801
O O18 0.500000 0.737854 0.000000
O O19 0.359262 0.092025 0.500000
O O20 0.500000 0.109032 0.282044
O O21 0.500000 0.664801 0.500000
#
# Coordination Sequence:
#
# PCOD8194188 Si02
#       8
#     4   8   8   8   8   4   8   4
#     4   9  17  29  45  65  94 135 174 203 237 287
#     4   9  18  32  49  73 106 138 162 192 243 301
#     4  11  20  32  52  76 101 130 168 208 245 291
#     4  10  18  30  49  70  97 129 164 203 246 298
#     4   9  19  35  53  73  98 130 168 212 257 295
#     4  10  18  30  46  70  98 126 164 208 250 291
#     4  10  19  29  43  68 102 135 166 201 244 293
#     4  12  22  30  45  71 103 135 164 195 247 306
#
# _framework density 17.400176999999999
#
# number of rings (size 3 to 8) (size 9 to 14) (size 15 to 20)
#    0.000    2.077    3.077    2.308    0.000    2.462 
#    0.000    0.769    0.000    4.615    0.000    3.769 
#    0.000    4.308    0.000    0.000    0.000    0.000 
#
# Total GULP energy -644242.225093 kJ/mol
# GULP energy per Si atom -12389.273559 kJ/mol
# Density = 1.736057 g / cm^3
# Si number density = 17.400177 Si / 1000 Ang^3
#
#
#
# Elastic Constant Matrix: (Units=GPa)
#
#
# Indices 1 2 3 4 5 6 
#
# 1 87.4063 53.2617 24.8548 0.0000 0.0000 0.0000
# 2 53.2617 138.6236 53.0612 0.0000 0.0000 0.0000
# 3 24.8548 53.0612 65.1782 0.0000 0.0000 0.0000
# 4 0.0000 0.0000 0.0000 22.6816 0.0000 0.0000
# 5 0.0000 0.0000 0.0000 0.0000 10.2378 0.0000
# 6 0.0000 0.0000 0.0000 0.0000 0.0000 8.3503
#
#
#
# Elastic Compliance Matrix: (Units=1/GPa)
#
#
# Indices 1 2 3 4 5 6 
#
# 1 0.015038 -0.005205 -0.001497 0.000000 0.000000 0.000000
# 2 -0.005205 0.012281 -0.008013 0.000000 0.000000 0.000000
# 3 -0.001497 -0.008013 0.022437 0.000000 0.000000 0.000000
# 4 0.000000 0.000000 0.000000 0.044089 0.000000 0.000000
# 5 0.000000 0.000000 0.000000 0.000000 0.097677 0.000000
# 6 0.000000 0.000000 0.000000 0.000000 0.000000 0.119756
#
#
# Mechanical properties :
#
#
# Convention : Reuss Voigt Hill
#
# Bulk Modulus (GPa) = 49.19920 61.50709 55.35314
# Shear Modulus (GPa) = 14.38921 18.92263 16.65592
#
# Velocity S-wave (km/s) = 2.87881 3.30130 3.09726
# Velocity P-wave (km/s) = 6.27587 7.06801 6.68368
#
# Compressibility (1/GPa) = 0.02032553
#
# Stress axis : x y z
#
# Youngs Moduli (GPa) = 66.49729 81.42905 44.56968
#
# Poissons Ratio (x) = 0.42382 0.06674
# Poissons Ratio (y) = 0.34610 0.35713
# Poissons Ratio (z) = 0.09958 0.65248
#
# Static dielectric constant tensor:
#      x y z
#    x 2.944060 0.000000 0.000000 
#    y 0.000000 3.659360 0.000000 
#    z 0.000000 0.000000 3.445370 
# 
# 
# High freq. dielectric constant tensor:
#      x y z
#    x 1.620840 0.000000 0.000000 
#    y 0.000000 1.685860 0.000000 
#    z 0.000000 0.000000 1.661250 
# 
# From -- ./inp_files/4690.got.cif
#   From: 2010.03.12/outbox.cif.g09.slc.cpg/sg47_3_cif.got.tgz:4690.got - 2010.04.14 03:12:58.
