data_PCOD8194700
_publ_section_title
;
Structure prediction by ZEFSAII (Michael W. Deem and Ramdas Pophale) SiO2 
 PCOD8194700
Probable space group: P M M M
;
_chemical_formula_sum "Si O2"
_cell_formula_units_Z 52
_cell_length_a 15.285096
_cell_length_b 9.501408
_cell_length_c 23.061287
_cell_angle_alpha 90.000000
_cell_angle_beta 90.000000
_cell_angle_gamma 90.000000
_cell_volume 3349.189175
_symmetry_space_group_name_H-M "P M M M"
_symmetry_group_IT_number 47
_symmetry_cell_setting 'orthorhombic'
loop_
_space_group_symop_operation_xyz
x,y,z
-x,-y,z
x,-y,-z
-x,y,-z
-x,-y,-z
x,y,-z
-x,y,z
x,-y,z
loop_
_atom_site_type_symbol
_atom_site_label
_atom_site_fract_x
_atom_site_fract_y
_atom_site_fract_z
Si Si1 0.400400 0.843640 0.170941
Si Si2 0.096602 0.157688 0.768749
Si Si3 0.601250 0.160673 0.432954
Si Si4 0.258128 0.661574 0.631949
Si Si5 0.096792 0.158062 0.369046
Si Si6 0.602879 0.000000 0.936617
Si Si7 0.256711 0.661009 0.769392
O O1 0.500000 0.790286 0.177017
O O2 0.373894 0.861274 0.102337
O O3 0.340949 0.730367 0.202123
O O4 0.391211 0.000000 0.200070
O O5 0.097262 0.160951 0.699842
O O6 0.169207 0.263699 0.793495
O O7 0.000000 0.203176 0.791038
O O8 0.118605 0.000000 0.790508
O O9 0.623102 0.187492 0.500000
O O10 0.500000 0.192183 0.420369
O O11 0.656626 0.266226 0.394164
O O12 0.623803 0.000000 0.416127
O O13 0.255024 0.500000 0.612307
O O14 0.170524 0.736139 0.606982
O O15 0.264218 0.676685 0.700717
O O16 0.000000 0.204339 0.391255
O O17 0.117840 0.000000 0.391016
O O18 0.500000 0.000000 0.946128
O O19 0.650040 0.000000 0.000000
O O20 0.252127 0.500000 0.788920
#
# Coordination Sequence:
#
# PCOD8194700 Si02
#       7
#     8   8   8   8   8   4   8
#     4   8  16  28  43  63  85 115 150 182 217 255
#     4   8  14  25  41  59  81 113 152 188 216 249
#     4   9  19  36  54  68  81 103 142 190 230 261
#     4  10  20  30  43  66  92 120 147 173 215 267
#     4   8  14  26  44  64  85 112 146 180 214 254
#     4   7  12  26  48  68  83 107 150 196 227 252
#     4  10  19  28  39  61  96 127 147 172 212 266
#
# _framework density 15.526147
#
# number of rings (size 3 to 8) (size 9 to 14) (size 15 to 20)
#    0.462    2.846    0.000    2.308    0.000    4.000 
#    0.000    6.923    0.000    0.923    0.000    5.385 
#    0.000    1.231    0.000    1.385    0.000    0.154 
#
# Total GULP energy -644274.131266 kJ/mol
# GULP energy per Si atom -12389.887140 kJ/mol
# Density = 1.549081 g / cm^3
# Si number density = 15.526147 Si / 1000 Ang^3
#
#
#
# Elastic Constant Matrix: (Units=GPa)
#
#
# Indices 1 2 3 4 5 6 
#
# 1 116.2448 79.3858 29.4523 0.0000 0.0000 0.0000
# 2 79.3858 119.0962 32.8881 0.0000 0.0000 0.0000
# 3 29.4523 32.8881 23.9267 0.0000 0.0000 0.0000
# 4 0.0000 0.0000 0.0000 11.0883 0.0000 0.0000
# 5 0.0000 0.0000 0.0000 0.0000 -0.9918 0.0000
# 6 0.0000 0.0000 0.0000 0.0000 0.0000 14.6468
#
#
#
# Elastic Compliance Matrix: (Units=1/GPa)
#
#
# Indices 1 2 3 4 5 6 
#
# 1 0.016804 -0.008847 -0.008524 0.000000 0.000000 0.000000
# 2 -0.008847 0.018192 -0.014115 0.000000 0.000000 0.000000
# 3 -0.008524 -0.014115 0.071688 0.000000 0.000000 0.000000
# 4 0.000000 0.000000 0.000000 0.090185 0.000000 0.000000
# 5 0.000000 0.000000 0.000000 0.000000 -1.008305 0.000000
# 6 0.000000 0.000000 0.000000 0.000000 0.000000 0.068274
#
#
# Mechanical properties :
#
#
# Convention : Reuss Voigt Hill
#
# Bulk Modulus (GPa) = 22.87706 60.30223 41.58964
# Shear Modulus (GPa) = -7.51180 12.78476 2.63648
#
# Velocity S-wave (km/s) = -2.20197 2.87267 1.30452
# Velocity P-wave (km/s) = 2.88126 7.06586 5.39574
#
# Compressibility (1/GPa) = 0.04371191
#
# Stress axis : x y z
#
# Youngs Moduli (GPa) = 59.50897 54.97058 13.94935
#
# Poissons Ratio (x) = 0.48634 0.11891
# Poissons Ratio (y) = 0.52649 0.19689
# Poissons Ratio (z) = 0.50726 0.77588
#
# Static dielectric constant tensor:
#      x y z
#    x 3.108330 0.000000 0.000000 
#    y 0.000000 2.979590 0.000000 
#    z 0.000000 0.000000 2.740340 
# 
# 
# High freq. dielectric constant tensor:
#      x y z
#    x 1.602770 0.000000 0.000000 
#    y 0.000000 1.589930 0.000000 
#    z 0.000000 0.000000 1.543380 
# 
# From -- ./inp_files/33778.got.cif
#   From: 2010.03.12/outbox.cif.g09.slc.cpg/sg47_17_cif.got.tgz:33778.got - 2010.04.14 03:12:58.
