data_PCOD8194328
_publ_section_title
;
Structure prediction by ZEFSAII (Michael W. Deem and Ramdas Pophale) SiO2 
 PCOD8194328
Probable space group: P M M M
;
_chemical_formula_sum "Si O2"
_cell_formula_units_Z 40
_cell_length_a 20.312277
_cell_length_b 11.946597
_cell_length_c 9.200505
_cell_angle_alpha 90.000000
_cell_angle_beta 90.000000
_cell_angle_gamma 90.000000
_cell_volume 2232.618349
_symmetry_space_group_name_H-M "P M M M"
_symmetry_group_IT_number 47
_symmetry_cell_setting 'orthorhombic'
loop_
_space_group_symop_operation_xyz
x,y,z
-x,-y,z
x,-y,-z
-x,y,-z
-x,-y,-z
x,y,-z
-x,y,z
x,-y,z
loop_
_atom_site_type_symbol
_atom_site_label
_atom_site_fract_x
_atom_site_fract_y
_atom_site_fract_z
Si Si1 0.574920 0.873059 0.829927
Si Si2 0.894885 0.000000 0.171919
Si Si3 0.072832 0.221217 0.667226
Si Si4 0.765732 0.000000 0.339706
Si Si5 0.311434 0.226960 0.335047
Si Si6 0.807963 0.625666 0.673221
O O1 0.500000 0.840561 0.792672
O O2 0.621005 0.779742 0.754890
O O3 0.589160 0.000000 0.774605
O O4 0.588099 0.867403 0.000000
O O5 0.928640 0.890683 0.238198
O O6 0.818288 0.000000 0.211752
O O7 0.904514 0.000000 0.000000
O O8 0.089236 0.190500 0.500000
O O9 0.127964 0.306405 0.728949
O O10 0.000000 0.276665 0.678870
O O11 0.721183 0.892978 0.322199
O O12 0.799716 0.000000 0.500000
O O13 0.329453 0.258157 0.500000
O O14 0.259816 0.317600 0.270411
O O15 0.808208 0.625584 0.500000
O O16 0.811656 0.500000 0.735776
#
# Coordination Sequence:
#
# PCOD8194328 Si02
#       6
#     8   4   8   4   8   8
#     4   9  18  31  47  72 107 139 165 199 245 299
#     4  12  23  33  50  76 107 137 168 208 253 308
#     4  10  20  35  55  76 102 136 169 207 258 311
#     4  10  18  31  50  75 104 133 168 209 256 306
#     4  10  18  30  51  75 102 132 164 208 254 299
#     4   9  18  33  53  77 102 129 169 219 261 297
#
# _framework density 17.916183
#
# number of rings (size 3 to 8) (size 9 to 14) (size 15 to 20)
#    0.000    2.200    3.000    1.800    0.000    3.200 
#    0.000    3.000    0.000    3.000    0.000    5.600 
#    0.000    0.000    0.000    0.000    0.000    0.000 
#
# Total GULP energy -495843.176656 kJ/mol
# GULP energy per Si atom -12396.079416 kJ/mol
# Density = 1.787540 g / cm^3
# Si number density = 17.916183 Si / 1000 Ang^3
#
#
#
# Elastic Constant Matrix: (Units=GPa)
#
#
# Indices 1 2 3 4 5 6 
#
# 1 143.6065 60.4505 42.3459 0.0000 0.0000 0.0000
# 2 60.4505 116.6465 28.6980 0.0000 0.0000 0.0000
# 3 42.3459 28.6980 55.3114 0.0000 0.0000 0.0000
# 4 0.0000 0.0000 0.0000 -77.3647 0.0000 0.0000
# 5 0.0000 0.0000 0.0000 0.0000 17.9542 0.0000
# 6 0.0000 0.0000 0.0000 0.0000 0.0000 12.2294
#
#
#
# Elastic Compliance Matrix: (Units=1/GPa)
#
#
# Indices 1 2 3 4 5 6 
#
# 1 0.010348 -0.003913 -0.005892 0.000000 0.000000 0.000000
# 2 -0.003913 0.011307 -0.002871 0.000000 0.000000 0.000000
# 3 -0.005892 -0.002871 0.024080 0.000000 0.000000 0.000000
# 4 0.000000 0.000000 0.000000 -0.012926 0.000000 0.000000
# 5 0.000000 0.000000 0.000000 0.000000 0.055697 0.000000
# 6 0.000000 0.000000 0.000000 0.000000 0.000000 0.081770
#
#
# Mechanical properties :
#
#
# Convention : Reuss Voigt Hill
#
# Bulk Modulus (GPa) = 49.06029 64.28369 56.67199
# Shear Modulus (GPa) = 24.70073 2.83510 13.76791
#
# Velocity S-wave (km/s) = 3.71709 1.25931 2.77512
# Velocity P-wave (km/s) = 6.77237 6.17030 6.47833
#
# Compressibility (1/GPa) = 0.02038308
#
# Stress axis : x y z
#
# Youngs Moduli (GPa) = 96.63565 88.43968 41.52840
#
# Poissons Ratio (x) = 0.34608 0.24469
# Poissons Ratio (y) = 0.37815 0.11922
# Poissons Ratio (z) = 0.56939 0.25389
#
# Static dielectric constant tensor:
#      x y z
#    x 3.449890 0.000000 0.000000 
#    y 0.000000 3.415310 0.000000 
#    z 0.000000 0.000000 3.034000 
# 
# 
# High freq. dielectric constant tensor:
#      x y z
#    x 1.705830 0.000000 0.000000 
#    y 0.000000 1.668930 0.000000 
#    z 0.000000 0.000000 1.659220 
# 
# From -- ./inp_files/10694.got.cif
#   From: 2010.03.12/outbox.cif.g09.slc.cpg/sg47_6_cif.got.tgz:10694.got - 2010.04.14 03:12:58.
