data_PCOD8194197
_publ_section_title
;
Structure prediction by ZEFSAII (Michael W. Deem and Ramdas Pophale) SiO2 
 PCOD8194197
Probable space group: P M M M
;
_chemical_formula_sum "Si O2"
_cell_formula_units_Z 64
_cell_length_a 8.620313
_cell_length_b 19.077031
_cell_length_c 23.693175
_cell_angle_alpha 90.000000
_cell_angle_beta 90.000000
_cell_angle_gamma 90.000000
_cell_volume 3896.342115
_symmetry_space_group_name_H-M "P M M M"
_symmetry_group_IT_number 47
_symmetry_cell_setting 'orthorhombic'
loop_
_space_group_symop_operation_xyz
x,y,z
-x,-y,z
x,-y,-z
-x,y,-z
-x,-y,-z
x,y,-z
-x,y,z
x,-y,z
loop_
_atom_site_type_symbol
_atom_site_label
_atom_site_fract_x
_atom_site_fract_y
_atom_site_fract_z
Si Si1 0.315773 0.785870 0.937831
Si Si2 0.315600 0.076170 0.880027
Si Si3 0.818288 0.217706 0.276883
Si Si4 0.317276 0.706031 0.829193
Si Si5 0.182367 0.579795 0.228821
Si Si6 0.681933 0.078474 0.751770
Si Si7 0.680878 0.344765 0.333774
Si Si8 0.180080 0.419651 0.435336
O O1 0.500000 0.790153 0.940350
O O2 0.248390 0.861761 0.918980
O O3 0.264828 0.727145 0.892495
O O4 0.249055 0.767074 0.000000
O O5 0.500000 0.078571 0.879778
O O6 0.258375 0.086097 0.815949
O O7 0.259147 0.000000 0.902955
O O8 0.767421 0.243359 0.214957
O O9 0.770850 0.136495 0.285581
O O10 0.734585 0.264660 0.324562
O O11 0.000000 0.227082 0.284296
O O12 0.500000 0.716163 0.820825
O O13 0.269180 0.625720 0.818672
O O14 0.234348 0.500000 0.219853
O O15 0.228493 0.604128 0.291285
O O16 0.000000 0.589474 0.221413
O O17 0.500000 0.093387 0.747751
O O18 0.720382 0.000000 0.729332
O O19 0.500000 0.351023 0.321038
O O20 0.717446 0.368182 0.397300
O O21 0.215988 0.400631 0.500000
O O22 0.226380 0.500000 0.423069
O O23 0.000000 0.407997 0.421547
#
# Coordination Sequence:
#
# PCOD8194197 Si02
#       8
#     8   8   8   8   8   8   8   8
#     4   9  16  25  40  63  88 112 143 185 227 270
#     4   8  13  22  38  60  86 114 143 177 217 262
#     4  11  20  30  46  66  92 123 157 193 232 279
#     4  10  18  30  47  65  88 114 145 183 228 278
#     4  10  20  33  49  68  90 115 145 185 233 282
#     4   9  16  28  46  66  90 120 153 189 232 279
#     4  11  21  31  47  71  99 127 159 197 233 269
#     4   9  18  33  51  70  98 137 172 198 228 268
#
# _framework density 16.425661999999999
#
# number of rings (size 3 to 8) (size 9 to 14) (size 15 to 20)
#    0.000    2.375    1.250    6.000    0.000    3.500 
#    0.000    1.875    0.000    1.875    0.000    2.625 
#    0.000    2.500    0.000    5.250    0.000    2.250 
#
# Total GULP energy -793393.541017 kJ/mol
# GULP energy per Si atom -12396.774078 kJ/mol
# Density = 1.638828 g / cm^3
# Si number density = 16.425662 Si / 1000 Ang^3
#
#
#
# Elastic Constant Matrix: (Units=GPa)
#
#
# Indices 1 2 3 4 5 6 
#
# 1 31.1156 18.1227 14.4946 0.0000 0.0000 0.0000
# 2 18.1227 116.7300 50.7243 0.0000 0.0000 0.0000
# 3 14.4946 50.7243 84.0130 0.0000 0.0000 0.0000
# 4 0.0000 0.0000 0.0000 26.3088 0.0000 0.0000
# 5 0.0000 0.0000 0.0000 0.0000 10.8382 0.0000
# 6 0.0000 0.0000 0.0000 0.0000 0.0000 22.1734
#
#
#
# Elastic Compliance Matrix: (Units=1/GPa)
#
#
# Indices 1 2 3 4 5 6 
#
# 1 0.036239 -0.003944 -0.003871 0.000000 0.000000 0.000000
# 2 -0.003944 0.012043 -0.006591 0.000000 0.000000 0.000000
# 3 -0.003871 -0.006591 0.016550 0.000000 0.000000 0.000000
# 4 0.000000 0.000000 0.000000 0.038010 0.000000 0.000000
# 5 0.000000 0.000000 0.000000 0.000000 0.092266 0.000000
# 6 0.000000 0.000000 0.000000 0.000000 0.000000 0.045099
#
#
# Mechanical properties :
#
#
# Convention : Reuss Voigt Hill
#
# Bulk Modulus (GPa) = 27.76212 44.28241 36.02227
# Shear Modulus (GPa) = 17.79202 21.76523 19.77862
#
# Velocity S-wave (km/s) = 3.29475 3.64411 3.47382
# Velocity P-wave (km/s) = 5.60466 6.68759 6.16993
#
# Compressibility (1/GPa) = 0.03602030
#
# Stress axis : x y z
#
# Youngs Moduli (GPa) = 27.59489 83.03527 60.42294
#
# Poissons Ratio (x) = 0.32750 0.23389
# Poissons Ratio (y) = 0.10884 0.39823
# Poissons Ratio (z) = 0.10682 0.54726
#
# Static dielectric constant tensor:
#      x y z
#    x 2.898850 0.000000 0.000000 
#    y 0.000000 3.317810 0.000000 
#    z 0.000000 0.000000 2.967680 
# 
# 
# High freq. dielectric constant tensor:
#      x y z
#    x 1.617650 0.000000 0.000000 
#    y 0.000000 1.634210 0.000000 
#    z 0.000000 0.000000 1.597760 
# 
# From -- ./inp_files/33491.got.cif
#   From: 2010.03.12/outbox.cif.g09.slc.cpg/sg47_17_cif.got.tgz:33491.got - 2010.04.14 03:12:58.
