data_PCOD8194584
_publ_section_title
;
Structure prediction by ZEFSAII (Michael W. Deem and Ramdas Pophale) SiO2 
 PCOD8194584
Probable space group: P M M M
;
_chemical_formula_sum "Si O2"
_cell_formula_units_Z 52
_cell_length_a 20.397539
_cell_length_b 15.037656
_cell_length_c 9.311633
_cell_angle_alpha 90.000000
_cell_angle_beta 90.000000
_cell_angle_gamma 90.000000
_cell_volume 2856.168129
_symmetry_space_group_name_H-M "P M M M"
_symmetry_group_IT_number 47
_symmetry_cell_setting 'orthorhombic'
loop_
_space_group_symop_operation_xyz
x,y,z
-x,-y,z
x,-y,-z
-x,y,-z
-x,-y,-z
x,y,-z
-x,y,z
x,-y,z
loop_
_atom_site_type_symbol
_atom_site_label
_atom_site_fract_x
_atom_site_fract_y
_atom_site_fract_z
Si Si1 0.624671 0.852104 0.337169
Si Si2 0.697431 0.399865 0.166343
Si Si3 0.769865 0.901655 0.331468
Si Si4 0.427563 0.000000 0.850316
Si Si5 0.072372 0.400425 0.670511
Si Si6 0.193695 0.713063 0.671761
Si Si7 0.424001 0.653418 0.334759
O O1 0.617199 0.883636 0.500000
O O2 0.698563 0.868095 0.284582
O O3 0.580159 0.912054 0.240449
O O4 0.600084 0.753349 0.316066
O O5 0.725886 0.500000 0.178805
O O6 0.743752 0.332241 0.253463
O O7 0.624002 0.402956 0.232984
O O8 0.693894 0.369847 0.000000
O O9 0.774612 0.914049 0.500000
O O10 0.815375 0.817794 0.284785
O O11 0.786606 0.000000 0.262364
O O12 0.500000 0.000000 0.904701
O O13 0.385112 0.000000 0.000000
O O14 0.073818 0.400169 0.500000
O O15 0.087169 0.500000 0.727019
O O16 0.127739 0.334013 0.729251
O O17 0.000000 0.369898 0.724016
O O18 0.204293 0.703571 0.500000
O O19 0.416387 0.622474 0.500000
O O20 0.500000 0.642509 0.286480
#
# Coordination Sequence:
#
# PCOD8194584 Si02
#       7
#     8   8   8   4   8   8   8
#     4  10  18  33  53  70  91 123 164 210 261 312
#     4  11  24  38  52  74 105 137 168 209 264 321
#     4   9  16  28  49  75  99 125 163 210 255 298
#     4  11  23  33  43  67  99 127 160 205 260 320
#     4   8  14  25  45  78 113 138 166 209 258 301
#     4  10  18  32  56  79 102 136 177 216 250 296
#     4  10  21  37  56  75  94 123 171 224 265 309
#
# _framework density 18.206211
#
# number of rings (size 3 to 8) (size 9 to 14) (size 15 to 20)
#    0.000    2.231    2.308    2.077    0.000    4.308 
#    0.000    1.538    0.000    0.923    0.000    5.385 
#    0.000    0.000    0.000    1.385    0.000    1.692 
#
# Total GULP energy -644185.772147 kJ/mol
# GULP energy per Si atom -12388.187926 kJ/mol
# Density = 1.816477 g / cm^3
# Si number density = 18.206211 Si / 1000 Ang^3
#
#
#
# Elastic Constant Matrix: (Units=GPa)
#
#
# Indices 1 2 3 4 5 6 
#
# 1 113.0097 58.8002 24.2140 0.0000 0.0000 0.0000
# 2 58.8002 119.2950 30.1606 0.0000 0.0000 0.0000
# 3 24.2140 30.1606 48.9713 0.0000 0.0000 0.0000
# 4 0.0000 0.0000 0.0000 -2.8023 0.0000 0.0000
# 5 0.0000 0.0000 0.0000 0.0000 5.5896 0.0000
# 6 0.0000 0.0000 0.0000 0.0000 0.0000 33.4626
#
#
#
# Elastic Compliance Matrix: (Units=1/GPa)
#
#
# Indices 1 2 3 4 5 6 
#
# 1 0.012208 -0.005319 -0.002760 0.000000 0.000000 0.000000
# 2 -0.005319 0.012246 -0.004912 0.000000 0.000000 0.000000
# 3 -0.002760 -0.004912 0.024810 0.000000 0.000000 0.000000
# 4 0.000000 0.000000 0.000000 -0.356855 0.000000 0.000000
# 5 0.000000 0.000000 0.000000 0.000000 0.178904 0.000000
# 6 0.000000 0.000000 0.000000 0.000000 0.000000 0.029884
#
#
# Mechanical properties :
#
#
# Convention : Reuss Voigt Hill
#
# Bulk Modulus (GPa) = 42.95317 56.40283 49.67800
# Shear Modulus (GPa) = -76.85333 18.45674 -29.19830
#
# Velocity S-wave (km/s) = -6.50418 3.18741 -4.00904
# Velocity P-wave (km/s) = 5.72381 6.67783 2.43222
#
# Compressibility (1/GPa) = 0.02328117
#
# Stress axis : x y z
#
# Youngs Moduli (GPa) = 81.91371 81.65637 40.30604
#
# Poissons Ratio (x) = 0.43437 0.11125
# Poissons Ratio (y) = 0.43574 0.19799
# Poissons Ratio (z) = 0.22609 0.40111
#
# Static dielectric constant tensor:
#      x y z
#    x 3.440130 0.000000 0.000000 
#    y 0.000000 3.324680 0.000000 
#    z 0.000000 0.000000 3.057000 
# 
# 
# High freq. dielectric constant tensor:
#      x y z
#    x 1.686160 0.000000 0.000000 
#    y 0.000000 1.716250 0.000000 
#    z 0.000000 0.000000 1.670590 
# 
# From -- ./inp_files/11014.got.cif
#   From: 2010.03.12/outbox.cif.g09.slc.cpg/sg47_6_cif.got.tgz:11014.got - 2010.04.14 03:12:58.
