data_PCOD8194434
_publ_section_title
;
Structure prediction by ZEFSAII (Michael W. Deem and Ramdas Pophale) SiO2 
 PCOD8194434
Probable space group: P M M M
;
_chemical_formula_sum "Si O2"
_cell_formula_units_Z 56
_cell_length_a 16.105062
_cell_length_b 9.057661
_cell_length_c 19.521082
_cell_angle_alpha 90.000000
_cell_angle_beta 90.000000
_cell_angle_gamma 90.000000
_cell_volume 2847.622063
_symmetry_space_group_name_H-M "P M M M"
_symmetry_group_IT_number 47
_symmetry_cell_setting 'orthorhombic'
loop_
_space_group_symop_operation_xyz
x,y,z
-x,-y,z
x,-y,-z
-x,y,-z
-x,-y,-z
x,y,-z
-x,y,z
x,-y,z
loop_
_atom_site_type_symbol
_atom_site_label
_atom_site_fract_x
_atom_site_fract_y
_atom_site_fract_z
Si Si1 0.676844 0.171431 0.790161
Si Si2 0.591038 0.828637 0.347053
Si Si3 0.246187 0.176084 0.577470
Si Si4 0.902422 0.168317 0.922836
Si Si5 0.407499 0.825151 0.925368
Si Si6 0.907863 0.170923 0.332373
Si Si7 0.157556 0.674081 0.207960
O O1 0.604771 0.192957 0.734191
O O2 0.647794 0.236548 0.863493
O O3 0.754008 0.267978 0.765596
O O4 0.703429 0.000000 0.794736
O O5 0.500000 0.758688 0.365549
O O6 0.668516 0.758945 0.389232
O O7 0.587730 0.000000 0.365703
O O8 0.240926 0.234668 0.500000
O O9 0.163658 0.233203 0.616944
O O10 0.247545 0.000000 0.580262
O O11 0.856441 0.273626 0.869747
O O12 0.000000 0.184669 0.912750
O O13 0.874445 0.000000 0.909425
O O14 0.877197 0.215160 0.000000
O O15 0.500000 0.758883 0.919554
O O16 0.412763 0.000000 0.917803
O O17 0.369378 0.782132 0.000000
O O18 0.908991 0.258553 0.260534
O O19 0.000000 0.191366 0.365412
O O20 0.890655 0.000000 0.315869
O O21 0.152544 0.500000 0.210405
#
# Coordination Sequence:
#
# PCOD8194434 Si02
#       7
#     8   8   8   8   8   8   8
#     4  10  18  31  51  73 102 139 182 226 270 322
#     4   9  16  27  48  78 109 141 177 221 275 328
#     4   9  17  30  50  81 117 144 172 218 275 331
#     4   9  19  37  59  80 103 136 180 227 275 328
#     4   8  14  25  44  73 103 129 167 222 274 316
#     4  10  20  36  58  81 107 143 184 224 270 325
#     4  12  24  35  51  77 110 145 183 227 275 323
#
# _framework density 19.665531000000001
#
# number of rings (size 3 to 8) (size 9 to 14) (size 15 to 20)
#    0.000    2.429    1.429    3.000    0.000    5.429 
#    0.000    5.000    0.000    2.143    0.000    2.000 
#    0.000    1.143    0.000    0.000    0.000    0.000 
#
# Total GULP energy -694086.321017 kJ/mol
# GULP energy per Si atom -12394.398590 kJ/mol
# Density = 1.962077 g / cm^3
# Si number density = 19.665531 Si / 1000 Ang^3
#
#
#
# Elastic Constant Matrix: (Units=GPa)
#
#
# Indices 1 2 3 4 5 6 
#
# 1 135.0906 27.2200 61.1330 0.0000 0.0000 0.0000
# 2 27.2200 52.9472 27.5350 0.0000 0.0000 0.0000
# 3 61.1330 27.5350 130.9572 0.0000 0.0000 0.0000
# 4 0.0000 0.0000 0.0000 6.6851 0.0000 0.0000
# 5 0.0000 0.0000 0.0000 0.0000 29.1704 0.0000
# 6 0.0000 0.0000 0.0000 0.0000 0.0000 1.6308
#
#
#
# Elastic Compliance Matrix: (Units=1/GPa)
#
#
# Indices 1 2 3 4 5 6 
#
# 1 0.009787 -0.002982 -0.003942 0.000000 0.000000 0.000000
# 2 -0.002982 0.022114 -0.003258 0.000000 0.000000 0.000000
# 3 -0.003942 -0.003258 0.010161 0.000000 0.000000 0.000000
# 4 0.000000 0.000000 0.000000 0.149586 0.000000 0.000000
# 5 0.000000 0.000000 0.000000 0.000000 0.034281 0.000000
# 6 0.000000 0.000000 0.000000 0.000000 0.000000 0.613187
#
#
# Mechanical properties :
#
#
# Convention : Reuss Voigt Hill
#
# Bulk Modulus (GPa) = 46.08379 61.19679 53.64029
# Shear Modulus (GPa) = 5.76893 21.03774 13.40333
#
# Velocity S-wave (km/s) = 1.71461 3.27429 2.61351
# Velocity P-wave (km/s) = 5.23493 6.74396 6.03678
#
# Compressibility (1/GPa) = 0.02169960
#
# Stress axis : x y z
#
# Youngs Moduli (GPa) = 102.17610 45.22070 98.41368
#
# Poissons Ratio (x) = 0.13483 0.38793
# Poissons Ratio (y) = 0.30464 0.32061
# Poissons Ratio (z) = 0.40276 0.14732
#
# Static dielectric constant tensor:
#      x y z
#    x 3.766620 0.000000 0.000000 
#    y 0.000000 2.918450 0.000000 
#    z 0.000000 0.000000 3.762590 
# 
# 
# High freq. dielectric constant tensor:
#      x y z
#    x 1.775820 0.000000 0.000000 
#    y 0.000000 1.690430 0.000000 
#    z 0.000000 0.000000 1.771950 
# 
# From -- ./inp_files/7205.got.cif
#   From: 2010.03.12/outbox.cif.g09.slc.cpg/sg47_4_cif.got.tgz:7205.got - 2010.04.14 03:12:58.
