data_PCOD8194927
_publ_section_title
;
Structure prediction by ZEFSAII (Michael W. Deem and Ramdas Pophale) SiO2 
 PCOD8194927
Probable space group: P M M M
;
_chemical_formula_sum "Si O2"
_cell_formula_units_Z 28
_cell_length_a 9.517781
_cell_length_b 19.603040
_cell_length_c 8.942924
_cell_angle_alpha 90.000000
_cell_angle_beta 90.000000
_cell_angle_gamma 90.000000
_cell_volume 1668.547881
_symmetry_space_group_name_H-M "P M M M"
_symmetry_group_IT_number 47
_symmetry_cell_setting 'orthorhombic'
loop_
_space_group_symop_operation_xyz
x,y,z
-x,-y,z
x,-y,-z
-x,y,-z
-x,-y,-z
x,y,-z
-x,y,z
x,-y,z
loop_
_atom_site_type_symbol
_atom_site_label
_atom_site_fract_x
_atom_site_fract_y
_atom_site_fract_z
Si Si1 0.154889 0.188247 0.169946
Si Si2 0.157714 0.575396 0.322249
Si Si3 0.000000 0.921662 0.676853
Si Si4 0.338796 0.299642 0.322985
O O1 0.139338 0.115099 0.254506
O O2 0.270169 0.233099 0.252230
O O3 0.000000 0.224357 0.175187
O O4 0.203387 0.175673 0.000000
O O5 0.160677 0.576684 0.500000
O O6 0.204774 0.500000 0.266107
O O7 0.263229 0.632485 0.258650
O O8 0.000000 0.591250 0.265479
O O9 0.000000 0.912932 0.500000
O O10 0.000000 0.000000 0.726396
O O11 0.321757 0.294540 0.500000
O O12 0.500000 0.303242 0.273609
#
# Coordination Sequence:
#
# PCOD8194927 Si02
#       4
#     8   8   4   8
#     4   9  19  32  49  73  99 131 164 197 239 289
#     4   8  14  25  42  65  93 126 166 213 260 299
#     4   9  17  31  55  83 104 123 152 195 241 284
#     4  10  19  29  45  70  99 133 171 210 251 293
#
# _framework density 16.781058999999999
#
# number of rings (size 3 to 8) (size 9 to 14) (size 15 to 20)
#    0.857    2.143    0.000    2.571    0.000    3.429 
#    0.000    2.857    0.000    1.714    0.000   12.000 
#    0.000    0.000    0.000    0.000    0.000    0.000 
#
# Total GULP energy -346937.898993 kJ/mol
# GULP energy per Si atom -12390.639250 kJ/mol
# Density = 1.674286 g / cm^3
# Si number density = 16.781059 Si / 1000 Ang^3
#
#
#
# Elastic Constant Matrix: (Units=GPa)
#
#
# Indices 1 2 3 4 5 6 
#
# 1 107.7574 81.9820 36.6446 0.0000 0.0000 0.0000
# 2 81.9820 160.7976 42.6439 0.0000 0.0000 0.0000
# 3 36.6446 42.6439 38.0716 0.0000 0.0000 0.0000
# 4 0.0000 0.0000 0.0000 1.9935 0.0000 0.0000
# 5 0.0000 0.0000 0.0000 0.0000 16.2679 0.0000
# 6 0.0000 0.0000 0.0000 0.0000 0.0000 9.7951
#
#
#
# Elastic Compliance Matrix: (Units=1/GPa)
#
#
# Indices 1 2 3 4 5 6 
#
# 1 0.017343 -0.006281 -0.009658 0.000000 0.000000 0.000000
# 2 -0.006281 0.011122 -0.006412 0.000000 0.000000 0.000000
# 3 -0.009658 -0.006412 0.042744 0.000000 0.000000 0.000000
# 4 0.000000 0.000000 0.000000 0.501628 0.000000 0.000000
# 5 0.000000 0.000000 0.000000 0.000000 0.061471 0.000000
# 6 0.000000 0.000000 0.000000 0.000000 0.000000 0.102092
#
#
# Mechanical properties :
#
#
# Convention : Reuss Voigt Hill
#
# Bulk Modulus (GPa) = 37.72499 69.90749 53.81624
# Shear Modulus (GPa) = 6.32963 15.30170 10.81566
#
# Velocity S-wave (km/s) = 1.94424 3.02295 2.54149
# Velocity P-wave (km/s) = 5.25068 7.34393 6.38369
#
# Compressibility (1/GPa) = 0.02650762
#
# Stress axis : x y z
#
# Youngs Moduli (GPa) = 57.66047 89.91351 23.39522
#
# Poissons Ratio (x) = 0.56475 0.22594
# Poissons Ratio (y) = 0.36217 0.15001
# Poissons Ratio (z) = 0.55686 0.57652
#
# Static dielectric constant tensor:
#      x y z
#    x 3.056950 0.000000 0.000000 
#    y 0.000000 3.190040 0.000000 
#    z 0.000000 0.000000 2.853570 
# 
# 
# High freq. dielectric constant tensor:
#      x y z
#    x 1.626270 0.000000 0.000000 
#    y 0.000000 1.643680 0.000000 
#    z 0.000000 0.000000 1.623690 
# 
# From -- ./inp_files/858.got.cif
#   From: 2010.03.12/outbox.cif.g09.slc.cpg/sg47_1_cif.got.tgz:858.got - 2010.04.14 03:12:58.
