data_PCOD8194279
_publ_section_title
;
Structure prediction by ZEFSAII (Michael W. Deem and Ramdas Pophale) SiO2 
 PCOD8194279
Probable space group: P M M M
;
_chemical_formula_sum "Si O2"
_cell_formula_units_Z 48
_cell_length_a 13.848385
_cell_length_b 12.596207
_cell_length_c 15.169869
_cell_angle_alpha 90.000000
_cell_angle_beta 90.000000
_cell_angle_gamma 90.000000
_cell_volume 2646.188321
_symmetry_space_group_name_H-M "P M M M"
_symmetry_group_IT_number 47
_symmetry_cell_setting 'orthorhombic'
loop_
_space_group_symop_operation_xyz
x,y,z
-x,-y,z
x,-y,-z
-x,y,-z
-x,-y,-z
x,y,-z
-x,y,z
x,-y,z
loop_
_atom_site_type_symbol
_atom_site_label
_atom_site_fract_x
_atom_site_fract_y
_atom_site_fract_z
Si Si1 0.110857 0.124504 0.234914
Si Si2 0.385419 0.385445 0.500000
Si Si3 0.774244 0.123630 0.400868
Si Si4 0.609543 0.253740 0.663705
Si Si5 0.607329 0.000000 0.895684
Si Si6 0.262851 0.194547 0.099388
Si Si7 0.610385 0.623890 0.844760
O O1 0.136827 0.154886 0.336387
O O2 0.171504 0.194146 0.164632
O O3 0.000000 0.154190 0.219620
O O4 0.130513 0.000000 0.217177
O O5 0.335997 0.500000 0.500000
O O6 0.500000 0.395031 0.500000
O O7 0.349908 0.326756 0.413709
O O8 0.782845 0.175258 0.500000
O O9 0.678564 0.152230 0.343722
O O10 0.770626 0.000000 0.415435
O O11 0.500000 0.215035 0.649798
O O12 0.621042 0.325079 0.749195
O O13 0.661926 0.106239 0.864213
O O14 0.500000 0.000000 0.853144
O O15 0.598561 0.000000 0.000000
O O16 0.316310 0.309046 0.094744
O O17 0.228260 0.167174 0.000000
O O18 0.500000 0.634989 0.879059
O O19 0.640545 0.500000 0.843660
#
# Coordination Sequence:
#
# PCOD8194279 Si02
#       7
#     8   4   8   8   4   8   8
#     4  10  21  38  59  82 109 142 184 234 285 331
#     4   9  16  26  43  69 100 135 179 225 261 300
#     4  10  20  34  53  80 113 144 177 217 269 335
#     4  10  18  30  49  75 108 147 186 223 265 319
#     4   9  18  32  51  79 114 147 177 215 265 325
#     4  11  21  35  56  83 114 146 186 231 276 331
#     4  10  21  36  54  79 114 154 193 229 268 322
#
# _framework density 18.139299000000001
#
# number of rings (size 3 to 8) (size 9 to 14) (size 15 to 20)
#    0.000    2.000    3.333    1.000    0.000    4.333 
#    0.000    4.167    0.000    0.500    0.000    1.167 
#    0.000    2.000    0.000    0.000    0.000    0.000 
#
# Total GULP energy -594899.534878 kJ/mol
# GULP energy per Si atom -12393.740310 kJ/mol
# Density = 1.809801 g / cm^3
# Si number density = 18.139299 Si / 1000 Ang^3
#
#
#
# Elastic Constant Matrix: (Units=GPa)
#
#
# Indices 1 2 3 4 5 6 
#
# 1 108.2821 39.2713 43.4438 0.0000 0.0000 0.0000
# 2 39.2713 47.3156 31.4712 0.0000 0.0000 0.0000
# 3 43.4438 31.4712 83.3516 0.0000 0.0000 0.0000
# 4 0.0000 0.0000 0.0000 15.7370 0.0000 0.0000
# 5 0.0000 0.0000 0.0000 0.0000 12.2367 0.0000
# 6 0.0000 0.0000 0.0000 0.0000 0.0000 17.3688
#
#
#
# Elastic Compliance Matrix: (Units=1/GPa)
#
#
# Indices 1 2 3 4 5 6 
#
# 1 0.014108 -0.009105 -0.003916 0.000000 0.000000 0.000000
# 2 -0.009105 0.034099 -0.008129 0.000000 0.000000 0.000000
# 3 -0.003916 -0.008129 0.017107 0.000000 0.000000 0.000000
# 4 0.000000 0.000000 0.000000 0.063544 0.000000 0.000000
# 5 0.000000 0.000000 0.000000 0.000000 0.081721 0.000000
# 6 0.000000 0.000000 0.000000 0.000000 0.000000 0.057575
#
#
# Mechanical properties :
#
#
# Convention : Reuss Voigt Hill
#
# Bulk Modulus (GPa) = 43.44994 51.92467 47.68730
# Shear Modulus (GPa) = 15.71704 17.38605 16.55154
#
# Velocity S-wave (km/s) = 2.94677 3.09928 3.02399
# Velocity P-wave (km/s) = 5.96518 6.44167 6.20800
#
# Compressibility (1/GPa) = 0.02301499
#
# Stress axis : x y z
#
# Youngs Moduli (GPa) = 70.87967 29.32647 58.45420
#
# Poissons Ratio (x) = 0.26703 0.22888
# Poissons Ratio (y) = 0.64539 0.47517
# Poissons Ratio (z) = 0.27753 0.23839
#
# Static dielectric constant tensor:
#      x y z
#    x 3.166650 0.000000 0.000000 
#    y 0.000000 3.315950 0.000000 
#    z 0.000000 0.000000 3.426390 
# 
# 
# High freq. dielectric constant tensor:
#      x y z
#    x 1.672910 0.000000 0.000000 
#    y 0.000000 1.683640 0.000000 
#    z 0.000000 0.000000 1.717000 
# 
# From -- ./inp_files/22706.got.cif
#   From: 2010.03.12/outbox.cif.g09.slc.cpg/sg47_12_cif.got.tgz:22706.got - 2010.04.14 03:12:58.
