data_PCOD8194594
_publ_section_title
;
Structure prediction by ZEFSAII (Michael W. Deem and Ramdas Pophale) SiO2 
 PCOD8194594
Probable space group: P M M M
;
_chemical_formula_sum "Si O2"
_cell_formula_units_Z 44
_cell_length_a 13.487095
_cell_length_b 9.032176
_cell_length_c 18.805438
_cell_angle_alpha 90.000000
_cell_angle_beta 90.000000
_cell_angle_gamma 90.000000
_cell_volume 2290.837382
_symmetry_space_group_name_H-M "P M M M"
_symmetry_group_IT_number 47
_symmetry_cell_setting 'orthorhombic'
loop_
_space_group_symop_operation_xyz
x,y,z
-x,-y,z
x,-y,-z
-x,y,-z
-x,-y,-z
x,y,-z
-x,y,z
x,-y,z
loop_
_atom_site_type_symbol
_atom_site_label
_atom_site_fract_x
_atom_site_fract_y
_atom_site_fract_z
Si Si1 0.110752 0.667240 0.192249
Si Si2 0.802178 0.670888 0.342633
Si Si3 0.770886 0.828711 0.918407
Si Si4 0.611006 0.825969 0.683696
Si Si5 0.611103 0.332484 0.832621
Si Si6 0.000000 0.675036 0.417992
O O1 0.121204 0.500000 0.163484
O O2 0.183991 0.692821 0.258218
O O3 0.135423 0.779774 0.128917
O O4 0.000000 0.697928 0.219621
O O5 0.790063 0.500000 0.363917
O O6 0.699165 0.753294 0.363919
O O7 0.898563 0.739056 0.382963
O O8 0.676696 0.732052 0.895961
O O9 0.747311 0.000000 0.905276
O O10 0.796903 0.796523 0.000000
O O11 0.500000 0.786963 0.653934
O O12 0.620659 0.767501 0.763314
O O13 0.627953 0.000000 0.684038
O O14 0.500000 0.331457 0.862118
O O15 0.645114 0.500000 0.813732
O O16 0.000000 0.500000 0.405201
O O17 0.000000 0.720328 0.500000
#
# Coordination Sequence:
#
# PCOD8194594 Si02
#       6
#     8   8   8   8   8   4
#     4  10  20  35  55  78 103 135 180 229 274 327
#     4  10  18  32  57  86 114 147 186 225 269 325
#     4  11  24  38  51  71 102 140 182 229 280 333
#     4  10  20  33  52  81 114 146 184 231 281 330
#     4  10  20  34  53  76 102 134 176 227 279 332
#     4   9  18  34  59  93 128 155 180 220 274 324
#
# _framework density 19.206949999999999
#
# number of rings (size 3 to 8) (size 9 to 14) (size 15 to 20)
#    0.000    1.909    2.727    1.636    0.000    4.727 
#    0.000    4.091    0.000    1.636    0.000    3.818 
#    0.000    0.000    0.000    0.000    0.000    0.000 
#
# Total GULP energy -545484.462345 kJ/mol
# GULP energy per Si atom -12397.374144 kJ/mol
# Density = 1.916323 g / cm^3
# Si number density = 19.206950 Si / 1000 Ang^3
#
#
#
# Elastic Constant Matrix: (Units=GPa)
#
#
# Indices 1 2 3 4 5 6 
#
# 1 163.1582 56.3107 34.0207 0.0000 0.0000 0.0000
# 2 56.3107 73.0740 26.2067 0.0000 0.0000 0.0000
# 3 34.0207 26.2067 57.9540 0.0000 0.0000 0.0000
# 4 0.0000 0.0000 0.0000 11.8625 0.0000 0.0000
# 5 0.0000 0.0000 0.0000 0.0000 20.1528 0.0000
# 6 0.0000 0.0000 0.0000 0.0000 0.0000 27.5885
#
#
#
# Elastic Compliance Matrix: (Units=1/GPa)
#
#
# Indices 1 2 3 4 5 6 
#
# 1 0.008633 -0.005771 -0.002458 0.000000 0.000000 0.000000
# 2 -0.005771 0.020192 -0.005743 0.000000 0.000000 0.000000
# 3 -0.002458 -0.005743 0.021295 0.000000 0.000000 0.000000
# 4 0.000000 0.000000 0.000000 0.084299 0.000000 0.000000
# 5 0.000000 0.000000 0.000000 0.000000 0.049621 0.000000
# 6 0.000000 0.000000 0.000000 0.000000 0.000000 0.036247
#
#
# Mechanical properties :
#
#
# Convention : Reuss Voigt Hill
#
# Bulk Modulus (GPa) = 45.09493 58.58474 51.83983
# Shear Modulus (GPa) = 19.56002 23.76398 21.66200
#
# Velocity S-wave (km/s) = 3.19467 3.52129 3.36195
# Velocity P-wave (km/s) = 6.09404 6.86299 6.48991
#
# Compressibility (1/GPa) = 0.02217544
#
# Stress axis : x y z
#
# Youngs Moduli (GPa) = 115.82847 49.52550 46.95936
#
# Poissons Ratio (x) = 0.28583 0.11544
# Poissons Ratio (y) = 0.66848 0.26967
# Poissons Ratio (z) = 0.28474 0.28441
#
# Static dielectric constant tensor:
#      x y z
#    x 3.901910 0.000000 0.000000 
#    y 0.000000 3.438250 0.000000 
#    z 0.000000 0.000000 3.106300 
# 
# 
# High freq. dielectric constant tensor:
#      x y z
#    x 1.772270 0.000000 0.000000 
#    y 0.000000 1.736180 0.000000 
#    z 0.000000 0.000000 1.703790 
# 
# From -- ./inp_files/8969.got.cif
#   From: 2010.03.12/outbox.cif.g09.slc.cpg/sg47_5_cif.got.tgz:8969.got - 2010.04.14 03:12:58.
