data_PCOD8194519
_publ_section_title
;
Structure prediction by ZEFSAII (Michael W. Deem and Ramdas Pophale) SiO2 
 PCOD8194519
Probable space group: P M M M
;
_chemical_formula_sum "Si O2"
_cell_formula_units_Z 52
_cell_length_a 28.295303
_cell_length_b 11.822769
_cell_length_c 8.929561
_cell_angle_alpha 90.000000
_cell_angle_beta 90.000000
_cell_angle_gamma 90.000000
_cell_volume 2987.195604
_symmetry_space_group_name_H-M "P M M M"
_symmetry_group_IT_number 47
_symmetry_cell_setting 'orthorhombic'
loop_
_space_group_symop_operation_xyz
x,y,z
-x,-y,z
x,-y,-z
-x,y,-z
-x,-y,-z
x,y,-z
-x,y,z
x,-y,z
loop_
_atom_site_type_symbol
_atom_site_label
_atom_site_fract_x
_atom_site_fract_y
_atom_site_fract_z
Si Si1 0.364483 0.630601 0.175687
Si Si2 0.551848 0.230564 0.327752
Si Si3 0.907053 0.134018 0.167821
Si Si4 0.810851 0.130199 0.323074
Si Si5 0.673948 0.000000 0.177058
Si Si6 0.000000 0.864915 0.331008
Si Si7 0.276673 0.776357 0.176792
Si Si8 0.431578 0.000000 0.821616
O O1 0.366667 0.500000 0.219838
O O2 0.407268 0.693258 0.256651
O O3 0.312309 0.675319 0.223376
O O4 0.371429 0.652350 0.000000
O O5 0.565232 0.209137 0.500000
O O6 0.500000 0.290714 0.314982
O O7 0.545008 0.112156 0.243180
O O8 0.861149 0.170794 0.260697
O O9 0.953665 0.183375 0.247801
O O10 0.910832 0.000000 0.162602
O O11 0.903702 0.183561 0.000000
O O12 0.812095 0.137449 0.500000
O O13 0.773607 0.222868 0.260185
O O14 0.799748 0.000000 0.271063
O O15 0.699211 0.889650 0.238271
O O16 0.621507 0.000000 0.238712
O O17 0.673309 0.000000 0.000000
O O18 0.000000 0.818856 0.500000
O O19 0.000000 0.000000 0.329960
O O20 0.267306 0.776580 0.000000
O O21 0.436749 0.000000 0.000000
#
# Coordination Sequence:
#
# PCOD8194519 Si02
#       8
#     8   8   8   8   4   4   8   4
#     4  10  22  40  60  79  98 127 171 214 249 294
#     4  11  24  39  55  79 110 138 163 198 248 301
#     4   9  16  25  37  54  79 117 162 202 240 285
#     4  10  19  28  40  64  94 122 156 198 243 292
#     4   9  16  28  50  75  96 121 155 194 241 292
#     4   9  15  23  35  51  77 115 158 205 246 281
#     4  10  18  32  51  71  96 123 154 198 249 297
#     4  11  20  36  59  84 108 134 165 201 241 290
#
# _framework density 17.407630999999999
#
# number of rings (size 3 to 8) (size 9 to 14) (size 15 to 20)
#    0.000    2.077    2.308    2.077    0.000    6.769 
#    0.000    1.538    0.000    0.000    0.000    0.000 
#    0.000    0.000    0.000    0.692    0.000   14.385 
#
# Total GULP energy -644557.175026 kJ/mol
# GULP energy per Si atom -12395.330289 kJ/mol
# Density = 1.736801 g / cm^3
# Si number density = 17.407631 Si / 1000 Ang^3
#
#
#
# Elastic Constant Matrix: (Units=GPa)
#
#
# Indices 1 2 3 4 5 6 
#
# 1 161.7827 43.5994 63.2704 0.0000 0.0000 0.0000
# 2 43.5994 72.0427 37.2179 0.0000 0.0000 0.0000
# 3 63.2704 37.2179 94.5556 0.0000 0.0000 0.0000
# 4 0.0000 0.0000 0.0000 11.5115 0.0000 0.0000
# 5 0.0000 0.0000 0.0000 0.0000 30.6375 0.0000
# 6 0.0000 0.0000 0.0000 0.0000 0.0000 10.3995
#
#
#
# Elastic Compliance Matrix: (Units=1/GPa)
#
#
# Indices 1 2 3 4 5 6 
#
# 1 0.008822 -0.002874 -0.004772 0.000000 0.000000 0.000000
# 2 -0.002874 0.018360 -0.005304 0.000000 0.000000 0.000000
# 3 -0.004772 -0.005304 0.015856 0.000000 0.000000 0.000000
# 4 0.000000 0.000000 0.000000 0.086870 0.000000 0.000000
# 5 0.000000 0.000000 0.000000 0.000000 0.032640 0.000000
# 6 0.000000 0.000000 0.000000 0.000000 0.000000 0.096158
#
#
# Mechanical properties :
#
#
# Convention : Reuss Voigt Hill
#
# Bulk Modulus (GPa) = 58.34486 68.50626 63.42556
# Shear Modulus (GPa) = 17.22255 22.79591 20.00923
#
# Velocity S-wave (km/s) = 3.14883 3.62268 3.39403
# Velocity P-wave (km/s) = 6.84177 7.54573 7.20235
#
# Compressibility (1/GPa) = 0.01713947
#
# Stress axis : x y z
#
# Youngs Moduli (GPa) = 113.35625 54.46713 63.06612
#
# Poissons Ratio (x) = 0.15652 0.30094
# Poissons Ratio (y) = 0.32575 0.33448
# Poissons Ratio (z) = 0.54092 0.28888
#
# Static dielectric constant tensor:
#      x y z
#    x 3.479570 0.000000 0.000000 
#    y 0.000000 2.897190 0.000000 
#    z 0.000000 0.000000 3.220290 
# 
# 
# High freq. dielectric constant tensor:
#      x y z
#    x 1.691050 0.000000 0.000000 
#    y 0.000000 1.609760 0.000000 
#    z 0.000000 0.000000 1.675260 
# 
# From -- ./inp_files/13346.got.cif
#   From: 2010.03.12/outbox.cif.g09.slc.cpg/sg47_7_cif.got.tgz:13346.got - 2010.04.14 03:12:58.
