data_PCOD8194882
_publ_section_title
;
Structure prediction by ZEFSAII (Michael W. Deem and Ramdas Pophale) SiO2 
 PCOD8194882
Probable space group: P M M M
;
_chemical_formula_sum "Si O2"
_cell_formula_units_Z 56
_cell_length_a 13.640061
_cell_length_b 9.330757
_cell_length_c 29.508786
_cell_angle_alpha 90.000000
_cell_angle_beta 90.000000
_cell_angle_gamma 90.000000
_cell_volume 3755.645005
_symmetry_space_group_name_H-M "P M M M"
_symmetry_group_IT_number 47
_symmetry_cell_setting 'orthorhombic'
loop_
_space_group_symop_operation_xyz
x,y,z
-x,-y,z
x,-y,-z
-x,y,-z
-x,-y,-z
x,y,-z
-x,y,z
x,-y,z
loop_
_atom_site_type_symbol
_atom_site_label
_atom_site_fract_x
_atom_site_fract_y
_atom_site_fract_z
Si Si1 0.890132 0.335290 0.289346
Si Si2 0.887153 0.334568 0.447899
Si Si3 0.202031 0.167932 0.630948
Si Si4 0.609791 0.835623 0.314974
Si Si5 0.702685 0.667641 0.235940
Si Si6 0.389470 0.328894 0.855320
Si Si7 0.383459 0.339226 0.952014
O O1 0.875644 0.500000 0.304553
O O2 0.871771 0.236818 0.332797
O O3 0.815270 0.296198 0.248755
O O4 0.000000 0.307932 0.271251
O O5 0.861997 0.302662 0.500000
O O6 0.867475 0.500000 0.436263
O O7 0.816223 0.236237 0.418035
O O8 0.000000 0.295962 0.437680
O O9 0.314142 0.202663 0.644993
O O10 0.180666 0.000000 0.628609
O O11 0.500000 0.805152 0.332994
O O12 0.628888 0.741803 0.270688
O O13 0.623407 0.000000 0.300341
O O14 0.680414 0.500000 0.238843
O O15 0.681193 0.724872 0.185160
O O16 0.500000 0.274434 0.845339
O O17 0.389359 0.500000 0.858753
O O18 0.349271 0.266870 0.904157
O O19 0.500000 0.344489 0.949500
O O20 0.341548 0.500000 0.954168
O O21 0.351266 0.261634 0.000000
#
# Coordination Sequence:
#
# PCOD8194882 Si02
#       7
#     8   8   8   8   8   8   8
#     4   9  17  28  40  54  76 105 130 152 185 230
#     4   9  18  32  48  65  86 110 130 150 185 231
#     4  10  19  29  44  65  83 101 129 161 188 216
#     4   9  18  31  43  56  79 108 132 155 186 224
#     4   9  16  25  38  56  75  96 127 163 192 220
#     4   8  12  17  27  45  68  91 116 151 190 221
#     4   7   9  13  21  35  59  90 116 138 176 229
#
# _framework density 14.910887000000001
#
# number of rings (size 3 to 8) (size 9 to 14) (size 15 to 20)
#    0.000    3.286    0.000    3.000    0.000    4.000 
#    0.000    0.714    0.000    0.429    0.000    3.000 
#    0.000    1.143    0.000   13.286    0.000    4.571 
#
# Total GULP energy -693791.671659 kJ/mol
# GULP energy per Si atom -12389.136994 kJ/mol
# Density = 1.487695 g / cm^3
# Si number density = 14.910887 Si / 1000 Ang^3
#
#
#
# Elastic Constant Matrix: (Units=GPa)
#
#
# Indices 1 2 3 4 5 6 
#
# 1 81.1293 26.1285 55.7907 0.0000 0.0000 0.0000
# 2 26.1285 37.0793 40.3534 0.0000 0.0000 0.0000
# 3 55.7907 40.3534 138.8446 0.0000 0.0000 0.0000
# 4 0.0000 0.0000 0.0000 3.7812 0.0000 0.0000
# 5 0.0000 0.0000 0.0000 0.0000 18.2639 0.0000
# 6 0.0000 0.0000 0.0000 0.0000 0.0000 15.2969
#
#
#
# Elastic Compliance Matrix: (Units=1/GPa)
#
#
# Indices 1 2 3 4 5 6 
#
# 1 0.018237 -0.007132 -0.005255 0.000000 0.000000 0.000000
# 2 -0.007132 0.042235 -0.009409 0.000000 0.000000 0.000000
# 3 -0.005255 -0.009409 0.012049 0.000000 0.000000 0.000000
# 4 0.000000 0.000000 0.000000 0.264468 0.000000 0.000000
# 5 0.000000 0.000000 0.000000 0.000000 0.054753 0.000000
# 6 0.000000 0.000000 0.000000 0.000000 0.000000 0.065373
#
#
# Mechanical properties :
#
#
# Convention : Reuss Voigt Hill
#
# Bulk Modulus (GPa) = 34.56865 55.73314 45.15090
# Shear Modulus (GPa) = 9.79722 16.45375 13.12548
#
# Velocity S-wave (km/s) = 2.56608 3.32546 2.97014
# Velocity P-wave (km/s) = 5.65805 7.22520 6.48911
#
# Compressibility (1/GPa) = 0.02892794
#
# Stress axis : x y z
#
# Youngs Moduli (GPa) = 54.83467 23.67708 82.99663
#
# Poissons Ratio (x) = 0.16885 0.43616
# Poissons Ratio (y) = 0.39105 0.78095
# Poissons Ratio (z) = 0.28817 0.22279
#
# Static dielectric constant tensor:
#      x y z
#    x 2.768710 0.000000 0.000000 
#    y 0.000000 2.666180 0.000000 
#    z 0.000000 0.000000 3.194510 
# 
# 
# High freq. dielectric constant tensor:
#      x y z
#    x 1.541540 0.000000 0.000000 
#    y 0.000000 1.544170 0.000000 
#    z 0.000000 0.000000 1.574150 
# 
# From -- ./inp_files/22081.got.cif
#   From: 2010.03.12/outbox.cif.g09.slc.cpg/sg47_12_cif.got.tgz:22081.got - 2010.04.14 03:12:58.
