data_PCOD8194850
_publ_section_title
;
Structure prediction by ZEFSAII (Michael W. Deem and Ramdas Pophale) SiO2 
 PCOD8194850
Probable space group: P M M M
;
_chemical_formula_sum "Si O2"
_cell_formula_units_Z 52
_cell_length_a 9.016578
_cell_length_b 13.648320
_cell_length_c 26.669063
_cell_angle_alpha 90.000000
_cell_angle_beta 90.000000
_cell_angle_gamma 90.000000
_cell_volume 3281.925345
_symmetry_space_group_name_H-M "P M M M"
_symmetry_group_IT_number 47
_symmetry_cell_setting 'orthorhombic'
loop_
_space_group_symop_operation_xyz
x,y,z
-x,-y,z
x,-y,-z
-x,y,-z
-x,-y,-z
x,y,-z
-x,y,z
x,-y,z
loop_
_atom_site_type_symbol
_atom_site_label
_atom_site_fract_x
_atom_site_fract_y
_atom_site_fract_z
Si Si1 0.328905 0.890310 0.745412
Si Si2 0.666876 0.616208 0.000000
Si Si3 0.828965 0.390219 0.286217
Si Si4 0.825403 0.386373 0.899601
Si Si5 0.825941 0.204123 0.345416
Si Si6 0.673875 0.701859 0.805043
Si Si7 0.176279 0.110761 0.554827
O O1 0.500000 0.877330 0.731284
O O2 0.239053 0.870941 0.694866
O O3 0.286215 0.813175 0.788921
O O4 0.293678 0.000000 0.764920
O O5 0.752965 0.653080 0.049146
O O6 0.664331 0.500000 0.000000
O O7 0.500000 0.658849 0.000000
O O8 0.801624 0.500000 0.306173
O O9 0.784861 0.315956 0.330936
O O10 0.727205 0.372367 0.237990
O O11 0.000000 0.374546 0.270043
O O12 0.785028 0.500000 0.889664
O O13 0.761050 0.319957 0.855615
O O14 0.000000 0.371317 0.903404
O O15 0.760950 0.180394 0.400802
O O16 0.000000 0.186707 0.345223
O O17 0.500000 0.686243 0.814098
O O18 0.234650 0.146554 0.500000
O O19 0.000000 0.113625 0.554579
O O20 0.230950 0.000000 0.564837
#
# Coordination Sequence:
#
# PCOD8194850 Si02
#       7
#     8   4   8   8   8   8   8
#     4   9  18  31  44  60  85 112 135 166 211 255
#     4   9  17  29  45  65  88 115 148 181 209 242
#     4   9  17  28  40  56  81 110 137 168 208 248
#     4  10  19  30  44  63  90 120 145 172 209 248
#     4   9  16  26  42  61  79 104 139 172 201 243
#     4  10  19  29  43  63  84 109 142 174 204 244
#     4   8  13  21  35  57  81 101 126 166 212 251
#
# _framework density 15.844358
#
# number of rings (size 3 to 8) (size 9 to 14) (size 15 to 20)
#    0.000    2.846    0.000    2.538    0.000    5.538 
#    0.000    0.000    0.000    0.923    0.000    5.923 
#    0.000    4.308    0.000    7.692    0.000    8.308 
#
# Total GULP energy -644613.934980 kJ/mol
# GULP energy per Si atom -12396.421827 kJ/mol
# Density = 1.580830 g / cm^3
# Si number density = 15.844358 Si / 1000 Ang^3
#
#
#
# Elastic Constant Matrix: (Units=GPa)
#
#
# Indices 1 2 3 4 5 6 
#
# 1 50.1754 27.7012 44.3965 0.0000 0.0000 0.0000
# 2 27.7012 93.4914 62.0801 0.0000 0.0000 0.0000
# 3 44.3965 62.0801 150.0820 0.0000 0.0000 0.0000
# 4 0.0000 0.0000 0.0000 23.0269 0.0000 0.0000
# 5 0.0000 0.0000 0.0000 0.0000 8.4280 0.0000
# 6 0.0000 0.0000 0.0000 0.0000 0.0000 16.5970
#
#
#
# Elastic Compliance Matrix: (Units=1/GPa)
#
#
# Indices 1 2 3 4 5 6 
#
# 1 0.027967 -0.003851 -0.006680 0.000000 0.000000 0.000000
# 2 -0.003851 0.015277 -0.005180 0.000000 0.000000 0.000000
# 3 -0.006680 -0.005180 0.010782 0.000000 0.000000 0.000000
# 4 0.000000 0.000000 0.000000 0.043427 0.000000 0.000000
# 5 0.000000 0.000000 0.000000 0.000000 0.118652 0.000000
# 6 0.000000 0.000000 0.000000 0.000000 0.000000 0.060252
#
#
# Mechanical properties :
#
#
# Convention : Reuss Voigt Hill
#
# Bulk Modulus (GPa) = 44.24083 62.45606 53.34844
# Shear Modulus (GPa) = 15.85728 20.24846 18.05287
#
# Velocity S-wave (km/s) = 3.16700 3.57874 3.37914
# Velocity P-wave (km/s) = 6.43086 7.52200 6.99773
#
# Compressibility (1/GPa) = 0.02260356
#
# Stress axis : x y z
#
# Youngs Moduli (GPa) = 35.75666 65.45896 92.74899
#
# Poissons Ratio (x) = 0.25206 0.61958
# Poissons Ratio (y) = 0.13769 0.48044
# Poissons Ratio (z) = 0.23886 0.33908
#
# Static dielectric constant tensor:
#      x y z
#    x 2.957850 0.000000 0.000000 
#    y 0.000000 3.000620 0.000000 
#    z 0.000000 0.000000 3.201250 
# 
# 
# High freq. dielectric constant tensor:
#      x y z
#    x 1.601390 0.000000 0.000000 
#    y 0.000000 1.587270 0.000000 
#    z 0.000000 0.000000 1.603950 
# 
# From -- ./inp_files/33381.got.cif
#   From: 2010.03.12/outbox.cif.g09.slc.cpg/sg47_17_cif.got.tgz:33381.got - 2010.04.14 03:12:58.
