data_PCOD8194952
_publ_section_title
;
Structure prediction by ZEFSAII (Michael W. Deem and Ramdas Pophale) SiO2 
 PCOD8194952
Probable space group: P M M M
;
_chemical_formula_sum "Si O2"
_cell_formula_units_Z 48
_cell_length_a 17.348821
_cell_length_b 15.802031
_cell_length_c 8.651343
_cell_angle_alpha 90.000000
_cell_angle_beta 90.000000
_cell_angle_gamma 90.000000
_cell_volume 2371.736332
_symmetry_space_group_name_H-M "P M M M"
_symmetry_group_IT_number 47
_symmetry_cell_setting 'orthorhombic'
loop_
_space_group_symop_operation_xyz
x,y,z
-x,-y,z
x,-y,-z
-x,y,-z
-x,-y,-z
x,y,-z
-x,y,z
x,-y,z
loop_
_atom_site_type_symbol
_atom_site_label
_atom_site_fract_x
_atom_site_fract_y
_atom_site_fract_z
Si Si1 0.849225 0.403676 0.169382
Si Si2 0.693544 0.597904 0.318050
Si Si3 0.410886 0.740835 0.818061
Si Si4 0.320636 0.094583 0.815371
Si Si5 0.000000 0.350654 0.321189
Si Si6 0.848437 0.097916 0.172322
Si Si7 0.000000 0.824532 0.179941
O O1 0.828385 0.500000 0.143037
O O2 0.772951 0.363929 0.247030
O O3 0.922678 0.401611 0.282370
O O4 0.864763 0.361326 0.000000
O O5 0.701264 0.604040 0.500000
O O6 0.676721 0.500000 0.269055
O O7 0.625192 0.658461 0.261555
O O8 0.500000 0.742041 0.773363
O O9 0.376098 0.830344 0.756298
O O10 0.397255 0.732930 0.000000
O O11 0.234663 0.113950 0.747543
O O12 0.347835 0.000000 0.759366
O O13 0.316729 0.092543 0.000000
O O14 0.000000 0.324329 0.500000
O O15 0.000000 0.274172 0.203043
O O16 0.921141 0.140893 0.260214
O O17 0.867124 0.000000 0.166186
O O18 0.844199 0.136585 0.000000
O O19 0.000000 0.850781 0.000000
#
# Coordination Sequence:
#
# PCOD8194952 Si02
#       7
#     8   8   8   8   4   8   4
#     4  10  21  39  62  84 107 141 187 235 280 328
#     4  10  22  40  61  85 114 150 189 232 290 353
#     4  10  21  35  55  85 117 151 192 240 291 342
#     4   8  15  29  50  78 112 148 187 235 289 340
#     4  12  25  36  49  78 119 156 189 226 272 326
#     4   8  14  26  46  73 103 136 180 235 286 330
#     4  10  19  29  47  76 105 141 189 234 276 326
#
# _framework density 20.238337999999999
#
# number of rings (size 3 to 8) (size 9 to 14) (size 15 to 20)
#    0.000    2.500    0.000    3.250    2.333    5.000 
#    0.000    3.333    0.000    1.500    0.000    3.500 
#    0.000    0.000    0.000    0.000    0.000    0.000 
#
# Total GULP energy -594737.762224 kJ/mol
# GULP energy per Si atom -12390.370046 kJ/mol
# Density = 2.019227 g / cm^3
# Si number density = 20.238338 Si / 1000 Ang^3
#
#
#
# Elastic Constant Matrix: (Units=GPa)
#
#
# Indices 1 2 3 4 5 6 
#
# 1 154.8670 71.6751 38.7246 0.0000 0.0000 0.0000
# 2 71.6751 104.9647 25.3318 0.0000 0.0000 0.0000
# 3 38.7246 25.3318 49.2662 0.0000 0.0000 0.0000
# 4 0.0000 0.0000 0.0000 11.4351 0.0000 0.0000
# 5 0.0000 0.0000 0.0000 0.0000 17.3793 0.0000
# 6 0.0000 0.0000 0.0000 0.0000 0.0000 39.9876
#
#
#
# Elastic Compliance Matrix: (Units=1/GPa)
#
#
# Indices 1 2 3 4 5 6 
#
# 1 0.010495 -0.005909 -0.005211 0.000000 0.000000 0.000000
# 2 -0.005909 0.014203 -0.002659 0.000000 0.000000 0.000000
# 3 -0.005211 -0.002659 0.025761 0.000000 0.000000 0.000000
# 4 0.000000 0.000000 0.000000 0.087450 0.000000 0.000000
# 5 0.000000 0.000000 0.000000 0.000000 0.057540 0.000000
# 6 0.000000 0.000000 0.000000 0.000000 0.000000 0.025008
#
#
# Mechanical properties :
#
#
# Convention : Reuss Voigt Hill
#
# Bulk Modulus (GPa) = 43.66392 64.50677 54.08534
# Shear Modulus (GPa) = 19.55816 25.31817 22.43817
#
# Velocity S-wave (km/s) = 3.11206 3.54079 3.33332
# Velocity P-wave (km/s) = 5.87664 6.97560 6.44957
#
# Compressibility (1/GPa) = 0.02290220
#
# Stress axis : x y z
#
# Youngs Moduli (GPa) = 95.28460 70.40535 38.81843
#
# Poissons Ratio (x) = 0.41601 0.20228
# Poissons Ratio (y) = 0.56302 0.10321
# Poissons Ratio (z) = 0.49653 0.18719
#
# Static dielectric constant tensor:
#      x y z
#    x 3.879740 0.000000 0.000000 
#    y 0.000000 3.663340 0.000000 
#    z 0.000000 0.000000 3.284660 
# 
# 
# High freq. dielectric constant tensor:
#      x y z
#    x 1.799680 0.000000 0.000000 
#    y 0.000000 1.790520 0.000000 
#    z 0.000000 0.000000 1.741150 
# 
# From -- ./inp_files/9195.got.cif
#   From: 2010.03.12/outbox.cif.g09.slc.cpg/sg47_5_cif.got.tgz:9195.got - 2010.04.14 03:12:58.
