data_PCOD8194001
_publ_section_title
;
Structure prediction by ZEFSAII (Michael W. Deem and Ramdas Pophale) SiO2 
 PCOD8194001
Probable space group: P M M M
;
_chemical_formula_sum "Si O2"
_cell_formula_units_Z 52
_cell_length_a 8.233558
_cell_length_b 27.448447
_cell_length_c 17.203934
_cell_angle_alpha 90.000000
_cell_angle_beta 90.000000
_cell_angle_gamma 90.000000
_cell_volume 3888.061220
_symmetry_space_group_name_H-M "P M M M"
_symmetry_group_IT_number 47
_symmetry_cell_setting 'orthorhombic'
loop_
_space_group_symop_operation_xyz
x,y,z
-x,-y,z
x,-y,-z
-x,y,-z
-x,-y,-z
x,y,-z
-x,y,z
x,-y,z
loop_
_atom_site_type_symbol
_atom_site_label
_atom_site_fract_x
_atom_site_fract_y
_atom_site_fract_z
Si Si1 0.318958 0.387866 0.592528
Si Si2 0.688854 0.943623 0.000000
Si Si3 0.000000 0.555522 0.407528
Si Si4 0.806882 0.000000 0.412926
Si Si5 0.192453 0.094470 0.321790
Si Si6 0.190704 0.054538 0.839083
Si Si7 0.817776 0.287743 0.407929
Si Si8 0.310819 0.186304 0.587117
O O1 0.313678 0.390203 0.500000
O O2 0.500000 0.405384 0.621061
O O3 0.167614 0.420113 0.624964
O O4 0.294323 0.332197 0.621696
O O5 0.760525 0.920079 0.920961
O O6 0.500000 0.934936 0.000000
O O7 0.740747 0.000000 0.000000
O O8 0.000000 0.500000 0.379072
O O9 0.000000 0.559842 0.500000
O O10 0.742605 0.048029 0.369722
O O11 0.736683 0.000000 0.500000
O O12 0.000000 0.000000 0.412613
O O13 0.251411 0.087695 0.232570
O O14 0.272619 0.142530 0.355392
O O15 0.000000 0.099356 0.328643
O O16 0.000000 0.049535 0.833181
O O17 0.267634 0.000000 0.832935
O O18 0.805593 0.284566 0.500000
O O19 0.762755 0.235436 0.374910
O O20 0.000000 0.298993 0.380324
O O21 0.240051 0.175898 0.500000
O O22 0.500000 0.194429 0.580857
#
# Coordination Sequence:
#
# PCOD8194001 Si02
#       8
#     8   4   4   4   8   8   8   8
#     4   9  15  23  35  49  65  86 112 143 180 220
#     4   9  17  27  41  61  79  93 111 131 161 205
#     4   9  16  24  32  46  68  90 114 141 173 220
#     4   9  16  26  41  56  69  88 118 149 173 209
#     4  10  18  29  43  58  72  91 118 146 179 217
#     4   9  16  28  44  60  76  92 113 140 170 208
#     4   9  15  25  40  53  64  82 112 149 185 220
#     4  10  20  30  38  52  73  94 118 150 186 222
#
# _framework density 13.374275000000001
#
# number of rings (size 3 to 8) (size 9 to 14) (size 15 to 20)
#    0.000    2.692    1.538    1.615    0.000    5.231 
#    0.000    1.923    0.000    1.385    0.000    0.000 
#    0.000    0.000    0.000    0.000    0.000    0.000 
#
# Total GULP energy -644381.737285 kJ/mol
# GULP energy per Si atom -12391.956486 kJ/mol
# Density = 1.334383 g / cm^3
# Si number density = 13.374275 Si / 1000 Ang^3
#
#
#
# Elastic Constant Matrix: (Units=GPa)
#
#
# Indices 1 2 3 4 5 6 
#
# 1 60.0177 32.2046 13.5078 0.0000 0.0000 0.0000
# 2 32.2046 84.9660 21.2350 0.0000 0.0000 0.0000
# 3 13.5078 21.2350 62.8979 0.0000 0.0000 0.0000
# 4 0.0000 0.0000 0.0000 2.1980 0.0000 0.0000
# 5 0.0000 0.0000 0.0000 0.0000 9.2030 0.0000
# 6 0.0000 0.0000 0.0000 0.0000 0.0000 14.9666
#
#
#
# Elastic Compliance Matrix: (Units=1/GPa)
#
#
# Indices 1 2 3 4 5 6 
#
# 1 0.021144 -0.007513 -0.002004 0.000000 0.000000 0.000000
# 2 -0.007513 0.015524 -0.003627 0.000000 0.000000 0.000000
# 3 -0.002004 -0.003627 0.017554 0.000000 0.000000 0.000000
# 4 0.000000 0.000000 0.000000 0.454957 0.000000 0.000000
# 5 0.000000 0.000000 0.000000 0.000000 0.108661 0.000000
# 6 0.000000 0.000000 0.000000 0.000000 0.000000 0.066815
#
#
# Mechanical properties :
#
#
# Convention : Reuss Voigt Hill
#
# Bulk Modulus (GPa) = 35.80150 37.97513 36.88832
# Shear Modulus (GPa) = 6.94198 14.66914 10.80556
#
# Velocity S-wave (km/s) = 2.28075 3.31542 2.84551
# Velocity P-wave (km/s) = 5.81058 6.56596 6.19978
#
# Compressibility (1/GPa) = 0.02793179
#
# Stress axis : x y z
#
# Youngs Moduli (GPa) = 47.29376 64.41719 56.96744
#
# Poissons Ratio (x) = 0.48399 0.11418
# Poissons Ratio (y) = 0.35534 0.20665
# Poissons Ratio (z) = 0.09479 0.23367
#
# Static dielectric constant tensor:
#      x y z
#    x 2.735650 0.000000 0.000000 
#    y 0.000000 2.642450 0.000000 
#    z 0.000000 0.000000 2.524900 
# 
# 
# High freq. dielectric constant tensor:
#      x y z
#    x 1.517840 0.000000 0.000000 
#    y 0.000000 1.489940 0.000000 
#    z 0.000000 0.000000 1.451300 
# 
# From -- ./inp_files/22034.got.cif
#   From: 2010.03.12/outbox.cif.g09.slc.cpg/sg47_12_cif.got.tgz:22034.got - 2010.04.14 03:12:58.
