data_PCOD8194612
_publ_section_title
;
Structure prediction by ZEFSAII (Michael W. Deem and Ramdas Pophale) SiO2 
 PCOD8194612
Probable space group: P M M M
;
_chemical_formula_sum "Si O2"
_cell_formula_units_Z 48
_cell_length_a 29.369289
_cell_length_b 8.947161
_cell_length_c 9.859410
_cell_angle_alpha 90.000000
_cell_angle_beta 90.000000
_cell_angle_gamma 90.000000
_cell_volume 2590.774490
_symmetry_space_group_name_H-M "P M M M"
_symmetry_group_IT_number 47
_symmetry_cell_setting 'orthorhombic'
loop_
_space_group_symop_operation_xyz
x,y,z
-x,-y,z
x,-y,-z
-x,y,-z
-x,-y,-z
x,y,-z
-x,y,z
x,-y,z
loop_
_atom_site_type_symbol
_atom_site_label
_atom_site_fract_x
_atom_site_fract_y
_atom_site_fract_z
Si Si1 0.124137 0.323053 0.342931
Si Si2 0.395786 0.823149 0.758991
Si Si3 0.300277 0.176490 0.850529
Si Si4 0.053208 0.827165 0.153711
Si Si5 0.448399 0.323477 0.000000
Si Si6 0.199672 0.175868 0.841717
Si Si7 0.550846 0.177054 0.500000
O O1 0.124603 0.267187 0.500000
O O2 0.125548 0.500000 0.338450
O O3 0.078673 0.268800 0.267182
O O4 0.166992 0.261114 0.260597
O O5 0.342219 0.776370 0.753470
O O6 0.420017 0.765377 0.625061
O O7 0.400535 0.000000 0.782455
O O8 0.422197 0.737185 0.872651
O O9 0.250686 0.231536 0.800615
O O10 0.297066 0.000000 0.861791
O O11 0.310742 0.242225 0.000000
O O12 0.000000 0.801187 0.176397
O O13 0.066299 0.000000 0.173697
O O14 0.066876 0.778324 0.000000
O O15 0.447650 0.500000 0.000000
O O16 0.500000 0.262435 0.000000
O O17 0.193249 0.000000 0.818761
O O18 0.189715 0.215093 0.000000
O O19 0.500000 0.247008 0.500000
O O20 0.546953 0.000000 0.500000
#
# Coordination Sequence:
#
# PCOD8194612 Si02
#       7
#     8   8   8   8   4   8   4
#     4  11  24  38  51  75 114 152 186 224 264 310
#     4  10  18  33  56  78 103 135 172 215 265 318
#     4   8  14  28  52  81 104 124 162 218 269 315
#     4   9  19  37  61  87 112 140 180 229 276 322
#     4  11  23  35  49  75 107 137 175 219 258 307
#     4   9  18  34  57  81 104 132 172 223 275 323
#     4   9  18  30  47  77 109 133 167 213 258 311
#
# _framework density 18.527277999999999
#
# number of rings (size 3 to 8) (size 9 to 14) (size 15 to 20)
#    0.000    2.500    0.833    3.250    0.000    6.000 
#    1.500    3.750    0.000    1.500    0.000    0.000 
#    0.000    0.000    0.000    0.000    0.000    0.000 
#
# Total GULP energy -594869.254816 kJ/mol
# GULP energy per Si atom -12393.109475 kJ/mol
# Density = 1.848511 g / cm^3
# Si number density = 18.527278 Si / 1000 Ang^3
#
#
#
# Elastic Constant Matrix: (Units=GPa)
#
#
# Indices 1 2 3 4 5 6 
#
# 1 150.1203 36.6603 85.1012 0.0000 0.0000 0.0000
# 2 36.6603 44.0822 42.6397 0.0000 0.0000 0.0000
# 3 85.1012 42.6397 150.3947 0.0000 0.0000 0.0000
# 4 0.0000 0.0000 0.0000 31.6182 0.0000 0.0000
# 5 0.0000 0.0000 0.0000 0.0000 34.6145 0.0000
# 6 0.0000 0.0000 0.0000 0.0000 0.0000 9.2908
#
#
#
# Elastic Compliance Matrix: (Units=1/GPa)
#
#
# Indices 1 2 3 4 5 6 
#
# 1 0.010303 -0.004036 -0.004686 0.000000 0.000000 0.000000
# 2 -0.004036 0.032838 -0.007026 0.000000 0.000000 0.000000
# 3 -0.004686 -0.007026 0.011293 0.000000 0.000000 0.000000
# 4 0.000000 0.000000 0.000000 0.031627 0.000000 0.000000
# 5 0.000000 0.000000 0.000000 0.000000 0.028890 0.000000
# 6 0.000000 0.000000 0.000000 0.000000 0.000000 0.107633
#
#
# Mechanical properties :
#
#
# Convention : Reuss Voigt Hill
#
# Bulk Modulus (GPa) = 43.59688 74.82218 59.20953
# Shear Modulus (GPa) = 19.10391 27.11776 23.11084
#
# Velocity S-wave (km/s) = 3.21460 3.82994 3.53568
# Velocity P-wave (km/s) = 6.11232 7.74793 6.97821
#
# Compressibility (1/GPa) = 0.02293742
#
# Stress axis : x y z
#
# Youngs Moduli (GPa) = 97.05628 30.45270 88.55241
#
# Poissons Ratio (x) = 0.12291 0.41494
# Poissons Ratio (y) = 0.39173 0.62220
# Poissons Ratio (z) = 0.45479 0.21397
#
# Static dielectric constant tensor:
#      x y z
#    x 3.808210 0.000000 0.000000 
#    y 0.000000 3.074880 0.000000 
#    z 0.000000 0.000000 3.370150 
# 
# 
# High freq. dielectric constant tensor:
#      x y z
#    x 1.741710 0.000000 0.000000 
#    y 0.000000 1.683460 0.000000 
#    z 0.000000 0.000000 1.712170 
# 
# From -- ./inp_files/13905.got.cif
#   From: 2010.03.12/outbox.cif.g09.slc.cpg/sg47_7_cif.got.tgz:13905.got - 2010.04.14 03:12:58.
