data_PCOD8194969
_publ_section_title
;
Structure prediction by ZEFSAII (Michael W. Deem and Ramdas Pophale) SiO2 
 PCOD8194969
Probable space group: P M M M
;
_chemical_formula_sum "Si O2"
_cell_formula_units_Z 52
_cell_length_a 27.206503
_cell_length_b 9.001190
_cell_length_c 15.474242
_cell_angle_alpha 90.000000
_cell_angle_beta 90.000000
_cell_angle_gamma 90.000000
_cell_volume 3789.501093
_symmetry_space_group_name_H-M "P M M M"
_symmetry_group_IT_number 47
_symmetry_cell_setting 'orthorhombic'
loop_
_space_group_symop_operation_xyz
x,y,z
-x,-y,z
x,-y,-z
-x,y,-z
-x,-y,-z
x,y,-z
-x,y,z
x,-y,z
loop_
_atom_site_type_symbol
_atom_site_label
_atom_site_fract_x
_atom_site_fract_y
_atom_site_fract_z
Si Si1 0.000000 0.167749 0.603000
Si Si2 0.903128 0.332138 0.603084
Si Si3 0.556008 0.826516 0.170305
Si Si4 0.558153 0.669722 0.500000
Si Si5 0.558436 0.667580 0.000000
Si Si6 0.611401 0.824370 0.343816
Si Si7 0.806747 0.832705 0.602695
Si Si8 0.707952 0.672974 0.601564
O O1 0.951808 0.251162 0.638508
O O2 0.000000 0.168250 0.500000
O O3 0.000000 0.000000 0.638483
O O4 0.902813 0.331637 0.500000
O O5 0.902378 0.500000 0.638389
O O6 0.855545 0.246151 0.639541
O O7 0.500000 0.775501 0.188733
O O8 0.588886 0.781414 0.251655
O O9 0.558083 0.000000 0.151676
O O10 0.578580 0.746173 0.086299
O O11 0.577561 0.500000 0.500000
O O12 0.500000 0.676430 0.500000
O O13 0.577320 0.751476 0.415642
O O14 0.577605 0.500000 0.000000
O O15 0.500000 0.679122 0.000000
O O16 0.665975 0.758848 0.346588
O O17 0.612882 0.000000 0.359323
O O18 0.809080 0.835814 0.500000
O O19 0.759642 0.739477 0.633275
O O20 0.803674 0.000000 0.639494
O O21 0.699461 0.699969 0.500000
O O22 0.706881 0.500000 0.624683
#
# Coordination Sequence:
#
# PCOD8194969 Si02
#       8
#     4   8   8   4   4   8   8   8
#     4   9  15  21  29  41  59  81 105 135 175 222
#     4   9  15  22  31  44  61  81 106 138 180 225
#     4   9  18  32  48  65  84 105 127 153 187 228
#     4  11  23  35  45  59  81 107 131 158 193 230
#     4   9  17  29  47  69  87 103 123 149 183 224
#     4  11  21  32  47  63  80 103 133 162 191 228
#     4   9  16  25  37  50  64  84 115 150 184 222
#     4  10  19  30  42  55  74  98 125 157 195 230
#
# _framework density 13.722124000000001
#
# number of rings (size 3 to 8) (size 9 to 14) (size 15 to 20)
#    0.000    2.385    0.769    3.000    0.000    8.615 
#    0.000    1.538    0.000    0.000    0.000    0.000 
#    0.000    0.000    0.000    0.000    0.000    0.000 
#
# Total GULP energy -644827.654993 kJ/mol
# GULP energy per Si atom -12400.531827 kJ/mol
# Density = 1.369089 g / cm^3
# Si number density = 13.722124 Si / 1000 Ang^3
#
#
#
# Elastic Constant Matrix: (Units=GPa)
#
#
# Indices 1 2 3 4 5 6 
#
# 1 108.6052 57.6317 36.3913 0.0000 0.0000 0.0000
# 2 57.6317 110.9894 41.8802 0.0000 0.0000 0.0000
# 3 36.3913 41.8802 62.6716 0.0000 0.0000 0.0000
# 4 0.0000 0.0000 0.0000 6.2121 0.0000 0.0000
# 5 0.0000 0.0000 0.0000 0.0000 4.5861 0.0000
# 6 0.0000 0.0000 0.0000 0.0000 0.0000 28.1456
#
#
#
# Elastic Compliance Matrix: (Units=1/GPa)
#
#
# Indices 1 2 3 4 5 6 
#
# 1 0.013495 -0.005416 -0.004217 0.000000 0.000000 0.000000
# 2 -0.005416 0.014221 -0.006359 0.000000 0.000000 0.000000
# 3 -0.004217 -0.006359 0.022654 0.000000 0.000000 0.000000
# 4 0.000000 0.000000 0.000000 0.160975 0.000000 0.000000
# 5 0.000000 0.000000 0.000000 0.000000 0.218050 0.000000
# 6 0.000000 0.000000 0.000000 0.000000 0.000000 0.035529
#
#
# Mechanical properties :
#
#
# Convention : Reuss Voigt Hill
#
# Bulk Modulus (GPa) = 54.38509 61.56361 57.97435
# Shear Modulus (GPa) = 9.93965 17.54632 13.74299
#
# Velocity S-wave (km/s) = 2.69430 3.57975 3.16811
# Velocity P-wave (km/s) = 7.02838 7.87706 7.46479
#
# Compressibility (1/GPa) = 0.01838739
#
# Stress axis : x y z
#
# Youngs Moduli (GPa) = 74.10381 70.31616 44.14283
#
# Poissons Ratio (x) = 0.38084 0.18613
# Poissons Ratio (y) = 0.40135 0.28069
# Poissons Ratio (z) = 0.31246 0.44711
#
# Static dielectric constant tensor:
#      x y z
#    x 2.793220 0.000000 0.000000 
#    y 0.000000 2.929970 0.000000 
#    z 0.000000 0.000000 2.308160 
# 
# 
# High freq. dielectric constant tensor:
#      x y z
#    x 1.522680 0.000000 0.000000 
#    y 0.000000 1.545080 0.000000 
#    z 0.000000 0.000000 1.454660 
# 
# From -- ./inp_files/25741.got.cif
#   From: 2010.03.12/outbox.cif.g09.slc.cpg/sg47_13_cif.got.tgz:25741.got - 2010.04.14 03:12:58.
