data_PCOD8194419
_publ_section_title
;
Structure prediction by ZEFSAII (Michael W. Deem and Ramdas Pophale) SiO2 
 PCOD8194419
Probable space group: P M M M
;
_chemical_formula_sum "Si O2"
_cell_formula_units_Z 52
_cell_length_a 17.191740
_cell_length_b 13.132462
_cell_length_c 12.857470
_cell_angle_alpha 90.000000
_cell_angle_beta 90.000000
_cell_angle_gamma 90.000000
_cell_volume 2902.829360
_symmetry_space_group_name_H-M "P M M M"
_symmetry_group_IT_number 47
_symmetry_cell_setting 'orthorhombic'
loop_
_space_group_symop_operation_xyz
x,y,z
-x,-y,z
x,-y,-z
-x,y,-z
-x,-y,-z
x,y,-z
-x,y,z
x,-y,z
loop_
_atom_site_type_symbol
_atom_site_label
_atom_site_fract_x
_atom_site_fract_y
_atom_site_fract_z
Si Si1 0.500000 0.380024 0.376636
Si Si2 0.231922 0.384633 0.618536
Si Si3 0.639166 0.754539 0.692654
Si Si4 0.000000 0.111036 0.875992
Si Si5 0.686677 0.120332 0.879893
Si Si6 0.849120 0.775337 0.120530
Si Si7 0.590619 0.880376 0.500000
Si Si8 0.912569 0.383763 0.262776
O O1 0.500000 0.500000 0.356365
O O2 0.500000 0.355955 0.500000
O O3 0.574236 0.331832 0.320248
O O4 0.254653 0.363240 0.500000
O O5 0.256313 0.500000 0.649505
O O6 0.278146 0.303147 0.688589
O O7 0.138311 0.371692 0.631768
O O8 0.630911 0.815045 0.802656
O O9 0.632308 0.837484 0.601995
O O10 0.922573 0.163785 0.834631
O O11 0.000000 0.000000 0.826839
O O12 0.000000 0.107777 0.000000
O O13 0.773732 0.157329 0.855290
O O14 0.680062 0.000000 0.856757
O O15 0.663671 0.142971 0.000000
O O16 0.856604 0.666913 0.176361
O O17 0.855874 0.751798 0.000000
O O18 0.500000 0.848822 0.500000
O O19 0.601812 0.000000 0.500000
O O20 0.920968 0.500000 0.228880
O O21 0.000000 0.337316 0.275605
#
# Coordination Sequence:
#
# PCOD8194419 Si02
#       8
#     4   8   8   4   8   8   4   8
#     4  11  22  38  63  94 121 145 176 226 288 338
#     4  10  20  34  55  80 106 138 180 229 279 336
#     4  12  19  37  60  86 115 145 182 229 279 333
#     4   9  16  26  45  71  96 127 171 223 277 322
#     4  10  22  38  56  80 112 152 193 229 269 324
#     4  10  18  31  50  72 103 137 176 230 281 321
#     4  11  22  36  56  88 121 146 175 227 288 337
#     4  10  20  33  49  73 105 141 182 225 275 335
#
# _framework density 17.913557000000001
#
# number of rings (size 3 to 8) (size 9 to 14) (size 15 to 20)
#    0.000    1.615    4.615    1.385    0.000    3.692 
#    0.000    2.692    0.000    3.231    0.000    0.000 
#    0.000    2.462    0.000    0.000    0.000    0.000 
#
# Total GULP energy -644486.866061 kJ/mol
# GULP energy per Si atom -12393.978193 kJ/mol
# Density = 1.787279 g / cm^3
# Si number density = 17.913557 Si / 1000 Ang^3
#
#
#
# Elastic Constant Matrix: (Units=GPa)
#
#
# Indices 1 2 3 4 5 6 
#
# 1 84.8468 44.7068 37.3413 0.0000 0.0000 0.0000
# 2 44.7068 105.1314 54.5879 0.0000 0.0000 0.0000
# 3 37.3413 54.5879 89.2054 0.0000 0.0000 0.0000
# 4 0.0000 0.0000 0.0000 28.9163 0.0000 0.0000
# 5 0.0000 0.0000 0.0000 0.0000 25.4125 0.0000
# 6 0.0000 0.0000 0.0000 0.0000 0.0000 27.4282
#
#
#
# Elastic Compliance Matrix: (Units=1/GPa)
#
#
# Indices 1 2 3 4 5 6 
#
# 1 0.015986 -0.004871 -0.003711 0.000000 0.000000 0.000000
# 2 -0.004871 0.015426 -0.007401 0.000000 0.000000 0.000000
# 3 -0.003711 -0.007401 0.017292 0.000000 0.000000 0.000000
# 4 0.000000 0.000000 0.000000 0.034583 0.000000 0.000000
# 5 0.000000 0.000000 0.000000 0.000000 0.039351 0.000000
# 6 0.000000 0.000000 0.000000 0.000000 0.000000 0.036459
#
#
# Mechanical properties :
#
#
# Convention : Reuss Voigt Hill
#
# Bulk Modulus (GPa) = 59.74173 61.38396 60.56285
# Shear Modulus (GPa) = 25.42708 25.85458 25.64083
#
# Velocity S-wave (km/s) = 3.77162 3.80320 3.78744
# Velocity P-wave (km/s) = 7.23804 7.32304 7.28066
#
# Compressibility (1/GPa) = 0.01673872
#
# Stress axis : x y z
#
# Youngs Moduli (GPa) = 62.55589 64.82556 57.82967
#
# Poissons Ratio (x) = 0.31577 0.21459
# Poissons Ratio (y) = 0.30472 0.42798
# Poissons Ratio (z) = 0.23213 0.47975
#
# Static dielectric constant tensor:
#      x y z
#    x 3.382870 0.000000 0.000000 
#    y 0.000000 3.415960 0.000000 
#    z 0.000000 0.000000 3.151740 
# 
# 
# High freq. dielectric constant tensor:
#      x y z
#    x 1.693880 0.000000 0.000000 
#    y 0.000000 1.703890 0.000000 
#    z 0.000000 0.000000 1.670540 
# 
# From -- ./inp_files/18617.got.cif
#   From: 2010.03.12/outbox.cif.g09.slc.cpg/sg47_10_cif.got.tgz:18617.got - 2010.04.14 03:12:58.
