data_PCOD8194852
_publ_section_title
;
Structure prediction by ZEFSAII (Michael W. Deem and Ramdas Pophale) SiO2 
 PCOD8194852
Probable space group: P M M M
;
_chemical_formula_sum "Si O2"
_cell_formula_units_Z 64
_cell_length_a 23.778630
_cell_length_b 19.021895
_cell_length_c 9.100064
_cell_angle_alpha 90.000000
_cell_angle_beta 90.000000
_cell_angle_gamma 90.000000
_cell_volume 4116.091836
_symmetry_space_group_name_H-M "P M M M"
_symmetry_group_IT_number 47
_symmetry_cell_setting 'orthorhombic'
loop_
_space_group_symop_operation_xyz
x,y,z
-x,-y,z
x,-y,-z
-x,y,-z
-x,-y,-z
x,y,-z
-x,y,z
x,-y,z
loop_
_atom_site_type_symbol
_atom_site_label
_atom_site_fract_x
_atom_site_fract_y
_atom_site_fract_z
Si Si1 0.769988 0.793977 0.168913
Si Si2 0.721940 0.422119 0.174860
Si Si3 0.937947 0.420774 0.825149
Si Si4 0.655568 0.289921 0.169214
Si Si5 0.732852 0.921171 0.330101
Si Si6 0.615033 0.920694 0.830123
Si Si7 0.169844 0.342633 0.824887
Si Si8 0.436026 0.795360 0.669117
O O1 0.708000 0.762071 0.190721
O O2 0.776931 0.864581 0.265608
O O3 0.816282 0.737227 0.224586
O O4 0.780640 0.813764 0.000000
O O5 0.709361 0.500000 0.238030
O O6 0.672891 0.368193 0.223122
O O7 0.782079 0.395219 0.235667
O O8 0.724874 0.423228 0.000000
O O9 0.925541 0.500000 0.769813
O O10 0.890521 0.367863 0.761665
O O11 0.000000 0.396570 0.770652
O O12 0.936118 0.419944 0.000000
O O13 0.603634 0.265308 0.267075
O O14 0.636512 0.290618 0.000000
O O15 0.721439 0.905285 0.500000
O O16 0.675209 0.911874 0.243629
O O17 0.757069 0.000000 0.307764
O O18 0.571008 0.868764 0.754648
O O19 0.592205 0.000000 0.811729
O O20 0.621732 0.899827 0.000000
O O21 0.170722 0.345258 0.000000
O O22 0.420486 0.808077 0.500000
O O23 0.500000 0.769967 0.688034
#
# Coordination Sequence:
#
# PCOD8194852 Si02
#       8
#     8   8   8   8   8   8   8   8
#     4   9  16  26  41  61  84 111 142 175 212 252
#     4   8  13  22  39  62  84 105 133 175 221 257
#     4   8  12  17  27  47  81 126 164 185 207 244
#     4   9  17  29  45  64  83 105 136 172 212 257
#     4  10  19  29  43  63  86 112 139 167 205 253
#     4  10  20  33  49  67  86 109 137 168 202 244
#     4   8  13  20  32  54  85 117 148 181 213 247
#     4  11  23  35  47  63  83 109 140 173 209 251
#
# _framework density 15.548730000000001
#
# number of rings (size 3 to 8) (size 9 to 14) (size 15 to 20)
#    0.000    2.875    1.250    3.375    0.000    4.250 
#    0.000    1.250    0.000    0.750    0.000    2.625 
#    0.000    2.500    0.000    7.625    0.000    3.625 
#
# Total GULP energy -793236.004056 kJ/mol
# GULP energy per Si atom -12394.312563 kJ/mol
# Density = 1.551334 g / cm^3
# Si number density = 15.548730 Si / 1000 Ang^3
#
#
#
# Elastic Constant Matrix: (Units=GPa)
#
#
# Indices 1 2 3 4 5 6 
#
# 1 93.5832 60.8995 35.0469 0.0000 0.0000 0.0000
# 2 60.8995 123.7071 43.6526 0.0000 0.0000 0.0000
# 3 35.0469 43.6526 61.6213 0.0000 0.0000 0.0000
# 4 0.0000 0.0000 0.0000 9.6510 0.0000 0.0000
# 5 0.0000 0.0000 0.0000 0.0000 2.4343 0.0000
# 6 0.0000 0.0000 0.0000 0.0000 0.0000 25.7121
#
#
#
# Elastic Compliance Matrix: (Units=1/GPa)
#
#
# Indices 1 2 3 4 5 6 
#
# 1 0.016771 -0.006520 -0.004920 0.000000 0.000000 0.000000
# 2 -0.006520 0.013313 -0.005722 0.000000 0.000000 0.000000
# 3 -0.004920 -0.005722 0.023080 0.000000 0.000000 0.000000
# 4 0.000000 0.000000 0.000000 0.103616 0.000000 0.000000
# 5 0.000000 0.000000 0.000000 0.000000 0.410794 0.000000
# 6 0.000000 0.000000 0.000000 0.000000 0.000000 0.038892
#
#
# Mechanical properties :
#
#
# Convention : Reuss Voigt Hill
#
# Bulk Modulus (GPa) = 53.08041 62.01219 57.54630
# Shear Modulus (GPa) = 7.72714 16.84697 12.28706
#
# Velocity S-wave (km/s) = 2.23168 3.29522 2.81415
# Velocity P-wave (km/s) = 6.39162 7.37882 6.90289
#
# Compressibility (1/GPa) = 0.01883934
#
# Stress axis : x y z
#
# Youngs Moduli (GPa) = 59.62627 75.11609 43.32774
#
# Poissons Ratio (x) = 0.48978 0.21315
# Poissons Ratio (y) = 0.38878 0.24794
# Poissons Ratio (z) = 0.29333 0.42984
#
# Static dielectric constant tensor:
#      x y z
#    x 2.902480 0.000000 0.000000 
#    y 0.000000 3.265820 0.000000 
#    z 0.000000 0.000000 2.705640 
# 
# 
# High freq. dielectric constant tensor:
#      x y z
#    x 1.564190 0.000000 0.000000 
#    y 0.000000 1.598970 0.000000 
#    z 0.000000 0.000000 1.567580 
# 
# From -- ./inp_files/12916.got.cif
#   From: 2010.03.12/outbox.cif.g09.slc.cpg/sg47_7_cif.got.tgz:12916.got - 2010.04.14 03:12:58.
