data_PCOD8194529
_publ_section_title
;
Structure prediction by ZEFSAII (Michael W. Deem and Ramdas Pophale) SiO2 
 PCOD8194529
Probable space group: P M M M
;
_chemical_formula_sum "Si O2"
_cell_formula_units_Z 52
_cell_length_a 12.651496
_cell_length_b 18.990763
_cell_length_c 12.772743
_cell_angle_alpha 90.000000
_cell_angle_beta 90.000000
_cell_angle_gamma 90.000000
_cell_volume 3068.799186
_symmetry_space_group_name_H-M "P M M M"
_symmetry_group_IT_number 47
_symmetry_cell_setting 'orthorhombic'
loop_
_space_group_symop_operation_xyz
x,y,z
-x,-y,z
x,-y,-z
-x,y,-z
-x,-y,-z
x,y,-z
-x,y,z
x,-y,z
loop_
_atom_site_type_symbol
_atom_site_label
_atom_site_fract_x
_atom_site_fract_y
_atom_site_fract_z
Si Si1 0.124234 0.578121 0.615234
Si Si2 0.618274 0.871128 0.755315
Si Si3 0.617743 0.729620 0.877837
Si Si4 0.189189 0.158667 0.377025
Si Si5 0.000000 0.781084 0.122863
Si Si6 0.000000 0.084606 0.733558
Si Si7 0.819770 0.705544 0.243533
Si Si8 0.626020 0.000000 0.115038
O O1 0.169198 0.600697 0.500000
O O2 0.167546 0.500000 0.643722
O O3 0.153885 0.630564 0.707899
O O4 0.000000 0.575539 0.606906
O O5 0.500000 0.886109 0.713379
O O6 0.618879 0.809293 0.839259
O O7 0.691646 0.861656 0.654545
O O8 0.668257 0.933815 0.821754
O O9 0.500000 0.697159 0.859032
O O10 0.705408 0.690620 0.808283
O O11 0.647184 0.726793 0.000000
O O12 0.177815 0.158893 0.500000
O O13 0.171964 0.237718 0.336414
O O14 0.104719 0.102744 0.332914
O O15 0.000000 0.861242 0.167947
O O16 0.101243 0.734373 0.155070
O O17 0.000000 0.790652 0.000000
O O18 0.000000 0.000000 0.762578
O O19 0.500000 0.000000 0.107025
O O20 0.677266 0.000000 0.000000
#
# Coordination Sequence:
#
# PCOD8194529 Si02
#       8
#     8   8   8   8   4   4   8   4
#     4   9  17  30  52  81 108 134 164 200 245 294
#     4   9  18  31  48  71  96 119 155 205 255 302
#     4   9  17  30  49  71  96 131 172 208 243 288
#     4  10  21  34  51  71  95 129 166 203 245 294
#     4  10  20  34  54  77  99 128 161 206 264 304
#     4  10  23  39  52  66  91 126 177 214 241 289
#     4  10  18  32  52  77 106 130 162 205 245 298
#     4   9  16  28  47  68  91 118 149 194 250 299
#
# _framework density 16.944738000000001
#
# number of rings (size 3 to 8) (size 9 to 14) (size 15 to 20)
#    0.000    2.538    0.769    2.077    1.077    2.923 
#    0.000    0.769    0.000    5.538    0.000    2.154 
#    0.000    0.000    0.000    0.000    0.000    0.000 
#
# Total GULP energy -644317.494480 kJ/mol
# GULP energy per Si atom -12390.721048 kJ/mol
# Density = 1.690617 g / cm^3
# Si number density = 16.944738 Si / 1000 Ang^3
#
#
#
# Elastic Constant Matrix: (Units=GPa)
#
#
# Indices 1 2 3 4 5 6 
#
# 1 75.5129 41.3481 43.0959 0.0000 0.0000 0.0000
# 2 41.3481 88.5096 54.0309 0.0000 0.0000 0.0000
# 3 43.0959 54.0309 123.1352 0.0000 0.0000 0.0000
# 4 0.0000 0.0000 0.0000 12.8340 0.0000 0.0000
# 5 0.0000 0.0000 0.0000 0.0000 14.7249 0.0000
# 6 0.0000 0.0000 0.0000 0.0000 0.0000 10.8160
#
#
#
# Elastic Compliance Matrix: (Units=1/GPa)
#
#
# Indices 1 2 3 4 5 6 
#
# 1 0.018990 -0.006575 -0.003761 0.000000 0.000000 0.000000
# 2 -0.006575 0.017709 -0.005469 0.000000 0.000000 0.000000
# 3 -0.003761 -0.005469 0.011837 0.000000 0.000000 0.000000
# 4 0.000000 0.000000 0.000000 0.077918 0.000000 0.000000
# 5 0.000000 0.000000 0.000000 0.000000 0.067912 0.000000
# 6 0.000000 0.000000 0.000000 0.000000 0.000000 0.092456
#
#
# Mechanical properties :
#
#
# Convention : Reuss Voigt Hill
#
# Bulk Modulus (GPa) = 59.08531 62.67862 60.88196
# Shear Modulus (GPa) = 15.42857 17.58714 16.50785
#
# Velocity S-wave (km/s) = 3.02076 3.22516 3.12463
# Velocity P-wave (km/s) = 6.86380 7.13717 7.00182
#
# Compressibility (1/GPa) = 0.01692468
#
# Stress axis : x y z
#
# Youngs Moduli (GPa) = 52.66053 56.46982 84.47900
#
# Poissons Ratio (x) = 0.37131 0.31772
# Poissons Ratio (y) = 0.34626 0.46203
# Poissons Ratio (z) = 0.19805 0.30884
#
# Static dielectric constant tensor:
#      x y z
#    x 4.013330 0.000000 0.000000 
#    y 0.000000 3.104710 0.000000 
#    z 0.000000 0.000000 3.096770 
# 
# 
# High freq. dielectric constant tensor:
#      x y z
#    x 1.650920 0.000000 0.000000 
#    y 0.000000 1.634660 0.000000 
#    z 0.000000 0.000000 1.650370 
# 
# From -- ./inp_files/17839.got.cif
#   From: 2010.03.12/outbox.cif.g09.slc.cpg/sg47_9_cif.got.tgz:17839.got - 2010.04.14 03:12:58.
