data_PCOD8194122
_publ_section_title
;
Structure prediction by ZEFSAII (Michael W. Deem and Ramdas Pophale) SiO2 
 PCOD8194122
Probable space group: P M M M
;
_chemical_formula_sum "Si O2"
_cell_formula_units_Z 64
_cell_length_a 20.831921
_cell_length_b 19.699887
_cell_length_c 8.982949
_cell_angle_alpha 90.000000
_cell_angle_beta 90.000000
_cell_angle_gamma 90.000000
_cell_volume 3686.480907
_symmetry_space_group_name_H-M "P M M M"
_symmetry_group_IT_number 47
_symmetry_cell_setting 'orthorhombic'
loop_
_space_group_symop_operation_xyz
x,y,z
-x,-y,z
x,-y,-z
-x,y,-z
-x,-y,-z
x,y,-z
-x,y,z
x,-y,z
loop_
_atom_site_type_symbol
_atom_site_label
_atom_site_fract_x
_atom_site_fract_y
_atom_site_fract_z
Si Si1 0.927918 0.201420 0.171250
Si Si2 0.689920 0.799237 0.675608
Si Si3 0.122755 0.923274 0.673686
Si Si4 0.741873 0.923244 0.172915
Si Si5 0.625648 0.573705 0.322947
Si Si6 0.429362 0.711674 0.677099
Si Si7 0.769993 0.573958 0.676657
Si Si8 0.182620 0.284269 0.324526
O O1 0.926472 0.127811 0.249303
O O2 0.878855 0.253362 0.244964
O O3 0.000000 0.230284 0.189318
O O4 0.909100 0.192084 0.000000
O O5 0.686809 0.811774 0.500000
O O6 0.690154 0.871451 0.759492
O O7 0.626014 0.761767 0.735572
O O8 0.752419 0.755356 0.719255
O O9 0.126814 0.906726 0.500000
O O10 0.192452 0.910350 0.740711
O O11 0.099033 0.000000 0.703192
O O12 0.716976 0.000000 0.198336
O O13 0.753537 0.908303 0.000000
O O14 0.627309 0.577078 0.500000
O O15 0.597923 0.500000 0.271999
O O16 0.582813 0.635411 0.260416
O O17 0.697919 0.582128 0.261265
O O18 0.426520 0.710203 0.500000
O O19 0.500000 0.735531 0.732156
O O20 0.767097 0.577187 0.500000
O O21 0.798183 0.500000 0.727593
O O22 0.812259 0.637598 0.732784
O O23 0.171178 0.280001 0.500000
#
# Coordination Sequence:
#
# PCOD8194122 Si02
#       8
#     8   8   8   8   8   8   8   8
#     4  11  24  38  51  71 101 135 169 206 249 295
#     4  10  18  29  48  74 100 130 168 207 247 290
#     4  10  20  34  53  77 104 133 164 197 236 289
#     4  10  20  33  51  75 100 126 160 204 252 297
#     4   8  12  19  33  57  93 134 168 195 232 286
#     4   9  16  25  38  62 100 139 170 203 244 290
#     4   8  13  23  42  69  99 127 160 207 256 296
#     4  10  18  30  51  75  97 128 170 212 251 294
#
# _framework density 17.36073
#
# number of rings (size 3 to 8) (size 9 to 14) (size 15 to 20)
#    0.000    2.500    2.500    1.875    0.000    3.000 
#    0.000    2.500    0.000    1.500    0.000    5.250 
#    0.000    0.500    0.000    1.125    0.000    1.250 
#
# Total GULP energy -793218.717371 kJ/mol
# GULP energy per Si atom -12394.042459 kJ/mol
# Density = 1.732122 g / cm^3
# Si number density = 17.360730 Si / 1000 Ang^3
#
#
#
# Elastic Constant Matrix: (Units=GPa)
#
#
# Indices 1 2 3 4 5 6 
#
# 1 106.6847 66.0202 33.4510 0.0000 0.0000 0.0000
# 2 66.0202 131.0421 38.2430 0.0000 0.0000 0.0000
# 3 33.4510 38.2430 46.9928 0.0000 0.0000 0.0000
# 4 0.0000 0.0000 0.0000 8.7305 0.0000 0.0000
# 5 0.0000 0.0000 0.0000 0.0000 2.1000 0.0000
# 6 0.0000 0.0000 0.0000 0.0000 0.0000 25.2241
#
#
#
# Elastic Compliance Matrix: (Units=1/GPa)
#
#
# Indices 1 2 3 4 5 6 
#
# 1 0.014747 -0.005726 -0.005838 0.000000 0.000000 0.000000
# 2 -0.005726 0.012231 -0.005878 0.000000 0.000000 0.000000
# 3 -0.005838 -0.005878 0.030219 0.000000 0.000000 0.000000
# 4 0.000000 0.000000 0.000000 0.114540 0.000000 0.000000
# 5 0.000000 0.000000 0.000000 0.000000 0.476195 0.000000
# 6 0.000000 0.000000 0.000000 0.000000 0.000000 0.039645
#
#
# Mechanical properties :
#
#
# Convention : Reuss Voigt Hill
#
# Bulk Modulus (GPa) = 44.81482 62.23867 53.52675
# Shear Modulus (GPa) = 6.85026 17.01129 11.93077
#
# Velocity S-wave (km/s) = 1.98857 3.13369 2.62435
# Velocity P-wave (km/s) = 5.58054 7.00153 6.33103
#
# Compressibility (1/GPa) = 0.02231405
#
# Stress axis : x y z
#
# Youngs Moduli (GPa) = 67.80853 81.75632 33.09205
#
# Poissons Ratio (x) = 0.46816 0.19318
# Poissons Ratio (y) = 0.38829 0.19451
# Poissons Ratio (z) = 0.39584 0.48056
#
# Static dielectric constant tensor:
#      x y z
#    x 3.108840 0.000000 0.000000 
#    y 0.000000 3.611600 0.000000 
#    z 0.000000 0.000000 2.885420 
# 
# 
# High freq. dielectric constant tensor:
#      x y z
#    x 1.645220 0.000000 0.000000 
#    y 0.000000 1.681470 0.000000 
#    z 0.000000 0.000000 1.633440 
# 
# From -- ./inp_files/10043.got.cif
#   From: 2010.03.12/outbox.cif.g09.slc.cpg/sg47_6_cif.got.tgz:10043.got - 2010.04.14 03:12:58.
