data_PCOD8194649
_publ_section_title
;
Structure prediction by ZEFSAII (Michael W. Deem and Ramdas Pophale) SiO2 
 PCOD8194649
Probable space group: P M M M
;
_chemical_formula_sum "Si O2"
_cell_formula_units_Z 64
_cell_length_a 9.389983
_cell_length_b 27.098022
_cell_length_c 17.756548
_cell_angle_alpha 90.000000
_cell_angle_beta 90.000000
_cell_angle_gamma 90.000000
_cell_volume 4518.153033
_symmetry_space_group_name_H-M "P M M M"
_symmetry_group_IT_number 47
_symmetry_cell_setting 'orthorhombic'
loop_
_space_group_symop_operation_xyz
x,y,z
-x,-y,z
x,-y,-z
-x,y,-z
-x,-y,-z
x,y,-z
-x,y,z
x,-y,z
loop_
_atom_site_type_symbol
_atom_site_label
_atom_site_fract_x
_atom_site_fract_y
_atom_site_fract_z
Si Si1 0.660531 0.445896 0.589490
Si Si2 0.663518 0.836659 0.587801
Si Si3 0.663599 0.143333 0.912430
Si Si4 0.165979 0.353815 0.586838
Si Si5 0.156648 0.893424 0.303556
Si Si6 0.167629 0.252009 0.341772
Si Si7 0.843474 0.799120 0.802863
Si Si8 0.833338 0.944237 0.841848
O O1 0.667991 0.445254 0.500000
O O2 0.500000 0.436628 0.617225
O O3 0.713127 0.500000 0.618116
O O4 0.758034 0.402056 0.621785
O O5 0.677413 0.847299 0.500000
O O6 0.500000 0.830841 0.612930
O O7 0.730162 0.884416 0.630059
O O8 0.746508 0.786829 0.607858
O O9 0.500000 0.137933 0.887688
O O10 0.730743 0.190415 0.868924
O O11 0.743142 0.092333 0.893950
O O12 0.678755 0.154799 0.000000
O O13 0.208587 0.344879 0.500000
O O14 0.216347 0.306466 0.634146
O O15 0.000000 0.363263 0.595508
O O16 0.149243 0.845532 0.251772
O O17 0.203521 0.937507 0.247167
O O18 0.000000 0.903957 0.338596
O O19 0.201720 0.246118 0.252204
O O20 0.000000 0.243424 0.357677
O O21 0.000000 0.789472 0.838590
O O22 0.000000 0.932568 0.855046
O O23 0.795331 0.000000 0.865377
#
# Coordination Sequence:
#
# PCOD8194649 Si02
#       8
#     8   8   8   8   8   8   8   8
#     4   8  14  24  35  46  64  93 128 165 202 235
#     4  10  19  27  37  56  78  98 123 155 188 224
#     4  10  20  31  43  62  86 106 124 148 176 209
#     4   9  16  24  35  52  73  97 126 162 201 235
#     4   8  15  28  44  59  74  95 122 150 182 220
#     4   9  17  28  40  55  76 100 126 157 194 232
#     4   8  15  28  44  59  75  99 129 155 180 217
#     4   9  18  32  48  64  80  98 122 151 181 215
#
# _framework density 14.16508
#
# number of rings (size 3 to 8) (size 9 to 14) (size 15 to 20)
#    0.000    3.125    0.000    3.000    0.000    8.250 
#    0.000    3.750    0.000    0.375    0.000    2.625 
#    0.000    0.000    0.000    0.000    0.000    0.625 
#
# Total GULP energy -793155.696657 kJ/mol
# GULP energy per Si atom -12393.057760 kJ/mol
# Density = 1.413284 g / cm^3
# Si number density = 14.165080 Si / 1000 Ang^3
#
#
#
# Elastic Constant Matrix: (Units=GPa)
#
#
# Indices 1 2 3 4 5 6 
#
# 1 71.6069 30.7534 40.2266 0.0000 0.0000 0.0000
# 2 30.7534 63.6971 31.6986 0.0000 0.0000 0.0000
# 3 40.2266 31.6986 57.8826 0.0000 0.0000 0.0000
# 4 0.0000 0.0000 0.0000 11.9103 0.0000 0.0000
# 5 0.0000 0.0000 0.0000 0.0000 20.8307 0.0000
# 6 0.0000 0.0000 0.0000 0.0000 0.0000 16.3131
#
#
#
# Elastic Compliance Matrix: (Units=1/GPa)
#
#
# Indices 1 2 3 4 5 6 
#
# 1 0.023805 -0.004482 -0.014089 0.000000 0.000000 0.000000
# 2 -0.004482 0.022424 -0.009166 0.000000 0.000000 0.000000
# 3 -0.014089 -0.009166 0.032087 0.000000 0.000000 0.000000
# 4 0.000000 0.000000 0.000000 0.083961 0.000000 0.000000
# 5 0.000000 0.000000 0.000000 0.000000 0.048006 0.000000
# 6 0.000000 0.000000 0.000000 0.000000 0.000000 0.061300
#
#
# Mechanical properties :
#
#
# Convention : Reuss Voigt Hill
#
# Bulk Modulus (GPa) = 43.77669 44.28266 44.02967
# Shear Modulus (GPa) = 14.94001 15.84469 15.39235
#
# Velocity S-wave (km/s) = 3.25115 3.34814 3.30000
# Velocity P-wave (km/s) = 6.71305 6.80268 6.75801
#
# Compressibility (1/GPa) = 0.02284321
#
# Stress axis : x y z
#
# Youngs Moduli (GPa) = 42.00822 44.59425 31.16479
#
# Poissons Ratio (x) = 0.19986 0.43909
# Poissons Ratio (y) = 0.18827 0.28565
# Poissons Ratio (z) = 0.59187 0.40874
#
# Static dielectric constant tensor:
#      x y z
#    x 2.887350 0.000000 0.000000 
#    y 0.000000 2.968410 0.000000 
#    z 0.000000 0.000000 2.692410 
# 
# 
# High freq. dielectric constant tensor:
#      x y z
#    x 1.546310 0.000000 0.000000 
#    y 0.000000 1.518360 0.000000 
#    z 0.000000 0.000000 1.507610 
# 
# From -- ./inp_files/22196.got.cif
#   From: 2010.03.12/outbox.cif.g09.slc.cpg/sg47_12_cif.got.tgz:22196.got - 2010.04.14 03:12:58.
