data_PCOD8194842
_publ_section_title
;
Structure prediction by ZEFSAII (Michael W. Deem and Ramdas Pophale) SiO2 
 PCOD8194842
Probable space group: P M M M
;
_chemical_formula_sum "Si O2"
_cell_formula_units_Z 52
_cell_length_a 16.971187
_cell_length_b 12.899577
_cell_length_c 14.347653
_cell_angle_alpha 90.000000
_cell_angle_beta 90.000000
_cell_angle_gamma 90.000000
_cell_volume 3141.004458
_symmetry_space_group_name_H-M "P M M M"
_symmetry_group_IT_number 47
_symmetry_cell_setting 'orthorhombic'
loop_
_space_group_symop_operation_xyz
x,y,z
-x,-y,z
x,-y,-z
-x,y,-z
-x,-y,-z
x,y,-z
-x,y,z
x,-y,z
loop_
_atom_site_type_symbol
_atom_site_label
_atom_site_fract_x
_atom_site_fract_y
_atom_site_fract_z
Si Si1 0.500000 0.622870 0.896587
Si Si2 0.635449 0.377334 0.239954
Si Si3 0.196264 0.711103 0.256709
Si Si4 0.914927 0.619966 0.600982
Si Si5 0.091990 0.619097 0.892410
Si Si6 0.745404 0.879963 0.392219
Si Si7 0.413042 0.770516 0.605628
O O1 0.500000 0.500000 0.902138
O O2 0.578661 0.660091 0.843634
O O3 0.500000 0.671928 0.000000
O O4 0.638784 0.500000 0.248467
O O5 0.721008 0.331154 0.219991
O O6 0.601756 0.333223 0.335975
O O7 0.157972 0.635163 0.331420
O O8 0.139103 0.706719 0.166598
O O9 0.203840 0.820264 0.312570
O O10 0.897024 0.671517 0.500000
O O11 0.924684 0.500000 0.586449
O O12 0.000000 0.663574 0.638849
O O13 0.114575 0.500000 0.864176
O O14 0.000000 0.636342 0.874261
O O15 0.113144 0.637457 0.000000
O O16 0.767307 0.849413 0.500000
O O17 0.652853 0.857415 0.373825
O O18 0.761986 0.000000 0.375416
O O19 0.407748 0.732494 0.500000
O O20 0.500000 0.817276 0.627688
#
# Coordination Sequence:
#
# PCOD8194842 Si02
#       7
#     4   8   8   8   8   8   8
#     4   9  18  32  45  57  84 127 163 189 223 268
#     4  10  19  29  42  65  97 127 158 193 231 280
#     4  11  19  29  49  72  94 124 166 203 242 286
#     4   9  17  28  43  67  99 131 159 186 223 279
#     4   9  18  32  50  75 106 133 157 192 239 289
#     4   9  19  34  49  68  95 125 160 206 254 291
#     4   9  17  29  46  67  91 120 156 193 234 286
#
# _framework density 16.555213999999999
#
# number of rings (size 3 to 8) (size 9 to 14) (size 15 to 20)
#    0.000    2.538    0.769    3.231    0.000    3.077 
#    0.000    3.846    0.000    2.308    0.000    6.462 
#    0.000    3.077    0.000    0.000    0.000    0.000 
#
# Total GULP energy -644202.882168 kJ/mol
# GULP energy per Si atom -12388.516965 kJ/mol
# Density = 1.651753 g / cm^3
# Si number density = 16.555214 Si / 1000 Ang^3
#
#
#
# Elastic Constant Matrix: (Units=GPa)
#
#
# Indices 1 2 3 4 5 6 
#
# 1 98.5035 33.0431 60.3246 0.0000 0.0000 0.0000
# 2 33.0431 67.5068 42.9773 0.0000 0.0000 0.0000
# 3 60.3246 42.9773 106.6621 0.0000 0.0000 0.0000
# 4 0.0000 0.0000 0.0000 19.2724 0.0000 0.0000
# 5 0.0000 0.0000 0.0000 0.0000 29.1371 0.0000
# 6 0.0000 0.0000 0.0000 0.0000 0.0000 12.7086
#
#
#
# Elastic Compliance Matrix: (Units=1/GPa)
#
#
# Indices 1 2 3 4 5 6 
#
# 1 0.015907 -0.002769 -0.007881 0.000000 0.000000 0.000000
# 2 -0.002769 0.020406 -0.006656 0.000000 0.000000 0.000000
# 3 -0.007881 -0.006656 0.016515 0.000000 0.000000 0.000000
# 4 0.000000 0.000000 0.000000 0.051888 0.000000 0.000000
# 5 0.000000 0.000000 0.000000 0.000000 0.034321 0.000000
# 6 0.000000 0.000000 0.000000 0.000000 0.000000 0.078687
#
#
# Mechanical properties :
#
#
# Convention : Reuss Voigt Hill
#
# Bulk Modulus (GPa) = 54.89735 60.59584 57.74659
# Shear Modulus (GPa) = 19.34930 21.31210 20.33070
#
# Velocity S-wave (km/s) = 3.42244 3.59184 3.50816
# Velocity P-wave (km/s) = 6.98925 7.34053 7.16705
#
# Compressibility (1/GPa) = 0.01821581
#
# Stress axis : x y z
#
# Youngs Moduli (GPa) = 62.86505 49.00453 60.55256
#
# Poissons Ratio (x) = 0.13569 0.47721
# Poissons Ratio (y) = 0.17407 0.40305
# Poissons Ratio (z) = 0.49543 0.32619
#
# Static dielectric constant tensor:
#      x y z
#    x 3.374890 0.000000 0.000000 
#    y 0.000000 2.720810 0.000000 
#    z 0.000000 0.000000 3.270850 
# 
# 
# High freq. dielectric constant tensor:
#      x y z
#    x 1.650100 0.000000 0.000000 
#    y 0.000000 1.585800 0.000000 
#    z 0.000000 0.000000 1.639870 
# 
# From -- ./inp_files/24619.got.cif
#   From: 2010.03.12/outbox.cif.g09.slc.cpg/sg47_13_cif.got.tgz:24619.got - 2010.04.14 03:12:58.
