data_PCOD8194931
_publ_section_title
;
Structure prediction by ZEFSAII (Michael W. Deem and Ramdas Pophale) SiO2 
 PCOD8194931
Probable space group: P M M M
;
_chemical_formula_sum "Si O2"
_cell_formula_units_Z 44
_cell_length_a 21.811133
_cell_length_b 12.715855
_cell_length_c 9.203681
_cell_angle_alpha 90.000000
_cell_angle_beta 90.000000
_cell_angle_gamma 90.000000
_cell_volume 2552.615198
_symmetry_space_group_name_H-M "P M M M"
_symmetry_group_IT_number 47
_symmetry_cell_setting 'orthorhombic'
loop_
_space_group_symop_operation_xyz
x,y,z
-x,-y,z
x,-y,-z
-x,y,-z
-x,-y,-z
x,y,-z
-x,y,z
x,-y,z
loop_
_atom_site_type_symbol
_atom_site_label
_atom_site_fract_x
_atom_site_fract_y
_atom_site_fract_z
Si Si1 0.318607 0.304471 0.669566
Si Si2 0.140748 0.181637 0.829984
Si Si3 0.433239 0.622799 0.840667
Si Si4 0.185930 0.620112 0.329078
Si Si5 0.277501 0.118497 0.837922
Si Si6 0.072488 0.000000 0.666362
O O1 0.324121 0.306453 0.500000
O O2 0.379818 0.355829 0.728103
O O3 0.256924 0.365279 0.720196
O O4 0.316148 0.184971 0.723743
O O5 0.142555 0.298926 0.759225
O O6 0.205530 0.125579 0.806547
O O7 0.092806 0.106603 0.748413
O O8 0.123134 0.191525 0.000000
O O9 0.500000 0.667494 0.788288
O O10 0.439466 0.500000 0.856321
O O11 0.417357 0.670704 0.000000
O O12 0.178914 0.644027 0.500000
O O13 0.166369 0.500000 0.293140
O O14 0.299672 0.000000 0.819010
O O15 0.291065 0.160375 0.000000
O O16 0.097525 0.000000 0.500000
O O17 0.000000 0.000000 0.666592
#
# Coordination Sequence:
#
# PCOD8194931 Si02
#       6
#     8   8   8   8   8   4
#     4  10  19  29  45  72 100 127 161 201 247 296
#     4  10  19  33  53  78 105 133 170 213 253 292
#     4   9  18  32  48  65  88 122 162 201 243 293
#     4   9  18  32  49  73 107 142 171 202 248 307
#     4   9  17  31  49  70  98 129 161 197 241 293
#     4  11  23  37  55  79 107 139 172 205 248 301
#
# _framework density 17.237223
#
# number of rings (size 3 to 8) (size 9 to 14) (size 15 to 20)
#    0.000    2.455    0.909    2.455    0.000    4.364 
#    0.000    0.909    0.000    1.091    0.000    7.636 
#    0.000    0.000    0.000    0.000    0.000    0.000 
#
# Total GULP energy -545380.160342 kJ/mol
# GULP energy per Si atom -12395.003644 kJ/mol
# Density = 1.719799 g / cm^3
# Si number density = 17.237223 Si / 1000 Ang^3
#
#
#
# Elastic Constant Matrix: (Units=GPa)
#
#
# Indices 1 2 3 4 5 6 
#
# 1 59.8971 35.3741 39.0959 0.0000 0.0000 0.0000
# 2 35.3741 100.5741 50.7216 0.0000 0.0000 0.0000
# 3 39.0959 50.7216 87.6904 0.0000 0.0000 0.0000
# 4 0.0000 0.0000 0.0000 3.1130 0.0000 0.0000
# 5 0.0000 0.0000 0.0000 0.0000 10.4958 0.0000
# 6 0.0000 0.0000 0.0000 0.0000 0.0000 22.8625
#
#
#
# Elastic Compliance Matrix: (Units=1/GPa)
#
#
# Indices 1 2 3 4 5 6 
#
# 1 0.024887 -0.004458 -0.008517 0.000000 0.000000 0.000000
# 2 -0.004458 0.014836 -0.006594 0.000000 0.000000 0.000000
# 3 -0.008517 -0.006594 0.019015 0.000000 0.000000 0.000000
# 4 0.000000 0.000000 0.000000 0.321233 0.000000 0.000000
# 5 0.000000 0.000000 0.000000 0.000000 0.095276 0.000000
# 6 0.000000 0.000000 0.000000 0.000000 0.000000 0.043740
#
#
# Mechanical properties :
#
#
# Convention : Reuss Voigt Hill
#
# Bulk Modulus (GPa) = 51.01929 55.39385 53.20657
# Shear Modulus (GPa) = 8.85489 15.49227 12.17358
#
# Velocity S-wave (km/s) = 2.26897 3.00120 2.66040
# Velocity P-wave (km/s) = 6.04375 6.64948 6.35383
#
# Compressibility (1/GPa) = 0.01960043
#
# Stress axis : x y z
#
# Youngs Moduli (GPa) = 40.18087 67.40163 52.58956
#
# Poissons Ratio (x) = 0.30048 0.44792
# Poissons Ratio (y) = 0.17913 0.34678
# Poissons Ratio (z) = 0.34223 0.44445
#
# Static dielectric constant tensor:
#      x y z
#    x 3.122360 0.000000 0.000000 
#    y 0.000000 3.234920 0.000000 
#    z 0.000000 0.000000 3.337410 
# 
# 
# High freq. dielectric constant tensor:
#      x y z
#    x 1.638690 0.000000 0.000000 
#    y 0.000000 1.659480 0.000000 
#    z 0.000000 0.000000 1.672510 
# 
# From -- ./inp_files/12342.got.cif
#   From: 2010.03.12/outbox.cif.g09.slc.cpg/sg47_7_cif.got.tgz:12342.got - 2010.04.14 03:12:58.
