data_PCOD8194646
_publ_section_title
;
Structure prediction by ZEFSAII (Michael W. Deem and Ramdas Pophale) SiO2 
 PCOD8194646
Probable space group: P M M M
;
_chemical_formula_sum "Si O2"
_cell_formula_units_Z 52
_cell_length_a 13.758059
_cell_length_b 9.164044
_cell_length_c 26.438050
_cell_angle_alpha 90.000000
_cell_angle_beta 90.000000
_cell_angle_gamma 90.000000
_cell_volume 3333.295015
_symmetry_space_group_name_H-M "P M M M"
_symmetry_group_IT_number 47
_symmetry_cell_setting 'orthorhombic'
loop_
_space_group_symop_operation_xyz
x,y,z
-x,-y,z
x,-y,-z
-x,y,-z
-x,-y,-z
x,y,-z
-x,y,z
x,-y,z
loop_
_atom_site_type_symbol
_atom_site_label
_atom_site_fract_x
_atom_site_fract_y
_atom_site_fract_z
Si Si1 0.607094 0.327140 0.150358
Si Si2 0.106316 0.672682 0.199109
Si Si3 0.704191 0.327087 0.747086
Si Si4 0.386628 0.829873 0.652926
Si Si5 0.384620 0.663918 0.555542
Si Si6 0.112602 0.827082 0.000000
Si Si7 0.202790 0.672571 0.904418
O O1 0.500000 0.264041 0.136794
O O2 0.605101 0.500000 0.152630
O O3 0.637805 0.272550 0.206161
O O4 0.685457 0.281126 0.107830
O O5 0.102383 0.500000 0.199089
O O6 0.184897 0.721935 0.240857
O O7 0.137588 0.721680 0.143075
O O8 0.000000 0.739369 0.211892
O O9 0.695093 0.500000 0.739253
O O10 0.672766 0.247560 0.696674
O O11 0.500000 0.792483 0.659657
O O12 0.346214 0.771404 0.599176
O O13 0.366181 0.000000 0.655232
O O14 0.346172 0.714435 0.500000
O O15 0.500000 0.666843 0.554816
O O16 0.347928 0.500000 0.567129
O O17 0.166514 0.763035 0.048321
O O18 0.000000 0.778686 0.000000
O O19 0.123076 0.000000 0.000000
O O20 0.194344 0.500000 0.915424
#
# Coordination Sequence:
#
# PCOD8194646 Si02
#       7
#     8   8   8   8   8   4   8
#     4   8  14  26  45  68  90 110 137 173 207 239
#     4   8  14  26  45  68  89 106 131 171 213 248
#     4   9  16  26  43  64  84 110 141 171 205 246
#     4  10  19  27  36  55  85 117 145 175 209 242
#     4   8  14  25  40  56  75 104 143 181 213 247
#     4  11  23  35  46  63  88 112 133 167 216 259
#     4   9  17  30  50  71  86 107 140 172 203 244
#
# _framework density 15.600178
#
# number of rings (size 3 to 8) (size 9 to 14) (size 15 to 20)
#    0.000    3.154    0.000    3.923    0.000    3.077 
#    0.000    5.000    0.000    5.077    0.000    0.000 
#    0.000    0.615    0.000    7.077    0.000    2.308 
#
# Total GULP energy -644403.309828 kJ/mol
# GULP energy per Si atom -12392.371343 kJ/mol
# Density = 1.556467 g / cm^3
# Si number density = 15.600178 Si / 1000 Ang^3
#
#
#
# Elastic Constant Matrix: (Units=GPa)
#
#
# Indices 1 2 3 4 5 6 
#
# 1 117.5171 34.5496 64.2826 0.0000 0.0000 0.0000
# 2 34.5496 48.8436 52.0928 0.0000 0.0000 0.0000
# 3 64.2826 52.0928 136.7975 0.0000 0.0000 0.0000
# 4 0.0000 0.0000 0.0000 -7.2903 0.0000 0.0000
# 5 0.0000 0.0000 0.0000 0.0000 17.7339 0.0000
# 6 0.0000 0.0000 0.0000 0.0000 0.0000 12.9593
#
#
#
# Elastic Compliance Matrix: (Units=1/GPa)
#
#
# Indices 1 2 3 4 5 6 
#
# 1 0.011931 -0.004142 -0.004029 0.000000 0.000000 0.000000
# 2 -0.004142 0.035913 -0.011729 0.000000 0.000000 0.000000
# 3 -0.004029 -0.011729 0.013670 0.000000 0.000000 0.000000
# 4 0.000000 0.000000 0.000000 -0.137168 0.000000 0.000000
# 5 0.000000 0.000000 0.000000 0.000000 0.056389 0.000000
# 6 0.000000 0.000000 0.000000 0.000000 0.000000 0.077165
#
#
# Mechanical properties :
#
#
# Convention : Reuss Voigt Hill
#
# Bulk Modulus (GPa) = 46.05600 67.22312 56.63956
# Shear Modulus (GPa) = 47.64634 14.82945 31.23789
#
# Velocity S-wave (km/s) = 5.53249 3.08652 4.47968
# Velocity P-wave (km/s) = 8.39036 7.47575 7.94623
#
# Compressibility (1/GPa) = 0.02171270
#
# Stress axis : x y z
#
# Youngs Moduli (GPa) = 83.81369 27.84501 73.15305
#
# Poissons Ratio (x) = 0.11534 0.29475
# Poissons Ratio (y) = 0.34718 0.85803
# Poissons Ratio (z) = 0.33770 0.32660
#
# Static dielectric constant tensor:
#      x y z
#    x 3.324110 0.000000 0.000000 
#    y 0.000000 2.710600 0.000000 
#    z 0.000000 0.000000 3.054020 
# 
# 
# High freq. dielectric constant tensor:
#      x y z
#    x 1.579040 0.000000 0.000000 
#    y 0.000000 1.570280 0.000000 
#    z 0.000000 0.000000 1.596740 
# 
# From -- ./inp_files/33786.got.cif
#   From: 2010.03.12/outbox.cif.g09.slc.cpg/sg47_17_cif.got.tgz:33786.got - 2010.04.14 03:12:58.
