data_PCOD8194189
_publ_section_title
;
Structure prediction by ZEFSAII (Michael W. Deem and Ramdas Pophale) SiO2 
 PCOD8194189
Probable space group: P M M M
;
_chemical_formula_sum "Si O2"
_cell_formula_units_Z 52
_cell_length_a 9.220452
_cell_length_b 27.474869
_cell_length_c 15.515604
_cell_angle_alpha 90.000000
_cell_angle_beta 90.000000
_cell_angle_gamma 90.000000
_cell_volume 3930.578990
_symmetry_space_group_name_H-M "P M M M"
_symmetry_group_IT_number 47
_symmetry_cell_setting 'orthorhombic'
loop_
_space_group_symop_operation_xyz
x,y,z
-x,-y,z
x,-y,-z
-x,y,-z
-x,-y,-z
x,y,-z
-x,y,z
x,-y,z
loop_
_atom_site_type_symbol
_atom_site_label
_atom_site_fract_x
_atom_site_fract_y
_atom_site_fract_z
Si Si1 0.329018 0.106545 0.657527
Si Si2 0.331473 0.056309 0.833365
Si Si3 0.163775 0.942101 0.000000
Si Si4 0.662500 0.685648 0.602896
Si Si5 0.336091 0.500000 0.602727
Si Si6 0.167827 0.057450 0.500000
Si Si7 0.163391 0.593566 0.602807
Si Si8 0.671410 0.208949 0.404617
O O1 0.500000 0.099103 0.640696
O O2 0.281877 0.086362 0.750046
O O3 0.243610 0.077806 0.584864
O O4 0.285275 0.163739 0.656097
O O5 0.500000 0.063571 0.853742
O O6 0.243591 0.077435 0.914640
O O7 0.294790 0.000000 0.815878
O O8 0.000000 0.922571 0.000000
O O9 0.170920 0.000000 0.000000
O O10 0.659407 0.685010 0.500000
O O11 0.500000 0.676533 0.638507
O O12 0.765605 0.643176 0.639134
O O13 0.725138 0.738710 0.632718
O O14 0.500000 0.500000 0.638344
O O15 0.336404 0.500000 0.500000
O O16 0.254027 0.547682 0.637992
O O17 0.000000 0.072971 0.500000
O O18 0.186727 0.000000 0.500000
O O19 0.164698 0.593724 0.500000
O O20 0.000000 0.589816 0.638115
O O21 0.737048 0.199036 0.500000
O O22 0.500000 0.213316 0.413119
#
# Coordination Sequence:
#
# PCOD8194189 Si02
#       8
#     8   8   4   8   4   4   8   8
#     4  10  18  30  47  61  74  96 127 155 183 218
#     4   9  17  28  43  63  81  95 116 149 183 216
#     4   9  17  29  45  61  77  99 119 137 171 220
#     4   8  13  21  33  45  58  78 105 134 166 202
#     4   9  15  21  29  39  53  73  97 125 163 210
#     4  11  23  33  39  53  79 105 125 150 183 218
#     4   9  15  21  28  40  57  75  97 128 166 205
#     4   8  13  23  39  55  68  86 115 150 178 205
#
# _framework density 13.229602999999999
#
# number of rings (size 3 to 8) (size 9 to 14) (size 15 to 20)
#    0.000    3.000    0.769    2.538    0.000    5.538 
#    0.000    2.308    0.000    0.000    0.000    0.000 
#    0.000    0.000    0.000    0.000    0.000    0.000 
#
# Total GULP energy -644503.225057 kJ/mol
# GULP energy per Si atom -12394.292790 kJ/mol
# Density = 1.319949 g / cm^3
# Si number density = 13.229603 Si / 1000 Ang^3
#
#
#
# Elastic Constant Matrix: (Units=GPa)
#
#
# Indices 1 2 3 4 5 6 
#
# 1 76.6241 47.9303 35.1627 0.0000 0.0000 0.0000
# 2 47.9303 108.3136 40.2516 0.0000 0.0000 0.0000
# 3 35.1627 40.2516 65.3812 0.0000 0.0000 0.0000
# 4 0.0000 0.0000 0.0000 2.8146 0.0000 0.0000
# 5 0.0000 0.0000 0.0000 0.0000 6.6488 0.0000
# 6 0.0000 0.0000 0.0000 0.0000 0.0000 12.5285
#
#
#
# Elastic Compliance Matrix: (Units=1/GPa)
#
#
# Indices 1 2 3 4 5 6 
#
# 1 0.020225 -0.006364 -0.006960 0.000000 0.000000 0.000000
# 2 -0.006364 0.013974 -0.005180 0.000000 0.000000 0.000000
# 3 -0.006960 -0.005180 0.022227 0.000000 0.000000 0.000000
# 4 0.000000 0.000000 0.000000 0.355284 0.000000 0.000000
# 5 0.000000 0.000000 0.000000 0.000000 0.150403 0.000000
# 6 0.000000 0.000000 0.000000 0.000000 0.000000 0.079818
#
#
# Mechanical properties :
#
#
# Convention : Reuss Voigt Hill
#
# Bulk Modulus (GPa) = 51.49659 55.22311 53.35985
# Shear Modulus (GPa) = 7.29489 12.86333 10.07911
#
# Velocity S-wave (km/s) = 2.35075 3.12158 2.76318
# Velocity P-wave (km/s) = 6.81013 7.40439 7.11347
#
# Compressibility (1/GPa) = 0.01941876
#
# Stress axis : x y z
#
# Youngs Moduli (GPa) = 49.44371 71.56379 44.99012
#
# Poissons Ratio (x) = 0.45540 0.31311
# Poissons Ratio (y) = 0.31464 0.23307
# Poissons Ratio (z) = 0.34411 0.37073
#
# Static dielectric constant tensor:
#      x y z
#    x 2.679540 0.000000 0.000000 
#    y 0.000000 2.895720 0.000000 
#    z 0.000000 0.000000 2.283380 
# 
# 
# High freq. dielectric constant tensor:
#      x y z
#    x 1.501460 0.000000 0.000000 
#    y 0.000000 1.505430 0.000000 
#    z 0.000000 0.000000 1.437820 
# 
# From -- ./inp_files/22040.got.cif
#   From: 2010.03.12/outbox.cif.g09.slc.cpg/sg47_12_cif.got.tgz:22040.got - 2010.04.14 03:12:58.
