data_PCOD8194405
_publ_section_title
;
Structure prediction by ZEFSAII (Michael W. Deem and Ramdas Pophale) SiO2 
 PCOD8194405
Probable space group: P M M M
;
_chemical_formula_sum "Si O2"
_cell_formula_units_Z 56
_cell_length_a 9.301146
_cell_length_b 16.309101
_cell_length_c 22.992349
_cell_angle_alpha 90.000000
_cell_angle_beta 90.000000
_cell_angle_gamma 90.000000
_cell_volume 3487.785974
_symmetry_space_group_name_H-M "P M M M"
_symmetry_group_IT_number 47
_symmetry_cell_setting 'orthorhombic'
loop_
_space_group_symop_operation_xyz
x,y,z
-x,-y,z
x,-y,-z
-x,y,-z
-x,-y,-z
x,y,-z
-x,y,z
x,-y,z
loop_
_atom_site_type_symbol
_atom_site_label
_atom_site_fract_x
_atom_site_fract_y
_atom_site_fract_z
Si Si1 0.333026 0.329419 0.932449
Si Si2 0.333502 0.094605 0.778096
Si Si3 0.834525 0.500000 0.240818
Si Si4 0.332399 0.189354 0.338269
Si Si5 0.167831 0.229425 0.159794
Si Si6 0.164787 0.323249 0.276828
Si Si7 0.835048 0.093619 0.432649
Si Si8 0.668584 0.500000 0.878550
O O1 0.500000 0.316079 0.917241
O O2 0.239856 0.262673 0.898543
O O3 0.283114 0.420658 0.914960
O O4 0.302240 0.316422 0.000000
O O5 0.500000 0.109486 0.793137
O O6 0.298420 0.125986 0.713404
O O7 0.237329 0.141832 0.825036
O O8 0.290742 0.000000 0.781204
O O9 0.801166 0.579930 0.279843
O O10 0.739838 0.500000 0.183879
O O11 0.000000 0.500000 0.220379
O O12 0.500000 0.202206 0.348466
O O13 0.264362 0.277694 0.323506
O O14 0.264891 0.154685 0.396968
O O15 0.199735 0.293245 0.211583
O O16 0.000000 0.216795 0.148734
O O17 0.000000 0.303883 0.292635
O O18 0.815024 0.115581 0.500000
O O19 0.000000 0.105960 0.413699
O O20 0.787677 0.000000 0.420956
O O21 0.500000 0.500000 0.867977
#
# Coordination Sequence:
#
# PCOD8194405 Si02
#       8
#     8   8   4   8   8   8   8   4
#     4  10  20  33  48  67  93 125 158 190 229 282
#     4   9  18  32  49  69  95 125 155 190 234 283
#     4  10  18  31  49  69  97 127 158 195 236 280
#     4  10  19  30  47  72 101 128 160 199 235 275
#     4  10  19  31  48  69  93 120 153 194 237 280
#     4   9  18  31  47  67  94 128 160 193 235 283
#     4   9  18  32  49  70  99 135 169 198 232 277
#     4  10  19  30  48  70  94 123 157 193 230 275
#
# _framework density 16.056031000000001
#
# number of rings (size 3 to 8) (size 9 to 14) (size 15 to 20)
#    0.000    2.429    1.429    1.929    0.000    4.286 
#    0.000    0.714    0.000    1.714    0.000    3.500 
#    0.000    4.000    0.000    0.000    0.000    0.000 
#
# Total GULP energy -694547.767525 kJ/mol
# GULP energy per Si atom -12402.638706 kJ/mol
# Density = 1.601949 g / cm^3
# Si number density = 16.056031 Si / 1000 Ang^3
#
#
#
# Elastic Constant Matrix: (Units=GPa)
#
#
# Indices 1 2 3 4 5 6 
#
# 1 73.7240 53.1933 48.9139 0.0000 0.0000 0.0000
# 2 53.1933 118.4412 49.2260 0.0000 0.0000 0.0000
# 3 48.9139 49.2260 76.6225 0.0000 0.0000 0.0000
# 4 0.0000 0.0000 0.0000 26.1779 0.0000 0.0000
# 5 0.0000 0.0000 0.0000 0.0000 28.8651 0.0000
# 6 0.0000 0.0000 0.0000 0.0000 0.0000 20.7518
#
#
#
# Elastic Compliance Matrix: (Units=1/GPa)
#
#
# Indices 1 2 3 4 5 6 
#
# 1 0.026998 -0.006770 -0.012886 0.000000 0.000000 0.000000
# 2 -0.006770 0.013216 -0.004169 0.000000 0.000000 0.000000
# 3 -0.012886 -0.004169 0.023955 0.000000 0.000000 0.000000
# 4 0.000000 0.000000 0.000000 0.038200 0.000000 0.000000
# 5 0.000000 0.000000 0.000000 0.000000 0.034644 0.000000
# 6 0.000000 0.000000 0.000000 0.000000 0.000000 0.048189
#
#
# Mechanical properties :
#
#
# Convention : Reuss Voigt Hill
#
# Bulk Modulus (GPa) = 60.53070 63.49489 62.01280
# Shear Modulus (GPa) = 20.97694 22.98926 21.98310
#
# Velocity S-wave (km/s) = 3.61845 3.78804 3.70422
# Velocity P-wave (km/s) = 7.43230 7.66577 7.54994
#
# Compressibility (1/GPa) = 0.01652054
#
# Stress axis : x y z
#
# Youngs Moduli (GPa) = 37.04025 75.66570 41.74449
#
# Poissons Ratio (x) = 0.51222 0.53790
# Poissons Ratio (y) = 0.25075 0.17404
# Poissons Ratio (z) = 0.47728 0.31546
#
# Static dielectric constant tensor:
#      x y z
#    x 3.050740 0.000000 0.000000 
#    y 0.000000 3.086780 0.000000 
#    z 0.000000 0.000000 2.811480 
# 
# 
# High freq. dielectric constant tensor:
#      x y z
#    x 1.622520 0.000000 0.000000 
#    y 0.000000 1.613750 0.000000 
#    z 0.000000 0.000000 1.593140 
# 
# From -- ./inp_files/25188.got.cif
#   From: 2010.03.12/outbox.cif.g09.slc.cpg/sg47_13_cif.got.tgz:25188.got - 2010.04.14 03:12:58.
