data_PCOD8194006
_publ_section_title
;
Structure prediction by ZEFSAII (Michael W. Deem and Ramdas Pophale) SiO2 
 PCOD8194006
Probable space group: P M M M
;
_chemical_formula_sum "Si O2"
_cell_formula_units_Z 48
_cell_length_a 21.777539
_cell_length_b 11.630747
_cell_length_c 12.680082
_cell_angle_alpha 90.000000
_cell_angle_beta 90.000000
_cell_angle_gamma 90.000000
_cell_volume 3211.725878
_symmetry_space_group_name_H-M "P M M M"
_symmetry_group_IT_number 47
_symmetry_cell_setting 'orthorhombic'
loop_
_space_group_symop_operation_xyz
x,y,z
-x,-y,z
x,-y,-z
-x,y,-z
-x,-y,-z
x,y,-z
-x,y,z
x,-y,z
loop_
_atom_site_type_symbol
_atom_site_label
_atom_site_fract_x
_atom_site_fract_y
_atom_site_fract_z
Si Si1 0.430234 0.000000 0.761655
Si Si2 0.250477 0.759934 0.624128
Si Si3 0.638160 0.365022 0.295763
Si Si4 0.868527 0.370707 0.625504
Si Si5 0.000000 0.635937 0.615037
Si Si6 0.429692 0.235167 0.879876
Si Si7 0.690780 0.000000 0.377021
Si Si8 0.568823 0.362737 0.500000
O O1 0.420731 0.107924 0.836734
O O2 0.500000 0.000000 0.712645
O O3 0.376903 0.000000 0.674094
O O4 0.260249 0.737498 0.500000
O O5 0.292195 0.674094 0.691603
O O6 0.181423 0.725482 0.658692
O O7 0.267874 0.890251 0.655604
O O8 0.634079 0.500000 0.297708
O O9 0.611077 0.323267 0.185828
O O10 0.600562 0.312102 0.395077
O O11 0.874842 0.375063 0.500000
O O12 0.850487 0.500000 0.665164
O O13 0.935432 0.331252 0.673277
O O14 0.000000 0.500000 0.600856
O O15 0.000000 0.695746 0.500000
O O16 0.500000 0.275159 0.871216
O O17 0.406702 0.238677 0.000000
O O18 0.677333 0.000000 0.500000
O O19 0.571601 0.500000 0.500000
O O20 0.500000 0.315896 0.500000
#
# Coordination Sequence:
#
# PCOD8194006 Si02
#       8
#     4   8   8   8   4   8   4   4
#     4  10  19  35  54  67  80 106 149 192 229 267
#     4  10  18  29  43  61  88 118 148 181 220 266
#     4  11  20  30  46  66  89 116 145 177 220 274
#     4   8  13  21  37  59  84 115 149 182 213 246
#     4   7  10  18  32  55  83 111 148 186 210 234
#     4  10  21  36  52  67  83 108 145 187 228 270
#     4  10  20  32  45  65  90 115 144 183 229 273
#     4   9  18  30  42  59  85 114 142 172 210 263
#
# _framework density 14.945236
#
# number of rings (size 3 to 8) (size 9 to 14) (size 15 to 20)
#    0.000    2.500    2.500    2.250    0.000    3.167 
#    0.000    0.833    0.000    0.500    0.000    3.500 
#    0.000    0.000    0.000    0.750    0.000   10.583 
#
# Total GULP energy -594817.354662 kJ/mol
# GULP energy per Si atom -12392.028222 kJ/mol
# Density = 1.491122 g / cm^3
# Si number density = 14.945236 Si / 1000 Ang^3
#
#
#
# Elastic Constant Matrix: (Units=GPa)
#
#
# Indices 1 2 3 4 5 6 
#
# 1 136.6561 51.3628 39.8997 0.0000 0.0000 0.0000
# 2 51.3628 69.4729 26.9955 0.0000 0.0000 0.0000
# 3 39.8997 26.9955 53.5176 0.0000 0.0000 0.0000
# 4 0.0000 0.0000 0.0000 13.4159 0.0000 0.0000
# 5 0.0000 0.0000 0.0000 0.0000 7.9339 0.0000
# 6 0.0000 0.0000 0.0000 0.0000 0.0000 17.0005
#
#
#
# Elastic Compliance Matrix: (Units=1/GPa)
#
#
# Indices 1 2 3 4 5 6 
#
# 1 0.011181 -0.006253 -0.005182 0.000000 0.000000 0.000000
# 2 -0.006253 0.021400 -0.006133 0.000000 0.000000 0.000000
# 3 -0.005182 -0.006133 0.025642 0.000000 0.000000 0.000000
# 4 0.000000 0.000000 0.000000 0.074538 0.000000 0.000000
# 5 0.000000 0.000000 0.000000 0.000000 0.126042 0.000000
# 6 0.000000 0.000000 0.000000 0.000000 0.000000 0.058822
#
#
# Mechanical properties :
#
#
# Convention : Reuss Voigt Hill
#
# Bulk Modulus (GPa) = 43.31220 55.12918 49.22069
# Shear Modulus (GPa) = 13.87134 17.09597 15.48366
#
# Velocity S-wave (km/s) = 3.04985 3.38584 3.22223
# Velocity P-wave (km/s) = 6.43783 7.22861 6.84465
#
# Compressibility (1/GPa) = 0.02308818
#
# Stress axis : x y z
#
# Youngs Moduli (GPa) = 89.44060 46.72910 38.99808
#
# Poissons Ratio (x) = 0.29218 0.20208
# Poissons Ratio (y) = 0.55923 0.23918
# Poissons Ratio (z) = 0.46345 0.28659
#
# Static dielectric constant tensor:
#      x y z
#    x 3.189110 0.000000 0.000000 
#    y 0.000000 2.829700 0.000000 
#    z 0.000000 0.000000 2.606430 
# 
# 
# High freq. dielectric constant tensor:
#      x y z
#    x 1.573280 0.000000 0.000000 
#    y 0.000000 1.565290 0.000000 
#    z 0.000000 0.000000 1.523710 
# 
# From -- ./inp_files/19135.got.cif
#   From: 2010.03.12/outbox.cif.g09.slc.cpg/sg47_10_cif.got.tgz:19135.got - 2010.04.14 03:12:58.
