data_PCOD8194397
_publ_section_title
;
Structure prediction by ZEFSAII (Michael W. Deem and Ramdas Pophale) SiO2 
 PCOD8194397
Probable space group: P M M M
;
_chemical_formula_sum "Si O2"
_cell_formula_units_Z 40
_cell_length_a 19.369814
_cell_length_b 8.863429
_cell_length_c 12.816814
_cell_angle_alpha 90.000000
_cell_angle_beta 90.000000
_cell_angle_gamma 90.000000
_cell_volume 2200.428708
_symmetry_space_group_name_H-M "P M M M"
_symmetry_group_IT_number 47
_symmetry_cell_setting 'orthorhombic'
loop_
_space_group_symop_operation_xyz
x,y,z
-x,-y,z
x,-y,-z
-x,y,-z
-x,-y,-z
x,y,-z
-x,y,z
x,-y,z
loop_
_atom_site_type_symbol
_atom_site_label
_atom_site_fract_x
_atom_site_fract_y
_atom_site_fract_z
Si Si1 0.341262 0.320708 0.812588
Si Si2 0.922449 0.319108 0.724630
Si Si3 0.081624 0.664344 0.500000
Si Si4 0.581450 0.828291 0.000000
Si Si5 0.807947 0.320407 0.882220
Si Si6 0.577328 0.679256 0.615240
O O1 0.344764 0.500000 0.820472
O O2 0.263414 0.263130 0.831452
O O3 0.367774 0.260882 0.700171
O O4 0.391534 0.254698 0.898373
O O5 0.920421 0.500000 0.719239
O O6 0.898726 0.253942 0.609929
O O7 0.870898 0.256036 0.812815
O O8 0.000000 0.264614 0.752590
O O9 0.117747 0.500000 0.500000
O O10 0.000000 0.642442 0.500000
O O11 0.500000 0.817341 0.000000
O O12 0.607497 0.000000 0.000000
O O13 0.810069 0.500000 0.884067
O O14 0.814791 0.257203 0.000000
O O15 0.599407 0.737462 0.500000
O O16 0.500000 0.737901 0.641992
O O17 0.576772 0.500000 0.616132
#
# Coordination Sequence:
#
# PCOD8194397 Si02
#       6
#     8   8   4   4   8   8
#     4  10  18  31  49  68  94 125 152 186 233 280
#     4   8  13  21  33  50  76 112 149 182 219 262
#     4   7  10  18  30  44  68 106 148 181 212 260
#     4  11  23  35  49  71  94 117 154 198 229 265
#     4   9  16  25  36  54  82 113 148 186 217 258
#     4   8  14  25  42  65  90 114 144 182 222 270
#
# _framework density 18.178274999999999
#
# number of rings (size 3 to 8) (size 9 to 14) (size 15 to 20)
#    0.000    3.200    1.000    2.700    0.000    2.000 
#    1.800    2.000    0.000    0.600    0.000    2.800 
#    0.000    1.600    0.000    0.000    0.000    5.600 
#
# Total GULP energy -495577.786375 kJ/mol
# GULP energy per Si atom -12389.444659 kJ/mol
# Density = 1.813690 g / cm^3
# Si number density = 18.178275 Si / 1000 Ang^3
#
#
#
# Elastic Constant Matrix: (Units=GPa)
#
#
# Indices 1 2 3 4 5 6 
#
# 1 119.5031 8.2167 101.7954 0.0000 0.0000 0.0000
# 2 8.2167 7.1969 9.3443 0.0000 0.0000 0.0000
# 3 101.7954 9.3443 200.0492 0.0000 0.0000 0.0000
# 4 0.0000 0.0000 0.0000 -1.8219 0.0000 0.0000
# 5 0.0000 0.0000 0.0000 0.0000 32.3929 0.0000
# 6 0.0000 0.0000 0.0000 0.0000 0.0000 4.0556
#
#
#
# Elastic Compliance Matrix: (Units=1/GPa)
#
#
# Indices 1 2 3 4 5 6 
#
# 1 0.015167 -0.007767 -0.007355 0.000000 0.000000 0.000000
# 2 -0.007767 0.151896 -0.003143 0.000000 0.000000 0.000000
# 3 -0.007355 -0.003143 0.008888 0.000000 0.000000 0.000000
# 4 0.000000 0.000000 0.000000 -0.548875 0.000000 0.000000
# 5 0.000000 0.000000 0.000000 0.000000 0.030871 0.000000
# 6 0.000000 0.000000 0.000000 0.000000 0.000000 0.246570
#
#
# Mechanical properties :
#
#
# Convention : Reuss Voigt Hill
#
# Bulk Modulus (GPa) = 7.17247 62.82912 35.00079
# Shear Modulus (GPa) = -400.67682 20.75151 -189.96266
#
# Velocity S-wave (km/s) = -14.86249 3.38236 -10.23361
# Velocity P-wave (km/s) = 17.04614 7.06340 10.96994
#
# Compressibility (1/GPa) = 0.13942206
#
# Stress axis : x y z
#
# Youngs Moduli (GPa) = 65.93156 6.58344 112.50839
#
# Poissons Ratio (x) = 0.05113 0.82751
# Poissons Ratio (y) = 0.51208 0.35360
# Poissons Ratio (z) = 0.48493 0.02069
#
# Static dielectric constant tensor:
#      x y z
#    x 3.452110 0.000000 0.000000 
#    y 0.000000 2.606600 0.000000 
#    z 0.000000 0.000000 1.221790 
# 
# 
# High freq. dielectric constant tensor:
#      x y z
#    x 1.697400 0.000000 0.000000 
#    y 0.000000 1.619340 0.000000 
#    z 0.000000 0.000000 1.725800 
# 
# From -- ./inp_files/18928.got.cif
#   From: 2010.03.12/outbox.cif.g09.slc.cpg/sg47_10_cif.got.tgz:18928.got - 2010.04.14 03:12:58.
