data_PCOD8194398
_publ_section_title
;
Structure prediction by ZEFSAII (Michael W. Deem and Ramdas Pophale) SiO2 
 PCOD8194398
Probable space group: P M M M
;
_chemical_formula_sum "Si O2"
_cell_formula_units_Z 60
_cell_length_a 8.841555
_cell_length_b 19.029793
_cell_length_c 21.260451
_cell_angle_alpha 90.000000
_cell_angle_beta 90.000000
_cell_angle_gamma 90.000000
_cell_volume 3577.133842
_symmetry_space_group_name_H-M "P M M M"
_symmetry_group_IT_number 47
_symmetry_cell_setting 'orthorhombic'
loop_
_space_group_symop_operation_xyz
x,y,z
-x,-y,z
x,-y,-z
-x,y,-z
-x,-y,-z
x,y,-z
-x,y,z
x,-y,z
loop_
_atom_site_type_symbol
_atom_site_label
_atom_site_fract_x
_atom_site_fract_y
_atom_site_fract_z
Si Si1 0.821371 0.289361 0.930923
Si Si2 0.178878 0.284432 0.313422
Si Si3 0.320379 0.920523 0.500000
Si Si4 0.176932 0.790151 0.187109
Si Si5 0.175780 0.920636 0.260889
Si Si6 0.678631 0.844074 0.374516
Si Si7 0.826908 0.421511 0.853650
Si Si8 0.322742 0.579074 0.278246
O O1 0.751463 0.234867 0.879390
O O2 0.781180 0.368319 0.908979
O O3 0.000000 0.279484 0.936160
O O4 0.748523 0.276169 0.000000
O O5 0.236640 0.256507 0.245427
O O6 0.245830 0.232513 0.366368
O O7 0.239858 0.363804 0.322657
O O8 0.000000 0.283548 0.319762
O O9 0.500000 0.924816 0.500000
O O10 0.262381 0.878204 0.560814
O O11 0.253803 0.000000 0.500000
O O12 0.215034 0.871863 0.200520
O O13 0.000000 0.776594 0.182337
O O14 0.275318 0.897981 0.319845
O O15 0.000000 0.910822 0.279368
O O16 0.214510 0.000000 0.241617
O O17 0.500000 0.834250 0.374248
O O18 0.805118 0.500000 0.880465
O O19 0.722198 0.408093 0.793825
O O20 0.000000 0.408393 0.831855
O O21 0.500000 0.589848 0.285363
O O22 0.274774 0.500000 0.299037
#
# Coordination Sequence:
#
# PCOD8194398 Si02
#       8
#     8   8   4   8   8   8   8   8
#     4   9  15  23  38  60  83 111 151 195 237 282
#     4  10  18  31  49  68  94 125 158 195 236 279
#     4   9  18  32  49  71 104 141 166 187 221 266
#     4   8  14  25  40  59  83 111 143 187 238 280
#     4   9  17  29  45  65  90 120 154 193 238 281
#     4  10  19  31  49  73  99 128 161 193 225 266
#     4   9  16  26  40  59  84 115 150 189 236 285
#     4  10  19  29  44  68  95 122 154 195 240 283
#
# _framework density 16.773205000000001
#
# number of rings (size 3 to 8) (size 9 to 14) (size 15 to 20)
#    0.000    2.733    1.333    2.400    0.000    1.867 
#    0.000    2.667    0.000    3.200    0.000    5.133 
#    0.000    3.733    0.000    3.467    0.000    4.533 
#
# Total GULP energy -743658.658283 kJ/mol
# GULP energy per Si atom -12394.310971 kJ/mol
# Density = 1.673503 g / cm^3
# Si number density = 16.773205 Si / 1000 Ang^3
#
#
#
# Elastic Constant Matrix: (Units=GPa)
#
#
# Indices 1 2 3 4 5 6 
#
# 1 43.0706 36.0400 21.3291 0.0000 0.0000 0.0000
# 2 36.0400 152.4850 72.4415 0.0000 0.0000 0.0000
# 3 21.3291 72.4415 103.0221 0.0000 0.0000 0.0000
# 4 0.0000 0.0000 0.0000 25.2600 0.0000 0.0000
# 5 0.0000 0.0000 0.0000 0.0000 14.5390 0.0000
# 6 0.0000 0.0000 0.0000 0.0000 0.0000 21.8735
#
#
#
# Elastic Compliance Matrix: (Units=1/GPa)
#
#
# Indices 1 2 3 4 5 6 
#
# 1 0.029159 -0.006042 -0.001788 0.000000 0.000000 0.000000
# 2 -0.006042 0.011100 -0.006554 0.000000 0.000000 0.000000
# 3 -0.001788 -0.006554 0.014685 0.000000 0.000000 0.000000
# 4 0.000000 0.000000 0.000000 0.039588 0.000000 0.000000
# 5 0.000000 0.000000 0.000000 0.000000 0.068780 0.000000
# 6 0.000000 0.000000 0.000000 0.000000 0.000000 0.045717
#
#
# Mechanical properties :
#
#
# Convention : Reuss Voigt Hill
#
# Bulk Modulus (GPa) = 38.20388 62.02211 50.11300
# Shear Modulus (GPa) = 20.28194 23.58563 21.93379
#
# Velocity S-wave (km/s) = 3.48111 3.75393 3.62009
# Velocity P-wave (km/s) = 6.24369 7.47305 6.88586
#
# Compressibility (1/GPa) = 0.02617535
#
# Stress axis : x y z
#
# Youngs Moduli (GPa) = 34.29448 90.09215 68.09473
#
# Poissons Ratio (x) = 0.54436 0.12177
# Poissons Ratio (y) = 0.20722 0.44629
# Poissons Ratio (z) = 0.06133 0.59046
#
# Static dielectric constant tensor:
#      x y z
#    x 2.891050 0.000000 0.000000 
#    y 0.000000 3.439480 0.000000 
#    z 0.000000 0.000000 3.122940 
# 
# 
# High freq. dielectric constant tensor:
#      x y z
#    x 1.620230 0.000000 0.000000 
#    y 0.000000 1.657320 0.000000 
#    z 0.000000 0.000000 1.612270 
# 
# From -- ./inp_files/29942.got.cif
#   From: 2010.03.12/outbox.cif.g09.slc.cpg/sg47_15_cif.got.tgz:29942.got - 2010.04.14 03:12:58.
