data_PCOD8194123
_publ_section_title
;
Structure prediction by ZEFSAII (Michael W. Deem and Ramdas Pophale) SiO2 
 PCOD8194123
Probable space group: P M M M
;
_chemical_formula_sum "Si O2"
_cell_formula_units_Z 52
_cell_length_a 9.486635
_cell_length_b 12.620227
_cell_length_c 26.005779
_cell_angle_alpha 90.000000
_cell_angle_beta 90.000000
_cell_angle_gamma 90.000000
_cell_volume 3113.502548
_symmetry_space_group_name_H-M "P M M M"
_symmetry_group_IT_number 47
_symmetry_cell_setting 'orthorhombic'
loop_
_space_group_symop_operation_xyz
x,y,z
-x,-y,z
x,-y,-z
-x,y,-z
-x,-y,-z
x,y,-z
-x,y,z
x,-y,z
loop_
_atom_site_type_symbol
_atom_site_label
_atom_site_fract_x
_atom_site_fract_y
_atom_site_fract_z
Si Si1 0.337470 0.377250 0.880539
Si Si2 0.835125 0.794969 0.706862
Si Si3 0.662908 0.377556 0.763229
Si Si4 0.167780 0.000000 0.766712
Si Si5 0.340481 0.126088 0.500000
Si Si6 0.161475 0.877095 0.404111
Si Si7 0.835074 0.791649 0.940261
Si Si8 0.832386 0.000000 0.117005
O O1 0.500000 0.348850 0.890217
O O2 0.309507 0.500000 0.892203
O O3 0.295562 0.350501 0.821893
O O4 0.242138 0.311456 0.919225
O O5 0.756702 0.689733 0.724496
O O6 0.804628 0.810417 0.646691
O O7 0.000000 0.780925 0.717784
O O8 0.774630 0.895578 0.738212
O O9 0.500000 0.350801 0.753693
O O10 0.693465 0.500000 0.751561
O O11 0.224980 0.000000 0.824858
O O12 0.000000 0.000000 0.764269
O O13 0.500000 0.169442 0.500000
O O14 0.260825 0.167745 0.550739
O O15 0.336103 0.000000 0.500000
O O16 0.000000 0.862267 0.421528
O O17 0.191858 0.000000 0.391980
O O18 0.775403 0.895687 0.911655
O O19 0.000000 0.776827 0.929801
O O20 0.801696 0.805125 0.000000
O O21 0.000000 0.000000 0.115542
#
# Coordination Sequence:
#
# PCOD8194123 Si02
#       8
#     8   8   8   4   4   8   8   4
#     4   9  19  36  54  70  92 123 157 193 238 291
#     4  10  18  29  48  74 101 127 159 198 237 283
#     4   9  19  35  51  68  94 127 160 196 239 285
#     4   9  16  27  45  71  99 124 153 190 233 280
#     4   9  17  27  41  63  92 129 172 209 235 271
#     4   9  16  28  44  65  97 133 163 194 238 285
#     4  10  20  33  50  73  97 121 154 195 237 282
#     4   9  17  30  48  68  95 129 156 184 229 282
#
# _framework density 16.701447999999999
#
# number of rings (size 3 to 8) (size 9 to 14) (size 15 to 20)
#    0.000    2.692    0.769    2.308    0.000    5.538 
#    0.000    3.846    0.000    3.692    0.000    0.538 
#    0.000    4.308    0.000    0.000    0.000    0.000 
#
# Total GULP energy -644850.376329 kJ/mol
# GULP energy per Si atom -12400.968776 kJ/mol
# Density = 1.666344 g / cm^3
# Si number density = 16.701448 Si / 1000 Ang^3
#
#
#
# Elastic Constant Matrix: (Units=GPa)
#
#
# Indices 1 2 3 4 5 6 
#
# 1 63.2194 42.0047 58.7425 0.0000 0.0000 0.0000
# 2 42.0047 78.4296 54.7052 0.0000 0.0000 0.0000
# 3 58.7425 54.7052 118.4243 0.0000 0.0000 0.0000
# 4 0.0000 0.0000 0.0000 18.2332 0.0000 0.0000
# 5 0.0000 0.0000 0.0000 0.0000 26.7728 0.0000
# 6 0.0000 0.0000 0.0000 0.0000 0.0000 19.3919
#
#
#
# Elastic Compliance Matrix: (Units=1/GPa)
#
#
# Indices 1 2 3 4 5 6 
#
# 1 0.033420 -0.009348 -0.012259 0.000000 0.000000 0.000000
# 2 -0.009348 0.021426 -0.005261 0.000000 0.000000 0.000000
# 3 -0.012259 -0.005261 0.016955 0.000000 0.000000 0.000000
# 4 0.000000 0.000000 0.000000 0.054845 0.000000 0.000000
# 5 0.000000 0.000000 0.000000 0.000000 0.037351 0.000000
# 6 0.000000 0.000000 0.000000 0.000000 0.000000 0.051568
#
#
# Mechanical properties :
#
#
# Convention : Reuss Voigt Hill
#
# Bulk Modulus (GPa) = 55.35348 63.44201 59.39775
# Shear Modulus (GPa) = 18.16042 19.85430 19.00736
#
# Velocity S-wave (km/s) = 3.30109 3.45160 3.37718
# Velocity P-wave (km/s) = 6.90973 7.34528 7.13083
#
# Compressibility (1/GPa) = 0.01806571
#
# Stress axis : x y z
#
# Youngs Moduli (GPa) = 29.92208 46.67177 58.97809
#
# Poissons Ratio (x) = 0.43628 0.72303
# Poissons Ratio (y) = 0.27971 0.31027
# Poissons Ratio (z) = 0.36682 0.24553
#
# Static dielectric constant tensor:
#      x y z
#    x 2.951810 0.000000 0.000000 
#    y 0.000000 2.961300 0.000000 
#    z 0.000000 0.000000 3.179160 
# 
# 
# High freq. dielectric constant tensor:
#      x y z
#    x 1.626300 0.000000 0.000000 
#    y 0.000000 1.626010 0.000000 
#    z 0.000000 0.000000 1.649100 
# 
# From -- ./inp_files/15536.got.cif
#   From: 2010.03.12/outbox.cif.g09.slc.cpg/sg47_8_cif.got.tgz:15536.got - 2010.04.14 03:12:58.
