data_PCOD8194333
_publ_section_title
;
Structure prediction by ZEFSAII (Michael W. Deem and Ramdas Pophale) SiO2 
 PCOD8194333
Probable space group: P M M M
;
_chemical_formula_sum "Si O2"
_cell_formula_units_Z 64
_cell_length_a 19.792122
_cell_length_b 20.017975
_cell_length_c 9.375901
_cell_angle_alpha 90.000000
_cell_angle_beta 90.000000
_cell_angle_gamma 90.000000
_cell_volume 3714.715131
_symmetry_space_group_name_H-M "P M M M"
_symmetry_group_IT_number 47
_symmetry_cell_setting 'orthorhombic'
loop_
_space_group_symop_operation_xyz
x,y,z
-x,-y,z
x,-y,-z
-x,y,-z
-x,-y,-z
x,y,-z
-x,y,z
x,-y,z
loop_
_atom_site_type_symbol
_atom_site_label
_atom_site_fract_x
_atom_site_fract_y
_atom_site_fract_z
Si Si1 0.924715 0.216721 0.166421
Si Si2 0.202911 0.742159 0.333900
Si Si3 0.114338 0.928146 0.835390
Si Si4 0.575286 0.425051 0.830826
Si Si5 0.611716 0.925520 0.334106
Si Si6 0.761116 0.106396 0.337508
Si Si7 0.675118 0.310725 0.170154
Si Si8 0.425883 0.803676 0.160765
O O1 0.871320 0.258403 0.260647
O O2 0.926828 0.137876 0.212028
O O3 0.000000 0.244991 0.195821
O O4 0.905467 0.224499 0.000000
O O5 0.195551 0.721848 0.500000
O O6 0.235419 0.814467 0.314405
O O7 0.253039 0.690968 0.252321
O O8 0.184847 0.932169 0.755209
O O9 0.076448 0.000000 0.806696
O O10 0.131541 0.920985 0.000000
O O11 0.500000 0.406108 0.772931
O O12 0.594135 0.500000 0.780922
O O13 0.633557 0.375380 0.775053
O O14 0.573158 0.420597 0.000000
O O15 0.604272 0.909152 0.500000
O O16 0.689134 0.919604 0.285784
O O17 0.568663 0.871327 0.250554
O O18 0.585001 0.000000 0.299578
O O19 0.775140 0.086908 0.500000
O O20 0.630266 0.247314 0.218352
O O21 0.687600 0.311952 0.000000
O O22 0.500000 0.769124 0.167879
O O23 0.407473 0.823667 0.000000
#
# Coordination Sequence:
#
# PCOD8194333 Si02
#       8
#     8   8   8   8   8   8   8   8
#     4   9  18  32  48  66  92 124 155 192 241 293
#     4  10  19  31  49  70  93 121 157 199 239 281
#     4   9  17  27  41  63  87 111 143 183 231 290
#     4   8  14  26  47  77 110 140 169 200 234 275
#     4  10  20  33  47  61  80 110 150 196 246 297
#     4   9  17  30  45  60  81 110 146 190 238 285
#     4  10  18  30  51  75  99 127 161 199 236 278
#     4  10  21  34  47  65  89 117 151 195 244 289
#
# _framework density 17.228777999999998
#
# number of rings (size 3 to 8) (size 9 to 14) (size 15 to 20)
#    0.000    2.625    1.250    1.500    0.000    4.500 
#    0.000    2.500    0.000    1.500    0.000    4.375 
#    0.000    0.500    0.000    5.750    0.000    1.625 
#
# Total GULP energy -793153.242697 kJ/mol
# GULP energy per Si atom -12393.019417 kJ/mol
# Density = 1.718956 g / cm^3
# Si number density = 17.228778 Si / 1000 Ang^3
#
#
#
# Elastic Constant Matrix: (Units=GPa)
#
#
# Indices 1 2 3 4 5 6 
#
# 1 108.1346 44.1049 42.6677 0.0000 0.0000 0.0000
# 2 44.1049 72.6230 28.2347 0.0000 0.0000 0.0000
# 3 42.6677 28.2347 48.5582 0.0000 0.0000 0.0000
# 4 0.0000 0.0000 0.0000 10.6960 0.0000 0.0000
# 5 0.0000 0.0000 0.0000 0.0000 16.8106 0.0000
# 6 0.0000 0.0000 0.0000 0.0000 0.0000 15.2199
#
#
#
# Elastic Compliance Matrix: (Units=1/GPa)
#
#
# Indices 1 2 3 4 5 6 
#
# 1 0.015620 -0.005362 -0.010607 0.000000 0.000000 0.000000
# 2 -0.005362 0.019633 -0.006704 0.000000 0.000000 0.000000
# 3 -0.010607 -0.006704 0.033813 0.000000 0.000000 0.000000
# 4 0.000000 0.000000 0.000000 0.093493 0.000000 0.000000
# 5 0.000000 0.000000 0.000000 0.000000 0.059486 0.000000
# 6 0.000000 0.000000 0.000000 0.000000 0.000000 0.065703
#
#
# Mechanical properties :
#
#
# Convention : Reuss Voigt Hill
#
# Bulk Modulus (GPa) = 42.16144 51.03671 46.59907
# Shear Modulus (GPa) = 14.66268 16.16587 15.41428
#
# Velocity S-wave (km/s) = 2.92045 3.06650 2.99437
# Velocity P-wave (km/s) = 5.99139 6.49809 6.24987
#
# Compressibility (1/GPa) = 0.02371836
#
# Stress axis : x y z
#
# Youngs Moduli (GPa) = 64.01876 50.93536 29.57483
#
# Poissons Ratio (x) = 0.27314 0.31371
# Poissons Ratio (y) = 0.34330 0.19826
# Poissons Ratio (z) = 0.67908 0.34146
#
# Static dielectric constant tensor:
#      x y z
#    x 3.205660 0.000000 0.000000 
#    y 0.000000 3.095690 0.000000 
#    z 0.000000 0.000000 3.054980 
# 
# 
# High freq. dielectric constant tensor:
#      x y z
#    x 1.661600 0.000000 0.000000 
#    y 0.000000 1.630640 0.000000 
#    z 0.000000 0.000000 1.646930 
# 
# From -- ./inp_files/11642.got.cif
#   From: 2010.03.12/outbox.cif.g09.slc.cpg/sg47_6_cif.got.tgz:11642.got - 2010.04.14 03:12:58.
