data_PCOD8194252
_publ_section_title
;
Structure prediction by ZEFSAII (Michael W. Deem and Ramdas Pophale) SiO2 
 PCOD8194252
Probable space group: P M M M
;
_chemical_formula_sum "Si O2"
_cell_formula_units_Z 52
_cell_length_a 9.219034
_cell_length_b 27.545472
_cell_length_c 11.983164
_cell_angle_alpha 90.000000
_cell_angle_beta 90.000000
_cell_angle_gamma 90.000000
_cell_volume 3043.036337
_symmetry_space_group_name_H-M "P M M M"
_symmetry_group_IT_number 47
_symmetry_cell_setting 'orthorhombic'
loop_
_space_group_symop_operation_xyz
x,y,z
-x,-y,z
x,-y,-z
-x,y,-z
-x,-y,-z
x,y,-z
-x,y,z
x,-y,z
loop_
_atom_site_type_symbol
_atom_site_label
_atom_site_fract_x
_atom_site_fract_y
_atom_site_fract_z
Si Si1 0.830433 0.054101 0.500000
Si Si2 0.836881 0.721688 0.367440
Si Si3 0.664448 0.083642 0.289554
Si Si4 0.663082 0.185301 0.371394
Si Si5 0.329070 0.000000 0.876235
Si Si6 0.664281 0.442350 0.000000
Si Si7 0.334308 0.628346 0.632405
Si Si8 0.168525 0.442799 0.218798
O O1 0.772490 0.077926 0.389977
O O2 0.000000 0.059481 0.500000
O O3 0.773056 0.000000 0.500000
O O4 0.837253 0.719914 0.500000
O O5 0.769526 0.772743 0.328143
O O6 0.740365 0.677415 0.321074
O O7 0.000000 0.717400 0.319859
O O8 0.500000 0.067711 0.319758
O O9 0.672062 0.142154 0.277763
O O10 0.719454 0.049958 0.186658
O O11 0.701182 0.168578 0.500000
O O12 0.500000 0.206232 0.372214
O O13 0.500000 0.000000 0.888964
O O14 0.257861 0.000000 0.000000
O O15 0.751031 0.423682 0.107900
O O16 0.660995 0.500000 0.000000
O O17 0.500000 0.421577 0.000000
O O18 0.327844 0.626257 0.500000
O O19 0.500000 0.626486 0.675043
O O20 0.244448 0.582406 0.676211
O O21 0.187734 0.500000 0.234622
O O22 0.000000 0.428346 0.211793
#
# Coordination Sequence:
#
# PCOD8194252 Si02
#       8
#     4   8   8   8   4   4   8   8
#     4  11  21  29  41  67 101 125 149 187 234 283
#     4   9  17  29  45  66  94 127 159 194 239 293
#     4  10  18  30  49  69  95 127 158 192 237 288
#     4   9  16  26  42  67  94 120 152 189 235 293
#     4   9  18  31  49  72  94 123 168 209 234 271
#     4   9  17  31  51  73  97 125 161 205 249 292
#     4  10  20  33  49  70  99 135 171 207 245 291
#     4  10  20  33  50  73 101 132 167 208 254 303
#
# _framework density 17.088194999999999
#
# number of rings (size 3 to 8) (size 9 to 14) (size 15 to 20)
#    0.000    2.385    1.538    1.846    0.000    5.846 
#    0.000    1.538    0.000    0.923    2.000    0.000 
#    0.000    0.000    0.000    0.000    0.000    0.000 
#
# Total GULP energy -644413.443866 kJ/mol
# GULP energy per Si atom -12392.566228 kJ/mol
# Density = 1.704930 g / cm^3
# Si number density = 17.088195 Si / 1000 Ang^3
#
#
#
# Elastic Constant Matrix: (Units=GPa)
#
#
# Indices 1 2 3 4 5 6 
#
# 1 15.3372 56.6464 -40.1326 0.0000 0.0000 0.0000
# 2 56.6464 87.4278 35.8171 0.0000 0.0000 0.0000
# 3 -40.1326 35.8171 6.1306 0.0000 0.0000 0.0000
# 4 0.0000 0.0000 0.0000 9.8069 0.0000 0.0000
# 5 0.0000 0.0000 0.0000 0.0000 6.2526 0.0000
# 6 0.0000 0.0000 0.0000 0.0000 0.0000 26.8398
#
#
#
# Elastic Compliance Matrix: (Units=1/GPa)
#
#
# Indices 1 2 3 4 5 6 
#
# 1 0.002231 0.005331 -0.016541 0.000000 0.000000 0.000000
# 2 0.005331 0.004530 0.008431 0.000000 0.000000 0.000000
# 3 -0.016541 0.008431 0.005579 0.000000 0.000000 0.000000
# 4 0.000000 0.000000 0.000000 0.101969 0.000000 0.000000
# 5 0.000000 0.000000 0.000000 0.000000 0.159933 0.000000
# 6 0.000000 0.000000 0.000000 0.000000 0.000000 0.037258
#
#
# Mechanical properties :
#
#
# Convention : Reuss Voigt Hill
#
# Bulk Modulus (GPa) = 147.42113 23.72859 85.57486
# Shear Modulus (GPa) = 15.65834 12.35085 14.00460
#
# Velocity S-wave (km/s) = 3.03037 2.69136 2.86588
# Velocity P-wave (km/s) = 9.93490 4.85530 7.81909
#
# Compressibility (1/GPa) = 0.00678329
#
# Stress axis : x y z
#
# Youngs Moduli (GPa) = 448.25204 220.75114 179.23231
#
# Poissons Ratio (x) = -1.17678 2.96459
# Poissons Ratio (y) = -2.38954 -1.51115
# Poissons Ratio (z) = 7.41432 -1.86121
#
# Static dielectric constant tensor:
#      x y z
#    x 3.313170 0.000000 0.000000 
#    y 0.000000 3.274010 0.000000 
#    z 0.000000 0.000000 2.953860 
# 
# 
# High freq. dielectric constant tensor:
#      x y z
#    x 1.665990 0.000000 0.000000 
#    y 0.000000 1.657990 0.000000 
#    z 0.000000 0.000000 1.612080 
# 
# From -- ./inp_files/15691.got.cif
#   From: 2010.03.12/outbox.cif.g09.slc.cpg/sg47_8_cif.got.tgz:15691.got - 2010.04.14 03:12:58.
