data_PCOD8194368
_publ_section_title
;
Structure prediction by ZEFSAII (Michael W. Deem and Ramdas Pophale) SiO2 
 PCOD8194368
Probable space group: P M M M
;
_chemical_formula_sum "Si O2"
_cell_formula_units_Z 64
_cell_length_a 9.118415
_cell_length_b 24.544669
_cell_length_c 15.298200
_cell_angle_alpha 90.000000
_cell_angle_beta 90.000000
_cell_angle_gamma 90.000000
_cell_volume 3423.866858
_symmetry_space_group_name_H-M "P M M M"
_symmetry_group_IT_number 47
_symmetry_cell_setting 'orthorhombic'
loop_
_space_group_symop_operation_xyz
x,y,z
-x,-y,z
x,-y,-z
-x,y,-z
-x,-y,-z
x,y,-z
-x,y,z
x,-y,z
loop_
_atom_site_type_symbol
_atom_site_label
_atom_site_fract_x
_atom_site_fract_y
_atom_site_fract_z
Si Si1 0.170663 0.141788 0.729789
Si Si2 0.168129 0.366031 0.402272
Si Si3 0.669967 0.166005 0.903278
Si Si4 0.833935 0.263616 0.700558
Si Si5 0.831979 0.393910 0.904041
Si Si6 0.330640 0.562332 0.260380
Si Si7 0.329753 0.288754 0.867042
Si Si8 0.331123 0.063406 0.400914
O O1 0.237516 0.136935 0.827363
O O2 0.205523 0.200258 0.684758
O O3 0.234780 0.096127 0.667386
O O4 0.000000 0.130932 0.739579
O O5 0.225663 0.377238 0.500000
O O6 0.180377 0.300638 0.385927
O O7 0.263692 0.400221 0.335246
O O8 0.000000 0.384744 0.391967
O O9 0.500000 0.156765 0.880687
O O10 0.706243 0.230075 0.907494
O O11 0.707799 0.141978 0.000000
O O12 0.717838 0.289928 0.766321
O O13 0.000000 0.267085 0.738642
O O14 0.745810 0.429092 0.832982
O O15 0.763970 0.333975 0.916334
O O16 0.000000 0.388895 0.873060
O O17 0.822060 0.422117 0.000000
O O18 0.500000 0.577880 0.249331
O O19 0.309589 0.500000 0.289037
O O20 0.500000 0.303429 0.875485
O O21 0.282229 0.077364 0.500000
O O22 0.500000 0.079388 0.387559
O O23 0.306657 0.000000 0.382068
#
# Coordination Sequence:
#
# PCOD8194368 Si02
#       8
#     8   8   8   8   8   8   8   8
#     4  10  20  32  52  84 118 150 185 229 278 328
#     4  10  21  38  61  85 110 144 183 221 266 326
#     4   9  18  32  50  75 111 154 194 229 267 317
#     4   9  18  33  52  78 115 151 181 215 264 324
#     4  11  23  37  56  82 110 141 177 218 268 330
#     4  11  25  43  61  81 106 137 177 230 282 327
#     4  10  18  30  52  80 110 143 181 223 267 315
#     4   9  19  37  59  81 108 146 192 238 281 329
#
# _framework density 18.692315000000001
#
# number of rings (size 3 to 8) (size 9 to 14) (size 15 to 20)
#    0.000    2.125    1.250    2.250    0.000    5.500 
#    0.000    4.375    0.000    0.375    0.000    2.625 
#    0.000    0.000    0.000    0.000    0.000    0.000 
#
# Total GULP energy -793424.935858 kJ/mol
# GULP energy per Si atom -12397.264623 kJ/mol
# Density = 1.864977 g / cm^3
# Si number density = 18.692315 Si / 1000 Ang^3
#
#
#
# Elastic Constant Matrix: (Units=GPa)
#
#
# Indices 1 2 3 4 5 6 
#
# 1 104.4189 41.8706 66.0129 0.0000 0.0000 0.0000
# 2 41.8706 66.1139 54.6972 0.0000 0.0000 0.0000
# 3 66.0129 54.6972 133.1708 0.0000 0.0000 0.0000
# 4 0.0000 0.0000 0.0000 8.4506 0.0000 0.0000
# 5 0.0000 0.0000 0.0000 0.0000 21.3390 0.0000
# 6 0.0000 0.0000 0.0000 0.0000 0.0000 28.3277
#
#
#
# Elastic Compliance Matrix: (Units=1/GPa)
#
#
# Indices 1 2 3 4 5 6 
#
# 1 0.014991 -0.005068 -0.005349 0.000000 0.000000 0.000000
# 2 -0.005068 0.024624 -0.007601 0.000000 0.000000 0.000000
# 3 -0.005349 -0.007601 0.013283 0.000000 0.000000 0.000000
# 4 0.000000 0.000000 0.000000 0.118335 0.000000 0.000000
# 5 0.000000 0.000000 0.000000 0.000000 0.046862 0.000000
# 6 0.000000 0.000000 0.000000 0.000000 0.000000 0.035301
#
#
# Mechanical properties :
#
#
# Convention : Reuss Voigt Hill
#
# Bulk Modulus (GPa) = 59.31286 69.87390 64.59338
# Shear Modulus (GPa) = 16.94600 21.03166 18.98883
#
# Velocity S-wave (km/s) = 3.01421 3.35796 3.19072
# Velocity P-wave (km/s) = 6.62676 7.24547 6.94301
#
# Compressibility (1/GPa) = 0.01685975
#
# Stress axis : x y z
#
# Youngs Moduli (GPa) = 66.70691 40.61074 75.28449
#
# Poissons Ratio (x) = 0.20583 0.40272
# Poissons Ratio (y) = 0.33809 0.57227
# Poissons Ratio (z) = 0.35684 0.30870
#
# Static dielectric constant tensor:
#      x y z
#    x 3.484620 0.000000 0.000000 
#    y 0.000000 3.282680 0.000000 
#    z 0.000000 0.000000 3.487750 
# 
# 
# High freq. dielectric constant tensor:
#      x y z
#    x 1.730470 0.000000 0.000000 
#    y 0.000000 1.705880 0.000000 
#    z 0.000000 0.000000 1.726680 
# 
# From -- ./inp_files/7831.got.cif
#   From: 2010.03.12/outbox.cif.g09.slc.cpg/sg47_4_cif.got.tgz:7831.got - 2010.04.14 03:12:58.
