data_PCOD8194233
_publ_section_title
;
Structure prediction by ZEFSAII (Michael W. Deem and Ramdas Pophale) SiO2 
 PCOD8194233
Probable space group: P M M M
;
_chemical_formula_sum "Si O2"
_cell_formula_units_Z 52
_cell_length_a 12.692047
_cell_length_b 8.967386
_cell_length_c 26.170567
_cell_angle_alpha 90.000000
_cell_angle_beta 90.000000
_cell_angle_gamma 90.000000
_cell_volume 2978.589594
_symmetry_space_group_name_H-M "P M M M"
_symmetry_group_IT_number 47
_symmetry_cell_setting 'orthorhombic'
loop_
_space_group_symop_operation_xyz
x,y,z
-x,-y,z
x,-y,-z
-x,y,-z
-x,-y,-z
x,y,-z
-x,y,z
x,-y,z
loop_
_atom_site_type_symbol
_atom_site_label
_atom_site_fract_x
_atom_site_fract_y
_atom_site_fract_z
Si Si1 0.119978 0.674947 0.057440
Si Si2 0.618556 0.327706 0.330136
Si Si3 0.000000 0.176771 0.783924
Si Si4 0.875886 0.175371 0.500000
Si Si5 0.199849 0.176553 0.846415
Si Si6 0.000000 0.821705 0.332773
Si Si7 0.381662 0.824113 0.226377
Si Si8 0.815963 0.324560 0.396258
O O1 0.128310 0.500000 0.066366
O O2 0.197004 0.757267 0.096719
O O3 0.000000 0.728857 0.066325
O O4 0.155756 0.716589 0.000000
O O5 0.500000 0.278096 0.346253
O O6 0.620933 0.500000 0.315334
O O7 0.657615 0.240440 0.280149
O O8 0.697638 0.293731 0.376504
O O9 0.897383 0.238824 0.812951
O O10 0.000000 0.232538 0.725734
O O11 0.000000 0.000000 0.784386
O O12 0.822650 0.251543 0.451539
O O13 0.000000 0.207548 0.500000
O O14 0.852257 0.000000 0.500000
O O15 0.306789 0.231857 0.819277
O O16 0.195262 0.000000 0.850800
O O17 0.103335 0.755578 0.358629
O O18 0.000000 0.000000 0.339007
O O19 0.500000 0.769830 0.213841
O O20 0.374609 0.000000 0.231678
O O21 0.841856 0.500000 0.399191
#
# Coordination Sequence:
#
# PCOD8194233 Si02
#       8
#     8   8   4   4   8   4   8   8
#     4   9  18  32  48  68  96 129 164 205 255 306
#     4   9  19  36  56  79 107 138 173 211 253 304
#     4   9  18  29  43  69 101 130 156 194 247 296
#     4  11  23  39  58  79 103 137 176 211 253 308
#     4  10  18  30  48  71 100 130 165 206 248 296
#     4  11  21  34  52  74 106 141 171 204 251 308
#     4   9  18  32  51  75 103 137 173 207 247 296
#     4  11  22  36  56  80 105 135 171 214 257 300
#
# _framework density 17.457927000000002
#
# number of rings (size 3 to 8) (size 9 to 14) (size 15 to 20)
#    0.000    2.231    1.538    2.308    0.000    3.692 
#    0.000    2.692    0.000    2.769    0.000    3.231 
#    0.000    0.000    0.000    0.000    0.000    0.000 
#
# Total GULP energy -644837.025919 kJ/mol
# GULP energy per Si atom -12400.712037 kJ/mol
# Density = 1.741819 g / cm^3
# Si number density = 17.457927 Si / 1000 Ang^3
#
#
#
# Elastic Constant Matrix: (Units=GPa)
#
#
# Indices 1 2 3 4 5 6 
#
# 1 103.8172 39.1729 73.3573 0.0000 0.0000 0.0000
# 2 39.1729 50.6856 46.7381 0.0000 0.0000 0.0000
# 3 73.3573 46.7381 154.8936 0.0000 0.0000 0.0000
# 4 0.0000 0.0000 0.0000 30.1237 0.0000 0.0000
# 5 0.0000 0.0000 0.0000 0.0000 29.1959 0.0000
# 6 0.0000 0.0000 0.0000 0.0000 0.0000 18.2170
#
#
#
# Elastic Compliance Matrix: (Units=1/GPa)
#
#
# Indices 1 2 3 4 5 6 
#
# 1 0.016356 -0.007617 -0.005448 0.000000 0.000000 0.000000
# 2 -0.007617 0.030883 -0.005711 0.000000 0.000000 0.000000
# 3 -0.005448 -0.005711 0.010759 0.000000 0.000000 0.000000
# 4 0.000000 0.000000 0.000000 0.033196 0.000000 0.000000
# 5 0.000000 0.000000 0.000000 0.000000 0.034251 0.000000
# 6 0.000000 0.000000 0.000000 0.000000 0.000000 0.054894
#
#
# Mechanical properties :
#
#
# Convention : Reuss Voigt Hill
#
# Bulk Modulus (GPa) = 48.90975 69.77034 59.34004
# Shear Modulus (GPa) = 22.25115 25.51585 23.88350
#
# Velocity S-wave (km/s) = 3.57397 3.82719 3.70274
# Velocity P-wave (km/s) = 6.71622 7.71890 7.23495
#
# Compressibility (1/GPa) = 0.02044582
#
# Stress axis : x y z
#
# Youngs Moduli (GPa) = 61.14024 32.38025 92.94275
#
# Poissons Ratio (x) = 0.24666 0.50631
# Poissons Ratio (y) = 0.46573 0.53081
# Poissons Ratio (z) = 0.33307 0.18493
#
# Static dielectric constant tensor:
#      x y z
#    x 3.410720 0.000000 0.000000 
#    y 0.000000 3.161600 0.000000 
#    z 0.000000 0.000000 3.327720 
# 
# 
# High freq. dielectric constant tensor:
#      x y z
#    x 1.667320 0.000000 0.000000 
#    y 0.000000 1.668980 0.000000 
#    z 0.000000 0.000000 1.676680 
# 
# From -- ./inp_files/33638.got.cif
#   From: 2010.03.12/outbox.cif.g09.slc.cpg/sg47_17_cif.got.tgz:33638.got - 2010.04.14 03:12:58.
