data_PCOD8194623
_publ_section_title
;
Structure prediction by ZEFSAII (Michael W. Deem and Ramdas Pophale) SiO2 
 PCOD8194623
Probable space group: P M M M
;
_chemical_formula_sum "Si O2"
_cell_formula_units_Z 40
_cell_length_a 10.178411
_cell_length_b 9.196820
_cell_length_c 24.178048
_cell_angle_alpha 90.000000
_cell_angle_beta 90.000000
_cell_angle_gamma 90.000000
_cell_volume 2263.283230
_symmetry_space_group_name_H-M "P M M M"
_symmetry_group_IT_number 47
_symmetry_cell_setting 'orthorhombic'
loop_
_space_group_symop_operation_xyz
x,y,z
-x,-y,z
x,-y,-z
-x,y,-z
-x,-y,-z
x,y,-z
-x,y,z
x,-y,z
loop_
_atom_site_type_symbol
_atom_site_label
_atom_site_fract_x
_atom_site_fract_y
_atom_site_fract_z
Si Si1 0.738346 0.328079 0.377670
Si Si2 0.351887 0.829677 0.063447
Si Si3 0.500000 0.827901 0.564180
Si Si4 0.000000 0.328160 0.438817
Si Si5 0.848227 0.670598 0.857366
Si Si6 0.145153 0.327945 0.734539
O O1 0.711425 0.500000 0.384818
O O2 0.625002 0.237355 0.405657
O O3 0.871656 0.276366 0.406695
O O4 0.750801 0.282776 0.312879
O O5 0.500000 0.783922 0.080783
O O6 0.245224 0.749127 0.099866
O O7 0.333056 0.000000 0.071899
O O8 0.327109 0.786212 0.000000
O O9 0.500000 0.781160 0.500000
O O10 0.500000 0.000000 0.570780
O O11 0.000000 0.500000 0.442689
O O12 0.000000 0.258606 0.500000
O O13 0.826867 0.500000 0.864160
O O14 0.807755 0.722574 0.795363
O O15 0.000000 0.711763 0.869050
O O16 0.130581 0.500000 0.734244
O O17 0.000000 0.262771 0.721764
#
# Coordination Sequence:
#
# PCOD8194623 Si02
#       6
#     8   8   4   4   8   8
#     4  10  18  33  58  81 101 130 170 214 256 302
#     4   9  19  36  54  72 100 139 180 219 257 297
#     4  11  25  41  51  67 105 147 174 205 256 311
#     4   9  16  26  49  85 107 117 156 219 262 292
#     4   9  18  32  52  79 109 137 167 206 255 311
#     4   8  14  29  53  80 107 132 161 206 261 307
#
# _framework density 17.673438999999998
#
# number of rings (size 3 to 8) (size 9 to 14) (size 15 to 20)
#    0.000    2.800    1.000    2.700    0.000    3.200 
#    1.800    4.500    0.000    3.000    0.000    0.000 
#    0.000    0.000    0.000    0.000    0.000    0.000 
#
# Total GULP energy -495768.450960 kJ/mol
# GULP energy per Si atom -12394.211274 kJ/mol
# Density = 1.763321 g / cm^3
# Si number density = 17.673439 Si / 1000 Ang^3
#
#
#
# Elastic Constant Matrix: (Units=GPa)
#
#
# Indices 1 2 3 4 5 6 
#
# 1 142.3252 51.5710 100.0792 0.0000 0.0000 0.0000
# 2 51.5710 43.6680 53.3165 0.0000 0.0000 0.0000
# 3 100.0792 53.3165 159.0825 0.0000 0.0000 0.0000
# 4 0.0000 0.0000 0.0000 13.4590 0.0000 0.0000
# 5 0.0000 0.0000 0.0000 0.0000 32.9378 0.0000
# 6 0.0000 0.0000 0.0000 0.0000 0.0000 129.4293
#
#
#
# Elastic Compliance Matrix: (Units=1/GPa)
#
#
# Indices 1 2 3 4 5 6 
#
# 1 0.014978 -0.010467 -0.005915 0.000000 0.000000 0.000000
# 2 -0.010467 0.046076 -0.008857 0.000000 0.000000 0.000000
# 3 -0.005915 -0.008857 0.012975 0.000000 0.000000 0.000000
# 4 0.000000 0.000000 0.000000 0.074300 0.000000 0.000000
# 5 0.000000 0.000000 0.000000 0.000000 0.030360 0.000000
# 6 0.000000 0.000000 0.000000 0.000000 0.000000 0.007726
#
#
# Mechanical properties :
#
#
# Convention : Reuss Voigt Hill
#
# Bulk Modulus (GPa) = 42.46096 83.88988 63.17542
# Shear Modulus (GPa) = 20.42951 44.50584 32.46768
#
# Velocity S-wave (km/s) = 3.40361 5.02364 4.29078
# Velocity P-wave (km/s) = 6.28677 9.01216 7.76989
#
# Compressibility (1/GPa) = 0.02355105
#
# Stress axis : x y z
#
# Youngs Moduli (GPa) = 66.76541 21.70327 77.06852
#
# Poissons Ratio (x) = 0.22717 0.45582
# Poissons Ratio (y) = 0.69884 0.68263
# Poissons Ratio (z) = 0.39489 0.19224
#
# Static dielectric constant tensor:
#      x y z
#    x 3.184380 0.000000 0.000000 
#    y 0.000000 2.888620 0.000000 
#    z 0.000000 0.000000 3.723010 
# 
# 
# High freq. dielectric constant tensor:
#      x y z
#    x 1.682000 0.000000 0.000000 
#    y 0.000000 1.644260 0.000000 
#    z 0.000000 0.000000 1.699610 
# 
# From -- ./inp_files/1821.got.cif
#   From: 2010.03.12/outbox.cif.g09.slc.cpg/sg47_1_cif.got.tgz:1821.got - 2010.04.14 03:12:58.
