data_PCOD8194206
_publ_section_title
;
Structure prediction by ZEFSAII (Michael W. Deem and Ramdas Pophale) SiO2 
 PCOD8194206
Probable space group: P M M M
;
_chemical_formula_sum "Si O2"
_cell_formula_units_Z 52
_cell_length_a 12.081612
_cell_length_b 8.829016
_cell_length_c 27.647379
_cell_angle_alpha 90.000000
_cell_angle_beta 90.000000
_cell_angle_gamma 90.000000
_cell_volume 2949.111239
_symmetry_space_group_name_H-M "P M M M"
_symmetry_group_IT_number 47
_symmetry_cell_setting 'orthorhombic'
loop_
_space_group_symop_operation_xyz
x,y,z
-x,-y,z
x,-y,-z
-x,y,-z
-x,-y,-z
x,y,-z
-x,y,z
x,-y,z
loop_
_atom_site_type_symbol
_atom_site_label
_atom_site_fract_x
_atom_site_fract_y
_atom_site_fract_z
Si Si1 0.127527 0.321718 0.678236
Si Si2 0.500000 0.321707 0.806915
Si Si3 0.373684 0.822799 0.944854
Si Si4 0.500000 0.179388 0.553680
Si Si5 0.500000 0.679305 0.303165
Si Si6 0.130214 0.172493 0.778796
Si Si7 0.676285 0.179744 0.630693
Si Si8 0.720548 0.679312 0.144066
O O1 0.145908 0.500000 0.678288
O O2 0.167895 0.259272 0.730152
O O3 0.199937 0.247964 0.634729
O O4 0.000000 0.278031 0.668205
O O5 0.500000 0.500000 0.813150
O O6 0.500000 0.272276 0.751918
O O7 0.609191 0.255369 0.831604
O O8 0.500000 0.769108 0.934611
O O9 0.285563 0.733312 0.911582
O O10 0.362757 0.000000 0.934571
O O11 0.342011 0.785289 0.000000
O O12 0.500000 0.252091 0.500000
O O13 0.611705 0.231467 0.581788
O O14 0.500000 0.000000 0.550227
O O15 0.500000 0.500000 0.311817
O O16 0.609844 0.752892 0.324475
O O17 0.177874 0.248820 0.827002
O O18 0.000000 0.183220 0.784544
O O19 0.170994 0.000000 0.774432
O O20 0.681477 0.000000 0.634015
O O21 0.732544 0.500000 0.146555
#
# Coordination Sequence:
#
# PCOD8194206 Si02
#       8
#     8   4   8   4   4   8   8   8
#     4  10  20  34  52  74 102 137 174 210 252 302
#     4   9  19  30  41  66  99 130 157 188 235 290
#     4   9  18  33  51  71  97 129 165 204 249 302
#     4   8  16  32  53  77 105 136 171 214 260 305
#     4  10  18  30  47  66  99 139 169 201 245 300
#     4  10  21  36  53  74 101 134 173 212 248 292
#     4  10  19  31  50  76 102 132 173 215 257 302
#     4  11  20  32  50  73 102 131 164 202 248 304
#
# _framework density 17.632431
#
# number of rings (size 3 to 8) (size 9 to 14) (size 15 to 20)
#    0.000    2.231    0.769    3.923    0.000    3.385 
#    0.000    3.077    0.000    9.231    0.000    6.462 
#    0.000    0.000    0.000    0.000    0.000    0.000 
#
# Total GULP energy -644729.963411 kJ/mol
# GULP energy per Si atom -12398.653143 kJ/mol
# Density = 1.759230 g / cm^3
# Si number density = 17.632431 Si / 1000 Ang^3
#
#
#
# Elastic Constant Matrix: (Units=GPa)
#
#
# Indices 1 2 3 4 5 6 
#
# 1 75.5939 39.2514 54.6545 0.0000 0.0000 0.0000
# 2 39.2514 80.3421 46.4715 0.0000 0.0000 0.0000
# 3 54.6545 46.4715 117.9911 0.0000 0.0000 0.0000
# 4 0.0000 0.0000 0.0000 17.3342 0.0000 0.0000
# 5 0.0000 0.0000 0.0000 0.0000 24.9331 0.0000
# 6 0.0000 0.0000 0.0000 0.0000 0.0000 29.4400
#
#
#
# Elastic Compliance Matrix: (Units=1/GPa)
#
#
# Indices 1 2 3 4 5 6 
#
# 1 0.022118 -0.006319 -0.007756 0.000000 0.000000 0.000000
# 2 -0.006319 0.017924 -0.004132 0.000000 0.000000 0.000000
# 3 -0.007756 -0.004132 0.013696 0.000000 0.000000 0.000000
# 4 0.000000 0.000000 0.000000 0.057689 0.000000 0.000000
# 5 0.000000 0.000000 0.000000 0.000000 0.040107 0.000000
# 6 0.000000 0.000000 0.000000 0.000000 0.000000 0.033967
#
#
# Mechanical properties :
#
#
# Convention : Reuss Voigt Hill
#
# Bulk Modulus (GPa) = 57.73128 61.63133 59.68131
# Shear Modulus (GPa) = 21.95957 23.24478 22.60218
#
# Velocity S-wave (km/s) = 3.53286 3.63477 3.58418
# Velocity P-wave (km/s) = 7.03236 7.25567 7.14489
#
# Compressibility (1/GPa) = 0.01732163
#
# Stress axis : x y z
#
# Youngs Moduli (GPa) = 45.21305 55.78988 73.01652
#
# Poissons Ratio (x) = 0.35255 0.56633
# Poissons Ratio (y) = 0.28571 0.30174
# Poissons Ratio (z) = 0.35068 0.23055
#
# Static dielectric constant tensor:
#      x y z
#    x 3.266440 0.000000 0.000000 
#    y 0.000000 3.211900 0.000000 
#    z 0.000000 0.000000 3.320370 
# 
# 
# High freq. dielectric constant tensor:
#      x y z
#    x 1.671340 0.000000 0.000000 
#    y 0.000000 1.682190 0.000000 
#    z 0.000000 0.000000 1.669610 
# 
# From -- ./inp_files/33667.got.cif
#   From: 2010.03.12/outbox.cif.g09.slc.cpg/sg47_17_cif.got.tgz:33667.got - 2010.04.14 03:12:58.
