data_PCOD8194350
_publ_section_title
;
Structure prediction by ZEFSAII (Michael W. Deem and Ramdas Pophale) SiO2 
 PCOD8194350
Probable space group: P M M M
;
_chemical_formula_sum "Si O2"
_cell_formula_units_Z 64
_cell_length_a 24.552968
_cell_length_b 9.086936
_cell_length_c 15.293106
_cell_angle_alpha 90.000000
_cell_angle_beta 90.000000
_cell_angle_gamma 90.000000
_cell_volume 3412.063978
_symmetry_space_group_name_H-M "P M M M"
_symmetry_group_IT_number 47
_symmetry_cell_setting 'orthorhombic'
loop_
_space_group_symop_operation_xyz
x,y,z
-x,-y,z
x,-y,-z
-x,y,-z
-x,-y,-z
x,y,-z
-x,y,z
x,-y,z
loop_
_atom_site_type_symbol
_atom_site_label
_atom_site_fract_x
_atom_site_fract_y
_atom_site_fract_z
Si Si1 0.645358 0.168830 0.401405
Si Si2 0.063652 0.168908 0.400674
Si Si3 0.262766 0.673387 0.318526
Si Si4 0.857497 0.326545 0.270873
Si Si5 0.165919 0.169863 0.097163
Si Si6 0.287513 0.170222 0.146549
Si Si7 0.561779 0.328255 0.275077
Si Si8 0.611963 0.667273 0.905635
O O1 0.623728 0.184931 0.500000
O O2 0.704530 0.248619 0.396821
O O3 0.601191 0.239111 0.337880
O O4 0.653462 0.000000 0.374728
O O5 0.078863 0.214085 0.500000
O O6 0.094636 0.271330 0.332715
O O7 0.000000 0.192362 0.384703
O O8 0.079977 0.000000 0.384081
O O9 0.268339 0.500000 0.328316
O O10 0.199547 0.722659 0.315124
O O11 0.292757 0.728026 0.231655
O O12 0.861214 0.500000 0.261927
O O13 0.863907 0.261974 0.173017
O O14 0.230523 0.197193 0.098210
O O15 0.152185 0.000000 0.114691
O O16 0.145121 0.216934 0.000000
O O17 0.336400 0.224125 0.086019
O O18 0.294418 0.000000 0.172338
O O19 0.500000 0.283543 0.296953
O O20 0.571802 0.500000 0.292069
O O21 0.572392 0.286788 0.173557
O O22 0.632481 0.500000 0.891450
O O23 0.581449 0.680745 0.000000
#
# Coordination Sequence:
#
# PCOD8194350 Si02
#       8
#     8   8   8   8   8   8   8   8
#     4  11  24  40  59  83 108 138 177 223 277 330
#     4   9  19  37  60  84 111 147 191 235 278 328
#     4  10  20  35  54  79 113 148 181 217 266 326
#     4  10  21  34  53  84 118 151 186 228 278 329
#     4   9  18  32  50  75 110 152 193 229 268 319
#     4  10  18  30  51  78 108 142 180 221 267 317
#     4  10  22  40  60  80 105 140 180 222 269 326
#     4  10  20  33  52  79 109 141 176 215 263 321
#
# _framework density 18.756976000000002
#
# number of rings (size 3 to 8) (size 9 to 14) (size 15 to 20)
#    0.000    2.125    1.250    2.250    0.000    5.750 
#    0.000    5.625    0.000    0.375    0.000    4.375 
#    0.000    0.000    0.000    0.000    0.000    0.000 
#
# Total GULP energy -793468.947966 kJ/mol
# GULP energy per Si atom -12397.952312 kJ/mol
# Density = 1.871428 g / cm^3
# Si number density = 18.756976 Si / 1000 Ang^3
#
#
#
# Elastic Constant Matrix: (Units=GPa)
#
#
# Indices 1 2 3 4 5 6 
#
# 1 68.4437 41.7682 52.0130 0.0000 0.0000 0.0000
# 2 41.7682 79.7917 53.7381 0.0000 0.0000 0.0000
# 3 52.0130 53.7381 126.0493 0.0000 0.0000 0.0000
# 4 0.0000 0.0000 0.0000 23.3073 0.0000 0.0000
# 5 0.0000 0.0000 0.0000 0.0000 19.9608 0.0000
# 6 0.0000 0.0000 0.0000 0.0000 0.0000 26.6699
#
#
#
# Elastic Compliance Matrix: (Units=1/GPa)
#
#
# Indices 1 2 3 4 5 6 
#
# 1 0.024856 -0.008562 -0.006606 0.000000 0.000000 0.000000
# 2 -0.008562 0.020530 -0.005219 0.000000 0.000000 0.000000
# 3 -0.006606 -0.005219 0.012885 0.000000 0.000000 0.000000
# 4 0.000000 0.000000 0.000000 0.042905 0.000000 0.000000
# 5 0.000000 0.000000 0.000000 0.000000 0.050098 0.000000
# 6 0.000000 0.000000 0.000000 0.000000 0.000000 0.037496
#
#
# Mechanical properties :
#
#
# Convention : Reuss Voigt Hill
#
# Bulk Modulus (GPa) = 57.15963 63.25816 60.20889
# Shear Modulus (GPa) = 21.24261 22.43862 21.84062
#
# Velocity S-wave (km/s) = 3.36894 3.46248 3.41603
# Velocity P-wave (km/s) = 6.75818 7.05573 6.90856
#
# Compressibility (1/GPa) = 0.01749487
#
# Stress axis : x y z
#
# Youngs Moduli (GPa) = 40.23174 48.71007 77.61224
#
# Poissons Ratio (x) = 0.41706 0.51274
# Poissons Ratio (y) = 0.34446 0.40508
# Poissons Ratio (z) = 0.26579 0.25423
#
# Static dielectric constant tensor:
#      x y z
#    x 3.269050 0.000000 0.000000 
#    y 0.000000 3.412520 0.000000 
#    z 0.000000 0.000000 3.544480 
# 
# 
# High freq. dielectric constant tensor:
#      x y z
#    x 1.704240 0.000000 0.000000 
#    y 0.000000 1.729550 0.000000 
#    z 0.000000 0.000000 1.734510 
# 
# From -- ./inp_files/7832.got.cif
#   From: 2010.03.12/outbox.cif.g09.slc.cpg/sg47_4_cif.got.tgz:7832.got - 2010.04.14 03:12:58.
