data_PCOD8194641
_publ_section_title
;
Structure prediction by ZEFSAII (Michael W. Deem and Ramdas Pophale) SiO2 
 PCOD8194641
Probable space group: P M M M
;
_chemical_formula_sum "Si O2"
_cell_formula_units_Z 64
_cell_length_a 26.805600
_cell_length_b 9.180661
_cell_length_c 17.899841
_cell_angle_alpha 90.000000
_cell_angle_beta 90.000000
_cell_angle_gamma 90.000000
_cell_volume 4405.027836
_symmetry_space_group_name_H-M "P M M M"
_symmetry_group_IT_number 47
_symmetry_cell_setting 'orthorhombic'
loop_
_space_group_symop_operation_xyz
x,y,z
-x,-y,z
x,-y,-z
-x,y,-z
-x,-y,-z
x,y,-z
-x,y,z
x,-y,z
loop_
_atom_site_type_symbol
_atom_site_label
_atom_site_fract_x
_atom_site_fract_y
_atom_site_fract_z
Si Si1 0.646688 0.167527 0.586208
Si Si2 0.556039 0.328664 0.343071
Si Si3 0.756230 0.672888 0.155114
Si Si4 0.945069 0.336899 0.911378
Si Si5 0.606507 0.339789 0.198359
Si Si6 0.296107 0.340154 0.299256
Si Si7 0.663799 0.833258 0.086486
Si Si8 0.150763 0.831448 0.911880
O O1 0.659869 0.190071 0.500000
O O2 0.594504 0.245871 0.603725
O O3 0.693731 0.229802 0.632903
O O4 0.640184 0.000000 0.607721
O O5 0.500000 0.285589 0.366925
O O6 0.565947 0.500000 0.353283
O O7 0.563230 0.286751 0.255292
O O8 0.755338 0.500000 0.141825
O O9 0.748135 0.710688 0.243285
O O10 0.713319 0.742354 0.103895
O O11 0.808811 0.738071 0.131926
O O12 0.932486 0.500000 0.882527
O O13 0.903270 0.223813 0.883457
O O14 0.000000 0.288785 0.881706
O O15 0.945936 0.337440 0.000000
O O16 0.594102 0.500000 0.165047
O O17 0.655687 0.349645 0.247833
O O18 0.615457 0.226989 0.131096
O O19 0.284271 0.500000 0.332972
O O20 0.673332 0.000000 0.109817
O O21 0.650716 0.818808 0.000000
O O22 0.156374 0.000000 0.890886
O O23 0.157766 0.805949 0.000000
#
# Coordination Sequence:
#
# PCOD8194641 Si02
#       8
#     8   8   8   8   8   8   8   8
#     4  10  20  31  44  65  89 108 127 152 181 217
#     4   9  18  32  48  64  81 102 128 156 186 221
#     4  10  19  29  41  57  77 101 131 165 199 236
#     4   8  14  25  39  52  68  96 135 175 213 250
#     4   8  15  28  44  60  76  96 125 157 187 224
#     4   8  16  30  45  60  77 101 132 160 187 224
#     4  10  19  28  39  57  79 100 124 156 194 236
#     4  10  19  27  36  54  79 105 135 172 212 249
#
# _framework density 14.528853
#
# number of rings (size 3 to 8) (size 9 to 14) (size 15 to 20)
#    0.000    2.875    0.000    3.750    0.000   10.000 
#    0.000    2.500    0.000    0.375    0.000    2.625 
#    0.000    0.000    0.000    0.000    0.000    0.625 
#
# Total GULP energy -793205.764629 kJ/mol
# GULP energy per Si atom -12393.840072 kJ/mol
# Density = 1.449578 g / cm^3
# Si number density = 14.528853 Si / 1000 Ang^3
#
#
#
# Elastic Constant Matrix: (Units=GPa)
#
#
# Indices 1 2 3 4 5 6 
#
# 1 51.4837 34.6476 28.2027 0.0000 0.0000 0.0000
# 2 34.6476 90.5471 45.2345 0.0000 0.0000 0.0000
# 3 28.2027 45.2345 61.6523 0.0000 0.0000 0.0000
# 4 0.0000 0.0000 0.0000 21.9358 0.0000 0.0000
# 5 0.0000 0.0000 0.0000 0.0000 11.5770 0.0000
# 6 0.0000 0.0000 0.0000 0.0000 0.0000 17.1177
#
#
#
# Elastic Compliance Matrix: (Units=1/GPa)
#
#
# Indices 1 2 3 4 5 6 
#
# 1 0.028419 -0.006914 -0.007927 0.000000 0.000000 0.000000
# 2 -0.006914 0.019117 -0.010863 0.000000 0.000000 0.000000
# 3 -0.007927 -0.010863 0.027816 0.000000 0.000000 0.000000
# 4 0.000000 0.000000 0.000000 0.045588 0.000000 0.000000
# 5 0.000000 0.000000 0.000000 0.000000 0.086378 0.000000
# 6 0.000000 0.000000 0.000000 0.000000 0.000000 0.058419
#
#
# Mechanical properties :
#
#
# Convention : Reuss Voigt Hill
#
# Bulk Modulus (GPa) = 41.76540 46.65031 44.20785
# Shear Modulus (GPa) = 15.37860 16.49932 15.93896
#
# Velocity S-wave (km/s) = 3.25697 3.37356 3.31578
# Velocity P-wave (km/s) = 6.55383 6.88135 6.71959
#
# Compressibility (1/GPa) = 0.02394326
#
# Stress axis : x y z
#
# Youngs Moduli (GPa) = 35.18720 52.31078 35.95001
#
# Poissons Ratio (x) = 0.36170 0.28498
# Poissons Ratio (y) = 0.24330 0.39052
# Poissons Ratio (z) = 0.27894 0.56824
#
# Static dielectric constant tensor:
#      x y z
#    x 2.960690 0.000000 0.000000 
#    y 0.000000 2.960730 0.000000 
#    z 0.000000 0.000000 2.743730 
# 
# 
# High freq. dielectric constant tensor:
#      x y z
#    x 1.531380 0.000000 0.000000 
#    y 0.000000 1.566390 0.000000 
#    z 0.000000 0.000000 1.522260 
# 
# From -- ./inp_files/28941.got.cif
#   From: 2010.03.12/outbox.cif.g09.slc.cpg/sg47_15_cif.got.tgz:28941.got - 2010.04.14 03:12:58.
