data_PCOD8194628
_publ_section_title
;
Structure prediction by ZEFSAII (Michael W. Deem and Ramdas Pophale) SiO2 
 PCOD8194628
Probable space group: P M M M
;
_chemical_formula_sum "Si O2"
_cell_formula_units_Z 56
_cell_length_a 8.870880
_cell_length_b 15.157793
_cell_length_c 22.358446
_cell_angle_alpha 90.000000
_cell_angle_beta 90.000000
_cell_angle_gamma 90.000000
_cell_volume 3006.382892
_symmetry_space_group_name_H-M "P M M M"
_symmetry_group_IT_number 47
_symmetry_cell_setting 'orthorhombic'
loop_
_space_group_symop_operation_xyz
x,y,z
-x,-y,z
x,-y,-z
-x,y,-z
-x,-y,-z
x,y,-z
-x,y,z
x,-y,z
loop_
_atom_site_type_symbol
_atom_site_label
_atom_site_fract_x
_atom_site_fract_y
_atom_site_fract_z
Si Si1 0.176829 0.831985 0.619407
Si Si2 0.321456 0.899083 0.500000
Si Si3 0.176466 0.098987 0.931029
Si Si4 0.677923 0.347958 0.346133
Si Si5 0.321032 0.220921 0.164656
Si Si6 0.671562 0.902096 0.728894
Si Si7 0.678073 0.596606 0.786508
Si Si8 0.321503 0.500000 0.566552
O O1 0.259866 0.849447 0.557562
O O2 0.224826 0.738455 0.645306
O O3 0.227649 0.902313 0.669237
O O4 0.000000 0.837913 0.608513
O O5 0.500000 0.892725 0.500000
O O6 0.265538 0.000000 0.500000
O O7 0.257206 0.176344 0.894682
O O8 0.000000 0.106569 0.919444
O O9 0.231085 0.000000 0.912564
O O10 0.215957 0.115582 0.000000
O O11 0.500000 0.327002 0.349421
O O12 0.722000 0.388906 0.282387
O O13 0.731680 0.413783 0.398077
O O14 0.500000 0.217597 0.160900
O O15 0.264700 0.166063 0.222261
O O16 0.261521 0.322208 0.172282
O O17 0.500000 0.876916 0.711475
O O18 0.679528 0.000000 0.756758
O O19 0.500000 0.595024 0.792362
O O20 0.742512 0.500000 0.806909
O O21 0.500000 0.500000 0.562916
O O22 0.250248 0.500000 0.500000
#
# Coordination Sequence:
#
# PCOD8194628 Si02
#       8
#     8   4   8   8   8   8   8   4
#     4  12  25  38  54  79 111 141 173 217 273 331
#     4  11  25  45  65  78  93 130 183 231 274 325
#     4   9  19  36  56  79 112 154 193 227 271 331
#     4  10  18  34  57  78 105 140 179 222 269 322
#     4  10  19  32  54  85 115 142 183 234 276 318
#     4  10  20  35  55  79 108 142 181 224 270 321
#     4   9  16  30  54  81 108 142 184 229 276 324
#     4   9  18  30  53  87 105 125 179 234 269 319
#
# _framework density 18.627036
#
# number of rings (size 3 to 8) (size 9 to 14) (size 15 to 20)
#    0.000    2.000    2.143    2.786    1.000    4.286 
#    0.000    1.071    0.000    2.143    0.000    3.000 
#    0.000    0.000    0.000    0.000    0.000    0.000 
#
# Total GULP energy -694256.710442 kJ/mol
# GULP energy per Si atom -12397.441258 kJ/mol
# Density = 1.858464 g / cm^3
# Si number density = 18.627036 Si / 1000 Ang^3
#
#
#
# Elastic Constant Matrix: (Units=GPa)
#
#
# Indices 1 2 3 4 5 6 
#
# 1 42.5537 23.4795 23.5959 0.0000 0.0000 0.0000
# 2 23.4795 149.1148 59.9033 0.0000 0.0000 0.0000
# 3 23.5959 59.9033 101.1567 0.0000 0.0000 0.0000
# 4 0.0000 0.0000 0.0000 33.6990 0.0000 0.0000
# 5 0.0000 0.0000 0.0000 0.0000 5.6128 0.0000
# 6 0.0000 0.0000 0.0000 0.0000 0.0000 12.0485
#
#
#
# Elastic Compliance Matrix: (Units=1/GPa)
#
#
# Indices 1 2 3 4 5 6 
#
# 1 0.027583 -0.002307 -0.005068 0.000000 0.000000 0.000000
# 2 -0.002307 0.008993 -0.004787 0.000000 0.000000 0.000000
# 3 -0.005068 -0.004787 0.013903 0.000000 0.000000 0.000000
# 4 0.000000 0.000000 0.000000 0.029674 0.000000 0.000000
# 5 0.000000 0.000000 0.000000 0.000000 0.178163 0.000000
# 6 0.000000 0.000000 0.000000 0.000000 0.000000 0.082998
#
#
# Mechanical properties :
#
#
# Convention : Reuss Voigt Hill
#
# Bulk Modulus (GPa) = 38.23525 56.30918 47.27222
# Shear Modulus (GPa) = 13.35627 22.66183 18.00905
#
# Velocity S-wave (km/s) = 2.68066 3.49178 3.11275
# Velocity P-wave (km/s) = 5.49113 6.82291 6.19293
#
# Compressibility (1/GPa) = 0.02615388
#
# Stress axis : x y z
#
# Youngs Moduli (GPa) = 36.25449 111.20194 71.92924
#
# Poissons Ratio (x) = 0.25658 0.36451
# Poissons Ratio (y) = 0.08365 0.34433
# Poissons Ratio (z) = 0.18372 0.53233
#
# Static dielectric constant tensor:
#      x y z
#    x 3.102250 0.000000 0.000000 
#    y 0.000000 3.795520 0.000000 
#    z 0.000000 0.000000 3.403630 
# 
# 
# High freq. dielectric constant tensor:
#      x y z
#    x 1.688540 0.000000 0.000000 
#    y 0.000000 1.737410 0.000000 
#    z 0.000000 0.000000 1.711660 
# 
# From -- ./inp_files/29816.got.cif
#   From: 2010.03.12/outbox.cif.g09.slc.cpg/sg47_15_cif.got.tgz:29816.got - 2010.04.14 03:12:58.
