data_PCOD8194282
_publ_section_title
;
Structure prediction by ZEFSAII (Michael W. Deem and Ramdas Pophale) SiO2 
 PCOD8194282
Probable space group: P M M M
;
_chemical_formula_sum "Si O2"
_cell_formula_units_Z 52
_cell_length_a 27.923329
_cell_length_b 11.508847
_cell_length_c 8.815539
_cell_angle_alpha 90.000000
_cell_angle_beta 90.000000
_cell_angle_gamma 90.000000
_cell_volume 2833.008522
_symmetry_space_group_name_H-M "P M M M"
_symmetry_group_IT_number 47
_symmetry_cell_setting 'orthorhombic'
loop_
_space_group_symop_operation_xyz
x,y,z
-x,-y,z
x,-y,-z
-x,y,-z
-x,-y,-z
x,y,-z
-x,y,z
x,-y,z
loop_
_atom_site_type_symbol
_atom_site_label
_atom_site_fract_x
_atom_site_fract_y
_atom_site_fract_z
Si Si1 0.803802 0.000000 0.822603
Si Si2 0.447265 0.869784 0.319891
Si Si3 0.182229 0.761131 0.678939
Si Si4 0.351587 0.235292 0.325582
Si Si5 0.000000 0.361475 0.671215
Si Si6 0.294767 0.000000 0.330230
Si Si7 0.095699 0.362252 0.829312
Si Si8 0.270561 0.365641 0.823252
O O1 0.828159 0.886683 0.750248
O O2 0.747231 0.000000 0.792059
O O3 0.813712 0.000000 0.000000
O O4 0.443105 0.877980 0.500000
O O5 0.500000 0.823139 0.271437
O O6 0.406052 0.780804 0.263072
O O7 0.439718 0.000000 0.253657
O O8 0.182889 0.771988 0.500000
O O9 0.140723 0.674592 0.729739
O O10 0.233528 0.712762 0.730605
O O11 0.350740 0.276739 0.500000
O O12 0.324396 0.331269 0.225235
O O13 0.327146 0.111246 0.305155
O O14 0.046882 0.312837 0.756384
O O15 0.000000 0.500000 0.672170
O O16 0.000000 0.313595 0.500000
O O17 0.272232 0.000000 0.500000
O O18 0.094284 0.500000 0.830791
O O19 0.100629 0.313516 0.000000
O O20 0.261726 0.500000 0.784610
O O21 0.262931 0.340927 0.000000
#
# Coordination Sequence:
#
# PCOD8194282 Si02
#       8
#     4   8   8   8   4   4   8   8
#     4  12  24  38  56  78 108 145 181 215 261 318
#     4   8  13  23  43  74 107 134 162 203 260 318
#     4  12  24  38  57  81 110 142 179 223 268 318
#     4  10  18  30  52  78 106 136 170 214 263 317
#     4   9  17  31  53  82 113 146 187 231 274 319
#     4  10  18  30  49  78 107 135 171 215 261 312
#     4  10  20  35  56  83 115 149 185 227 275 323
#     4  11  24  39  53  73 103 139 179 221 267 321
#
# _framework density 18.355042999999998
#
# number of rings (size 3 to 8) (size 9 to 14) (size 15 to 20)
#    0.000    1.769    2.308    4.154    0.000    4.923 
#    0.000    0.000    0.000    1.385    0.000    7.538 
#    0.000    0.000    0.000    0.000    0.000    0.000 
#
# Total GULP energy -644803.578953 kJ/mol
# GULP energy per Si atom -12400.068826 kJ/mol
# Density = 1.831327 g / cm^3
# Si number density = 18.355043 Si / 1000 Ang^3
#
#
#
# Elastic Constant Matrix: (Units=GPa)
#
#
# Indices 1 2 3 4 5 6 
#
# 1 115.1293 17.0912 36.5461 0.0000 0.0000 0.0000
# 2 17.0912 50.9389 37.1247 0.0000 0.0000 0.0000
# 3 36.5461 37.1247 114.0137 0.0000 0.0000 0.0000
# 4 0.0000 0.0000 0.0000 24.8222 0.0000 0.0000
# 5 0.0000 0.0000 0.0000 0.0000 12.3484 0.0000
# 6 0.0000 0.0000 0.0000 0.0000 0.0000 19.1133
#
#
#
# Elastic Compliance Matrix: (Units=1/GPa)
#
#
# Indices 1 2 3 4 5 6 
#
# 1 0.009735 -0.001301 -0.002697 0.000000 0.000000 0.000000
# 2 -0.001301 0.025913 -0.008021 0.000000 0.000000 0.000000
# 3 -0.002697 -0.008021 0.012247 0.000000 0.000000 0.000000
# 4 0.000000 0.000000 0.000000 0.040286 0.000000 0.000000
# 5 0.000000 0.000000 0.000000 0.000000 0.080982 0.000000
# 6 0.000000 0.000000 0.000000 0.000000 0.000000 0.052320
#
#
# Mechanical properties :
#
#
# Convention : Reuss Voigt Hill
#
# Bulk Modulus (GPa) = 41.91392 51.28952 46.60172
# Shear Modulus (GPa) = 19.72591 23.87811 21.80201
#
# Velocity S-wave (km/s) = 3.28180 3.61071 3.45018
# Velocity P-wave (km/s) = 6.10286 6.73696 6.42774
#
# Compressibility (1/GPa) = 0.02385842
#
# Stress axis : x y z
#
# Youngs Moduli (GPa) = 102.72114 38.58998 81.65209
#
# Poissons Ratio (x) = 0.05020 0.22021
# Poissons Ratio (y) = 0.13362 0.65492
# Poissons Ratio (z) = 0.27703 0.30953
#
# Static dielectric constant tensor:
#      x y z
#    x 3.624840 0.000000 0.000000 
#    y 0.000000 3.222800 0.000000 
#    z 0.000000 0.000000 3.343100 
# 
# 
# High freq. dielectric constant tensor:
#      x y z
#    x 1.717750 0.000000 0.000000 
#    y 0.000000 1.683310 0.000000 
#    z 0.000000 0.000000 1.703530 
# 
# From -- ./inp_files/13292.got.cif
#   From: 2010.03.12/outbox.cif.g09.slc.cpg/sg47_7_cif.got.tgz:13292.got - 2010.04.14 03:12:58.
