data_PCOD8194530
_publ_section_title
;
Structure prediction by ZEFSAII (Michael W. Deem and Ramdas Pophale) SiO2 
 PCOD8194530
Probable space group: P M M M
;
_chemical_formula_sum "Si O2"
_cell_formula_units_Z 52
_cell_length_a 27.786909
_cell_length_b 8.899915
_cell_length_c 11.620366
_cell_angle_alpha 90.000000
_cell_angle_beta 90.000000
_cell_angle_gamma 90.000000
_cell_volume 2873.729622
_symmetry_space_group_name_H-M "P M M M"
_symmetry_group_IT_number 47
_symmetry_cell_setting 'orthorhombic'
loop_
_space_group_symop_operation_xyz
x,y,z
-x,-y,z
x,-y,-z
-x,y,-z
-x,-y,-z
x,y,-z
-x,y,z
x,-y,z
loop_
_atom_site_type_symbol
_atom_site_label
_atom_site_fract_x
_atom_site_fract_y
_atom_site_fract_z
Si Si1 0.000000 0.330269 0.636737
Si Si2 0.194980 0.828079 0.267079
Si Si3 0.251864 0.167728 0.500000
Si Si4 0.363290 0.176292 0.264850
Si Si5 0.724903 0.324252 0.133528
Si Si6 0.650604 0.675911 0.500000
Si Si7 0.554085 0.669502 0.864328
Si Si8 0.096181 0.177625 0.631115
O O1 0.952121 0.249576 0.684024
O O2 0.000000 0.500000 0.681428
O O3 0.000000 0.319007 0.500000
O O4 0.219456 0.808961 0.389834
O O5 0.221800 0.726137 0.172711
O O6 0.140031 0.773697 0.285249
O O7 0.196997 0.000000 0.224683
O O8 0.292622 0.293370 0.500000
O O9 0.275046 0.000000 0.500000
O O10 0.314729 0.237814 0.207671
O O11 0.373237 0.251194 0.387790
O O12 0.409629 0.210465 0.188023
O O13 0.356724 0.000000 0.279844
O O14 0.718465 0.500000 0.155898
O O15 0.717807 0.284180 0.000000
O O16 0.640394 0.500000 0.500000
O O17 0.500000 0.703399 0.820500
O O18 0.569302 0.500000 0.829090
O O19 0.556362 0.686806 0.000000
O O20 0.105448 0.233903 0.500000
O O21 0.090378 0.000000 0.630804
#
# Coordination Sequence:
#
# PCOD8194530 Si02
#       8
#     4   8   4   8   8   4   8   8
#     4   9  17  27  39  63  98 135 172 213 253 299
#     4  10  19  32  53  78 106 137 175 220 268 319
#     4  10  18  32  52  78 108 138 173 220 265 314
#     4  12  24  38  58  84 114 145 180 224 269 316
#     4  11  24  39  54  76 108 144 182 222 265 317
#     4  12  24  38  57  81 109 147 186 219 264 323
#     4   9  19  38  63  88 114 145 182 225 272 321
#     4   9  16  28  46  69  98 135 171 208 259 316
#
# _framework density 18.094951999999999
#
# number of rings (size 3 to 8) (size 9 to 14) (size 15 to 20)
#    0.000    1.769    2.308    3.692    0.000    5.231 
#    0.000    1.154    0.000    2.308    0.000    0.538 
#    0.000    4.308    0.000    0.000    0.000    0.000 
#
# Total GULP energy -644848.171043 kJ/mol
# GULP energy per Si atom -12400.926366 kJ/mol
# Density = 1.805377 g / cm^3
# Si number density = 18.094952 Si / 1000 Ang^3
#
#
#
# Elastic Constant Matrix: (Units=GPa)
#
#
# Indices 1 2 3 4 5 6 
#
# 1 115.0385 43.8446 29.6610 0.0000 0.0000 0.0000
# 2 43.8446 97.3189 40.4187 0.0000 0.0000 0.0000
# 3 29.6610 40.4187 63.8651 0.0000 0.0000 0.0000
# 4 0.0000 0.0000 0.0000 28.1428 0.0000 0.0000
# 5 0.0000 0.0000 0.0000 0.0000 24.4097 0.0000
# 6 0.0000 0.0000 0.0000 0.0000 0.0000 28.8528
#
#
#
# Elastic Compliance Matrix: (Units=1/GPa)
#
#
# Indices 1 2 3 4 5 6 
#
# 1 0.010811 -0.003778 -0.002630 0.000000 0.000000 0.000000
# 2 -0.003778 0.015260 -0.007903 0.000000 0.000000 0.000000
# 3 -0.002630 -0.007903 0.021881 0.000000 0.000000 0.000000
# 4 0.000000 0.000000 0.000000 0.035533 0.000000 0.000000
# 5 0.000000 0.000000 0.000000 0.000000 0.040967 0.000000
# 6 0.000000 0.000000 0.000000 0.000000 0.000000 0.034659
#
#
# Mechanical properties :
#
#
# Convention : Reuss Voigt Hill
#
# Bulk Modulus (GPa) = 51.73351 56.00790 53.87070
# Shear Modulus (GPa) = 25.74984 27.10093 26.42538
#
# Velocity S-wave (km/s) = 3.77641 3.87422 3.82563
# Velocity P-wave (km/s) = 6.90414 7.14368 7.02493
#
# Compressibility (1/GPa) = 0.01932983
#
# Stress axis : x y z
#
# Youngs Moduli (GPa) = 92.49995 65.53072 45.70203
#
# Poissons Ratio (x) = 0.24760 0.12018
# Poissons Ratio (y) = 0.34950 0.36118
# Poissons Ratio (z) = 0.24324 0.51788
#
# Static dielectric constant tensor:
#      x y z
#    x 3.507140 0.000000 0.000000 
#    y 0.000000 3.354430 0.000000 
#    z 0.000000 0.000000 3.198850 
# 
# 
# High freq. dielectric constant tensor:
#      x y z
#    x 1.705430 0.000000 0.000000 
#    y 0.000000 1.700590 0.000000 
#    z 0.000000 0.000000 1.674860 
# 
# From -- ./inp_files/19921.got.cif
#   From: 2010.03.12/outbox.cif.g09.slc.cpg/sg47_10_cif.got.tgz:19921.got - 2010.04.14 03:12:58.
