data_PCOD8194548
_publ_section_title
;
Structure prediction by ZEFSAII (Michael W. Deem and Ramdas Pophale) SiO2 
 PCOD8194548
Probable space group: P M M M
;
_chemical_formula_sum "Si O2"
_cell_formula_units_Z 64
_cell_length_a 18.291691
_cell_length_b 14.305258
_cell_length_c 13.560342
_cell_angle_alpha 90.000000
_cell_angle_beta 90.000000
_cell_angle_gamma 90.000000
_cell_volume 3548.298878
_symmetry_space_group_name_H-M "P M M M"
_symmetry_group_IT_number 47
_symmetry_cell_setting 'orthorhombic'
loop_
_space_group_symop_operation_xyz
x,y,z
-x,-y,z
x,-y,-z
-x,y,-z
-x,-y,-z
x,y,-z
-x,y,z
x,-y,z
loop_
_atom_site_type_symbol
_atom_site_label
_atom_site_fract_x
_atom_site_fract_y
_atom_site_fract_z
Si Si1 0.086014 0.606253 0.613152
Si Si2 0.415380 0.335096 0.609433
Si Si3 0.689624 0.836138 0.608435
Si Si4 0.580880 0.726624 0.890802
Si Si5 0.198399 0.892447 0.886544
Si Si6 0.809635 0.740725 0.726589
Si Si7 0.645293 0.900859 0.193583
Si Si8 0.316595 0.395981 0.219960
O O1 0.108612 0.626234 0.500000
O O2 0.110316 0.500000 0.640887
O O3 0.122218 0.682482 0.684907
O O4 0.000000 0.616779 0.626649
O O5 0.412206 0.379792 0.500000
O O6 0.500000 0.328236 0.645185
O O7 0.379065 0.233497 0.607362
O O8 0.366970 0.398125 0.682161
O O9 0.697831 0.882643 0.500000
O O10 0.766870 0.787232 0.635017
O O11 0.672824 0.910892 0.693422
O O12 0.500000 0.686875 0.876000
O O13 0.590987 0.814054 0.817053
O O14 0.634900 0.641700 0.869827
O O15 0.593878 0.765101 0.000000
O O16 0.163374 0.818040 0.808127
O O17 0.285726 0.883503 0.877374
O O18 0.174066 0.000000 0.862038
O O19 0.176433 0.867664 0.000000
O O20 0.754090 0.668824 0.776960
O O21 0.607348 0.000000 0.166435
O O22 0.289941 0.500000 0.196615
#
# Coordination Sequence:
#
# PCOD8194548 Si02
#       8
#     8   8   8   8   8   8   8   8
#     4   9  18  33  55  84 117 152 186 217 252 302
#     4   9  17  30  47  64  87 123 162 199 244 299
#     4   9  17  29  46  73 103 131 163 204 253 305
#     4  11  23  38  52  67  93 129 171 222 273 320
#     4   9  17  31  54  80 104 135 177 222 268 317
#     4  10  18  32  53  81 110 138 175 216 265 303
#     4  10  19  32  51  73  97 128 168 215 264 316
#     4  11  22  34  49  72  99 127 165 213 262 311
#
# _framework density 18.036812999999999
#
# number of rings (size 3 to 8) (size 9 to 14) (size 15 to 20)
#    0.000    2.250    3.750    1.875    0.000    3.250 
#    0.000    1.875    0.000    3.000    0.000    5.250 
#    0.000    0.000    0.000    0.000    0.000    0.000 
#
# Total GULP energy -792971.244675 kJ/mol
# GULP energy per Si atom -12390.175698 kJ/mol
# Density = 1.799576 g / cm^3
# Si number density = 18.036813 Si / 1000 Ang^3
#
#
#
# Elastic Constant Matrix: (Units=GPa)
#
#
# Indices 1 2 3 4 5 6 
#
# 1 50.8019 27.0991 28.4313 0.0000 0.0000 0.0000
# 2 27.0991 96.1403 44.1060 0.0000 0.0000 0.0000
# 3 28.4313 44.1060 107.7954 0.0000 0.0000 0.0000
# 4 0.0000 0.0000 0.0000 20.7654 0.0000 0.0000
# 5 0.0000 0.0000 0.0000 0.0000 20.4707 0.0000
# 6 0.0000 0.0000 0.0000 0.0000 0.0000 12.4936
#
#
#
# Elastic Compliance Matrix: (Units=1/GPa)
#
#
# Indices 1 2 3 4 5 6 
#
# 1 0.024851 -0.004922 -0.004541 0.000000 0.000000 0.000000
# 2 -0.004922 0.013780 -0.004340 0.000000 0.000000 0.000000
# 3 -0.004541 -0.004340 0.012250 0.000000 0.000000 0.000000
# 4 0.000000 0.000000 0.000000 0.048157 0.000000 0.000000
# 5 0.000000 0.000000 0.000000 0.000000 0.048850 0.000000
# 6 0.000000 0.000000 0.000000 0.000000 0.000000 0.080041
#
#
# Mechanical properties :
#
#
# Convention : Reuss Voigt Hill
#
# Bulk Modulus (GPa) = 42.96261 50.44562 46.70411
# Shear Modulus (GPa) = 18.99024 21.08601 20.03812
#
# Velocity S-wave (km/s) = 3.24830 3.42285 3.33672
# Velocity P-wave (km/s) = 6.15952 6.60682 6.38709
#
# Compressibility (1/GPa) = 0.02327605
#
# Stress axis : x y z
#
# Youngs Moduli (GPa) = 40.24008 72.56987 81.63078
#
# Poissons Ratio (x) = 0.35716 0.37066
# Poissons Ratio (y) = 0.19805 0.35429
# Poissons Ratio (z) = 0.18272 0.31496
#
# Static dielectric constant tensor:
#      x y z
#    x 2.943100 0.000000 0.000000 
#    y 0.000000 3.277770 0.000000 
#    z 0.000000 0.000000 3.520060 
# 
# 
# High freq. dielectric constant tensor:
#      x y z
#    x 1.655850 0.000000 0.000000 
#    y 0.000000 1.692130 0.000000 
#    z 0.000000 0.000000 1.703760 
# 
# From -- ./inp_files/24792.got.cif
#   From: 2010.03.12/outbox.cif.g09.slc.cpg/sg47_13_cif.got.tgz:24792.got - 2010.04.14 03:12:58.
