data_PCOD8194746
_publ_section_title
;
Structure prediction by ZEFSAII (Michael W. Deem and Ramdas Pophale) SiO2 
 PCOD8194746
Probable space group: P M M M
;
_chemical_formula_sum "Si O2"
_cell_formula_units_Z 52
_cell_length_a 9.516583
_cell_length_b 22.118284
_cell_length_c 15.335220
_cell_angle_alpha 90.000000
_cell_angle_beta 90.000000
_cell_angle_gamma 90.000000
_cell_volume 3227.917903
_symmetry_space_group_name_H-M "P M M M"
_symmetry_group_IT_number 47
_symmetry_cell_setting 'orthorhombic'
loop_
_space_group_symop_operation_xyz
x,y,z
-x,-y,z
x,-y,-z
-x,y,-z
-x,-y,-z
x,y,-z
-x,y,z
x,-y,z
loop_
_atom_site_type_symbol
_atom_site_label
_atom_site_fract_x
_atom_site_fract_y
_atom_site_fract_z
Si Si1 0.163138 0.281129 0.755189
Si Si2 0.835355 0.860002 0.240719
Si Si3 0.846775 0.500000 0.103258
Si Si4 0.342616 0.281705 0.404296
Si Si5 0.659957 0.929633 0.100684
Si Si6 0.341949 0.138099 0.403432
Si Si7 0.831779 0.629773 0.902748
O O1 0.195257 0.210918 0.770933
O O2 0.239290 0.307114 0.669332
O O3 0.221921 0.318094 0.838037
O O4 0.000000 0.293003 0.740535
O O5 0.769399 0.892202 0.157477
O O6 0.764551 0.885919 0.329415
O O7 0.000000 0.874293 0.245321
O O8 0.770721 0.436328 0.128448
O O9 0.000000 0.500000 0.148277
O O10 0.865566 0.500000 0.000000
O O11 0.294708 0.305167 0.500000
O O12 0.500000 0.304300 0.384008
O O13 0.338211 0.209823 0.404197
O O14 0.500000 0.911272 0.124262
O O15 0.683394 0.000000 0.119516
O O16 0.690958 0.914862 0.000000
O O17 0.296841 0.114276 0.500000
O O18 0.500000 0.115490 0.381809
O O19 0.000000 0.626208 0.903428
O O20 0.777185 0.645799 0.000000
#
# Coordination Sequence:
#
# PCOD8194746 Si02
#       7
#     8   8   4   8   8   8   8
#     4   9  17  26  38  62  92 116 136 164 208 255
#     4  10  19  28  42  67  95 118 137 165 213 265
#     4   7  10  18  34  54  74 103 144 180 205 233
#     4   8  14  25  40  57  79 109 143 176 207 241
#     4   9  19  36  54  67  80 106 147 187 215 242
#     4   8  14  26  44  63  84 114 148 176 204 243
#     4   8  13  22  36  55  82 113 142 172 205 243
#
# _framework density 16.109455000000001
#
# number of rings (size 3 to 8) (size 9 to 14) (size 15 to 20)
#    0.000    3.462    0.000    2.769    0.000    2.462 
#    0.000    5.385    0.000    0.923    0.000    4.308 
#    0.000    6.154    0.000    0.000    0.000    0.000 
#
# Total GULP energy -644277.547942 kJ/mol
# GULP energy per Si atom -12389.952845 kJ/mol
# Density = 1.607279 g / cm^3
# Si number density = 16.109455 Si / 1000 Ang^3
#
#
#
# Elastic Constant Matrix: (Units=GPa)
#
#
# Indices 1 2 3 4 5 6 
#
# 1 72.4241 36.3370 65.9113 0.0000 0.0000 0.0000
# 2 36.3370 47.8866 51.6014 0.0000 0.0000 0.0000
# 3 65.9113 51.6014 133.9953 0.0000 0.0000 0.0000
# 4 0.0000 0.0000 0.0000 1.4727 0.0000 0.0000
# 5 0.0000 0.0000 0.0000 0.0000 29.0462 0.0000
# 6 0.0000 0.0000 0.0000 0.0000 0.0000 8.5491
#
#
#
# Elastic Compliance Matrix: (Units=1/GPa)
#
#
# Indices 1 2 3 4 5 6 
#
# 1 0.027996 -0.010947 -0.009555 0.000000 0.000000 0.000000
# 2 -0.010947 0.039976 -0.010010 0.000000 0.000000 0.000000
# 3 -0.009555 -0.010010 0.016018 0.000000 0.000000 0.000000
# 4 0.000000 0.000000 0.000000 0.679041 0.000000 0.000000
# 5 0.000000 0.000000 0.000000 0.000000 0.034428 0.000000
# 6 0.000000 0.000000 0.000000 0.000000 0.000000 0.116971
#
#
# Mechanical properties :
#
#
# Convention : Reuss Voigt Hill
#
# Bulk Modulus (GPa) = 43.54417 62.44505 52.99461
# Shear Modulus (GPa) = 5.08590 14.51068 9.79829
#
# Velocity S-wave (km/s) = 1.77875 3.00451 2.46891
# Velocity P-wave (km/s) = 5.59531 7.13325 6.41057
#
# Compressibility (1/GPa) = 0.02296519
#
# Stress axis : x y z
#
# Youngs Moduli (GPa) = 35.71932 25.01507 62.43023
#
# Poissons Ratio (x) = 0.27385 0.59654
# Poissons Ratio (y) = 0.39103 0.62491
# Poissons Ratio (z) = 0.34131 0.25040
#
# Static dielectric constant tensor:
#      x y z
#    x 2.897580 0.000000 0.000000 
#    y 0.000000 2.922780 0.000000 
#    z 0.000000 0.000000 3.314400 
# 
# 
# High freq. dielectric constant tensor:
#      x y z
#    x 1.595860 0.000000 0.000000 
#    y 0.000000 1.585010 0.000000 
#    z 0.000000 0.000000 1.622380 
# 
# From -- ./inp_files/15460.got.cif
#   From: 2010.03.12/outbox.cif.g09.slc.cpg/sg47_8_cif.got.tgz:15460.got - 2010.04.14 03:12:58.
