data_PCOD8194694
_publ_section_title
;
Structure prediction by ZEFSAII (Michael W. Deem and Ramdas Pophale) SiO2 
 PCOD8194694
Probable space group: P M M M
;
_chemical_formula_sum "Si O2"
_cell_formula_units_Z 60
_cell_length_a 9.163530
_cell_length_b 18.052987
_cell_length_c 24.372333
_cell_angle_alpha 90.000000
_cell_angle_beta 90.000000
_cell_angle_gamma 90.000000
_cell_volume 4031.892820
_symmetry_space_group_name_H-M "P M M M"
_symmetry_group_IT_number 47
_symmetry_cell_setting 'orthorhombic'
loop_
_space_group_symop_operation_xyz
x,y,z
-x,-y,z
x,-y,-z
-x,y,-z
-x,-y,-z
x,y,-z
-x,y,z
x,-y,z
loop_
_atom_site_type_symbol
_atom_site_label
_atom_site_fract_x
_atom_site_fract_y
_atom_site_fract_z
Si Si1 0.838883 0.702202 0.277064
Si Si2 0.667030 0.086273 0.679242
Si Si3 0.668358 0.677346 0.561315
Si Si4 0.328209 0.080426 0.000000
Si Si5 0.163434 0.199657 0.385371
Si Si6 0.827014 0.154551 0.219583
Si Si7 0.328056 0.583037 0.335685
Si Si8 0.331507 0.911839 0.118936
O O1 0.840351 0.751093 0.331336
O O2 0.787316 0.758240 0.228822
O O3 0.733085 0.632142 0.285288
O O4 0.000000 0.670896 0.264515
O O5 0.500000 0.113667 0.684013
O O6 0.744335 0.126127 0.627750
O O7 0.747580 0.102811 0.736273
O O8 0.675380 0.000000 0.666895
O O9 0.692532 0.645406 0.500000
O O10 0.500000 0.697170 0.571978
O O11 0.759436 0.753129 0.566901
O O12 0.720585 0.615793 0.605203
O O13 0.287376 0.119485 0.942093
O O14 0.500000 0.068062 0.000000
O O15 0.251917 0.000000 0.000000
O O16 0.000000 0.177854 0.403991
O O17 0.773849 0.131543 0.159725
O O18 0.000000 0.142462 0.225655
O O19 0.500000 0.582488 0.329818
O O20 0.264660 0.500000 0.331433
O O21 0.500000 0.893728 0.132788
O O22 0.305554 0.000000 0.122517
#
# Coordination Sequence:
#
# PCOD8194694 Si02
#       8
#     8   8   8   4   8   8   8   8
#     4   8  16  29  41  55  77 106 135 159 191 237
#     4  10  19  29  42  60  80 102 130 164 203 248
#     4   9  17  29  45  63  83 108 134 158 187 227
#     4   7  12  24  39  53  73 105 144 181 212 245
#     4   9  17  29  44  60  79 103 130 162 199 237
#     4  10  19  28  39  58  83 108 136 172 208 240
#     4   9  17  28  43  64  86 106 130 160 192 227
#     4   9  16  26  40  57  78 108 146 182 214 247
#
# _framework density 14.881347999999999
#
# number of rings (size 3 to 8) (size 9 to 14) (size 15 to 20)
#    0.000    3.000    0.000    3.200    0.000    7.467 
#    0.000    1.667    0.000    1.600    0.000    6.533 
#    0.000    0.000    0.000    0.600    0.000   11.733 
#
# Total GULP energy -743554.367061 kJ/mol
# GULP energy per Si atom -12392.572784 kJ/mol
# Density = 1.484748 g / cm^3
# Si number density = 14.881348 Si / 1000 Ang^3
#
#
#
# Elastic Constant Matrix: (Units=GPa)
#
#
# Indices 1 2 3 4 5 6 
#
# 1 71.0798 42.9008 26.5422 0.0000 0.0000 0.0000
# 2 42.9008 84.2738 39.6991 0.0000 0.0000 0.0000
# 3 26.5422 39.6991 57.2186 0.0000 0.0000 0.0000
# 4 0.0000 0.0000 0.0000 12.4816 0.0000 0.0000
# 5 0.0000 0.0000 0.0000 0.0000 16.1671 0.0000
# 6 0.0000 0.0000 0.0000 0.0000 0.0000 18.2573
#
#
#
# Elastic Compliance Matrix: (Units=1/GPa)
#
#
# Indices 1 2 3 4 5 6 
#
# 1 0.020747 -0.008955 -0.003411 0.000000 0.000000 0.000000
# 2 -0.008955 0.021492 -0.010758 0.000000 0.000000 0.000000
# 3 -0.003411 -0.010758 0.026523 0.000000 0.000000 0.000000
# 4 0.000000 0.000000 0.000000 0.080118 0.000000 0.000000
# 5 0.000000 0.000000 0.000000 0.000000 0.061854 0.000000
# 6 0.000000 0.000000 0.000000 0.000000 0.000000 0.054772
#
#
# Mechanical properties :
#
#
# Convention : Reuss Voigt Hill
#
# Bulk Modulus (GPa) = 44.41441 47.87292 46.14366
# Shear Modulus (GPa) = 15.66123 16.27654 15.96889
#
# Velocity S-wave (km/s) = 3.24760 3.31078 3.27934
# Velocity P-wave (km/s) = 6.63122 6.84504 6.73898
#
# Compressibility (1/GPa) = 0.02251522
#
# Stress axis : x y z
#
# Youngs Moduli (GPa) = 48.19937 46.52821 37.70296
#
# Poissons Ratio (x) = 0.41665 0.12861
# Poissons Ratio (y) = 0.43161 0.40560
# Poissons Ratio (z) = 0.16441 0.50054
#
# Static dielectric constant tensor:
#      x y z
#    x 2.958200 0.000000 0.000000 
#    y 0.000000 2.837460 0.000000 
#    z 0.000000 0.000000 2.881440 
# 
# 
# High freq. dielectric constant tensor:
#      x y z
#    x 1.572850 0.000000 0.000000 
#    y 0.000000 1.543370 0.000000 
#    z 0.000000 0.000000 1.544580 
# 
# From -- ./inp_files/32212.got.cif
#   From: 2010.03.12/outbox.cif.g09.slc.cpg/sg47_17_cif.got.tgz:32212.got - 2010.04.14 03:12:58.
