data_PCOD8194829
_publ_section_title
;
Structure prediction by ZEFSAII (Michael W. Deem and Ramdas Pophale) SiO2 
 PCOD8194829
Probable space group: P M M M
;
_chemical_formula_sum "Si O2"
_cell_formula_units_Z 52
_cell_length_a 13.756241
_cell_length_b 26.511989
_cell_length_c 9.020919
_cell_angle_alpha 90.000000
_cell_angle_beta 90.000000
_cell_angle_gamma 90.000000
_cell_volume 3289.977061
_symmetry_space_group_name_H-M "P M M M"
_symmetry_group_IT_number 47
_symmetry_cell_setting 'orthorhombic'
loop_
_space_group_symop_operation_xyz
x,y,z
-x,-y,z
x,-y,-z
-x,y,-z
-x,-y,-z
x,y,-z
-x,y,z
x,-y,z
loop_
_atom_site_type_symbol
_atom_site_label
_atom_site_fract_x
_atom_site_fract_y
_atom_site_fract_z
Si Si1 0.116058 0.500000 0.332289
Si Si2 0.780405 0.208113 0.174523
Si Si3 0.115341 0.598734 0.166866
Si Si4 0.887578 0.299451 0.325086
Si Si5 0.109001 0.107248 0.826122
Si Si6 0.277553 0.944072 0.672424
Si Si7 0.611330 0.845713 0.674220
O O1 0.155748 0.500000 0.500000
O O2 0.157069 0.549246 0.248379
O O3 0.000000 0.500000 0.332420
O O4 0.820303 0.257180 0.254508
O O5 0.852342 0.162582 0.215686
O O6 0.673332 0.195456 0.236192
O O7 0.774598 0.217917 0.000000
O O8 0.148413 0.647629 0.258285
O O9 0.000000 0.595485 0.162329
O O10 0.157380 0.601416 0.000000
O O11 0.872329 0.300886 0.500000
O O12 0.000000 0.289005 0.283546
O O13 0.175205 0.064555 0.753131
O O14 0.000000 0.102130 0.763764
O O15 0.111956 0.098608 0.000000
O O16 0.255912 0.939443 0.500000
O O17 0.356787 0.902450 0.721161
O O18 0.316848 0.000000 0.713369
O O19 0.627109 0.837090 0.500000
O O20 0.500000 0.838643 0.720686
#
# Coordination Sequence:
#
# PCOD8194829 Si02
#       7
#     4   8   8   8   8   8   8
#     4   9  15  23  35  51  75 109 150 193 230 261
#     4  10  19  31  47  65  86 111 141 178 217 259
#     4   9  16  25  37  54  78 111 151 190 225 260
#     4  10  19  29  42  62  88 117 149 184 221 260
#     4   9  18  31  45  61  83 113 145 173 205 248
#     4   9  18  31  46  66  89 110 136 171 209 250
#     4   9  18  33  51  68  86 109 137 170 212 262
#
# _framework density 15.805581999999999
#
# number of rings (size 3 to 8) (size 9 to 14) (size 15 to 20)
#    0.000    2.692    0.000    2.077    0.000    6.462 
#    0.000    3.077    0.000    0.000    0.000    4.308 
#    0.000    0.000    0.000    0.692    0.000   12.846 
#
# Total GULP energy -644784.621188 kJ/mol
# GULP energy per Si atom -12399.704254 kJ/mol
# Density = 1.576961 g / cm^3
# Si number density = 15.805582 Si / 1000 Ang^3
#
#
#
# Elastic Constant Matrix: (Units=GPa)
#
#
# Indices 1 2 3 4 5 6 
#
# 1 77.7361 42.6400 35.8099 0.0000 0.0000 0.0000
# 2 42.6400 125.7665 54.8113 0.0000 0.0000 0.0000
# 3 35.8099 54.8113 77.3532 0.0000 0.0000 0.0000
# 4 0.0000 0.0000 0.0000 29.6459 0.0000 0.0000
# 5 0.0000 0.0000 0.0000 0.0000 19.2043 0.0000
# 6 0.0000 0.0000 0.0000 0.0000 0.0000 12.2936
#
#
#
# Elastic Compliance Matrix: (Units=1/GPa)
#
#
# Indices 1 2 3 4 5 6 
#
# 1 0.017322 -0.003441 -0.005581 0.000000 0.000000 0.000000
# 2 -0.003441 0.012187 -0.007043 0.000000 0.000000 0.000000
# 3 -0.005581 -0.007043 0.020502 0.000000 0.000000 0.000000
# 4 0.000000 0.000000 0.000000 0.033731 0.000000 0.000000
# 5 0.000000 0.000000 0.000000 0.000000 0.052072 0.000000
# 6 0.000000 0.000000 0.000000 0.000000 0.000000 0.081343
#
#
# Mechanical properties :
#
#
# Convention : Reuss Voigt Hill
#
# Bulk Modulus (GPa) = 55.92193 60.81981 58.37087
# Shear Modulus (GPa) = 19.58882 22.06840 20.82861
#
# Velocity S-wave (km/s) = 3.52428 3.74068 3.63409
# Velocity P-wave (km/s) = 7.21239 7.56442 7.39050
#
# Compressibility (1/GPa) = 0.01788207
#
# Stress axis : x y z
#
# Youngs Moduli (GPa) = 57.72900 82.05373 48.77582
#
# Poissons Ratio (x) = 0.28231 0.27223
# Poissons Ratio (y) = 0.19862 0.34352
# Poissons Ratio (z) = 0.32220 0.57789
#
# Static dielectric constant tensor:
#      x y z
#    x 2.769710 0.000000 0.000000 
#    y 0.000000 3.090080 0.000000 
#    z 0.000000 0.000000 3.098070 
# 
# 
# High freq. dielectric constant tensor:
#      x y z
#    x 1.560270 0.000000 0.000000 
#    y 0.000000 1.608410 0.000000 
#    z 0.000000 0.000000 1.617490 
# 
# From -- ./inp_files/7586.got.cif
#   From: 2010.03.12/outbox.cif.g09.slc.cpg/sg47_4_cif.got.tgz:7586.got - 2010.04.14 03:12:58.
