data_PCOD8194140
_publ_section_title
;
Structure prediction by ZEFSAII (Michael W. Deem and Ramdas Pophale) SiO2 
 PCOD8194140
Probable space group: P M M M
;
_chemical_formula_sum "Si O2"
_cell_formula_units_Z 64
_cell_length_a 20.614553
_cell_length_b 20.063854
_cell_length_c 9.050393
_cell_angle_alpha 90.000000
_cell_angle_beta 90.000000
_cell_angle_gamma 90.000000
_cell_volume 3743.309352
_symmetry_space_group_name_H-M "P M M M"
_symmetry_group_IT_number 47
_symmetry_cell_setting 'orthorhombic'
loop_
_space_group_symop_operation_xyz
x,y,z
-x,-y,z
x,-y,-z
-x,y,-z
-x,-y,-z
x,y,-z
-x,y,z
x,-y,z
loop_
_atom_site_type_symbol
_atom_site_label
_atom_site_fract_x
_atom_site_fract_y
_atom_site_fract_z
Si Si1 0.725556 0.070028 0.165557
Si Si2 0.927284 0.671781 0.169860
Si Si3 0.814826 0.425112 0.824254
Si Si4 0.879917 0.073164 0.166030
Si Si5 0.573379 0.575262 0.326398
Si Si6 0.876656 0.204295 0.675046
Si Si7 0.686709 0.350930 0.827463
Si Si8 0.739539 0.789456 0.175006
O O1 0.802701 0.073433 0.165600
O O2 0.703536 0.141835 0.232624
O O3 0.703625 0.000000 0.247468
O O4 0.698516 0.065069 0.000000
O O5 0.877187 0.616423 0.231344
O O6 0.924373 0.738379 0.267586
O O7 0.000000 0.642441 0.182673
O O8 0.910247 0.689692 0.000000
O O9 0.818830 0.500000 0.759713
O O10 0.749147 0.390470 0.764537
O O11 0.814190 0.426758 0.000000
O O12 0.904438 0.132460 0.271921
O O13 0.904518 0.000000 0.221167
O O14 0.905667 0.086102 0.000000
O O15 0.582479 0.581777 0.500000
O O16 0.500000 0.593809 0.280857
O O17 0.589296 0.500000 0.275204
O O18 0.621144 0.626040 0.248248
O O19 0.873577 0.204264 0.500000
O O20 0.806391 0.221349 0.740367
O O21 0.693184 0.272572 0.791637
O O22 0.680382 0.364524 0.000000
O O23 0.755069 0.795095 0.000000
#
# Coordination Sequence:
#
# PCOD8194140 Si02
#       8
#     8   8   8   8   8   8   8   8
#     4   7  10  18  35  59  85 116 152 185 217 259
#     4  10  20  35  53  68  87 121 161 199 242 295
#     4   9  17  30  49  74  98 117 147 196 248 290
#     4   8  14  26  45  66  89 120 156 191 230 283
#     4   9  19  35  51  68  96 133 166 195 231 283
#     4  11  20  29  45  68  96 124 153 196 243 287
#     4  10  18  29  49  74 101 128 156 199 243 281
#     4   9  16  28  45  65  94 127 160 195 234 283
#
# _framework density 17.097169999999998
#
# number of rings (size 3 to 8) (size 9 to 14) (size 15 to 20)
#    0.000    2.875    1.250    3.375    0.000    2.250 
#    0.000    1.875    0.000    0.750    0.000    3.500 
#    0.000    0.500    0.000    6.250    0.000    1.125 
#
# Total GULP energy -792918.520332 kJ/mol
# GULP energy per Si atom -12389.351880 kJ/mol
# Density = 1.705826 g / cm^3
# Si number density = 17.097170 Si / 1000 Ang^3
#
#
#
# Elastic Constant Matrix: (Units=GPa)
#
#
# Indices 1 2 3 4 5 6 
#
# 1 79.5379 59.0636 23.8646 0.0000 0.0000 0.0000
# 2 59.0636 165.1792 36.0651 0.0000 0.0000 0.0000
# 3 23.8646 36.0651 48.3678 0.0000 0.0000 0.0000
# 4 0.0000 0.0000 0.0000 13.8032 0.0000 0.0000
# 5 0.0000 0.0000 0.0000 0.0000 13.3236 0.0000
# 6 0.0000 0.0000 0.0000 0.0000 0.0000 14.6187
#
#
#
# Elastic Compliance Matrix: (Units=1/GPa)
#
#
# Indices 1 2 3 4 5 6 
#
# 1 0.018035 -0.005382 -0.004885 0.000000 0.000000 0.000000
# 2 -0.005382 0.008838 -0.003934 0.000000 0.000000 0.000000
# 3 -0.004885 -0.003934 0.026019 0.000000 0.000000 0.000000
# 4 0.000000 0.000000 0.000000 0.072447 0.000000 0.000000
# 5 0.000000 0.000000 0.000000 0.000000 0.075055 0.000000
# 6 0.000000 0.000000 0.000000 0.000000 0.000000 0.068405
#
#
# Mechanical properties :
#
#
# Convention : Reuss Voigt Hill
#
# Bulk Modulus (GPa) = 40.83598 59.00796 49.92197
# Shear Modulus (GPa) = 16.37388 19.95522 18.16455
#
# Velocity S-wave (km/s) = 3.09802 3.42009 3.26303
# Velocity P-wave (km/s) = 6.06082 7.08408 6.59233
#
# Compressibility (1/GPa) = 0.02448821
#
# Stress axis : x y z
#
# Youngs Moduli (GPa) = 55.44718 113.15382 38.43389
#
# Poissons Ratio (x) = 0.60902 0.18776
# Poissons Ratio (y) = 0.29843 0.15120
# Poissons Ratio (z) = 0.27088 0.44515
#
# Static dielectric constant tensor:
#      x y z
#    x 2.833570 0.000000 0.000000 
#    y 0.000000 3.820630 0.000000 
#    z 0.000000 0.000000 2.850050 
# 
# 
# High freq. dielectric constant tensor:
#      x y z
#    x 1.612600 0.000000 0.000000 
#    y 0.000000 1.682360 0.000000 
#    z 0.000000 0.000000 1.621690 
# 
# From -- ./inp_files/11815.got.cif
#   From: 2010.03.12/outbox.cif.g09.slc.cpg/sg47_6_cif.got.tgz:11815.got - 2010.04.14 03:12:58.
