data_PCOD8194226
_publ_section_title
;
Structure prediction by ZEFSAII (Michael W. Deem and Ramdas Pophale) SiO2 
 PCOD8194226
Probable space group: P M M M
;
_chemical_formula_sum "Si O2"
_cell_formula_units_Z 52
_cell_length_a 26.595273
_cell_length_b 9.039858
_cell_length_c 12.611871
_cell_angle_alpha 90.000000
_cell_angle_beta 90.000000
_cell_angle_gamma 90.000000
_cell_volume 3032.114388
_symmetry_space_group_name_H-M "P M M M"
_symmetry_group_IT_number 47
_symmetry_cell_setting 'orthorhombic'
loop_
_space_group_symop_operation_xyz
x,y,z
-x,-y,z
x,-y,-z
-x,y,-z
-x,-y,-z
x,y,-z
-x,y,z
x,-y,z
loop_
_atom_site_type_symbol
_atom_site_label
_atom_site_fract_x
_atom_site_fract_y
_atom_site_fract_z
Si Si1 0.718215 0.671127 0.119587
Si Si2 0.616691 0.826148 0.878745
Si Si3 0.212842 0.673064 0.310191
Si Si4 0.622709 0.673885 0.500000
Si Si5 0.557577 0.671220 0.702639
Si Si6 0.893094 0.675658 0.618548
Si Si7 0.270320 0.175766 0.500000
Si Si8 0.000000 0.663219 0.373356
O O1 0.703269 0.500000 0.127597
O O2 0.670101 0.761969 0.159349
O O3 0.765426 0.708411 0.194151
O O4 0.733545 0.715581 0.000000
O O5 0.572466 0.762996 0.806423
O O6 0.618824 0.000000 0.865327
O O7 0.605789 0.779285 0.000000
O O8 0.218098 0.500000 0.339763
O O9 0.154052 0.721497 0.308094
O O10 0.242808 0.766486 0.395783
O O11 0.635446 0.500000 0.500000
O O12 0.590899 0.719578 0.602857
O O13 0.673011 0.767597 0.500000
O O14 0.500000 0.705773 0.674268
O O15 0.565712 0.500000 0.729134
O O16 0.881349 0.734180 0.500000
O O17 0.899649 0.500000 0.615486
O O18 0.947007 0.742790 0.660753
O O19 0.269974 0.000000 0.500000
O O20 0.000000 0.500000 0.322505
O O21 0.000000 0.652565 0.500000
#
# Coordination Sequence:
#
# PCOD8194226 Si02
#       8
#     8   8   8   4   8   8   4   4
#     4   9  18  32  50  71  93 120 157 197 233 272
#     4  10  21  36  53  73  98 126 154 188 233 281
#     4  10  18  30  48  68  93 125 158 193 234 279
#     4  10  21  38  56  72  95 127 158 187 223 271
#     4  10  21  37  57  78  97 120 153 191 228 269
#     4   8  12  20  36  60  89 118 152 191 230 272
#     4  12  24  33  45  70 101 126 153 189 230 277
#     4   7  10  16  30  56  87 115 147 192 231 262
#
# _framework density 17.149749
#
# number of rings (size 3 to 8) (size 9 to 14) (size 15 to 20)
#    0.000    2.538    0.769    3.231    0.000    7.385 
#    0.000    1.538    0.000    1.385    0.000    1.615 
#    0.000    4.308    0.000    0.000    0.000    8.846 
#
# Total GULP energy -644544.451020 kJ/mol
# GULP energy per Si atom -12395.085597 kJ/mol
# Density = 1.711072 g / cm^3
# Si number density = 17.149749 Si / 1000 Ang^3
#
#
#
# Elastic Constant Matrix: (Units=GPa)
#
#
# Indices 1 2 3 4 5 6 
#
# 1 152.9882 41.4590 58.6482 0.0000 0.0000 0.0000
# 2 41.4590 46.5458 31.1571 0.0000 0.0000 0.0000
# 3 58.6482 31.1571 79.3289 0.0000 0.0000 0.0000
# 4 0.0000 0.0000 0.0000 14.7624 0.0000 0.0000
# 5 0.0000 0.0000 0.0000 0.0000 505.1752 0.0000
# 6 0.0000 0.0000 0.0000 0.0000 0.0000 -0.8250
#
#
#
# Elastic Compliance Matrix: (Units=1/GPa)
#
#
# Indices 1 2 3 4 5 6 
#
# 1 0.010027 -0.005384 -0.005298 0.000000 0.000000 0.000000
# 2 -0.005384 0.032039 -0.008603 0.000000 0.000000 0.000000
# 3 -0.005298 -0.008603 0.019901 0.000000 0.000000 0.000000
# 4 0.000000 0.000000 0.000000 0.067740 0.000000 0.000000
# 5 0.000000 0.000000 0.000000 0.000000 0.001980 0.000000
# 6 0.000000 0.000000 0.000000 0.000000 0.000000 -1.212146
#
#
# Mechanical properties :
#
#
# Convention : Reuss Voigt Hill
#
# Bulk Modulus (GPa) = 42.74157 60.15461 51.44809
# Shear Modulus (GPa) = -4.83516 113.66243 54.41363
#
# Velocity S-wave (km/s) = -1.68092 8.14987 5.63892
# Velocity P-wave (km/s) = 4.60536 11.12262 8.51240
#
# Compressibility (1/GPa) = 0.02339643
#
# Stress axis : x y z
#
# Youngs Moduli (GPa) = 99.73508 31.21219 50.24795
#
# Poissons Ratio (x) = 0.16806 0.26621
# Poissons Ratio (y) = 0.53702 0.43227
# Poissons Ratio (z) = 0.52839 0.26851
#
# Static dielectric constant tensor:
#      x y z
#    x 3.571870 0.000000 0.000000 
#    y 0.000000 2.941830 0.000000 
#    z 0.000000 0.000000 3.188930 
# 
# 
# High freq. dielectric constant tensor:
#      x y z
#    x 1.674410 0.000000 0.000000 
#    y 0.000000 1.631070 0.000000 
#    z 0.000000 0.000000 1.641830 
# 
# From -- ./inp_files/19835.got.cif
#   From: 2010.03.12/outbox.cif.g09.slc.cpg/sg47_10_cif.got.tgz:19835.got - 2010.04.14 03:12:58.
