data_PCOD8194764
_publ_section_title
;
Structure prediction by ZEFSAII (Michael W. Deem and Ramdas Pophale) SiO2 
 PCOD8194764
Probable space group: P M M M
;
_chemical_formula_sum "Si O2"
_cell_formula_units_Z 40
_cell_length_a 19.440226
_cell_length_b 19.422477
_cell_length_c 7.916054
_cell_angle_alpha 90.000000
_cell_angle_beta 90.000000
_cell_angle_gamma 90.000000
_cell_volume 2988.922631
_symmetry_space_group_name_H-M "P M M M"
_symmetry_group_IT_number 47
_symmetry_cell_setting 'orthorhombic'
loop_
_space_group_symop_operation_xyz
x,y,z
-x,-y,z
x,-y,-z
-x,y,-z
-x,-y,-z
x,y,-z
-x,y,z
x,-y,z
loop_
_atom_site_type_symbol
_atom_site_label
_atom_site_fract_x
_atom_site_fract_y
_atom_site_fract_z
Si Si1 0.422253 0.417751 0.000000
Si Si2 0.808818 0.423252 0.192657
Si Si3 0.917885 0.077921 0.000000
Si Si4 0.918202 0.166131 0.312722
Si Si5 0.077537 0.321184 0.302924
Si Si6 0.335428 0.418237 0.314063
O O1 0.384940 0.388074 0.168218
O O2 0.421205 0.500000 0.000000
O O3 0.500000 0.389817 0.000000
O O4 0.828496 0.500000 0.258043
O O5 0.874304 0.374440 0.207506
O O6 0.743366 0.392699 0.293450
O O7 0.785058 0.427240 0.000000
O O8 0.889001 0.115137 0.831201
O O9 0.000000 0.080240 0.000000
O O10 0.890425 0.000000 0.000000
O O11 0.890359 0.144939 0.500000
O O12 0.895552 0.243824 0.267640
O O13 0.000000 0.163280 0.317280
O O14 0.079477 0.337528 0.500000
O O15 0.000000 0.330105 0.233051
O O16 0.361973 0.394973 0.500000
O O17 0.335217 0.500000 0.297745
#
# Coordination Sequence:
#
# PCOD8194764 Si02
#       6
#     4   8   4   8   8   8
#     4   9  16  26  39  56  75  89 108 139 173 218
#     4  10  19  29  40  54  72  94 123 158 194 230
#     4   9  16  24  37  56  71  87 110 133 169 220
#     4   8  15  27  39  52  71  91 112 141 177 217
#     4   9  18  30  41  53  69  93 125 157 192 231
#     4   9  16  27  41  54  71  94 116 141 178 220
#
# _framework density 13.382749
#
# number of rings (size 3 to 8) (size 9 to 14) (size 15 to 20)
#    0.000    3.000    1.000    1.800    1.400    2.800 
#    0.000    6.000    0.000    0.000    0.000    0.000 
#    0.000    0.000    0.000    0.000    0.000    0.000 
#
# Total GULP energy -495743.519848 kJ/mol
# GULP energy per Si atom -12393.587996 kJ/mol
# Density = 1.335229 g / cm^3
# Si number density = 13.382749 Si / 1000 Ang^3
#
#
#
# Elastic Constant Matrix: (Units=GPa)
#
#
# Indices 1 2 3 4 5 6 
#
# 1 55.5389 23.2528 35.6112 0.0000 0.0000 0.0000
# 2 23.2528 57.7505 35.8099 0.0000 0.0000 0.0000
# 3 35.6112 35.8099 97.5863 0.0000 0.0000 0.0000
# 4 0.0000 0.0000 0.0000 16.4637 0.0000 0.0000
# 5 0.0000 0.0000 0.0000 0.0000 13.9261 0.0000
# 6 0.0000 0.0000 0.0000 0.0000 0.0000 -0.0786
#
#
#
# Elastic Compliance Matrix: (Units=1/GPa)
#
#
# Indices 1 2 3 4 5 6 
#
# 1 0.024864 -0.005677 -0.006990 0.000000 0.000000 0.000000
# 2 -0.005677 0.023713 -0.006630 0.000000 0.000000 0.000000
# 3 -0.006990 -0.006630 0.015231 0.000000 0.000000 0.000000
# 4 0.000000 0.000000 0.000000 0.060740 0.000000 0.000000
# 5 0.000000 0.000000 0.000000 0.000000 0.071808 0.000000
# 6 0.000000 0.000000 0.000000 0.000000 0.000000-12.726865
#
#
# Mechanical properties :
#
#
# Convention : Reuss Voigt Hill
#
# Bulk Modulus (GPa) = 39.66062 44.46929 42.06496
# Shear Modulus (GPa) = -0.40053 13.80903 6.70425
#
# Velocity S-wave (km/s) = -0.54766 3.21573 2.24065
# Velocity P-wave (km/s) = 5.41295 6.86213 6.18017
#
# Compressibility (1/GPa) = 0.02521393
#
# Stress axis : x y z
#
# Youngs Moduli (GPa) = 40.21825 42.17151 65.65495
#
# Poissons Ratio (x) = 0.23940 0.45895
# Poissons Ratio (y) = 0.22831 0.43529
# Poissons Ratio (z) = 0.28114 0.27959
#
# Static dielectric constant tensor:
#      x y z
#    x 2.417290 0.000000 0.000000 
#    y 0.000000 2.431610 0.000000 
#    z 0.000000 0.000000 2.951330 
# 
# 
# High freq. dielectric constant tensor:
#      x y z
#    x 1.465760 0.000000 0.000000 
#    y 0.000000 1.463050 0.000000 
#    z 0.000000 0.000000 1.530460 
# 
# From -- ./inp_files/6700.got.cif
#   From: 2010.03.12/outbox.cif.g09.slc.cpg/sg47_4_cif.got.tgz:6700.got - 2010.04.14 03:12:58.
