data_PCOD8194523
_publ_section_title
;
Structure prediction by ZEFSAII (Michael W. Deem and Ramdas Pophale) SiO2 
 PCOD8194523
Probable space group: P M M M
;
_chemical_formula_sum "Si O2"
_cell_formula_units_Z 52
_cell_length_a 9.601937
_cell_length_b 29.343716
_cell_length_c 10.902873
_cell_angle_alpha 90.000000
_cell_angle_beta 90.000000
_cell_angle_gamma 90.000000
_cell_volume 3071.955471
_symmetry_space_group_name_H-M "P M M M"
_symmetry_group_IT_number 47
_symmetry_cell_setting 'orthorhombic'
loop_
_space_group_symop_operation_xyz
x,y,z
-x,-y,z
x,-y,-z
-x,y,-z
-x,-y,-z
x,y,-z
-x,y,z
x,-y,z
loop_
_atom_site_type_symbol
_atom_site_label
_atom_site_fract_x
_atom_site_fract_y
_atom_site_fract_z
Si Si1 0.658017 0.187975 0.638175
Si Si2 0.165455 0.051138 0.500000
Si Si3 0.166286 0.220716 0.000000
Si Si4 0.658952 0.631695 0.142121
Si Si5 0.836758 0.882337 0.000000
Si Si6 0.342668 0.731019 0.800467
Si Si7 0.835054 0.890777 0.267235
Si Si8 0.843033 0.550107 0.854200
O O1 0.709885 0.183099 0.500000
O O2 0.500000 0.169844 0.654425
O O3 0.665300 0.241396 0.673037
O O4 0.761056 0.157900 0.720497
O O5 0.219141 0.075461 0.374828
O O6 0.000000 0.050189 0.500000
O O7 0.226089 0.000000 0.500000
O O8 0.223513 0.168891 0.000000
O O9 0.226455 0.246348 0.883526
O O10 0.000000 0.224003 0.000000
O O11 0.500000 0.616684 0.155727
O O12 0.692118 0.677661 0.218582
O O13 0.747579 0.590310 0.199927
O O14 0.696790 0.641415 0.000000
O O15 0.795206 0.908350 0.871895
O O16 0.000000 0.876949 0.000000
O O17 0.500000 0.734949 0.856786
O O18 0.000000 0.883515 0.279803
O O19 0.793219 0.500000 0.807940
O O20 0.000000 0.559057 0.809894
O O21 0.833960 0.551088 0.000000
#
# Coordination Sequence:
#
# PCOD8194523 Si02
#       8
#     8   4   4   8   4   8   8   8
#     4  10  20  32  48  70  94 121 160 198 229 276
#     4   9  18  32  53  77  97 127 169 203 240 291
#     4  11  19  27  43  66  92 118 156 192 220 271
#     4   9  16  25  37  54  78 111 147 177 215 272
#     4   9  18  29  44  73 102 122 154 199 241 278
#     4  10  19  31  43  60  93 126 151 185 231 276
#     4  10  18  32  52  72  99 129 158 199 242 282
#     4   8  14  24  36  51  74 105 141 182 226 268
#
# _framework density 16.927329
#
# number of rings (size 3 to 8) (size 9 to 14) (size 15 to 20)
#    0.000    2.538    3.077    0.692    0.000    0.923 
#    0.000    2.308    0.000    3.231    0.000    0.000 
#    0.000    1.846    0.000    7.692    0.000    1.538 
#
# Total GULP energy -644262.682261 kJ/mol
# GULP energy per Si atom -12389.666967 kJ/mol
# Density = 1.688880 g / cm^3
# Si number density = 16.927329 Si / 1000 Ang^3
#
#
#
# Elastic Constant Matrix: (Units=GPa)
#
#
# Indices 1 2 3 4 5 6 
#
# 1 46.7466 34.7686 23.8237 0.0000 0.0000 0.0000
# 2 34.7686 117.2523 43.0891 0.0000 0.0000 0.0000
# 3 23.8237 43.0891 94.1869 0.0000 0.0000 0.0000
# 4 0.0000 0.0000 0.0000 18.2064 0.0000 0.0000
# 5 0.0000 0.0000 0.0000 0.0000 12.2119 0.0000
# 6 0.0000 0.0000 0.0000 0.0000 0.0000 19.9601
#
#
#
# Elastic Compliance Matrix: (Units=1/GPa)
#
#
# Indices 1 2 3 4 5 6 
#
# 1 0.028670 -0.007016 -0.004042 0.000000 0.000000 0.000000
# 2 -0.007016 0.011969 -0.003701 0.000000 0.000000 0.000000
# 3 -0.004042 -0.003701 0.013333 0.000000 0.000000 0.000000
# 4 0.000000 0.000000 0.000000 0.054926 0.000000 0.000000
# 5 0.000000 0.000000 0.000000 0.000000 0.081887 0.000000
# 6 0.000000 0.000000 0.000000 0.000000 0.000000 0.050100
#
#
# Mechanical properties :
#
#
# Convention : Reuss Voigt Hill
#
# Bulk Modulus (GPa) = 40.89361 51.28318 46.08839
# Shear Modulus (GPa) = 17.94977 20.50931 19.22954
#
# Velocity S-wave (km/s) = 3.25991 3.48459 3.37412
# Velocity P-wave (km/s) = 6.19517 6.82288 6.51659
#
# Compressibility (1/GPa) = 0.02445370
#
# Stress axis : x y z
#
# Youngs Moduli (GPa) = 34.87926 83.54770 75.00303
#
# Poissons Ratio (x) = 0.58618 0.30317
# Poissons Ratio (y) = 0.24472 0.27759
# Poissons Ratio (z) = 0.14099 0.30922
#
# Static dielectric constant tensor:
#      x y z
#    x 3.075320 0.000000 0.000000 
#    y 0.000000 3.315580 0.000000 
#    z 0.000000 0.000000 3.174410 
# 
# 
# High freq. dielectric constant tensor:
#      x y z
#    x 1.638700 0.000000 0.000000 
#    y 0.000000 1.645620 0.000000 
#    z 0.000000 0.000000 1.620430 
# 
# From -- ./inp_files/15687.got.cif
#   From: 2010.03.12/outbox.cif.g09.slc.cpg/sg47_8_cif.got.tgz:15687.got - 2010.04.14 03:12:58.
