data_PCOD8194550
_publ_section_title
;
Structure prediction by ZEFSAII (Michael W. Deem and Ramdas Pophale) SiO2 
 PCOD8194550
Probable space group: P M M M
;
_chemical_formula_sum "Si O2"
_cell_formula_units_Z 64
_cell_length_a 20.787568
_cell_length_b 8.784420
_cell_length_c 19.740402
_cell_angle_alpha 90.000000
_cell_angle_beta 90.000000
_cell_angle_gamma 90.000000
_cell_volume 3604.730220
_symmetry_space_group_name_H-M "P M M M"
_symmetry_group_IT_number 47
_symmetry_cell_setting 'orthorhombic'
loop_
_space_group_symop_operation_xyz
x,y,z
-x,-y,z
x,-y,-z
-x,y,-z
-x,-y,-z
x,y,-z
-x,y,z
x,-y,z
loop_
_atom_site_type_symbol
_atom_site_label
_atom_site_fract_x
_atom_site_fract_y
_atom_site_fract_z
Si Si1 0.767585 0.819308 0.573448
Si Si2 0.268647 0.178221 0.923344
Si Si3 0.687640 0.321032 0.206804
Si Si4 0.928361 0.823340 0.803053
Si Si5 0.191421 0.819547 0.283968
Si Si6 0.377632 0.180463 0.426800
Si Si7 0.427308 0.821858 0.713938
Si Si8 0.133101 0.675075 0.923624
O O1 0.794117 0.759660 0.500000
O O2 0.809186 0.761315 0.637682
O O3 0.694972 0.759884 0.584047
O O4 0.767823 0.000000 0.572284
O O5 0.314196 0.268044 0.871479
O O6 0.195150 0.222504 0.909019
O O7 0.276440 0.000000 0.910580
O O8 0.288337 0.223286 0.000000
O O9 0.694469 0.500000 0.211112
O O10 0.748267 0.248125 0.244415
O O11 0.620348 0.271027 0.238706
O O12 0.875867 0.765329 0.748614
O O13 0.922157 0.728896 0.872537
O O14 0.000000 0.794434 0.773732
O O15 0.917580 0.000000 0.819702
O O16 0.198992 0.000000 0.280795
O O17 0.403899 0.240979 0.500000
O O18 0.420567 0.236741 0.363877
O O19 0.377829 0.000000 0.428671
O O20 0.500000 0.790176 0.737934
O O21 0.409929 0.000000 0.718914
O O22 0.151608 0.500000 0.910507
O O23 0.107610 0.698803 0.000000
#
# Coordination Sequence:
#
# PCOD8194550 Si02
#       8
#     8   8   8   8   8   8   8   8
#     4   8  13  23  45  75 100 126 167 219 268 308
#     4  10  20  35  57  82 106 133 168 212 259 307
#     4  12  23  34  53  79 108 139 172 214 260 308
#     4  10  21  34  49  72 102 140 182 222 264 309
#     4  10  18  32  54  74  99 135 177 223 263 309
#     4   8  13  23  43  74 106 132 168 218 263 303
#     4  10  20  34  53  76 104 141 182 219 258 308
#     4  10  20  33  50  75 106 138 172 210 256 309
#
# _framework density 17.754449000000001
#
# number of rings (size 3 to 8) (size 9 to 14) (size 15 to 20)
#    0.000    2.250    2.500    2.625    0.000    2.500 
#    0.000    2.500    0.000    2.250    0.000    6.125 
#    0.000    0.000    0.000    2.250    0.000    2.500 
#
# Total GULP energy -793275.053601 kJ/mol
# GULP energy per Si atom -12394.922713 kJ/mol
# Density = 1.771404 g / cm^3
# Si number density = 17.754449 Si / 1000 Ang^3
#
#
#
# Elastic Constant Matrix: (Units=GPa)
#
#
# Indices 1 2 3 4 5 6 
#
# 1 92.8476 23.3108 59.3849 0.0000 0.0000 0.0000
# 2 23.3108 33.7748 28.2983 0.0000 0.0000 0.0000
# 3 59.3849 28.2983 130.0479 0.0000 0.0000 0.0000
# 4 0.0000 0.0000 0.0000 7.1512 0.0000 0.0000
# 5 0.0000 0.0000 0.0000 0.0000 25.4242 0.0000
# 6 0.0000 0.0000 0.0000 0.0000 0.0000 8.6156
#
#
#
# Elastic Compliance Matrix: (Units=1/GPa)
#
#
# Indices 1 2 3 4 5 6 
#
# 1 0.016175 -0.006085 -0.006062 0.000000 0.000000 0.000000
# 2 -0.006085 0.038498 -0.005599 0.000000 0.000000 0.000000
# 3 -0.006062 -0.005599 0.011676 0.000000 0.000000 0.000000
# 4 0.000000 0.000000 0.000000 0.139836 0.000000 0.000000
# 5 0.000000 0.000000 0.000000 0.000000 0.039333 0.000000
# 6 0.000000 0.000000 0.000000 0.000000 0.000000 0.116069
#
#
# Mechanical properties :
#
#
# Convention : Reuss Voigt Hill
#
# Bulk Modulus (GPa) = 32.40614 53.18427 42.79521
# Shear Modulus (GPa) = 12.27401 17.94996 15.11199
#
# Velocity S-wave (km/s) = 2.63215 3.18309 2.92064
# Velocity P-wave (km/s) = 5.24687 6.59772 5.96069
#
# Compressibility (1/GPa) = 0.03085835
#
# Stress axis : x y z
#
# Youngs Moduli (GPa) = 61.82221 25.97520 85.64569
#
# Poissons Ratio (x) = 0.15805 0.51921
# Poissons Ratio (y) = 0.37617 0.47950
# Poissons Ratio (z) = 0.37478 0.14543
#
# Static dielectric constant tensor:
#      x y z
#    x 3.100520 0.000000 0.000000 
#    y 0.000000 3.015800 0.000000 
#    z 0.000000 0.000000 3.829660 
# 
# 
# High freq. dielectric constant tensor:
#      x y z
#    x 1.656970 0.000000 0.000000 
#    y 0.000000 1.659510 0.000000 
#    z 0.000000 0.000000 1.699200 
# 
# From -- ./inp_files/31319.got.cif
#   From: 2010.03.12/outbox.cif.g09.slc.cpg/sg47_16_cif.got.tgz:31319.got - 2010.04.14 03:12:58.
