data_PCOD8194370
_publ_section_title
;
Structure prediction by ZEFSAII (Michael W. Deem and Ramdas Pophale) SiO2 
 PCOD8194370
Probable space group: P M M M
;
_chemical_formula_sum "Si O2"
_cell_formula_units_Z 52
_cell_length_a 9.251087
_cell_length_b 21.662162
_cell_length_c 13.080903
_cell_angle_alpha 90.000000
_cell_angle_beta 90.000000
_cell_angle_gamma 90.000000
_cell_volume 2621.393932
_symmetry_space_group_name_H-M "P M M M"
_symmetry_group_IT_number 47
_symmetry_cell_setting 'orthorhombic'
loop_
_space_group_symop_operation_xyz
x,y,z
-x,-y,z
x,-y,-z
-x,y,-z
-x,-y,-z
x,y,-z
-x,y,z
x,-y,z
loop_
_atom_site_type_symbol
_atom_site_label
_atom_site_fract_x
_atom_site_fract_y
_atom_site_fract_z
Si Si1 0.169971 0.889491 0.883716
Si Si2 0.670891 0.428768 0.000000
Si Si3 0.828922 0.683342 0.383243
Si Si4 0.666733 0.067550 0.294478
Si Si5 0.661155 0.227257 0.116539
Si Si6 0.158105 0.178925 0.380795
Si Si7 0.335694 0.360960 0.201604
O O1 0.250579 0.939190 0.814036
O O2 0.222262 0.822302 0.841074
O O3 0.000000 0.896648 0.874246
O O4 0.222010 0.898205 0.000000
O O5 0.732575 0.398547 0.105116
O O6 0.714678 0.500000 0.000000
O O7 0.500000 0.417128 0.000000
O O8 0.778819 0.669567 0.500000
O O9 0.782905 0.753167 0.348685
O O10 0.755112 0.632800 0.307039
O O11 0.000000 0.676153 0.373803
O O12 0.500000 0.082816 0.275700
O O13 0.732627 0.123033 0.359911
O O14 0.684233 0.000000 0.348380
O O15 0.500000 0.198730 0.126357
O O16 0.672096 0.289182 0.178652
O O17 0.698416 0.243362 0.000000
O O18 0.133882 0.182930 0.500000
O O19 0.000000 0.165110 0.329808
O O20 0.500000 0.383333 0.221188
#
# Coordination Sequence:
#
# PCOD8194370 Si02
#       7
#     8   4   8   8   8   8   8
#     4  10  21  35  51  72  97 127 167 214 263 318
#     4   9  18  34  55  81 117 157 190 223 266 307
#     4   9  19  35  54  79 111 143 174 217 276 329
#     4  11  24  38  51  70  97 131 171 214 262 317
#     4   9  16  28  47  73 105 133 161 205 265 326
#     4   9  19  37  59  80 103 132 167 210 262 319
#     4  10  18  30  52  81 110 143 185 225 261 312
#
# _framework density 19.836773999999998
#
# number of rings (size 3 to 8) (size 9 to 14) (size 15 to 20)
#    0.000    2.385    0.769    2.769    0.000    7.077 
#    0.000    5.000    0.000    1.385    0.000    3.231 
#    0.000    0.000    0.000    0.000    0.000    0.000 
#
# Total GULP energy -644388.209904 kJ/mol
# GULP energy per Si atom -12392.080960 kJ/mol
# Density = 1.979162 g / cm^3
# Si number density = 19.836774 Si / 1000 Ang^3
#
#
#
# Elastic Constant Matrix: (Units=GPa)
#
#
# Indices 1 2 3 4 5 6 
#
# 1 78.0823 32.4293 27.0397 0.0000 0.0000 0.0000
# 2 32.4293 63.8228 48.6511 0.0000 0.0000 0.0000
# 3 27.0397 48.6511 83.2676 0.0000 0.0000 0.0000
# 4 0.0000 0.0000 0.0000 19.6117 0.0000 0.0000
# 5 0.0000 0.0000 0.0000 0.0000 31.1819 0.0000
# 6 0.0000 0.0000 0.0000 0.0000 0.0000 12.8130
#
#
#
# Elastic Compliance Matrix: (Units=1/GPa)
#
#
# Indices 1 2 3 4 5 6 
#
# 1 0.016263 -0.007641 -0.000817 0.000000 0.000000 0.000000
# 2 -0.007641 0.031841 -0.016122 0.000000 0.000000 0.000000
# 3 -0.000817 -0.016122 0.021695 0.000000 0.000000 0.000000
# 4 0.000000 0.000000 0.000000 0.050990 0.000000 0.000000
# 5 0.000000 0.000000 0.000000 0.000000 0.032070 0.000000
# 6 0.000000 0.000000 0.000000 0.000000 0.000000 0.078046
#
#
# Mechanical properties :
#
#
# Convention : Reuss Voigt Hill
#
# Bulk Modulus (GPa) = 48.45376 49.04590 48.74983
# Shear Modulus (GPa) = 17.42497 20.52483 18.97490
#
# Velocity S-wave (km/s) = 2.96703 3.22014 3.09617
# Velocity P-wave (km/s) = 6.01805 6.21323 6.11642
#
# Compressibility (1/GPa) = 0.02063823
#
# Stress axis : x y z
#
# Youngs Moduli (GPa) = 61.48797 31.40625 46.09430
#
# Poissons Ratio (x) = 0.23998 0.03765
# Poissons Ratio (y) = 0.46983 0.74315
# Poissons Ratio (z) = 0.05022 0.50635
#
# Static dielectric constant tensor:
#      x y z
#    x 3.514140 0.000000 0.000000 
#    y 0.000000 3.345520 0.000000 
#    z 0.000000 0.000000 3.804740 
# 
# 
# High freq. dielectric constant tensor:
#      x y z
#    x 1.758400 0.000000 0.000000 
#    y 0.000000 1.740800 0.000000 
#    z 0.000000 0.000000 1.785620 
# 
# From -- ./inp_files/21483.got.cif
#   From: 2010.03.12/outbox.cif.g09.slc.cpg/sg47_11_cif.got.tgz:21483.got - 2010.04.14 03:12:58.
