data_PCOD8194713
_publ_section_title
;
Structure prediction by ZEFSAII (Michael W. Deem and Ramdas Pophale) SiO2 
 PCOD8194713
Probable space group: P M M M
;
_chemical_formula_sum "Si O2"
_cell_formula_units_Z 56
_cell_length_a 9.200755
_cell_length_b 28.599813
_cell_length_c 13.644368
_cell_angle_alpha 90.000000
_cell_angle_beta 90.000000
_cell_angle_gamma 90.000000
_cell_volume 3590.377255
_symmetry_space_group_name_H-M "P M M M"
_symmetry_group_IT_number 47
_symmetry_cell_setting 'orthorhombic'
loop_
_space_group_symop_operation_xyz
x,y,z
-x,-y,z
x,-y,-z
-x,y,-z
-x,-y,-z
x,y,-z
-x,y,z
x,-y,z
loop_
_atom_site_type_symbol
_atom_site_label
_atom_site_fract_x
_atom_site_fract_y
_atom_site_fract_z
Si Si1 0.168696 0.680049 0.612007
Si Si2 0.330212 0.367321 0.778772
Si Si3 0.669243 0.273028 0.112949
Si Si4 0.330778 0.858725 0.384961
Si Si5 0.833309 0.446345 0.887530
Si Si6 0.170229 0.775077 0.719606
Si Si7 0.162824 0.051451 0.616241
O O1 0.217533 0.675543 0.500000
O O2 0.259797 0.642617 0.673365
O O3 0.204077 0.732416 0.646758
O O4 0.000000 0.668573 0.626558
O O5 0.500000 0.373161 0.763427
O O6 0.291820 0.325597 0.853784
O O7 0.268692 0.415482 0.819668
O O8 0.500000 0.262618 0.130956
O O9 0.762749 0.235717 0.173848
O O10 0.712772 0.267678 0.000000
O O11 0.298829 0.851917 0.500000
O O12 0.500000 0.854619 0.361124
O O13 0.244490 0.820313 0.324870
O O14 0.275067 0.909233 0.347050
O O15 0.811486 0.500000 0.856384
O O16 0.000000 0.431158 0.872654
O O17 0.787012 0.439250 0.000000
O O18 0.000000 0.784396 0.731379
O O19 0.163044 0.050329 0.500000
O O20 0.000000 0.063343 0.653710
O O21 0.210541 0.000000 0.655667
#
# Coordination Sequence:
#
# PCOD8194713 Si02
#       7
#     8   8   8   8   8   8   8
#     4   9  18  32  48  65  87 118 154 187 218 255
#     4  10  19  30  47  71  95 118 145 178 218 262
#     4   9  18  32  47  64  90 120 146 175 214 261
#     4  10  19  28  40  60  87 119 151 183 221 264
#     4   9  18  32  49  69  93 120 148 178 214 258
#     4  10  19  30  45  65  88 114 148 187 221 257
#     4   8  14  25  40  57  79 110 147 184 221 260
#
# _framework density 15.597246
#
# number of rings (size 3 to 8) (size 9 to 14) (size 15 to 20)
#    0.000    2.714    0.000    3.000    0.000    4.571 
#    0.000    2.143    0.000    0.429    0.000    3.000 
#    0.000    0.571    0.000    6.000    0.000    2.857 
#
# Total GULP energy -694401.882609 kJ/mol
# GULP energy per Si atom -12400.033618 kJ/mol
# Density = 1.556175 g / cm^3
# Si number density = 15.597246 Si / 1000 Ang^3
#
#
#
# Elastic Constant Matrix: (Units=GPa)
#
#
# Indices 1 2 3 4 5 6 
#
# 1 82.0630 56.3144 54.5807 0.0000 0.0000 0.0000
# 2 56.3144 98.2367 52.6408 0.0000 0.0000 0.0000
# 3 54.5807 52.6408 96.7325 0.0000 0.0000 0.0000
# 4 0.0000 0.0000 0.0000 20.2380 0.0000 0.0000
# 5 0.0000 0.0000 0.0000 0.0000 22.5068 0.0000
# 6 0.0000 0.0000 0.0000 0.0000 0.0000 28.8299
#
#
#
# Elastic Compliance Matrix: (Units=1/GPa)
#
#
# Indices 1 2 3 4 5 6 
#
# 1 0.024337 -0.009307 -0.008667 0.000000 0.000000 0.000000
# 2 -0.009307 0.017929 -0.004505 0.000000 0.000000 0.000000
# 3 -0.008667 -0.004505 0.017680 0.000000 0.000000 0.000000
# 4 0.000000 0.000000 0.000000 0.049412 0.000000 0.000000
# 5 0.000000 0.000000 0.000000 0.000000 0.044431 0.000000
# 6 0.000000 0.000000 0.000000 0.000000 0.000000 0.034686
#
#
# Mechanical properties :
#
#
# Convention : Reuss Voigt Hill
#
# Bulk Modulus (GPa) = 66.72498 67.12267 66.92382
# Shear Modulus (GPa) = 20.97049 21.88137 21.42593
#
# Velocity S-wave (km/s) = 3.67072 3.74959 3.71037
# Velocity P-wave (km/s) = 7.79990 7.86602 7.83303
#
# Compressibility (1/GPa) = 0.01498689
#
# Stress axis : x y z
#
# Youngs Moduli (GPa) = 41.08939 55.77592 56.56073
#
# Poissons Ratio (x) = 0.51910 0.49024
# Poissons Ratio (y) = 0.38241 0.25483
# Poissons Ratio (z) = 0.35614 0.25129
#
# Static dielectric constant tensor:
#      x y z
#    x 3.031710 0.000000 0.000000 
#    y 0.000000 3.014420 0.000000 
#    z 0.000000 0.000000 2.808120 
# 
# 
# High freq. dielectric constant tensor:
#      x y z
#    x 1.607150 0.000000 0.000000 
#    y 0.000000 1.593350 0.000000 
#    z 0.000000 0.000000 1.569090 
# 
# From -- ./inp_files/22101.got.cif
#   From: 2010.03.12/outbox.cif.g09.slc.cpg/sg47_12_cif.got.tgz:22101.got - 2010.04.14 03:12:58.
