data_PCOD8194973
_publ_section_title
;
Structure prediction by ZEFSAII (Michael W. Deem and Ramdas Pophale) SiO2 
 PCOD8194973
Probable space group: P M M M
;
_chemical_formula_sum "Si O2"
_cell_formula_units_Z 32
_cell_length_a 12.917501
_cell_length_b 19.187591
_cell_length_c 8.007593
_cell_angle_alpha 90.000000
_cell_angle_beta 90.000000
_cell_angle_gamma 90.000000
_cell_volume 1984.727776
_symmetry_space_group_name_H-M "P M M M"
_symmetry_group_IT_number 47
_symmetry_cell_setting 'orthorhombic'
loop_
_space_group_symop_operation_xyz
x,y,z
-x,-y,z
x,-y,-z
-x,y,-z
-x,-y,-z
x,y,-z
-x,y,z
x,-y,z
loop_
_atom_site_type_symbol
_atom_site_label
_atom_site_fract_x
_atom_site_fract_y
_atom_site_fract_z
Si Si1 0.723622 0.918445 0.194959
Si Si2 0.123018 0.664642 0.184425
Si Si3 0.123586 0.421026 0.500000
Si Si4 0.500000 0.076650 0.802278
Si Si5 0.884389 0.189379 0.309432
O O1 0.609470 0.887955 0.250397
O O2 0.811093 0.877249 0.293412
O O3 0.731993 0.000000 0.240126
O O4 0.741987 0.906495 0.000000
O O5 0.168176 0.615816 0.331963
O O6 0.159744 0.744678 0.206737
O O7 0.000000 0.662897 0.196575
O O8 0.159844 0.638729 0.000000
O O9 0.164345 0.500000 0.500000
O O10 0.000000 0.418491 0.500000
O O11 0.500000 0.000000 0.722173
O O12 0.500000 0.068768 0.000000
O O13 0.888647 0.213802 0.500000
O O14 0.000000 0.168691 0.247875
#
# Coordination Sequence:
#
# PCOD8194973 Si02
#       5
#     8   8   4   4   8
#     4   9  17  29  45  63  81 106 144 186 226 268
#     4   9  16  27  42  58  80 113 148 178 214 260
#     4   9  16  26  40  60  85 110 141 180 215 250
#     4   7  12  26  45  61  79 103 133 176 229 275
#     4  10  19  30  42  57  83 117 150 184 222 261
#
# _framework density 16.123117000000001
#
# number of rings (size 3 to 8) (size 9 to 14) (size 15 to 20)
#    0.000    3.000    1.250    2.250    0.000    3.000 
#    0.000    5.625    0.000    2.250    0.000    0.000 
#    0.000    0.000    0.000    2.250    0.000   14.500 
#
# Total GULP energy -396419.572003 kJ/mol
# GULP energy per Si atom -12388.111625 kJ/mol
# Density = 1.608642 g / cm^3
# Si number density = 16.123117 Si / 1000 Ang^3
#
#
#
# Elastic Constant Matrix: (Units=GPa)
#
#
# Indices 1 2 3 4 5 6 
#
# 1 68.5607 37.1220 19.0152 0.0000 0.0000 0.0000
# 2 37.1220 80.3631 41.5711 0.0000 0.0000 0.0000
# 3 19.0152 41.5711 89.5887 0.0000 0.0000 0.0000
# 4 0.0000 0.0000 0.0000 21.7746 0.0000 0.0000
# 5 0.0000 0.0000 0.0000 0.0000 8.6567 0.0000
# 6 0.0000 0.0000 0.0000 0.0000 0.0000 0.9001
#
#
#
# Elastic Compliance Matrix: (Units=1/GPa)
#
#
# Indices 1 2 3 4 5 6 
#
# 1 0.019451 -0.009013 0.000054 0.000000 0.000000 0.000000
# 2 -0.009013 0.020550 -0.007623 0.000000 0.000000 0.000000
# 3 0.000054 -0.007623 0.014688 0.000000 0.000000 0.000000
# 4 0.000000 0.000000 0.000000 0.045925 0.000000 0.000000
# 5 0.000000 0.000000 0.000000 0.000000 0.115518 0.000000
# 6 0.000000 0.000000 0.000000 0.000000 0.000000 1.110949
#
#
# Mechanical properties :
#
#
# Convention : Reuss Voigt Hill
#
# Bulk Modulus (GPa) = 46.45740 48.21434 47.33587
# Shear Modulus (GPa) = 3.65653 15.65322 9.65487
#
# Velocity S-wave (km/s) = 1.50758 3.11924 2.44974
# Velocity P-wave (km/s) = 5.64864 6.55299 6.11755
#
# Compressibility (1/GPa) = 0.02152510
#
# Stress axis : x y z
#
# Youngs Moduli (GPa) = 51.41241 48.66230 68.08362
#
# Poissons Ratio (x) = 0.43857 -0.00365
# Poissons Ratio (y) = 0.46335 0.51898
# Poissons Ratio (z) = -0.00276 0.37094
#
# Static dielectric constant tensor:
#      x y z
#    x 2.858050 0.000000 0.000000 
#    y 0.000000 2.876660 0.000000 
#    z 0.000000 0.000000 3.121610 
# 
# 
# High freq. dielectric constant tensor:
#      x y z
#    x 1.570680 0.000000 0.000000 
#    y 0.000000 1.594770 0.000000 
#    z 0.000000 0.000000 1.626650 
# 
# From -- ./inp_files/3609.got.cif
#   From: 2010.03.12/outbox.cif.g09.slc.cpg/sg47_2_cif.got.tgz:3609.got - 2010.04.14 03:12:58.
