data_PCOD8194651
_publ_section_title
;
Structure prediction by ZEFSAII (Michael W. Deem and Ramdas Pophale) SiO2 
 PCOD8194651
Probable space group: P M M M
;
_chemical_formula_sum "Si O2"
_cell_formula_units_Z 56
_cell_length_a 22.046408
_cell_length_b 17.939615
_cell_length_c 9.242950
_cell_angle_alpha 90.000000
_cell_angle_beta 90.000000
_cell_angle_gamma 90.000000
_cell_volume 3655.624359
_symmetry_space_group_name_H-M "P M M M"
_symmetry_group_IT_number 47
_symmetry_cell_setting 'orthorhombic'
loop_
_space_group_symop_operation_xyz
x,y,z
-x,-y,z
x,-y,-z
-x,y,-z
-x,-y,-z
x,y,-z
-x,y,z
x,-y,z
loop_
_atom_site_type_symbol
_atom_site_label
_atom_site_fract_x
_atom_site_fract_y
_atom_site_fract_z
Si Si1 0.865940 0.196229 0.340622
Si Si2 0.314433 0.837367 0.671668
Si Si3 0.566611 0.916321 0.671757
Si Si4 0.175948 0.413372 0.166567
Si Si5 0.751136 0.696631 0.340636
Si Si6 0.205626 0.086883 0.833352
Si Si7 0.931460 0.337994 0.670073
O O1 0.879573 0.162563 0.500000
O O2 0.807628 0.248466 0.348701
O O3 0.853824 0.129347 0.228894
O O4 0.920444 0.250740 0.289147
O O5 0.306702 0.849534 0.500000
O O6 0.381221 0.860551 0.728226
O O7 0.304728 0.749605 0.710972
O O8 0.266049 0.890593 0.748597
O O9 0.566624 0.916808 0.500000
O O10 0.500000 0.890028 0.727720
O O11 0.580073 0.000000 0.728471
O O12 0.188940 0.500000 0.187960
O O13 0.234537 0.370186 0.230554
O O14 0.113414 0.392684 0.245387
O O15 0.169198 0.391044 0.000000
O O16 0.738105 0.662649 0.500000
O O17 0.193498 0.000000 0.813010
O O18 0.213702 0.109206 0.000000
O O19 0.919200 0.349364 0.500000
O O20 0.000000 0.359311 0.712603
#
# Coordination Sequence:
#
# PCOD8194651 Si02
#       7
#     8   8   8   8   8   8   8
#     4   8  15  28  44  60  77  99 129 164 200 238
#     4   9  16  26  41  60  81 106 139 174 202 234
#     4   8  13  21  35  57  84 113 143 172 201 233
#     4  10  20  31  43  62  87 110 131 158 193 234
#     4   8  15  27  42  60  80 104 134 166 201 239
#     4  10  19  27  37  57  82 105 132 168 208 246
#     4   9  18  32  48  64  81 103 132 162 192 232
#
# _framework density 15.318860000000001
#
# number of rings (size 3 to 8) (size 9 to 14) (size 15 to 20)
#    0.000    3.143    0.000    3.429    0.000    8.571 
#    0.000    1.429    0.000    0.857    0.000    5.000 
#    0.000    0.571    0.000    7.143    0.000    1.143 
#
# Total GULP energy -693949.374618 kJ/mol
# GULP energy per Si atom -12391.953118 kJ/mol
# Density = 1.528399 g / cm^3
# Si number density = 15.318860 Si / 1000 Ang^3
#
#
#
# Elastic Constant Matrix: (Units=GPa)
#
#
# Indices 1 2 3 4 5 6 
#
# 1 69.0906 45.4434 25.7910 0.0000 0.0000 0.0000
# 2 45.4434 83.9138 46.2580 0.0000 0.0000 0.0000
# 3 25.7910 46.2580 64.3354 0.0000 0.0000 0.0000
# 4 0.0000 0.0000 0.0000 24.2594 0.0000 0.0000
# 5 0.0000 0.0000 0.0000 0.0000 5.7493 0.0000
# 6 0.0000 0.0000 0.0000 0.0000 0.0000 20.6763
#
#
#
# Elastic Compliance Matrix: (Units=1/GPa)
#
#
# Indices 1 2 3 4 5 6 
#
# 1 0.022489 -0.011943 -0.000429 0.000000 0.000000 0.000000
# 2 -0.011943 0.026084 -0.013967 0.000000 0.000000 0.000000
# 3 -0.000429 -0.013967 0.025758 0.000000 0.000000 0.000000
# 4 0.000000 0.000000 0.000000 0.041221 0.000000 0.000000
# 5 0.000000 0.000000 0.000000 0.000000 0.173936 0.000000
# 6 0.000000 0.000000 0.000000 0.000000 0.000000 0.048364
#
#
# Mechanical properties :
#
#
# Convention : Reuss Voigt Hill
#
# Bulk Modulus (GPa) = 46.18045 50.25829 48.21937
# Shear Modulus (GPa) = 12.57083 16.79349 14.68216
#
# Velocity S-wave (km/s) = 2.86774 3.31458 3.09922
# Velocity P-wave (km/s) = 6.41692 6.89405 6.65976
#
# Compressibility (1/GPa) = 0.02165419
#
# Stress axis : x y z
#
# Youngs Moduli (GPa) = 44.46667 38.33783 38.82311
#
# Poissons Ratio (x) = 0.45785 0.01664
# Poissons Ratio (y) = 0.53104 0.54225
# Poissons Ratio (z) = 0.01906 0.53547
#
# Static dielectric constant tensor:
#      x y z
#    x 3.220070 0.000000 0.000000 
#    y 0.000000 3.005140 0.000000 
#    z 0.000000 0.000000 2.883660 
# 
# 
# High freq. dielectric constant tensor:
#      x y z
#    x 1.561220 0.000000 0.000000 
#    y 0.000000 1.572620 0.000000 
#    z 0.000000 0.000000 1.576680 
# 
# From -- ./inp_files/10104.got.cif
#   From: 2010.03.12/outbox.cif.g09.slc.cpg/sg47_6_cif.got.tgz:10104.got - 2010.04.14 03:12:58.
