data_PCOD8194911
_publ_section_title
;
Structure prediction by ZEFSAII (Michael W. Deem and Ramdas Pophale) SiO2 
 PCOD8194911
Probable space group: P M M M
;
_chemical_formula_sum "Si O2"
_cell_formula_units_Z 64
_cell_length_a 19.043903
_cell_length_b 23.130397
_cell_length_c 9.169107
_cell_angle_alpha 90.000000
_cell_angle_beta 90.000000
_cell_angle_gamma 90.000000
_cell_volume 4038.927787
_symmetry_space_group_name_H-M "P M M M"
_symmetry_group_IT_number 47
_symmetry_cell_setting 'orthorhombic'
loop_
_space_group_symop_operation_xyz
x,y,z
-x,-y,z
x,-y,-z
-x,y,-z
-x,-y,-z
x,y,-z
-x,y,z
x,-y,z
loop_
_atom_site_type_symbol
_atom_site_label
_atom_site_fract_x
_atom_site_fract_y
_atom_site_fract_z
Si Si1 0.080353 0.433668 0.332340
Si Si2 0.575751 0.238872 0.673191
Si Si3 0.199820 0.158659 0.331172
Si Si4 0.158727 0.664398 0.170637
Si Si5 0.278337 0.277912 0.331924
Si Si6 0.919184 0.219347 0.829496
Si Si7 0.290259 0.934030 0.167024
Si Si8 0.579482 0.107970 0.330751
O O1 0.090031 0.415458 0.500000
O O2 0.102449 0.500000 0.309310
O O3 0.129962 0.395216 0.232829
O O4 0.000000 0.424472 0.284026
O O5 0.576214 0.236187 0.500000
O O6 0.500000 0.263618 0.728256
O O7 0.640754 0.278679 0.725166
O O8 0.585146 0.173460 0.728628
O O9 0.188206 0.144151 0.500000
O O10 0.250567 0.213139 0.309082
O O11 0.124303 0.171738 0.259508
O O12 0.234026 0.103843 0.253973
O O13 0.235412 0.676337 0.237044
O O14 0.106045 0.716238 0.212967
O O15 0.167401 0.657456 0.000000
O O16 0.272272 0.296633 0.500000
O O17 0.000000 0.213460 0.784126
O O18 0.907413 0.208053 0.000000
O O19 0.367758 0.930352 0.236406
O O20 0.264733 0.000000 0.176771
O O21 0.293377 0.912848 0.000000
O O22 0.601922 0.104220 0.500000
O O23 0.500000 0.084809 0.310142
#
# Coordination Sequence:
#
# PCOD8194911 Si02
#       8
#     8   8   8   8   8   8   8   8
#     4   9  18  32  48  66  92 128 166 200 232 265
#     4   8  13  24  44  67  90 116 148 186 226 269
#     4  10  19  32  50  70  89 113 149 189 229 273
#     4  10  19  29  44  69  99 128 158 191 224 262
#     4   9  16  28  46  67  91 120 153 188 230 273
#     4   9  18  32  49  70  97 125 148 178 226 278
#     4  11  23  35  47  64  89 120 151 185 227 278
#     4   9  17  31  50  69  89 115 150 190 227 266
#
# _framework density 15.845789
#
# number of rings (size 3 to 8) (size 9 to 14) (size 15 to 20)
#    0.000    2.625    1.250    2.625    0.000    3.750 
#    0.000    1.875    0.000    0.750    0.000    2.625 
#    0.000    0.500    0.000    5.750    0.000    1.625 
#
# Total GULP energy -793498.104089 kJ/mol
# GULP energy per Si atom -12398.407876 kJ/mol
# Density = 1.580972 g / cm^3
# Si number density = 15.845789 Si / 1000 Ang^3
#
#
#
# Elastic Constant Matrix: (Units=GPa)
#
#
# Indices 1 2 3 4 5 6 
#
# 1 122.8934 47.0076 51.2923 0.0000 0.0000 0.0000
# 2 47.0076 65.5189 42.0119 0.0000 0.0000 0.0000
# 3 51.2923 42.0119 76.1049 0.0000 0.0000 0.0000
# 4 0.0000 0.0000 0.0000 23.8415 0.0000 0.0000
# 5 0.0000 0.0000 0.0000 0.0000 21.0465 0.0000
# 6 0.0000 0.0000 0.0000 0.0000 0.0000 24.9554
#
#
#
# Elastic Compliance Matrix: (Units=1/GPa)
#
#
# Indices 1 2 3 4 5 6 
#
# 1 0.012489 -0.005516 -0.005373 0.000000 0.000000 0.000000
# 2 -0.005516 0.026061 -0.010669 0.000000 0.000000 0.000000
# 3 -0.005373 -0.010669 0.022650 0.000000 0.000000 0.000000
# 4 0.000000 0.000000 0.000000 0.041944 0.000000 0.000000
# 5 0.000000 0.000000 0.000000 0.000000 0.047514 0.000000
# 6 0.000000 0.000000 0.000000 0.000000 0.000000 0.040072
#
#
# Mechanical properties :
#
#
# Convention : Reuss Voigt Hill
#
# Bulk Modulus (GPa) = 55.29086 60.57119 57.93102
# Shear Modulus (GPa) = 20.84432 22.24903 21.54667
#
# Velocity S-wave (km/s) = 3.63085 3.75119 3.69151
# Velocity P-wave (km/s) = 7.24888 7.55449 7.40326
#
# Compressibility (1/GPa) = 0.01808617
#
# Stress axis : x y z
#
# Youngs Moduli (GPa) = 80.06868 38.37108 44.14941
#
# Poissons Ratio (x) = 0.21164 0.23720
# Poissons Ratio (y) = 0.44163 0.47104
# Poissons Ratio (z) = 0.43018 0.40939
#
# Static dielectric constant tensor:
#      x y z
#    x 3.238520 0.000000 0.000000 
#    y 0.000000 2.721950 0.000000 
#    z 0.000000 0.000000 2.941260 
# 
# 
# High freq. dielectric constant tensor:
#      x y z
#    x 1.609710 0.000000 0.000000 
#    y 0.000000 1.573660 0.000000 
#    z 0.000000 0.000000 1.603800 
# 
# From -- ./inp_files/11887.got.cif
#   From: 2010.03.12/outbox.cif.g09.slc.cpg/sg47_6_cif.got.tgz:11887.got - 2010.04.14 03:12:58.
