data_PCOD8194561
_publ_section_title
;
Structure prediction by ZEFSAII (Michael W. Deem and Ramdas Pophale) SiO2 
 PCOD8194561
Probable space group: P M M M
;
_chemical_formula_sum "Si O2"
_cell_formula_units_Z 40
_cell_length_a 20.593456
_cell_length_b 11.961725
_cell_length_c 8.719011
_cell_angle_alpha 90.000000
_cell_angle_beta 90.000000
_cell_angle_gamma 90.000000
_cell_volume 2147.782382
_symmetry_space_group_name_H-M "P M M M"
_symmetry_group_IT_number 47
_symmetry_cell_setting 'orthorhombic'
loop_
_space_group_symop_operation_xyz
x,y,z
-x,-y,z
x,-y,-z
-x,y,-z
-x,-y,-z
x,y,-z
-x,y,z
x,-y,z
loop_
_atom_site_type_symbol
_atom_site_label
_atom_site_fract_x
_atom_site_fract_y
_atom_site_fract_z
Si Si1 0.425796 0.762385 0.179003
Si Si2 0.928352 0.625649 0.817560
Si Si3 0.687993 0.371247 0.320223
Si Si4 0.621853 0.000000 0.181881
Si Si5 0.192754 0.238771 0.182216
Si Si6 0.232352 0.000000 0.817648
O O1 0.500000 0.728479 0.209040
O O2 0.381727 0.676420 0.272113
O O3 0.414603 0.888823 0.240129
O O4 0.407671 0.754370 0.000000
O O5 0.914771 0.500000 0.758321
O O6 0.872941 0.706570 0.748984
O O7 0.000000 0.665261 0.761823
O O8 0.926055 0.627172 0.000000
O O9 0.697590 0.356670 0.500000
O O10 0.691489 0.500000 0.269946
O O11 0.744396 0.305219 0.234975
O O12 0.694750 0.000000 0.248735
O O13 0.622380 0.000000 0.000000
O O14 0.195479 0.110817 0.241718
O O15 0.191790 0.242684 0.000000
O O16 0.235439 0.000000 0.000000
#
# Coordination Sequence:
#
# PCOD8194561 Si02
#       6
#     8   8   8   4   8   4
#     4  10  20  35  57  80 100 128 168 208 248 301
#     4   8  14  25  44  73 105 134 167 209 252 289
#     4  11  24  38  51  71 102 136 168 208 258 304
#     4   9  15  30  53  79 106 127 155 206 257 295
#     4  10  18  32  54  77 101 133 172 210 248 298
#     4   9  16  27  49  78 104 128 161 209 257 295
#
# _framework density 18.623860000000001
#
# number of rings (size 3 to 8) (size 9 to 14) (size 15 to 20)
#    0.000    2.400    2.000    2.100    0.000    4.400 
#    0.000    4.500    0.000    4.800    0.000    2.800 
#    0.000    1.600    0.000    0.000    0.000    0.000 
#
# Total GULP energy -495904.059134 kJ/mol
# GULP energy per Si atom -12397.601478 kJ/mol
# Density = 1.858147 g / cm^3
# Si number density = 18.623860 Si / 1000 Ang^3
#
#
#
# Elastic Constant Matrix: (Units=GPa)
#
#
# Indices 1 2 3 4 5 6 
#
# 1 135.8154 71.4559 7.7692 0.0000 0.0000 0.0000
# 2 71.4559 145.6937 15.9409 0.0000 0.0000 0.0000
# 3 7.7692 15.9409 10.9967 0.0000 0.0000 0.0000
# 4 0.0000 0.0000 0.0000 12.7700 0.0000 0.0000
# 5 0.0000 0.0000 0.0000 0.0000 4.6606 0.0000
# 6 0.0000 0.0000 0.0000 0.0000 0.0000 40.7708
#
#
#
# Elastic Compliance Matrix: (Units=1/GPa)
#
#
# Indices 1 2 3 4 5 6 
#
# 1 0.009924 -0.004873 0.000053 0.000000 0.000000 0.000000
# 2 -0.004873 0.010550 -0.011851 0.000000 0.000000 0.000000
# 3 0.000053 -0.011851 0.108079 0.000000 0.000000 0.000000
# 4 0.000000 0.000000 0.000000 0.078309 0.000000 0.000000
# 5 0.000000 0.000000 0.000000 0.000000 0.214567 0.000000
# 6 0.000000 0.000000 0.000000 0.000000 0.000000 0.024527
#
#
# Mechanical properties :
#
#
# Convention : Reuss Voigt Hill
#
# Bulk Modulus (GPa) = 10.50311 53.64865 32.07588
# Shear Modulus (GPa) = 9.78407 24.79626 17.29017
#
# Velocity S-wave (km/s) = 2.29454 3.65283 3.05025
# Velocity P-wave (km/s) = 3.55974 6.83080 5.44663
#
# Compressibility (1/GPa) = 0.09520986
#
# Stress axis : x y z
#
# Youngs Moduli (GPa) = 100.76945 94.78422 9.25253
#
# Poissons Ratio (x) = 0.46187 -0.00049
# Poissons Ratio (y) = 0.49103 0.10965
# Poissons Ratio (z) = -0.00530 1.12330
#
# Static dielectric constant tensor:
#      x y z
#    x 3.659000 0.000000 0.000000 
#    y 0.000000 3.749460 0.000000 
#    z 0.000000 0.000000 2.933260 
# 
# 
# High freq. dielectric constant tensor:
#      x y z
#    x 1.730380 0.000000 0.000000 
#    y 0.000000 1.730110 0.000000 
#    z 0.000000 0.000000 1.672270 
# 
# From -- ./inp_files/10721.got.cif
#   From: 2010.03.12/outbox.cif.g09.slc.cpg/sg47_6_cif.got.tgz:10721.got - 2010.04.14 03:12:58.
