data_PCOD8194868
_publ_section_title
;
Structure prediction by ZEFSAII (Michael W. Deem and Ramdas Pophale) SiO2 
 PCOD8194868
Probable space group: P M M M
;
_chemical_formula_sum "Si O2"
_cell_formula_units_Z 52
_cell_length_a 13.573204
_cell_length_b 8.987119
_cell_length_c 26.679226
_cell_angle_alpha 90.000000
_cell_angle_beta 90.000000
_cell_angle_gamma 90.000000
_cell_volume 3254.438693
_symmetry_space_group_name_H-M "P M M M"
_symmetry_group_IT_number 47
_symmetry_cell_setting 'orthorhombic'
loop_
_space_group_symop_operation_xyz
x,y,z
-x,-y,z
x,-y,-z
-x,y,-z
-x,-y,-z
x,y,-z
-x,y,z
x,-y,z
loop_
_atom_site_type_symbol
_atom_site_label
_atom_site_fract_x
_atom_site_fract_y
_atom_site_fract_z
Si Si1 0.386843 0.823634 0.000000
Si Si2 0.116959 0.333469 0.553022
Si Si3 0.612943 0.671122 0.198026
Si Si4 0.886674 0.173628 0.145220
Si Si5 0.286901 0.672653 0.906163
Si Si6 0.785280 0.173485 0.752218
Si Si7 0.888227 0.677585 0.339175
O O1 0.331882 0.762900 0.951639
O O2 0.500000 0.768813 0.000000
O O3 0.380358 0.000000 0.000000
O O4 0.149422 0.252363 0.500000
O O5 0.159687 0.500000 0.550836
O O6 0.150214 0.260462 0.606111
O O7 0.000000 0.340888 0.555383
O O8 0.500000 0.715059 0.205363
O O9 0.633400 0.500000 0.212020
O O10 0.641743 0.701091 0.140664
O O11 0.674965 0.775488 0.234841
O O12 0.822488 0.267614 0.105984
O O13 0.857719 0.216223 0.202069
O O14 0.000000 0.216258 0.136580
O O15 0.866691 0.000000 0.135703
O O16 0.279577 0.500000 0.920525
O O17 0.817802 0.257819 0.702708
O O18 0.786462 0.000000 0.741019
O O19 0.882945 0.500000 0.338824
O O20 0.000000 0.731098 0.328796
#
# Coordination Sequence:
#
# PCOD8194868 Si02
#       7
#     4   8   8   8   8   8   8
#     4  11  23  37  54  75  98 123 149 178 216 265
#     4   7  10  18  33  53  77 107 145 186 223 257
#     4   9  18  33  51  69  90 116 145 179 221 265
#     4   9  18  33  50  67  92 126 158 185 216 257
#     4  10  20  34  53  76  98 118 145 183 223 262
#     4  10  19  29  43  65  92 120 150 183 219 263
#     4   9  16  25  39  60  86 117 152 188 223 258
#
# _framework density 15.978179000000001
#
# number of rings (size 3 to 8) (size 9 to 14) (size 15 to 20)
#    0.000    2.846    0.000    3.462    0.000    4.000 
#    0.000    0.385    0.000    2.769    0.000    2.154 
#    0.000    0.615    0.000    7.077    0.000    2.308 
#
# Total GULP energy -644436.499185 kJ/mol
# GULP energy per Si atom -12393.009600 kJ/mol
# Density = 1.594181 g / cm^3
# Si number density = 15.978179 Si / 1000 Ang^3
#
#
#
# Elastic Constant Matrix: (Units=GPa)
#
#
# Indices 1 2 3 4 5 6 
#
# 1 86.2786 29.0513 52.0323 0.0000 0.0000 0.0000
# 2 29.0513 42.7711 39.2453 0.0000 0.0000 0.0000
# 3 52.0323 39.2453 123.7499 0.0000 0.0000 0.0000
# 4 0.0000 0.0000 0.0000 14.2767 0.0000 0.0000
# 5 0.0000 0.0000 0.0000 0.0000 14.9642 0.0000
# 6 0.0000 0.0000 0.0000 0.0000 0.0000 20.5490
#
#
#
# Elastic Compliance Matrix: (Units=1/GPa)
#
#
# Indices 1 2 3 4 5 6 
#
# 1 0.016890 -0.006990 -0.004885 0.000000 0.000000 0.000000
# 2 -0.006990 0.035869 -0.008436 0.000000 0.000000 0.000000
# 3 -0.004885 -0.008436 0.012810 0.000000 0.000000 0.000000
# 4 0.000000 0.000000 0.000000 0.070044 0.000000 0.000000
# 5 0.000000 0.000000 0.000000 0.000000 0.066826 0.000000
# 6 0.000000 0.000000 0.000000 0.000000 0.000000 0.048664
#
#
# Mechanical properties :
#
#
# Convention : Reuss Voigt Hill
#
# Bulk Modulus (GPa) = 40.08516 54.82859 47.45687
# Shear Modulus (GPa) = 16.66439 18.78935 17.72687
#
# Velocity S-wave (km/s) = 3.23297 3.43292 3.33444
# Velocity P-wave (km/s) = 6.25124 7.07830 6.67759
#
# Compressibility (1/GPa) = 0.02494689
#
# Stress axis : x y z
#
# Youngs Moduli (GPa) = 59.20701 27.87938 78.06322
#
# Poissons Ratio (x) = 0.19487 0.38133
# Poissons Ratio (y) = 0.41385 0.65856
# Poissons Ratio (z) = 0.28922 0.23520
#
# Static dielectric constant tensor:
#      x y z
#    x 2.885650 0.000000 0.000000 
#    y 0.000000 2.910800 0.000000 
#    z 0.000000 0.000000 3.271350 
# 
# 
# High freq. dielectric constant tensor:
#      x y z
#    x 1.587120 0.000000 0.000000 
#    y 0.000000 1.601900 0.000000 
#    z 0.000000 0.000000 1.618450 
# 
# From -- ./inp_files/31977.got.cif
#   From: 2010.03.12/outbox.cif.g09.slc.cpg/sg47_16_cif.got.tgz:31977.got - 2010.04.14 03:12:58.
