data_PCOD8194067
_publ_section_title
;
Structure prediction by ZEFSAII (Michael W. Deem and Ramdas Pophale) SiO2 
 PCOD8194067
Probable space group: P M M M
;
_chemical_formula_sum "Si O2"
_cell_formula_units_Z 64
_cell_length_a 14.285969
_cell_length_b 9.553289
_cell_length_c 31.150991
_cell_angle_alpha 90.000000
_cell_angle_beta 90.000000
_cell_angle_gamma 90.000000
_cell_volume 4251.424654
_symmetry_space_group_name_H-M "P M M M"
_symmetry_group_IT_number 47
_symmetry_cell_setting 'orthorhombic'
loop_
_space_group_symop_operation_xyz
x,y,z
-x,-y,z
x,-y,-z
-x,y,-z
-x,-y,-z
x,y,-z
-x,y,z
x,-y,z
loop_
_atom_site_type_symbol
_atom_site_label
_atom_site_fract_x
_atom_site_fract_y
_atom_site_fract_z
Si Si1 0.388966 0.845516 0.377410
Si Si2 0.107198 0.837731 0.085360
Si Si3 0.706912 0.661386 0.210258
Si Si4 0.392821 0.165179 0.718384
Si Si5 0.736839 0.338632 0.951879
Si Si6 0.604484 0.665845 0.876017
Si Si7 0.104233 0.341565 0.168989
Si Si8 0.388763 0.343483 0.452780
O O1 0.500000 0.852753 0.381972
O O2 0.364382 0.788740 0.329924
O O3 0.344445 0.749103 0.414652
O O4 0.346424 0.000000 0.383692
O O5 0.170607 0.756617 0.051048
O O6 0.123534 0.767958 0.131488
O O7 0.000000 0.821809 0.070491
O O8 0.136455 0.000000 0.088144
O O9 0.680532 0.500000 0.218981
O O10 0.674887 0.753465 0.249950
O O11 0.657175 0.716366 0.166875
O O12 0.818883 0.682052 0.205981
O O13 0.500000 0.207203 0.728115
O O14 0.379162 0.000000 0.724134
O O15 0.763146 0.500000 0.941918
O O16 0.659974 0.281776 0.918134
O O17 0.695931 0.324024 0.000000
O O18 0.500000 0.730551 0.876737
O O19 0.599035 0.500000 0.876793
O O20 0.115335 0.500000 0.150531
O O21 0.000000 0.319751 0.188422
O O22 0.359972 0.284962 0.500000
O O23 0.500000 0.344719 0.448877
O O24 0.349625 0.500000 0.447247
#
# Coordination Sequence:
#
# PCOD8194067 Si02
#       8
#     8   8   8   8   8   8   8   8
#     4   8  14  24  35  47  68 100 137 175 211 247
#     4  10  20  33  50  71  93 114 134 162 203 245
#     4  10  18  29  47  68  87 108 136 170 207 247
#     4   9  18  30  41  57  84 115 145 178 215 251
#     4  10  20  34  51  69  89 115 144 169 199 242
#     4   9  17  30  47  68  91 109 133 173 209 237
#     4   9  17  31  51  71  91 112 134 164 201 244
#     4   8  13  20  30  46  68  94 128 173 220 258
#
# _framework density 15.053777
#
# number of rings (size 3 to 8) (size 9 to 14) (size 15 to 20)
#    0.000    2.875    1.250    1.875    0.000    3.500 
#    0.000    5.000    0.000    0.375    0.000    0.875 
#    0.000    0.000    0.000    0.000    0.000    0.625 
#
# Total GULP energy -793281.533211 kJ/mol
# GULP energy per Si atom -12395.023956 kJ/mol
# Density = 1.501951 g / cm^3
# Si number density = 15.053777 Si / 1000 Ang^3
#
#
#
# Elastic Constant Matrix: (Units=GPa)
#
#
# Indices 1 2 3 4 5 6 
#
# 1 69.6619 29.6076 43.2882 0.0000 0.0000 0.0000
# 2 29.6076 58.7098 47.9339 0.0000 0.0000 0.0000
# 3 43.2882 47.9339 120.9394 0.0000 0.0000 0.0000
# 4 0.0000 0.0000 0.0000 22.7642 0.0000 0.0000
# 5 0.0000 0.0000 0.0000 0.0000 9.0655 0.0000
# 6 0.0000 0.0000 0.0000 0.0000 0.0000 14.8418
#
#
#
# Elastic Compliance Matrix: (Units=1/GPa)
#
#
# Indices 1 2 3 4 5 6 
#
# 1 0.019895 -0.006238 -0.004649 0.000000 0.000000 0.000000
# 2 -0.006238 0.027137 -0.008523 0.000000 0.000000 0.000000
# 3 -0.004649 -0.008523 0.013311 0.000000 0.000000 0.000000
# 4 0.000000 0.000000 0.000000 0.043929 0.000000 0.000000
# 5 0.000000 0.000000 0.000000 0.000000 0.110309 0.000000
# 6 0.000000 0.000000 0.000000 0.000000 0.000000 0.067377
#
#
# Mechanical properties :
#
#
# Convention : Reuss Voigt Hill
#
# Bulk Modulus (GPa) = 46.46002 54.55229 50.50615
# Shear Modulus (GPa) = 15.24616 17.89971 16.57294
#
# Velocity S-wave (km/s) = 3.18587 3.45200 3.32160
# Velocity P-wave (km/s) = 6.66804 7.22533 6.95227
#
# Compressibility (1/GPa) = 0.02152388
#
# Stress axis : x y z
#
# Youngs Moduli (GPa) = 50.26410 36.84963 75.12757
#
# Poissons Ratio (x) = 0.22985 0.34925
# Poissons Ratio (y) = 0.31352 0.64032
# Poissons Ratio (z) = 0.23367 0.31408
#
# Static dielectric constant tensor:
#      x y z
#    x 2.785330 0.000000 0.000000 
#    y 0.000000 2.935680 0.000000 
#    z 0.000000 0.000000 2.921270 
# 
# 
# High freq. dielectric constant tensor:
#      x y z
#    x 1.539670 0.000000 0.000000 
#    y 0.000000 1.568420 0.000000 
#    z 0.000000 0.000000 1.568060 
# 
# From -- ./inp_files/25868.got.cif
#   From: 2010.03.12/outbox.cif.g09.slc.cpg/sg47_13_cif.got.tgz:25868.got - 2010.04.14 03:12:58.
