data_PCOD8194016
_publ_section_title
;
Structure prediction by ZEFSAII (Michael W. Deem and Ramdas Pophale) SiO2 
 PCOD8194016
Probable space group: P M M M
;
_chemical_formula_sum "Si O2"
_cell_formula_units_Z 56
_cell_length_a 14.373947
_cell_length_b 13.918291
_cell_length_c 18.002976
_cell_angle_alpha 90.000000
_cell_angle_beta 90.000000
_cell_angle_gamma 90.000000
_cell_volume 3601.689370
_symmetry_space_group_name_H-M "P M M M"
_symmetry_group_IT_number 47
_symmetry_cell_setting 'orthorhombic'
loop_
_space_group_symop_operation_xyz
x,y,z
-x,-y,z
x,-y,-z
-x,y,-z
-x,-y,-z
x,y,-z
-x,y,z
x,-y,z
loop_
_atom_site_type_symbol
_atom_site_label
_atom_site_fract_x
_atom_site_fract_y
_atom_site_fract_z
Si Si1 0.228745 0.109208 0.914300
Si Si2 0.708061 0.612373 0.645000
Si Si3 0.891650 0.272382 0.860230
Si Si4 0.605622 0.756323 0.083831
Si Si5 0.390795 0.390670 0.208494
Si Si6 0.889120 0.392513 0.000000
Si Si7 0.606822 0.614815 0.500000
Si Si8 0.104199 0.388792 0.287595
O O1 0.158923 0.169693 0.862626
O O2 0.333129 0.148755 0.904428
O O3 0.227061 0.000000 0.885950
O O4 0.196493 0.116100 0.000000
O O5 0.687668 0.500000 0.642268
O O6 0.659681 0.653470 0.719105
O O7 0.661196 0.657929 0.571617
O O8 0.819505 0.633544 0.648362
O O9 0.852045 0.337515 0.927235
O O10 0.870270 0.325597 0.783557
O O11 0.000000 0.252938 0.870426
O O12 0.500000 0.786328 0.101828
O O13 0.640254 0.671549 0.137725
O O14 0.615241 0.716609 0.000000
O O15 0.500000 0.384926 0.223090
O O16 0.359029 0.500000 0.193342
O O17 0.848035 0.500000 0.000000
O O18 0.000000 0.396581 0.000000
O O19 0.610097 0.500000 0.500000
O O20 0.500000 0.650836 0.500000
O O21 0.110484 0.500000 0.262987
O O22 0.000000 0.365214 0.317440
#
# Coordination Sequence:
#
# PCOD8194016 Si02
#       8
#     8   8   8   8   8   4   4   8
#     4  10  20  32  44  57  77 105 142 189 231 265
#     4   9  16  26  40  58  83 113 146 179 211 247
#     4  10  18  29  44  62  84 110 141 178 219 262
#     4   9  18  31  45  60  80 108 145 184 219 260
#     4   9  16  26  42  63  86 112 139 172 218 266
#     4   9  16  26  41  61  84 109 139 177 217 253
#     4   9  16  26  41  61  83 109 145 186 218 246
#     4   9  17  28  42  60  84 115 146 173 207 255
#
# _framework density 15.548260000000001
#
# number of rings (size 3 to 8) (size 9 to 14) (size 15 to 20)
#    0.000    2.714    0.714    1.714    0.000    4.286 
#    0.000    4.643    0.000    2.143    0.000    0.000 
#    0.000    0.000    0.000   10.286    0.000   64.000 
#
# Total GULP energy -694257.772047 kJ/mol
# GULP energy per Si atom -12397.460215 kJ/mol
# Density = 1.551287 g / cm^3
# Si number density = 15.548260 Si / 1000 Ang^3
#
#
#
# Elastic Constant Matrix: (Units=GPa)
#
#
# Indices 1 2 3 4 5 6 
#
# 1 79.4065 34.6205 56.6606 0.0000 0.0000 0.0000
# 2 34.6205 75.6546 36.9291 0.0000 0.0000 0.0000
# 3 56.6606 36.9291 89.7584 0.0000 0.0000 0.0000
# 4 0.0000 0.0000 0.0000 5.9861 0.0000 0.0000
# 5 0.0000 0.0000 0.0000 0.0000 24.5632 0.0000
# 6 0.0000 0.0000 0.0000 0.0000 0.0000 19.1804
#
#
#
# Elastic Compliance Matrix: (Units=1/GPa)
#
#
# Indices 1 2 3 4 5 6 
#
# 1 0.024082 -0.004504 -0.013349 0.000000 0.000000 0.000000
# 2 -0.004504 0.017382 -0.004308 0.000000 0.000000 0.000000
# 3 -0.013349 -0.004308 0.021340 0.000000 0.000000 0.000000
# 4 0.000000 0.000000 0.000000 0.167053 0.000000 0.000000
# 5 0.000000 0.000000 0.000000 0.000000 0.040711 0.000000
# 6 0.000000 0.000000 0.000000 0.000000 0.000000 0.052137
#
#
# Mechanical properties :
#
#
# Convention : Reuss Voigt Hill
#
# Bulk Modulus (GPa) = 54.10727 55.69331 54.90029
# Shear Modulus (GPa) = 13.39804 17.71991 15.55897
#
# Velocity S-wave (km/s) = 2.93867 3.37956 3.16680
# Velocity P-wave (km/s) = 6.81098 7.15025 6.98267
#
# Compressibility (1/GPa) = 0.01848181
#
# Stress axis : x y z
#
# Youngs Moduli (GPa) = 41.52398 57.53044 46.86020
#
# Poissons Ratio (x) = 0.25914 0.62554
# Poissons Ratio (y) = 0.18704 0.20187
# Poissons Ratio (z) = 0.55430 0.24784
#
# Static dielectric constant tensor:
#      x y z
#    x 3.114660 0.000000 0.000000 
#    y 0.000000 2.671290 0.000000 
#    z 0.000000 0.000000 2.925210 
# 
# 
# High freq. dielectric constant tensor:
#      x y z
#    x 1.613430 0.000000 0.000000 
#    y 0.000000 1.549290 0.000000 
#    z 0.000000 0.000000 1.573550 
# 
# From -- ./inp_files/28313.got.cif
#   From: 2010.03.12/outbox.cif.g09.slc.cpg/sg47_15_cif.got.tgz:28313.got - 2010.04.14 03:12:58.
