data_PCOD8194424
_publ_section_title
;
Structure prediction by ZEFSAII (Michael W. Deem and Ramdas Pophale) SiO2 
 PCOD8194424
Probable space group: P M M M
;
_chemical_formula_sum "Si O2"
_cell_formula_units_Z 48
_cell_length_a 17.008487
_cell_length_b 16.052679
_cell_length_c 9.072502
_cell_angle_alpha 90.000000
_cell_angle_beta 90.000000
_cell_angle_gamma 90.000000
_cell_volume 2477.081389
_symmetry_space_group_name_H-M "P M M M"
_symmetry_group_IT_number 47
_symmetry_cell_setting 'orthorhombic'
loop_
_space_group_symop_operation_xyz
x,y,z
-x,-y,z
x,-y,-z
-x,y,-z
-x,-y,-z
x,y,-z
-x,y,z
x,-y,z
loop_
_atom_site_type_symbol
_atom_site_label
_atom_site_fract_x
_atom_site_fract_y
_atom_site_fract_z
Si Si1 0.678832 0.909046 0.671206
Si Si2 0.691167 0.592863 0.329249
Si Si3 0.834674 0.339742 0.174649
Si Si4 0.839049 0.828251 0.670744
Si Si5 0.588807 0.748011 0.675750
Si Si6 0.000000 0.092500 0.324667
Si Si7 0.000000 0.407084 0.824872
O O1 0.657663 0.911114 0.500000
O O2 0.772411 0.897956 0.692758
O O3 0.630687 0.831408 0.741377
O O4 0.656101 0.000000 0.740310
O O5 0.709908 0.610063 0.500000
O O6 0.654588 0.500000 0.307832
O O7 0.772667 0.594945 0.239899
O O8 0.631775 0.663725 0.268262
O O9 0.811314 0.249505 0.233647
O O10 0.922224 0.360622 0.232938
O O11 0.830074 0.343045 0.000000
O O12 0.845464 0.801773 0.500000
O O13 0.922181 0.861059 0.732474
O O14 0.590871 0.749728 0.500000
O O15 0.500000 0.746138 0.735736
O O16 0.000000 0.087899 0.500000
O O17 0.000000 0.000000 0.257661
O O18 0.000000 0.500000 0.760029
O O19 0.000000 0.409692 0.000000
#
# Coordination Sequence:
#
# PCOD8194424 Si02
#       7
#     8   8   8   8   8   4   4
#     4   9  16  27  47  74 104 137 170 209 256 302
#     4  10  20  35  55  79 107 137 171 213 262 313
#     4  11  21  34  54  76 102 138 179 216 257 309
#     4  10  18  31  50  73 105 138 173 217 262 309
#     4   9  17  30  49  76 109 138 167 209 260 315
#     4   9  17  28  47  77 106 137 180 224 267 317
#     4   9  19  34  49  69  98 131 170 213 251 296
#
# _framework density 19.377644
#
# number of rings (size 3 to 8) (size 9 to 14) (size 15 to 20)
#    0.000    2.333    1.667    2.000    0.000    3.667 
#    0.000    4.583    0.000    6.000    0.000    1.167 
#    0.000    1.333    0.000    0.000    0.000    0.000 
#
# Total GULP energy -595032.313746 kJ/mol
# GULP energy per Si atom -12396.506536 kJ/mol
# Density = 1.933354 g / cm^3
# Si number density = 19.377644 Si / 1000 Ang^3
#
#
#
# Elastic Constant Matrix: (Units=GPa)
#
#
# Indices 1 2 3 4 5 6 
#
# 1 138.4278 64.1378 19.4680 0.0000 0.0000 0.0000
# 2 64.1378 161.2989 20.8311 0.0000 0.0000 0.0000
# 3 19.4680 20.8311 27.4316 0.0000 0.0000 0.0000
# 4 0.0000 0.0000 0.0000 7.5802 0.0000 0.0000
# 5 0.0000 0.0000 0.0000 0.0000 12.0668 0.0000
# 6 0.0000 0.0000 0.0000 0.0000 0.0000 24.2623
#
#
#
# Elastic Compliance Matrix: (Units=1/GPa)
#
#
# Indices 1 2 3 4 5 6 
#
# 1 0.009271 -0.003145 -0.004191 0.000000 0.000000 0.000000
# 2 -0.003145 0.007941 -0.003798 0.000000 0.000000 0.000000
# 3 -0.004191 -0.003798 0.042313 0.000000 0.000000 0.000000
# 4 0.000000 0.000000 0.000000 0.131922 0.000000 0.000000
# 5 0.000000 0.000000 0.000000 0.000000 0.082872 0.000000
# 6 0.000000 0.000000 0.000000 0.000000 0.000000 0.041216
#
#
# Mechanical properties :
#
#
# Convention : Reuss Voigt Hill
#
# Bulk Modulus (GPa) = 26.84136 59.55913 43.20024
# Shear Modulus (GPa) = 14.27670 23.62997 18.95333
#
# Velocity S-wave (km/s) = 2.71728 3.49584 3.13086
# Velocity P-wave (km/s) = 4.87100 6.86275 5.95079
#
# Compressibility (1/GPa) = 0.03725593
#
# Stress axis : x y z
#
# Youngs Moduli (GPa) = 107.86814 125.93265 23.63356
#
# Poissons Ratio (x) = 0.39606 0.09905
# Poissons Ratio (y) = 0.33925 0.08976
# Poissons Ratio (z) = 0.45207 0.47830
#
# Static dielectric constant tensor:
#      x y z
#    x 3.697400 0.000000 0.000000 
#    y 0.000000 3.778860 0.000000 
#    z 0.000000 0.000000 2.909820 
# 
# 
# High freq. dielectric constant tensor:
#      x y z
#    x 1.757360 0.000000 0.000000 
#    y 0.000000 1.770630 0.000000 
#    z 0.000000 0.000000 1.685470 
# 
# From -- ./inp_files/9143.got.cif
#   From: 2010.03.12/outbox.cif.g09.slc.cpg/sg47_5_cif.got.tgz:9143.got - 2010.04.14 03:12:58.
