data_PCOD8194389
_publ_section_title
;
Structure prediction by ZEFSAII (Michael W. Deem and Ramdas Pophale) SiO2 
 PCOD8194389
Probable space group: P M M M
;
_chemical_formula_sum "Si O2"
_cell_formula_units_Z 64
_cell_length_a 19.083748
_cell_length_b 8.865833
_cell_length_c 23.650523
_cell_angle_alpha 90.000000
_cell_angle_beta 90.000000
_cell_angle_gamma 90.000000
_cell_volume 4001.510572
_symmetry_space_group_name_H-M "P M M M"
_symmetry_group_IT_number 47
_symmetry_cell_setting 'orthorhombic'
loop_
_space_group_symop_operation_xyz
x,y,z
-x,-y,z
x,-y,-z
-x,y,-z
-x,-y,-z
x,y,-z
-x,y,z
x,-y,z
loop_
_atom_site_type_symbol
_atom_site_label
_atom_site_fract_x
_atom_site_fract_y
_atom_site_fract_z
Si Si1 0.920835 0.823050 0.736196
Si Si2 0.286048 0.821897 0.219334
Si Si3 0.080330 0.173852 0.065286
Si Si4 0.711713 0.821627 0.437863
Si Si5 0.578231 0.827331 0.370331
Si Si6 0.840792 0.677405 0.837062
Si Si7 0.421208 0.676368 0.251775
Si Si8 0.791613 0.177352 0.668257
O O1 0.897479 0.735368 0.791836
O O2 0.871786 0.777192 0.682799
O O3 0.000000 0.779377 0.720206
O O4 0.912578 0.000000 0.749478
O O5 0.235526 0.750955 0.172033
O O6 0.365332 0.761955 0.211894
O O7 0.258285 0.767726 0.280816
O O8 0.284238 0.000000 0.212089
O O9 0.131902 0.278777 0.101084
O O10 0.000000 0.219502 0.077358
O O11 0.092101 0.000000 0.082106
O O12 0.098799 0.200492 0.000000
O O13 0.725689 0.750134 0.500000
O O14 0.632694 0.780629 0.418991
O O15 0.766403 0.752390 0.391682
O O16 0.720870 0.000000 0.441836
O O17 0.500000 0.807245 0.395172
O O18 0.590085 0.722512 0.316543
O O19 0.591530 0.000000 0.350750
O O20 0.833322 0.500000 0.831697
O O21 0.500000 0.720194 0.232126
O O22 0.408088 0.500000 0.246079
O O23 0.783429 0.000000 0.663169
#
# Coordination Sequence:
#
# PCOD8194389 Si02
#       8
#     8   8   8   8   8   8   8   8
#     4   9  17  29  45  62  83 115 152 188 227 275
#     4  10  18  31  49  65  87 120 156 190 224 270
#     4   9  18  33  51  69  94 133 175 204 226 261
#     4   9  15  23  38  60  82 104 138 187 233 270
#     4   9  16  26  40  58  80 109 145 180 217 268
#     4  11  21  30  44  70 100 124 151 192 237 275
#     4  10  19  29  43  65  92 119 146 182 230 277
#     4   8  14  25  40  59  80 104 137 180 229 274
#
# _framework density 15.993961000000001
#
# number of rings (size 3 to 8) (size 9 to 14) (size 15 to 20)
#    0.000    2.625    1.250    3.375    0.000    3.250 
#    0.000    1.875    0.000    0.750    0.000    4.375 
#    0.000    0.500    0.000    8.500    0.000    6.500 
#
# Total GULP energy -793324.912881 kJ/mol
# GULP energy per Si atom -12395.701764 kJ/mol
# Density = 1.595756 g / cm^3
# Si number density = 15.993961 Si / 1000 Ang^3
#
#
#
# Elastic Constant Matrix: (Units=GPa)
#
#
# Indices 1 2 3 4 5 6 
#
# 1 128.0119 43.3236 55.5246 0.0000 0.0000 0.0000
# 2 43.3236 60.5466 27.5268 0.0000 0.0000 0.0000
# 3 55.5246 27.5268 79.2837 0.0000 0.0000 0.0000
# 4 0.0000 0.0000 0.0000 8.6934 0.0000 0.0000
# 5 0.0000 0.0000 0.0000 0.0000 25.1923 0.0000
# 6 0.0000 0.0000 0.0000 0.0000 0.0000 19.3208
#
#
#
# Elastic Compliance Matrix: (Units=1/GPa)
#
#
# Indices 1 2 3 4 5 6 
#
# 1 0.012856 -0.006062 -0.006898 0.000000 0.000000 0.000000
# 2 -0.006062 0.022471 -0.003556 0.000000 0.000000 0.000000
# 3 -0.006898 -0.003556 0.018679 0.000000 0.000000 0.000000
# 4 0.000000 0.000000 0.000000 0.115029 0.000000 0.000000
# 5 0.000000 0.000000 0.000000 0.000000 0.039695 0.000000
# 6 0.000000 0.000000 0.000000 0.000000 0.000000 0.051758
#
#
# Mechanical properties :
#
#
# Convention : Reuss Voigt Hill
#
# Bulk Modulus (GPa) = 47.68370 57.84356 52.76363
# Shear Modulus (GPa) = 16.63833 20.07246 18.35539
#
# Velocity S-wave (km/s) = 3.22885 3.54644 3.39137
# Velocity P-wave (km/s) = 6.61656 7.28108 6.95676
#
# Compressibility (1/GPa) = 0.02097153
#
# Stress axis : x y z
#
# Youngs Moduli (GPa) = 77.78691 44.50207 53.53709
#
# Poissons Ratio (x) = 0.26979 0.36932
# Poissons Ratio (y) = 0.47158 0.19038
# Poissons Ratio (z) = 0.53660 0.15825
#
# Static dielectric constant tensor:
#      x y z
#    x 3.270030 0.000000 0.000000 
#    y 0.000000 2.829100 0.000000 
#    z 0.000000 0.000000 2.947950 
# 
# 
# High freq. dielectric constant tensor:
#      x y z
#    x 1.618350 0.000000 0.000000 
#    y 0.000000 1.594590 0.000000 
#    z 0.000000 0.000000 1.581170 
# 
# From -- ./inp_files/32943.got.cif
#   From: 2010.03.12/outbox.cif.g09.slc.cpg/sg47_17_cif.got.tgz:32943.got - 2010.04.14 03:12:58.
