data_PCOD8194253
_publ_section_title
;
Structure prediction by ZEFSAII (Michael W. Deem and Ramdas Pophale) SiO2 
 PCOD8194253
Probable space group: P M M M
;
_chemical_formula_sum "Si O2"
_cell_formula_units_Z 56
_cell_length_a 18.891232
_cell_length_b 18.907803
_cell_length_c 9.219200
_cell_angle_alpha 90.000000
_cell_angle_beta 90.000000
_cell_angle_gamma 90.000000
_cell_volume 3293.021657
_symmetry_space_group_name_H-M "P M M M"
_symmetry_group_IT_number 47
_symmetry_cell_setting 'orthorhombic'
loop_
_space_group_symop_operation_xyz
x,y,z
-x,-y,z
x,-y,-z
-x,y,-z
-x,-y,-z
x,y,-z
-x,y,z
x,-y,z
loop_
_atom_site_type_symbol
_atom_site_label
_atom_site_fract_x
_atom_site_fract_y
_atom_site_fract_z
Si Si1 0.709094 0.347033 0.668344
Si Si2 0.283259 0.077656 0.328444
Si Si3 0.172346 0.579596 0.166798
Si Si4 0.802369 0.210834 0.331272
Si Si5 0.080035 0.289057 0.829774
Si Si6 0.420157 0.699879 0.168046
Si Si7 0.421249 0.155502 0.334055
O O1 0.698717 0.363090 0.500000
O O2 0.759026 0.407206 0.735114
O O3 0.742976 0.270082 0.697124
O O4 0.633160 0.351559 0.746706
O O5 0.276300 0.075165 0.500000
O O6 0.228345 0.136621 0.269992
O O7 0.363949 0.097219 0.286128
O O8 0.265798 0.000000 0.262400
O O9 0.144709 0.500000 0.193674
O O10 0.109678 0.633246 0.210767
O O11 0.194348 0.591408 0.000000
O O12 0.821360 0.206339 0.500000
O O13 0.874236 0.228133 0.246517
O O14 0.000000 0.284594 0.771649
O O15 0.083481 0.275426 0.000000
O O16 0.500000 0.671148 0.189931
O O17 0.413234 0.778281 0.229794
O O18 0.398960 0.701663 0.000000
O O19 0.406748 0.180694 0.500000
O O20 0.500000 0.122362 0.320198
#
# Coordination Sequence:
#
# PCOD8194253 Si02
#       7
#     8   8   8   8   8   8   8
#     4  10  18  30  49  70  94 125 162 201 238 277
#     4   9  16  27  44  67  95 125 160 203 246 285
#     4   9  18  32  50  74 103 131 155 182 223 277
#     4   9  17  30  47  69  94 122 158 197 238 281
#     4   9  18  32  51  75  99 125 156 189 227 272
#     4  10  19  29  44  67  93 123 161 204 247 286
#     4   9  16  27  43  64  92 124 159 199 244 290
#
# _framework density 17.005658
#
# number of rings (size 3 to 8) (size 9 to 14) (size 15 to 20)
#    0.000    2.714    1.429    0.857    0.000    2.571 
#    0.000    2.857    0.000    2.571    0.000   12.000 
#    0.000    0.000    0.000    0.000    0.000    0.000 
#
# Total GULP energy -694281.389695 kJ/mol
# GULP energy per Si atom -12397.881959 kJ/mol
# Density = 1.696695 g / cm^3
# Si number density = 17.005658 Si / 1000 Ang^3
#
#
#
# Elastic Constant Matrix: (Units=GPa)
#
#
# Indices 1 2 3 4 5 6 
#
# 1 135.6437 57.3889 49.4214 0.0000 0.0000 0.0000
# 2 57.3889 83.1403 21.9644 0.0000 0.0000 0.0000
# 3 49.4214 21.9644 61.0947 0.0000 0.0000 0.0000
# 4 0.0000 0.0000 0.0000 17.1696 0.0000 0.0000
# 5 0.0000 0.0000 0.0000 0.0000 27.2125 0.0000
# 6 0.0000 0.0000 0.0000 0.0000 0.0000 19.0245
#
#
#
# Elastic Compliance Matrix: (Units=1/GPa)
#
#
# Indices 1 2 3 4 5 6 
#
# 1 0.013369 -0.007040 -0.008284 0.000000 0.000000 0.000000
# 2 -0.007040 0.016997 -0.000416 0.000000 0.000000 0.000000
# 3 -0.008284 -0.000416 0.023218 0.000000 0.000000 0.000000
# 4 0.000000 0.000000 0.000000 0.058242 0.000000 0.000000
# 5 0.000000 0.000000 0.000000 0.000000 0.036748 0.000000
# 6 0.000000 0.000000 0.000000 0.000000 0.000000 0.052564
#
#
# Mechanical properties :
#
#
# Convention : Reuss Voigt Hill
#
# Bulk Modulus (GPa) = 45.23727 59.71422 52.47574
# Shear Modulus (GPa) = 20.83464 22.75493 21.79478
#
# Velocity S-wave (km/s) = 3.50402 3.66195 3.58386
# Velocity P-wave (km/s) = 6.55972 7.28494 6.93182
#
# Compressibility (1/GPa) = 0.02210567
#
# Stress axis : x y z
#
# Youngs Moduli (GPa) = 74.80180 58.83407 43.06921
#
# Poissons Ratio (x) = 0.41417 0.35676
# Poissons Ratio (y) = 0.52657 0.01792
# Poissons Ratio (z) = 0.61962 0.02448
#
# Static dielectric constant tensor:
#      x y z
#    x 3.295550 0.000000 0.000000 
#    y 0.000000 3.118340 0.000000 
#    z 0.000000 0.000000 3.080650 
# 
# 
# High freq. dielectric constant tensor:
#      x y z
#    x 1.653880 0.000000 0.000000 
#    y 0.000000 1.630270 0.000000 
#    z 0.000000 0.000000 1.643440 
# 
# From -- ./inp_files/9812.got.cif
#   From: 2010.03.12/outbox.cif.g09.slc.cpg/sg47_5_cif.got.tgz:9812.got - 2010.04.14 03:12:58.
