data_PCOD8194503
_publ_section_title
;
Structure prediction by ZEFSAII (Michael W. Deem and Ramdas Pophale) SiO2 
 PCOD8194503
Probable space group: P M M M
;
_chemical_formula_sum "Si O2"
_cell_formula_units_Z 56
_cell_length_a 8.866248
_cell_length_b 15.512974
_cell_length_c 19.976234
_cell_angle_alpha 90.000000
_cell_angle_beta 90.000000
_cell_angle_gamma 90.000000
_cell_volume 2747.568674
_symmetry_space_group_name_H-M "P M M M"
_symmetry_group_IT_number 47
_symmetry_cell_setting 'orthorhombic'
loop_
_space_group_symop_operation_xyz
x,y,z
-x,-y,z
x,-y,-z
-x,y,-z
-x,-y,-z
x,y,-z
-x,y,z
x,-y,z
loop_
_atom_site_type_symbol
_atom_site_label
_atom_site_fract_x
_atom_site_fract_y
_atom_site_fract_z
Si Si1 0.323227 0.662435 0.794570
Si Si2 0.673013 0.903542 0.655625
Si Si3 0.173394 0.595721 0.669693
Si Si4 0.822457 0.751378 0.423684
Si Si5 0.830608 0.652606 0.073222
Si Si6 0.169395 0.142481 0.070458
Si Si7 0.180552 0.152566 0.213219
O O1 0.500000 0.679429 0.794743
O O2 0.276202 0.597443 0.735955
O O3 0.276047 0.621023 0.866299
O O4 0.236801 0.750386 0.777708
O O5 0.500000 0.877824 0.667157
O O6 0.745114 0.836917 0.604305
O O7 0.756514 0.904512 0.726991
O O8 0.688138 0.000000 0.625612
O O9 0.190146 0.500000 0.638053
O O10 0.230529 0.666368 0.616250
O O11 0.000000 0.614131 0.689407
O O12 0.771478 0.738697 0.500000
O O13 0.000000 0.764843 0.417353
O O14 0.831409 0.755090 0.073097
O O15 0.000000 0.618121 0.085720
O O16 0.772926 0.619499 0.000000
O O17 0.240662 0.112297 0.141593
O O18 0.000000 0.106977 0.066942
O O19 0.251224 0.112554 0.000000
O O20 0.000000 0.153180 0.214431
#
# Coordination Sequence:
#
# PCOD8194503 Si02
#       7
#     8   8   8   8   8   8   8
#     4  11  20  30  50  80 116 155 194 240 295 350
#     4  11  24  40  59  86 120 158 197 238 291 350
#     4  10  21  38  61  88 119 156 196 237 284 343
#     4  10  22  41  66  94 121 151 189 234 284 343
#     4   8  14  26  45  70 103 146 196 246 294 346
#     4   7  11  21  40  69 102 136 179 232 285 335
#     4  10  18  31  54  80 109 149 198 246 292 343
#
# _framework density 20.381656
#
# number of rings (size 3 to 8) (size 9 to 14) (size 15 to 20)
#    0.000    2.429    1.429    3.857    0.000    2.571 
#    0.000    2.857    0.000    2.143    0.000    8.000 
#    0.000    0.000    0.000    0.000    0.000    0.000 
#
# Total GULP energy -693856.821637 kJ/mol
# GULP energy per Si atom -12390.300386 kJ/mol
# Density = 2.033527 g / cm^3
# Si number density = 20.381656 Si / 1000 Ang^3
#
#
#
# Elastic Constant Matrix: (Units=GPa)
#
#
# Indices 1 2 3 4 5 6 
#
# 1 66.4436 24.6440 56.7444 0.0000 0.0000 0.0000
# 2 24.6440 85.0750 54.5140 0.0000 0.0000 0.0000
# 3 56.7444 54.5140 172.2895 0.0000 0.0000 0.0000
# 4 0.0000 0.0000 0.0000 3.8245 0.0000 0.0000
# 5 0.0000 0.0000 0.0000 0.0000 13.2749 0.0000
# 6 0.0000 0.0000 0.0000 0.0000 0.0000 14.8426
#
#
#
# Elastic Compliance Matrix: (Units=1/GPa)
#
#
# Indices 1 2 3 4 5 6 
#
# 1 0.021234 -0.002094 -0.006331 0.000000 0.000000 0.000000
# 2 -0.002094 0.014950 -0.004041 0.000000 0.000000 0.000000
# 3 -0.006331 -0.004041 0.009168 0.000000 0.000000 0.000000
# 4 0.000000 0.000000 0.000000 0.261469 0.000000 0.000000
# 5 0.000000 0.000000 0.000000 0.000000 0.075330 0.000000
# 6 0.000000 0.000000 0.000000 0.000000 0.000000 0.067374
#
#
# Mechanical properties :
#
#
# Convention : Reuss Voigt Hill
#
# Bulk Modulus (GPa) = 48.97081 66.17921 57.57501
# Shear Modulus (GPa) = 10.38934 18.91546 14.65240
#
# Velocity S-wave (km/s) = 2.26019 3.04972 2.68414
# Velocity P-wave (km/s) = 5.55791 6.70384 6.15759
#
# Compressibility (1/GPa) = 0.02042033
#
# Stress axis : x y z
#
# Youngs Moduli (GPa) = 47.09481 66.88921 109.07800
#
# Poissons Ratio (x) = 0.14008 0.69055
# Poissons Ratio (y) = 0.09863 0.44074
# Poissons Ratio (z) = 0.29815 0.27027
#
# Static dielectric constant tensor:
#      x y z
#    x 3.460980 0.000000 0.000000 
#    y 0.000000 3.381440 0.000000 
#    z 0.000000 0.000000 4.235300 
# 
# 
# High freq. dielectric constant tensor:
#      x y z
#    x 1.765030 0.000000 0.000000 
#    y 0.000000 1.771330 0.000000 
#    z 0.000000 0.000000 1.810910 
# 
# From -- ./inp_files/7326.got.cif
#   From: 2010.03.12/outbox.cif.g09.slc.cpg/sg47_4_cif.got.tgz:7326.got - 2010.04.14 03:12:58.
