data_PCOD8194636
_publ_section_title
;
Structure prediction by ZEFSAII (Michael W. Deem and Ramdas Pophale) SiO2 
 PCOD8194636
Probable space group: P M M M
;
_chemical_formula_sum "Si O2"
_cell_formula_units_Z 64
_cell_length_a 26.373377
_cell_length_b 9.418524
_cell_length_c 18.499558
_cell_angle_alpha 90.000000
_cell_angle_beta 90.000000
_cell_angle_gamma 90.000000
_cell_volume 4595.258466
_symmetry_space_group_name_H-M "P M M M"
_symmetry_group_IT_number 47
_symmetry_cell_setting 'orthorhombic'
loop_
_space_group_symop_operation_xyz
x,y,z
-x,-y,z
x,-y,-z
-x,y,-z
-x,-y,-z
x,y,-z
-x,y,z
x,-y,z
loop_
_atom_site_type_symbol
_atom_site_label
_atom_site_fract_x
_atom_site_fract_y
_atom_site_fract_z
Si Si1 0.613877 0.336234 0.297499
Si Si2 0.055840 0.159173 0.414219
Si Si3 0.346243 0.835841 0.418396
Si Si4 0.238276 0.840297 0.344783
Si Si5 0.151032 0.333689 0.584220
Si Si6 0.356241 0.163391 0.080285
Si Si7 0.557217 0.664384 0.158941
Si Si8 0.303727 0.839324 0.780625
O O1 0.621518 0.500000 0.317273
O O2 0.611151 0.248922 0.372475
O O3 0.565577 0.311380 0.245278
O O4 0.661619 0.281808 0.252475
O O5 0.055040 0.161863 0.500000
O O6 0.098719 0.266559 0.385879
O O7 0.000000 0.205849 0.385463
O O8 0.068432 0.000000 0.386980
O O9 0.347473 0.778371 0.500000
O O10 0.290362 0.808238 0.386784
O O11 0.360748 0.000000 0.414968
O O12 0.196798 0.728417 0.369364
O O13 0.248537 0.823298 0.257725
O O14 0.219369 0.000000 0.362707
O O15 0.159728 0.296797 0.500000
O O16 0.148165 0.500000 0.597653
O O17 0.404866 0.246089 0.109846
O O18 0.306494 0.182843 0.132347
O O19 0.372556 0.000000 0.077911
O O20 0.341765 0.218078 0.000000
O O21 0.500000 0.711001 0.140622
O O22 0.566513 0.500000 0.140155
O O23 0.323675 0.000000 0.761675
#
# Coordination Sequence:
#
# PCOD8194636 Si02
#       8
#     8   8   8   8   8   8   8   8
#     4   9  16  26  41  58  73  92 121 153 181 213
#     4   8  14  25  39  51  64  89 127 165 197 231
#     4   9  17  28  41  56  74  96 120 149 189 232
#     4   9  16  26  39  52  69  96 126 151 178 219
#     4  10  19  26  33  50  75  99 124 160 202 232
#     4   9  17  29  45  64  83 100 121 151 182 213
#     4   9  18  31  44  58  78 103 126 147 176 216
#     4   8  15  28  42  55  74 100 125 147 178 221
#
# _framework density 13.9274
#
# number of rings (size 3 to 8) (size 9 to 14) (size 15 to 20)
#    0.000    3.125    0.000    2.250    0.000    5.000 
#    0.000    2.500    0.000    0.375    0.000    2.625 
#    0.000    0.000    0.000    0.000    0.000    0.625 
#
# Total GULP energy -792884.357835 kJ/mol
# GULP energy per Si atom -12388.818091 kJ/mol
# Density = 1.389570 g / cm^3
# Si number density = 13.927400 Si / 1000 Ang^3
#
#
#
# Elastic Constant Matrix: (Units=GPa)
#
#
# Indices 1 2 3 4 5 6 
#
# 1 54.3669 34.5370 37.9771 0.0000 0.0000 0.0000
# 2 34.5370 60.5837 37.7264 0.0000 0.0000 0.0000
# 3 37.9771 37.7264 99.0184 0.0000 0.0000 0.0000
# 4 0.0000 0.0000 0.0000 16.6497 0.0000 0.0000
# 5 0.0000 0.0000 0.0000 0.0000 10.1280 0.0000
# 6 0.0000 0.0000 0.0000 0.0000 0.0000 18.3326
#
#
#
# Elastic Compliance Matrix: (Units=1/GPa)
#
#
# Indices 1 2 3 4 5 6 
#
# 1 0.032168 -0.013970 -0.007015 0.000000 0.000000 0.000000
# 2 -0.013970 0.027707 -0.005199 0.000000 0.000000 0.000000
# 3 -0.007015 -0.005199 0.014770 0.000000 0.000000 0.000000
# 4 0.000000 0.000000 0.000000 0.060061 0.000000 0.000000
# 5 0.000000 0.000000 0.000000 0.000000 0.098737 0.000000
# 6 0.000000 0.000000 0.000000 0.000000 0.000000 0.054548
#
#
# Mechanical properties :
#
#
# Convention : Reuss Voigt Hill
#
# Bulk Modulus (GPa) = 44.88590 48.27222 46.57906
# Shear Modulus (GPa) = 14.37671 15.93727 15.15699
#
# Velocity S-wave (km/s) = 3.21637 3.38644 3.30250
# Velocity P-wave (km/s) = 6.78909 7.07289 6.93244
#
# Compressibility (1/GPa) = 0.02227871
#
# Stress axis : x y z
#
# Youngs Moduli (GPa) = 31.08649 36.09181 67.70306
#
# Poissons Ratio (x) = 0.50420 0.47495
# Poissons Ratio (y) = 0.43427 0.35196
# Poissons Ratio (z) = 0.21808 0.18763
#
# Static dielectric constant tensor:
#      x y z
#    x 2.693000 0.000000 0.000000 
#    y 0.000000 2.810720 0.000000 
#    z 0.000000 0.000000 2.871310 
# 
# 
# High freq. dielectric constant tensor:
#      x y z
#    x 1.498300 0.000000 0.000000 
#    y 0.000000 1.539510 0.000000 
#    z 0.000000 0.000000 1.509100 
# 
# From -- ./inp_files/10251.got.cif
#   From: 2010.03.12/outbox.cif.g09.slc.cpg/sg47_6_cif.got.tgz:10251.got - 2010.04.14 03:12:58.
