data_PCOD8194965
_publ_section_title
;
Structure prediction by ZEFSAII (Michael W. Deem and Ramdas Pophale) SiO2 
 PCOD8194965
Probable space group: P M M M
;
_chemical_formula_sum "Si O2"
_cell_formula_units_Z 52
_cell_length_a 15.448974
_cell_length_b 8.935258
_cell_length_c 27.569545
_cell_angle_alpha 90.000000
_cell_angle_beta 90.000000
_cell_angle_gamma 90.000000
_cell_volume 3805.715666
_symmetry_space_group_name_H-M "P M M M"
_symmetry_group_IT_number 47
_symmetry_cell_setting 'orthorhombic'
loop_
_space_group_symop_operation_xyz
x,y,z
-x,-y,z
x,-y,-z
-x,y,-z
-x,-y,-z
x,y,-z
-x,y,z
x,-y,z
loop_
_atom_site_type_symbol
_atom_site_label
_atom_site_fract_x
_atom_site_fract_y
_atom_site_fract_z
Si Si1 0.602796 0.832818 0.802218
Si Si2 0.595170 0.321821 0.000000
Si Si3 0.600608 0.675504 0.705099
Si Si4 0.500000 0.822209 0.554208
Si Si5 0.825045 0.675652 0.443359
Si Si6 0.000000 0.831520 0.557477
Si Si7 0.603715 0.331486 0.896157
Si Si8 0.332763 0.178037 0.388280
O O1 0.500000 0.831731 0.805423
O O2 0.632968 0.728600 0.757868
O O3 0.641008 0.770761 0.852912
O O4 0.638320 0.000000 0.793976
O O5 0.640986 0.274469 0.948907
O O6 0.586562 0.500000 0.000000
O O7 0.500000 0.248705 0.000000
O O8 0.500000 0.717780 0.697273
O O9 0.616329 0.500000 0.700203
O O10 0.658700 0.762232 0.666209
O O11 0.500000 0.755551 0.500000
O O12 0.415218 0.762846 0.581522
O O13 0.500000 0.000000 0.552918
O O14 0.810050 0.710843 0.500000
O O15 0.824347 0.500000 0.433052
O O16 0.751690 0.755805 0.412737
O O17 0.915699 0.742445 0.424568
O O18 0.000000 0.837332 0.500000
O O19 0.000000 0.000000 0.578914
O O20 0.500000 0.326505 0.898216
O O21 0.634941 0.500000 0.885618
O O22 0.326947 0.000000 0.387862
#
# Coordination Sequence:
#
# PCOD8194965 Si02
#       8
#     8   4   8   4   8   4   8   8
#     4   9  16  24  34  47  63  83 112 147 184 223
#     4   7  10  16  27  41  57  77 101 131 169 218
#     4  10  19  30  42  54  71  95 125 159 195 231
#     4   9  18  30  43  59  79 103 129 156 187 224
#     4  10  20  33  48  67  89 109 128 154 189 229
#     4   9  17  31  51  71  87 105 129 155 185 224
#     4   8  12  19  30  43  58  78 105 136 174 218
#     4  11  20  31  46  62  82 105 132 162 193 230
#
# _framework density 13.663659000000001
#
# number of rings (size 3 to 8) (size 9 to 14) (size 15 to 20)
#    0.000    2.692    0.769    3.462    0.000    4.923 
#    0.000    0.385    0.000    4.154    0.000    0.000 
#    0.000    0.000    0.000    0.000    0.000    0.000 
#
# Total GULP energy -644506.357135 kJ/mol
# GULP energy per Si atom -12394.353022 kJ/mol
# Density = 1.363256 g / cm^3
# Si number density = 13.663659 Si / 1000 Ang^3
#
#
#
# Elastic Constant Matrix: (Units=GPa)
#
#
# Indices 1 2 3 4 5 6 
#
# 1 62.1444 30.8925 36.8048 0.0000 0.0000 0.0000
# 2 30.8925 76.4397 43.4695 0.0000 0.0000 0.0000
# 3 36.8048 43.4695 109.9701 0.0000 0.0000 0.0000
# 4 0.0000 0.0000 0.0000 21.2926 0.0000 0.0000
# 5 0.0000 0.0000 0.0000 0.0000 2.4846 0.0000
# 6 0.0000 0.0000 0.0000 0.0000 0.0000 15.7223
#
#
#
# Elastic Compliance Matrix: (Units=1/GPa)
#
#
# Indices 1 2 3 4 5 6 
#
# 1 0.022066 -0.006086 -0.004979 0.000000 0.000000 0.000000
# 2 -0.006086 0.018554 -0.005297 0.000000 0.000000 0.000000
# 3 -0.004979 -0.005297 0.012854 0.000000 0.000000 0.000000
# 4 0.000000 0.000000 0.000000 0.046965 0.000000 0.000000
# 5 0.000000 0.000000 0.000000 0.000000 0.402472 0.000000
# 6 0.000000 0.000000 0.000000 0.000000 0.000000 0.063604
#
#
# Mechanical properties :
#
#
# Convention : Reuss Voigt Hill
#
# Bulk Modulus (GPa) = 48.19608 52.32086 50.25847
# Shear Modulus (GPa) = 8.24870 17.05908 12.65389
#
# Velocity S-wave (km/s) = 2.45969 3.53725 3.04649
# Velocity P-wave (km/s) = 6.58912 7.42010 7.01692
#
# Compressibility (1/GPa) = 0.02074858
#
# Stress axis : x y z
#
# Youngs Moduli (GPa) = 45.31857 53.89566 77.79802
#
# Poissons Ratio (x) = 0.32802 0.38738
# Poissons Ratio (y) = 0.27582 0.41212
# Poissons Ratio (z) = 0.22565 0.28550
#
# Static dielectric constant tensor:
#      x y z
#    x 2.320210 0.000000 0.000000 
#    y 0.000000 2.747990 0.000000 
#    z 0.000000 0.000000 2.923800 
# 
# 
# High freq. dielectric constant tensor:
#      x y z
#    x 1.453380 0.000000 0.000000 
#    y 0.000000 1.526610 0.000000 
#    z 0.000000 0.000000 1.524050 
# 
# From -- ./inp_files/33805.got.cif
#   From: 2010.03.12/outbox.cif.g09.slc.cpg/sg47_17_cif.got.tgz:33805.got - 2010.04.14 03:12:58.
