data_PCOD8194137
_publ_section_title
;
Structure prediction by ZEFSAII (Michael W. Deem and Ramdas Pophale) SiO2 
 PCOD8194137
Probable space group: P M M M
;
_chemical_formula_sum "Si O2"
_cell_formula_units_Z 56
_cell_length_a 18.993557
_cell_length_b 18.752364
_cell_length_c 8.955158
_cell_angle_alpha 90.000000
_cell_angle_beta 90.000000
_cell_angle_gamma 90.000000
_cell_volume 3189.595292
_symmetry_space_group_name_H-M "P M M M"
_symmetry_group_IT_number 47
_symmetry_cell_setting 'orthorhombic'
loop_
_space_group_symop_operation_xyz
x,y,z
-x,-y,z
x,-y,-z
-x,y,-z
-x,-y,-z
x,y,-z
-x,y,z
x,-y,z
loop_
_atom_site_type_symbol
_atom_site_label
_atom_site_fract_x
_atom_site_fract_y
_atom_site_fract_z
Si Si1 0.794079 0.787901 0.674698
Si Si2 0.154210 0.577807 0.175164
Si Si3 0.711725 0.662403 0.825173
Si Si4 0.080270 0.718562 0.823144
Si Si5 0.421157 0.304976 0.325369
Si Si6 0.701621 0.919665 0.328632
Si Si7 0.579295 0.845220 0.828138
O O1 0.798617 0.771507 0.500000
O O2 0.738977 0.734518 0.749438
O O3 0.871575 0.778546 0.746098
O O4 0.767064 0.867728 0.708727
O O5 0.137721 0.500000 0.247945
O O6 0.235210 0.597756 0.210777
O O7 0.102815 0.639794 0.237014
O O8 0.142197 0.572097 0.000000
O O9 0.634935 0.643755 0.757712
O O10 0.705924 0.676360 0.000000
O O11 0.000000 0.732994 0.777764
O O12 0.092204 0.722771 0.000000
O O13 0.406203 0.306984 0.500000
O O14 0.500000 0.331876 0.287517
O O15 0.409673 0.224930 0.269854
O O16 0.678335 0.909513 0.500000
O O17 0.633682 0.904786 0.226693
O O18 0.727502 0.000000 0.296669
O O19 0.500000 0.875010 0.807819
O O20 0.594189 0.825767 0.000000
#
# Coordination Sequence:
#
# PCOD8194137 Si02
#       7
#     8   8   8   8   8   8   8
#     4  10  19  32  51  72  96 127 163 202 242 290
#     4   8  15  28  47  74 105 133 160 192 234 284
#     4  10  18  29  49  73  97 126 163 206 246 287
#     4   9  18  32  52  78 104 130 160 197 239 283
#     4  10  19  30  46  68  94 126 165 208 252 295
#     4  10  21  35  50  69  95 130 169 207 249 296
#     4  10  20  32  47  69  97 128 163 205 252 299
#
# _framework density 17.557085000000001
#
# number of rings (size 3 to 8) (size 9 to 14) (size 15 to 20)
#    0.000    2.429    1.429    2.571    0.000    3.429 
#    0.000    2.857    0.000   11.571    0.000   10.000 
#    0.000    0.000    0.000    0.000    0.000    0.000 
#
# Total GULP energy -694241.304608 kJ/mol
# GULP energy per Si atom -12397.166154 kJ/mol
# Density = 1.751712 g / cm^3
# Si number density = 17.557085 Si / 1000 Ang^3
#
#
#
# Elastic Constant Matrix: (Units=GPa)
#
#
# Indices 1 2 3 4 5 6 
#
# 1 134.5026 39.7400 51.7606 0.0000 0.0000 0.0000
# 2 39.7400 66.0304 22.7625 0.0000 0.0000 0.0000
# 3 51.7606 22.7625 63.5763 0.0000 0.0000 0.0000
# 4 0.0000 0.0000 0.0000 14.5875 0.0000 0.0000
# 5 0.0000 0.0000 0.0000 0.0000 29.0415 0.0000
# 6 0.0000 0.0000 0.0000 0.0000 0.0000 18.6797
#
#
#
# Elastic Compliance Matrix: (Units=1/GPa)
#
#
# Indices 1 2 3 4 5 6 
#
# 1 0.011822 -0.004332 -0.008074 0.000000 0.000000 0.000000
# 2 -0.004332 0.018864 -0.003227 0.000000 0.000000 0.000000
# 3 -0.008074 -0.003227 0.023458 0.000000 0.000000 0.000000
# 4 0.000000 0.000000 0.000000 0.068552 0.000000 0.000000
# 5 0.000000 0.000000 0.000000 0.000000 0.034433 0.000000
# 6 0.000000 0.000000 0.000000 0.000000 0.000000 0.053534
#
#
# Mechanical properties :
#
#
# Convention : Reuss Voigt Hill
#
# Bulk Modulus (GPa) = 43.70989 54.73727 49.22358
# Shear Modulus (GPa) = 20.03574 22.45150 21.24362
#
# Velocity S-wave (km/s) = 3.38180 3.57987 3.48224
# Velocity P-wave (km/s) = 6.34024 6.95210 6.65321
#
# Compressibility (1/GPa) = 0.02287812
#
# Stress axis : x y z
#
# Youngs Moduli (GPa) = 84.59100 53.01093 42.62963
#
# Poissons Ratio (x) = 0.22962 0.34418
# Poissons Ratio (y) = 0.36641 0.13759
# Poissons Ratio (z) = 0.68296 0.17109
#
# Static dielectric constant tensor:
#      x y z
#    x 3.434300 0.000000 0.000000 
#    y 0.000000 3.157270 0.000000 
#    z 0.000000 0.000000 3.214820 
# 
# 
# High freq. dielectric constant tensor:
#      x y z
#    x 1.680070 0.000000 0.000000 
#    y 0.000000 1.647710 0.000000 
#    z 0.000000 0.000000 1.673990 
# 
# From -- ./inp_files/9796.got.cif
#   From: 2010.03.12/outbox.cif.g09.slc.cpg/sg47_5_cif.got.tgz:9796.got - 2010.04.14 03:12:58.
