data_PCOD8194479
_publ_section_title
;
Structure prediction by ZEFSAII (Michael W. Deem and Ramdas Pophale) SiO2 
 PCOD8194479
Probable space group: P M M M
;
_chemical_formula_sum "Si O2"
_cell_formula_units_Z 52
_cell_length_a 16.367775
_cell_length_b 8.905472
_cell_length_c 20.668354
_cell_angle_alpha 90.000000
_cell_angle_beta 90.000000
_cell_angle_gamma 90.000000
_cell_volume 3012.676364
_symmetry_space_group_name_H-M "P M M M"
_symmetry_group_IT_number 47
_symmetry_cell_setting 'orthorhombic'
loop_
_space_group_symop_operation_xyz
x,y,z
-x,-y,z
x,-y,-z
-x,y,-z
-x,-y,-z
x,y,-z
-x,y,z
x,-y,z
loop_
_atom_site_type_symbol
_atom_site_label
_atom_site_fract_x
_atom_site_fract_y
_atom_site_fract_z
Si Si1 0.676951 0.323260 0.376476
Si Si2 0.000000 0.826415 0.721466
Si Si3 0.742781 0.171101 0.821507
Si Si4 0.405374 0.178130 0.500000
Si Si5 0.000000 0.678030 0.858942
Si Si6 0.822858 0.825551 0.312548
Si Si7 0.407864 0.171866 0.259479
Si Si8 0.837836 0.322368 0.072462
O O1 0.676508 0.500000 0.388117
O O2 0.640593 0.241589 0.438165
O O3 0.770289 0.269636 0.363909
O O4 0.619959 0.282468 0.316005
O O5 0.000000 0.727556 0.785177
O O6 0.080650 0.790796 0.678607
O O7 0.000000 0.000000 0.743096
O O8 0.797964 0.220912 0.760346
O O9 0.647740 0.195923 0.803839
O O10 0.761748 0.271321 0.883865
O O11 0.761731 0.000000 0.839696
O O12 0.500000 0.230068 0.500000
O O13 0.399066 0.000000 0.500000
O O14 0.079147 0.742170 0.895992
O O15 0.000000 0.500000 0.860681
O O16 0.802265 0.000000 0.324072
O O17 0.500000 0.209882 0.239315
O O18 0.398769 0.000000 0.284450
O O19 0.840070 0.500000 0.070455
O O20 0.828352 0.257434 0.000000
#
# Coordination Sequence:
#
# PCOD8194479 Si02
#       8
#     8   4   8   4   4   8   8   8
#     4  11  22  34  52  80 112 139 168 206 248 295
#     4  10  18  31  53  76 101 132 171 216 254 292
#     4   9  17  30  49  71  94 122 162 210 254 298
#     4  11  23  39  59  80 107 144 177 205 246 299
#     4  10  19  30  46  68  97 131 167 206 251 303
#     4   9  18  33  52  74 102 136 172 210 253 299
#     4   9  18  34  54  74  99 131 165 203 251 304
#     4  10  20  32  45  64  95 134 169 202 249 308
#
# _framework density 17.260400000000001
#
# number of rings (size 3 to 8) (size 9 to 14) (size 15 to 20)
#    0.000    2.231    1.538    3.231    0.000    7.077 
#    0.000    0.000    0.000    2.308    0.000    6.462 
#    0.000    0.000    0.000    0.000    0.000    0.000 
#
# Total GULP energy -644782.413149 kJ/mol
# GULP energy per Si atom -12399.661791 kJ/mol
# Density = 1.722111 g / cm^3
# Si number density = 17.260400 Si / 1000 Ang^3
#
#
#
# Elastic Constant Matrix: (Units=GPa)
#
#
# Indices 1 2 3 4 5 6 
#
# 1 147.5439 33.2702 54.2260 0.0000 0.0000 0.0000
# 2 33.2702 52.4741 34.3141 0.0000 0.0000 0.0000
# 3 54.2260 34.3141 94.4731 0.0000 0.0000 0.0000
# 4 0.0000 0.0000 0.0000 41.5162 0.0000 0.0000
# 5 0.0000 0.0000 0.0000 0.0000 21.3896 0.0000
# 6 0.0000 0.0000 0.0000 0.0000 0.0000 19.6798
#
#
#
# Elastic Compliance Matrix: (Units=1/GPa)
#
#
# Indices 1 2 3 4 5 6 
#
# 1 0.008943 -0.003034 -0.004031 0.000000 0.000000 0.000000
# 2 -0.003034 0.026023 -0.007710 0.000000 0.000000 0.000000
# 3 -0.004031 -0.007710 0.015699 0.000000 0.000000 0.000000
# 4 0.000000 0.000000 0.000000 0.024087 0.000000 0.000000
# 5 0.000000 0.000000 0.000000 0.000000 0.046752 0.000000
# 6 0.000000 0.000000 0.000000 0.000000 0.000000 0.050813
#
#
# Mechanical properties :
#
#
# Convention : Reuss Voigt Hill
#
# Bulk Modulus (GPa) = 47.36195 59.79017 53.57606
# Shear Modulus (GPa) = 23.93404 28.02917 25.98160
#
# Velocity S-wave (km/s) = 3.72781 4.03414 3.88399
# Velocity P-wave (km/s) = 6.78439 7.51094 7.15689
#
# Compressibility (1/GPa) = 0.02111400
#
# Stress axis : x y z
#
# Youngs Moduli (GPa) = 111.81373 38.42787 63.69667
#
# Poissons Ratio (x) = 0.11660 0.25678
# Poissons Ratio (y) = 0.33927 0.49112
# Poissons Ratio (z) = 0.45075 0.29629
#
# Static dielectric constant tensor:
#      x y z
#    x 3.464230 0.000000 0.000000 
#    y 0.000000 3.105550 0.000000 
#    z 0.000000 0.000000 3.102570 
# 
# 
# High freq. dielectric constant tensor:
#      x y z
#    x 1.673080 0.000000 0.000000 
#    y 0.000000 1.659580 0.000000 
#    z 0.000000 0.000000 1.640820 
# 
# From -- ./inp_files/28551.got.cif
#   From: 2010.03.12/outbox.cif.g09.slc.cpg/sg47_15_cif.got.tgz:28551.got - 2010.04.14 03:12:58.
