data_PCOD8194839
_publ_section_title
;
Structure prediction by ZEFSAII (Michael W. Deem and Ramdas Pophale) SiO2 
 PCOD8194839
Probable space group: P M M M
;
_chemical_formula_sum "Si O2"
_cell_formula_units_Z 52
_cell_length_a 13.698960
_cell_length_b 25.959328
_cell_length_c 9.069815
_cell_angle_alpha 90.000000
_cell_angle_beta 90.000000
_cell_angle_gamma 90.000000
_cell_volume 3225.369480
_symmetry_space_group_name_H-M "P M M M"
_symmetry_group_IT_number 47
_symmetry_cell_setting 'orthorhombic'
loop_
_space_group_symop_operation_xyz
x,y,z
-x,-y,z
x,-y,-z
-x,y,-z
-x,-y,-z
x,y,-z
-x,y,z
x,-y,z
loop_
_atom_site_type_symbol
_atom_site_label
_atom_site_fract_x
_atom_site_fract_y
_atom_site_fract_z
Si Si1 0.110131 0.759101 0.330060
Si Si2 0.212595 0.850546 0.174078
Si Si3 0.610930 0.802986 0.329071
Si Si4 0.706141 0.695449 0.331248
Si Si5 0.612452 0.398059 0.172969
Si Si6 0.384035 0.500000 0.666201
Si Si7 0.112535 0.940809 0.669568
O O1 0.122894 0.775888 0.500000
O O2 0.136109 0.808574 0.233332
O O3 0.182156 0.711511 0.295765
O O4 0.000000 0.741256 0.294914
O O5 0.321281 0.840121 0.233235
O O6 0.180318 0.906920 0.225549
O O7 0.213816 0.848020 0.000000
O O8 0.628994 0.815656 0.500000
O O9 0.500000 0.813298 0.281737
O O10 0.635865 0.743517 0.297852
O O11 0.694256 0.677066 0.500000
O O12 0.677743 0.649625 0.223362
O O13 0.500000 0.387863 0.217678
O O14 0.654202 0.449180 0.251009
O O15 0.623541 0.405941 0.000000
O O16 0.500000 0.500000 0.669229
O O17 0.343266 0.500000 0.500000
O O18 0.131315 0.925737 0.500000
O O19 0.000000 0.931046 0.710368
O O20 0.140539 0.000000 0.697443
#
# Coordination Sequence:
#
# PCOD8194839 Si02
#       7
#     8   8   8   8   8   4   8
#     4   9  18  33  50  66  89 123 160 194 225 263
#     4  11  21  30  45  71 100 125 148 182 231 280
#     4   9  18  33  51  68  89 122 162 196 223 260
#     4   9  17  29  46  68  90 115 151 190 226 264
#     4  10  19  29  42  63  93 124 150 180 222 271
#     4   9  17  29  45  63  84 115 154 191 223 258
#     4   9  18  33  52  71  91 119 155 191 226 268
#
# _framework density 16.122184000000001
#
# number of rings (size 3 to 8) (size 9 to 14) (size 15 to 20)
#    0.000    2.538    0.000    4.385    0.000    8.000 
#    0.000    0.769    0.000    0.462    0.000    3.769 
#    0.000    4.308    0.000    0.000    0.000    0.000 
#
# Total GULP energy -644874.898801 kJ/mol
# GULP energy per Si atom -12401.440362 kJ/mol
# Density = 1.608549 g / cm^3
# Si number density = 16.122184 Si / 1000 Ang^3
#
#
#
# Elastic Constant Matrix: (Units=GPa)
#
#
# Indices 1 2 3 4 5 6 
#
# 1 105.9237 53.9871 50.5447 0.0000 0.0000 0.0000
# 2 53.9871 101.6619 59.6895 0.0000 0.0000 0.0000
# 3 50.5447 59.6895 97.3344 0.0000 0.0000 0.0000
# 4 0.0000 0.0000 0.0000 17.5789 0.0000 0.0000
# 5 0.0000 0.0000 0.0000 0.0000 12.6253 0.0000
# 6 0.0000 0.0000 0.0000 0.0000 0.0000 21.2955
#
#
#
# Elastic Compliance Matrix: (Units=1/GPa)
#
#
# Indices 1 2 3 4 5 6 
#
# 1 0.013976 -0.004939 -0.004229 0.000000 0.000000 0.000000
# 2 -0.004939 0.017116 -0.007932 0.000000 0.000000 0.000000
# 3 -0.004229 -0.007932 0.017334 0.000000 0.000000 0.000000
# 4 0.000000 0.000000 0.000000 0.056886 0.000000 0.000000
# 5 0.000000 0.000000 0.000000 0.000000 0.079206 0.000000
# 6 0.000000 0.000000 0.000000 0.000000 0.000000 0.046958
#
#
# Mechanical properties :
#
#
# Convention : Reuss Voigt Hill
#
# Bulk Modulus (GPa) = 70.28762 70.37360 70.33061
# Shear Modulus (GPa) = 18.48987 19.67986 19.08487
#
# Velocity S-wave (km/s) = 3.39020 3.49760 3.44432
# Velocity P-wave (km/s) = 7.68220 7.74957 7.71596
#
# Compressibility (1/GPa) = 0.01422726
#
# Stress axis : x y z
#
# Youngs Moduli (GPa) = 71.55156 58.42369 57.69067
#
# Poissons Ratio (x) = 0.28855 0.24396
# Poissons Ratio (y) = 0.35339 0.45758
# Poissons Ratio (z) = 0.30257 0.46340
#
# Static dielectric constant tensor:
#      x y z
#    x 3.056350 0.000000 0.000000 
#    y 0.000000 2.941470 0.000000 
#    z 0.000000 0.000000 3.003180 
# 
# 
# High freq. dielectric constant tensor:
#      x y z
#    x 1.602050 0.000000 0.000000 
#    y 0.000000 1.609990 0.000000 
#    z 0.000000 0.000000 1.620650 
# 
# From -- ./inp_files/7699.got.cif
#   From: 2010.03.12/outbox.cif.g09.slc.cpg/sg47_4_cif.got.tgz:7699.got - 2010.04.14 03:12:58.
