data_PCOD8194605
_publ_section_title
;
Structure prediction by ZEFSAII (Michael W. Deem and Ramdas Pophale) SiO2 
 PCOD8194605
Probable space group: P M M M
;
_chemical_formula_sum "Si O2"
_cell_formula_units_Z 56
_cell_length_a 19.215095
_cell_length_b 8.503096
_cell_length_c 17.704594
_cell_angle_alpha 90.000000
_cell_angle_beta 90.000000
_cell_angle_gamma 90.000000
_cell_volume 2892.714618
_symmetry_space_group_name_H-M "P M M M"
_symmetry_group_IT_number 47
_symmetry_cell_setting 'orthorhombic'
loop_
_space_group_symop_operation_xyz
x,y,z
-x,-y,z
x,-y,-z
-x,y,-z
-x,-y,-z
x,y,-z
-x,y,z
x,-y,z
loop_
_atom_site_type_symbol
_atom_site_label
_atom_site_fract_x
_atom_site_fract_y
_atom_site_fract_z
Si Si1 0.824260 0.812992 0.917429
Si Si2 0.306911 0.686159 0.302114
Si Si3 0.674770 0.186530 0.136769
Si Si4 0.577194 0.686856 0.584196
Si Si5 0.919655 0.314780 0.500000
Si Si6 0.421159 0.812979 0.000000
Si Si7 0.158786 0.814334 0.355184
Si Si8 0.923184 0.187211 0.209901
O O1 0.747178 0.756305 0.898302
O O2 0.877801 0.739594 0.857718
O O3 0.826844 0.000000 0.914698
O O4 0.845239 0.750443 0.000000
O O5 0.299289 0.500000 0.306300
O O6 0.331251 0.734761 0.218537
O O7 0.366909 0.753241 0.356939
O O8 0.235794 0.760521 0.332525
O O9 0.616051 0.245955 0.077356
O O10 0.671623 0.000000 0.147601
O O11 0.596750 0.745975 0.500000
O O12 0.500000 0.748118 0.606281
O O13 0.577706 0.500000 0.585895
O O14 0.924919 0.500000 0.500000
O O15 0.873708 0.261732 0.429261
O O16 0.000000 0.246371 0.500000
O O17 0.500000 0.748601 0.000000
O O18 0.418538 0.000000 0.000000
O O19 0.108422 0.757983 0.288630
O O20 0.159565 0.000000 0.365942
O O21 0.000000 0.258101 0.202926
O O22 0.923899 0.000000 0.204676
#
# Coordination Sequence:
#
# PCOD8194605 Si02
#       8
#     8   8   8   8   4   4   8   8
#     4   9  15  26  47  73 101 135 174 220 272 321
#     4  11  22  34  55  86 115 143 185 237 287 339
#     4  10  18  33  54  75 106 146 186 226 277 341
#     4   8  16  33  55  77 103 138 177 216 266 332
#     4  11  25  43  61  85 120 157 194 241 297 350
#     4   9  18  32  55  85 112 146 193 240 289 352
#     4  11  22  38  59  83 114 153 195 235 281 340
#     4   9  17  29  48  76 107 137 175 223 270 321
#
# _framework density 19.358979000000001
#
# number of rings (size 3 to 8) (size 9 to 14) (size 15 to 20)
#    0.000    2.286    2.143    1.929    1.000    2.000 
#    0.000    1.786    0.000    1.714    0.000    4.000 
#    0.000    1.143    0.000    0.000    0.000    0.000 
#
# Total GULP energy -694107.607212 kJ/mol
# GULP energy per Si atom -12394.778700 kJ/mol
# Density = 1.931492 g / cm^3
# Si number density = 19.358979 Si / 1000 Ang^3
#
#
#
# Elastic Constant Matrix: (Units=GPa)
#
#
# Indices 1 2 3 4 5 6 
#
# 1 171.1199 17.0428 100.1407 0.0000 0.0000 0.0000
# 2 17.0428 30.3786 21.1532 0.0000 0.0000 0.0000
# 3 100.1407 21.1532 185.8858 0.0000 0.0000 0.0000
# 4 0.0000 0.0000 0.0000 19.4984 0.0000 0.0000
# 5 0.0000 0.0000 0.0000 0.0000 34.7704 0.0000
# 6 0.0000 0.0000 0.0000 0.0000 0.0000 17.1706
#
#
#
# Elastic Compliance Matrix: (Units=1/GPa)
#
#
# Indices 1 2 3 4 5 6 
#
# 1 0.008618 -0.001740 -0.004445 0.000000 0.000000 0.000000
# 2 -0.001740 0.036102 -0.003171 0.000000 0.000000 0.000000
# 3 -0.004445 -0.003171 0.008135 0.000000 0.000000 0.000000
# 4 0.000000 0.000000 0.000000 0.051286 0.000000 0.000000
# 5 0.000000 0.000000 0.000000 0.000000 0.028760 0.000000
# 6 0.000000 0.000000 0.000000 0.000000 0.000000 0.058239
#
#
# Mechanical properties :
#
#
# Convention : Reuss Voigt Hill
#
# Bulk Modulus (GPa) = 29.28785 73.78421 51.53603
# Shear Modulus (GPa) = 22.60056 30.89105 26.74581
#
# Velocity S-wave (km/s) = 3.42050 3.99895 3.72098
# Velocity P-wave (km/s) = 5.54630 7.71483 6.71863
#
# Compressibility (1/GPa) = 0.03414386
#
# Stress axis : x y z
#
# Youngs Moduli (GPa) = 116.03176 27.69926 122.92498
#
# Poissons Ratio (x) = 0.04820 0.54639
# Poissons Ratio (y) = 0.20189 0.38979
# Poissons Ratio (z) = 0.51575 0.08783
#
# Static dielectric constant tensor:
#      x y z
#    x 3.892270 0.000000 0.000000 
#    y 0.000000 3.049290 0.000000 
#    z 0.000000 0.000000 3.838090 
# 
# 
# High freq. dielectric constant tensor:
#      x y z
#    x 1.764590 0.000000 0.000000 
#    y 0.000000 1.705930 0.000000 
#    z 0.000000 0.000000 1.771680 
# 
# From -- ./inp_files/25243.got.cif
#   From: 2010.03.12/outbox.cif.g09.slc.cpg/sg47_13_cif.got.tgz:25243.got - 2010.04.14 03:12:58.
