data_PCOD8194125
_publ_section_title
;
Structure prediction by ZEFSAII (Michael W. Deem and Ramdas Pophale) SiO2 
 PCOD8194125
Probable space group: P M M M
;
_chemical_formula_sum "Si O2"
_cell_formula_units_Z 52
_cell_length_a 10.236313
_cell_length_b 14.986572
_cell_length_c 18.832628
_cell_angle_alpha 90.000000
_cell_angle_beta 90.000000
_cell_angle_gamma 90.000000
_cell_volume 2889.061517
_symmetry_space_group_name_H-M "P M M M"
_symmetry_group_IT_number 47
_symmetry_cell_setting 'orthorhombic'
loop_
_space_group_symop_operation_xyz
x,y,z
-x,-y,z
x,-y,-z
-x,y,-z
-x,-y,-z
x,y,-z
-x,y,z
x,-y,z
loop_
_atom_site_type_symbol
_atom_site_label
_atom_site_fract_x
_atom_site_fract_y
_atom_site_fract_z
Si Si1 0.849450 0.147379 0.312088
Si Si2 0.845771 0.000000 0.421113
Si Si3 0.646420 0.255239 0.922344
Si Si4 0.000000 0.894307 0.920947
Si Si5 0.347951 0.397872 0.186609
Si Si6 0.848643 0.353119 0.312183
Si Si7 0.152897 0.500000 0.577671
Si Si8 0.252684 0.103467 0.838086
O O1 0.800909 0.088336 0.378500
O O2 0.832116 0.249968 0.333102
O O3 0.759088 0.121875 0.245397
O O4 0.000000 0.124108 0.292978
O O5 0.781792 0.000000 0.500000
O O6 0.000000 0.000000 0.429317
O O7 0.500000 0.284137 0.937480
O O8 0.708527 0.335923 0.876734
O O9 0.639067 0.164180 0.875713
O O10 0.716079 0.243341 0.000000
O O11 0.123582 0.860655 0.877379
O O12 0.000000 0.000000 0.924520
O O13 0.000000 0.853309 0.000000
O O14 0.500000 0.375059 0.206272
O O15 0.336248 0.500000 0.162226
O O16 0.252215 0.379833 0.251732
O O17 0.806509 0.410849 0.380258
O O18 0.000000 0.372951 0.289615
O O19 0.221608 0.500000 0.500000
O O20 0.000000 0.500000 0.566467
O O21 0.283975 0.000000 0.852330
#
# Coordination Sequence:
#
# PCOD8194125 Si02
#       8
#     8   4   8   4   8   8   4   8
#     4  10  18  29  48  74 103 137 176 213 255 305
#     4   9  18  30  46  72 109 144 173 213 261 306
#     4  10  22  38  53  73 102 133 170 218 265 307
#     4   9  18  28  42  68  97 131 168 205 250 302
#     4  10  20  35  57  80 103 134 176 220 261 313
#     4  10  19  32  54  81 107 139 175 215 263 314
#     4   9  18  32  51  79 112 139 166 208 265 321
#     4  11  19  30  50  72 101 135 171 209 253 307
#
# _framework density 17.998925
#
# number of rings (size 3 to 8) (size 9 to 14) (size 15 to 20)
#    0.000    2.077    3.846    0.462    0.000    2.154 
#    0.000    5.385    0.000    0.923    0.000    1.077 
#    0.000    3.077    0.000    0.000    0.000    0.000 
#
# Total GULP energy -644479.686019 kJ/mol
# GULP energy per Si atom -12393.840116 kJ/mol
# Density = 1.795796 g / cm^3
# Si number density = 17.998925 Si / 1000 Ang^3
#
#
#
# Elastic Constant Matrix: (Units=GPa)
#
#
# Indices 1 2 3 4 5 6 
#
# 1 36.5001 19.7532 28.4677 0.0000 0.0000 0.0000
# 2 19.7532 143.6834 72.1725 0.0000 0.0000 0.0000
# 3 28.4677 72.1725 169.5612 0.0000 0.0000 0.0000
# 4 0.0000 0.0000 0.0000 33.4572 0.0000 0.0000
# 5 0.0000 0.0000 0.0000 0.0000 16.8140 0.0000
# 6 0.0000 0.0000 0.0000 0.0000 0.0000 20.0457
#
#
#
# Elastic Compliance Matrix: (Units=1/GPa)
#
#
# Indices 1 2 3 4 5 6 
#
# 1 0.032047 -0.002166 -0.004458 0.000000 0.000000 0.000000
# 2 -0.002166 0.008999 -0.003467 0.000000 0.000000 0.000000
# 3 -0.004458 -0.003467 0.008122 0.000000 0.000000 0.000000
# 4 0.000000 0.000000 0.000000 0.029889 0.000000 0.000000
# 5 0.000000 0.000000 0.000000 0.000000 0.059474 0.000000
# 6 0.000000 0.000000 0.000000 0.000000 0.000000 0.049886
#
#
# Mechanical properties :
#
#
# Convention : Reuss Voigt Hill
#
# Bulk Modulus (GPa) = 34.50081 65.61461 50.05771
# Shear Modulus (GPa) = 22.90841 29.35345 26.13093
#
# Velocity S-wave (km/s) = 3.57145 4.04275 3.81439
# Velocity P-wave (km/s) = 6.01805 7.63712 6.87541
#
# Compressibility (1/GPa) = 0.02898482
#
# Stress axis : x y z
#
# Youngs Moduli (GPa) = 31.20446 111.12545 123.12839
#
# Poissons Ratio (x) = 0.24073 0.54894
# Poissons Ratio (y) = 0.06760 0.42684
# Poissons Ratio (z) = 0.13912 0.38523
#
# Static dielectric constant tensor:
#      x y z
#    x 3.082790 0.000000 0.000000 
#    y 0.000000 3.461810 0.000000 
#    z 0.000000 0.000000 3.698640 
# 
# 
# High freq. dielectric constant tensor:
#      x y z
#    x 1.656180 0.000000 0.000000 
#    y 0.000000 1.706580 0.000000 
#    z 0.000000 0.000000 1.698560 
# 
# From -- ./inp_files/27564.got.cif
#   From: 2010.03.12/outbox.cif.g09.slc.cpg/sg47_14_cif.got.tgz:27564.got - 2010.04.14 03:12:58.
