data_PCOD8194384
_publ_section_title
;
Structure prediction by ZEFSAII (Michael W. Deem and Ramdas Pophale) SiO2 
 PCOD8194384
Probable space group: P M M M
;
_chemical_formula_sum "Si O2"
_cell_formula_units_Z 64
_cell_length_a 19.739225
_cell_length_b 19.976910
_cell_length_c 9.347369
_cell_angle_alpha 90.000000
_cell_angle_beta 90.000000
_cell_angle_gamma 90.000000
_cell_volume 3685.936065
_symmetry_space_group_name_H-M "P M M M"
_symmetry_group_IT_number 47
_symmetry_cell_setting 'orthorhombic'
loop_
_space_group_symop_operation_xyz
x,y,z
-x,-y,z
x,-y,-z
-x,y,-z
-x,-y,-z
x,y,-z
-x,y,z
x,-y,z
loop_
_atom_site_type_symbol
_atom_site_label
_atom_site_fract_x
_atom_site_fract_y
_atom_site_fract_z
Si Si1 0.396108 0.757971 0.664071
Si Si2 0.756095 0.799666 0.337546
Si Si3 0.280546 0.926477 0.833654
Si Si4 0.573040 0.883056 0.837852
Si Si5 0.079078 0.424406 0.834666
Si Si6 0.181788 0.663924 0.669012
Si Si7 0.575836 0.626604 0.164577
Si Si8 0.694315 0.574881 0.338256
O O1 0.418173 0.749477 0.500000
O O2 0.315598 0.763468 0.679740
O O3 0.431861 0.822722 0.727433
O O4 0.422464 0.696567 0.754745
O O5 0.768690 0.822048 0.500000
O O6 0.760479 0.867561 0.245335
O O7 0.810932 0.743027 0.290758
O O8 0.361352 0.927444 0.799041
O O9 0.253530 0.000000 0.786087
O O10 0.267388 0.915028 0.000000
O O11 0.500000 0.921850 0.825102
O O12 0.581941 0.855891 0.000000
O O13 0.098877 0.500000 0.785599
O O14 0.116878 0.367552 0.744787
O O15 0.000000 0.412729 0.809391
O O16 0.098114 0.415102 0.000000
O O17 0.173199 0.654825 0.500000
O O18 0.248392 0.624335 0.722176
O O19 0.500000 0.596504 0.175804
O O20 0.628133 0.576326 0.239042
O O21 0.596831 0.636982 0.000000
O O22 0.673911 0.596214 0.500000
O O23 0.723928 0.500000 0.335490
#
# Coordination Sequence:
#
# PCOD8194384 Si02
#       8
#     8   8   8   8   8   8   8   8
#     4  10  18  31  48  65  87 116 152 198 251 303
#     4   9  18  32  50  71  96 124 159 204 251 295
#     4   9  18  31  46  66  93 125 161 201 247 302
#     4   9  17  28  42  62  88 116 150 194 246 304
#     4   9  19  35  53  78 115 152 180 205 238 286
#     4  10  19  34  55  79 104 131 169 213 250 289
#     4  11  23  35  47  64  88 118 155 204 259 311
#     4  10  21  37  54  71  93 122 159 205 254 302
#
# _framework density 17.363296999999999
#
# number of rings (size 3 to 8) (size 9 to 14) (size 15 to 20)
#    0.000    2.375    1.250    1.875    0.000    6.250 
#    0.000    3.125    0.000    0.000    0.000    3.500 
#    0.000    0.500    0.000    5.500    0.000    4.000 
#
# Total GULP energy -793248.530339 kJ/mol
# GULP energy per Si atom -12394.508287 kJ/mol
# Density = 1.732378 g / cm^3
# Si number density = 17.363297 Si / 1000 Ang^3
#
#
#
# Elastic Constant Matrix: (Units=GPa)
#
#
# Indices 1 2 3 4 5 6 
#
# 1 57.2970 42.7083 33.7494 0.0000 0.0000 0.0000
# 2 42.7083 116.2239 47.4635 0.0000 0.0000 0.0000
# 3 33.7494 47.4635 77.8713 0.0000 0.0000 0.0000
# 4 0.0000 0.0000 0.0000 27.5071 0.0000 0.0000
# 5 0.0000 0.0000 0.0000 0.0000 25.0028 0.0000
# 6 0.0000 0.0000 0.0000 0.0000 0.0000 6.7653
#
#
#
# Elastic Compliance Matrix: (Units=1/GPa)
#
#
# Indices 1 2 3 4 5 6 
#
# 1 0.026986 -0.006844 -0.007525 0.000000 0.000000 0.000000
# 2 -0.006844 0.013191 -0.005074 0.000000 0.000000 0.000000
# 3 -0.007525 -0.005074 0.019196 0.000000 0.000000 0.000000
# 4 0.000000 0.000000 0.000000 0.036354 0.000000 0.000000
# 5 0.000000 0.000000 0.000000 0.000000 0.039996 0.000000
# 6 0.000000 0.000000 0.000000 0.000000 0.000000 0.147814
#
#
# Mechanical properties :
#
#
# Convention : Reuss Voigt Hill
#
# Bulk Modulus (GPa) = 48.80833 55.47050 52.13941
# Shear Modulus (GPa) = 15.18601 20.35310 17.76955
#
# Velocity S-wave (km/s) = 2.96058 3.42744 3.20253
# Velocity P-wave (km/s) = 6.31330 6.90503 6.61579
#
# Compressibility (1/GPa) = 0.02048831
#
# Stress axis : x y z
#
# Youngs Moduli (GPa) = 37.05599 75.80913 52.09544
#
# Poissons Ratio (x) = 0.51881 0.39199
# Poissons Ratio (y) = 0.25360 0.26434
# Poissons Ratio (z) = 0.27883 0.38466
#
# Static dielectric constant tensor:
#      x y z
#    x 2.978290 0.000000 0.000000 
#    y 0.000000 3.206000 0.000000 
#    z 0.000000 0.000000 3.260440 
# 
# 
# High freq. dielectric constant tensor:
#      x y z
#    x 1.633670 0.000000 0.000000 
#    y 0.000000 1.663900 0.000000 
#    z 0.000000 0.000000 1.671390 
# 
# From -- ./inp_files/11844.got.cif
#   From: 2010.03.12/outbox.cif.g09.slc.cpg/sg47_6_cif.got.tgz:11844.got - 2010.04.14 03:12:58.
