data_PCOD8194771
_publ_section_title
;
Structure prediction by ZEFSAII (Michael W. Deem and Ramdas Pophale) SiO2 
 PCOD8194771
Probable space group: P M M M
;
_chemical_formula_sum "Si O2"
_cell_formula_units_Z 52
_cell_length_a 9.296031
_cell_length_b 23.348829
_cell_length_c 19.375430
_cell_angle_alpha 90.000000
_cell_angle_beta 90.000000
_cell_angle_gamma 90.000000
_cell_volume 4205.464947
_symmetry_space_group_name_H-M "P M M M"
_symmetry_group_IT_number 47
_symmetry_cell_setting 'orthorhombic'
loop_
_space_group_symop_operation_xyz
x,y,z
-x,-y,z
x,-y,-z
-x,y,-z
-x,-y,-z
x,y,-z
-x,y,z
x,-y,z
loop_
_atom_site_type_symbol
_atom_site_label
_atom_site_fract_x
_atom_site_fract_y
_atom_site_fract_z
Si Si1 0.158052 0.333649 0.918303
Si Si2 0.339281 0.437519 0.081982
Si Si3 0.167629 0.932522 0.707339
Si Si4 0.168867 0.794508 0.919888
Si Si5 0.670400 0.000000 0.076769
Si Si6 0.328100 0.890591 0.837810
Si Si7 0.661016 0.932074 0.576124
O O1 0.252497 0.384502 0.884927
O O2 0.217112 0.270325 0.901200
O O3 0.000000 0.340463 0.886233
O O4 0.150225 0.340784 0.000000
O O5 0.500000 0.433315 0.111256
O O6 0.273336 0.500000 0.102457
O O7 0.341033 0.431800 0.000000
O O8 0.257833 0.897130 0.763046
O O9 0.224633 0.910899 0.632928
O O10 0.000000 0.917516 0.713525
O O11 0.195948 0.000000 0.717686
O O12 0.268986 0.833646 0.873015
O O13 0.000000 0.803905 0.903953
O O14 0.199995 0.807864 0.000000
O O15 0.724932 0.056096 0.116170
O O16 0.500000 0.000000 0.072838
O O17 0.737382 0.000000 0.000000
O O18 0.500000 0.887741 0.831074
O O19 0.705920 0.908907 0.500000
O O20 0.500000 0.910385 0.594907
O O21 0.660858 0.000000 0.574470
#
# Coordination Sequence:
#
# PCOD8194771 Si02
#       7
#     8   8   8   8   4   8   8
#     4   8  14  24  36  48  63  84 107 132 164 203
#     4   8  13  20  30  46  67  86 103 127 159 194
#     4  10  19  29  41  56  75  94 112 135 167 208
#     4   9  18  31  42  52  68  87 110 144 183 220
#     4   9  18  30  41  53  66  79 102 141 183 220
#     4  11  20  30  43  55  69  88 112 144 179 217
#     4   8  14  25  41  59  77  95 113 131 154 190
#
# _framework density 12.364863
#
# number of rings (size 3 to 8) (size 9 to 14) (size 15 to 20)
#    0.000    3.000    0.769    3.231    0.000    2.769 
#    0.000    4.615    0.000    1.846    0.000    0.000 
#    0.000    0.000    0.000    0.000    0.000    0.000 
#
# Total GULP energy -644407.634343 kJ/mol
# GULP energy per Si atom -12392.454507 kJ/mol
# Density = 1.233672 g / cm^3
# Si number density = 12.364863 Si / 1000 Ang^3
#
#
#
# Elastic Constant Matrix: (Units=GPa)
#
#
# Indices 1 2 3 4 5 6 
#
# 1 68.2918 41.5796 36.9200 0.0000 0.0000 0.0000
# 2 41.5796 81.6105 29.6098 0.0000 0.0000 0.0000
# 3 36.9200 29.6098 64.8186 0.0000 0.0000 0.0000
# 4 0.0000 0.0000 0.0000 1.4559 0.0000 0.0000
# 5 0.0000 0.0000 0.0000 0.0000 17.1871 0.0000
# 6 0.0000 0.0000 0.0000 0.0000 0.0000 20.2897
#
#
#
# Elastic Compliance Matrix: (Units=1/GPa)
#
#
# Indices 1 2 3 4 5 6 
#
# 1 0.026115 -0.009480 -0.010545 0.000000 0.000000 0.000000
# 2 -0.009480 0.018129 -0.002882 0.000000 0.000000 0.000000
# 3 -0.010545 -0.002882 0.022750 0.000000 0.000000 0.000000
# 4 0.000000 0.000000 0.000000 0.686880 0.000000 0.000000
# 5 0.000000 0.000000 0.000000 0.000000 0.058183 0.000000
# 6 0.000000 0.000000 0.000000 0.000000 0.000000 0.049286
#
#
# Mechanical properties :
#
#
# Convention : Reuss Voigt Hill
#
# Bulk Modulus (GPa) = 47.20990 47.88218 47.54604
# Shear Modulus (GPa) = 5.46916 14.89397 10.18157
#
# Velocity S-wave (km/s) = 2.10541 3.47441 2.87266
# Velocity P-wave (km/s) = 6.64635 7.40971 7.03839
#
# Compressibility (1/GPa) = 0.02118200
#
# Stress axis : x y z
#
# Youngs Moduli (GPa) = 38.29155 55.16115 43.95562
#
# Poissons Ratio (x) = 0.52291 0.46350
# Poissons Ratio (y) = 0.36299 0.12667
# Poissons Ratio (z) = 0.40377 0.15897
#
# Static dielectric constant tensor:
#      x y z
#    x 2.634080 0.000000 0.000000 
#    y 0.000000 2.500780 0.000000 
#    z 0.000000 0.000000 2.388300 
# 
# 
# High freq. dielectric constant tensor:
#      x y z
#    x 1.473910 0.000000 0.000000 
#    y 0.000000 1.446380 0.000000 
#    z 0.000000 0.000000 1.429020 
# 
# From -- ./inp_files/27080.got.cif
#   From: 2010.03.12/outbox.cif.g09.slc.cpg/sg47_14_cif.got.tgz:27080.got - 2010.04.14 03:12:58.
