data_PCOD8194238
_publ_section_title
;
Structure prediction by ZEFSAII (Michael W. Deem and Ramdas Pophale) SiO2 
 PCOD8194238
Probable space group: P M M M
;
_chemical_formula_sum "Si O2"
_cell_formula_units_Z 48
_cell_length_a 13.784118
_cell_length_b 15.066056
_cell_length_c 12.752793
_cell_angle_alpha 90.000000
_cell_angle_beta 90.000000
_cell_angle_gamma 90.000000
_cell_volume 2648.401773
_symmetry_space_group_name_H-M "P M M M"
_symmetry_group_IT_number 47
_symmetry_cell_setting 'orthorhombic'
loop_
_space_group_symop_operation_xyz
x,y,z
-x,-y,z
x,-y,-z
-x,y,-z
-x,-y,-z
x,y,-z
-x,y,z
x,-y,z
loop_
_atom_site_type_symbol
_atom_site_label
_atom_site_fract_x
_atom_site_fract_y
_atom_site_fract_z
Si Si1 0.771151 0.160917 0.620890
Si Si2 0.390850 0.605352 0.500000
Si Si3 0.105855 0.000000 0.374890
Si Si4 0.291750 0.400284 0.712711
Si Si5 0.111663 0.660788 0.377836
Si Si6 0.388727 0.101618 0.229949
Si Si7 0.611326 0.276170 0.119108
O O1 0.748138 0.147506 0.500000
O O2 0.839524 0.085302 0.667702
O O3 0.831890 0.248407 0.643653
O O4 0.668357 0.150699 0.677026
O O5 0.387805 0.500000 0.500000
O O6 0.500000 0.642084 0.500000
O O7 0.337634 0.640258 0.395099
O O8 0.099437 0.000000 0.500000
O O9 0.000000 0.000000 0.324221
O O10 0.330010 0.500000 0.736699
O O11 0.174950 0.407205 0.692582
O O12 0.319247 0.335273 0.807387
O O13 0.113688 0.633663 0.500000
O O14 0.000000 0.664987 0.338961
O O15 0.500000 0.098377 0.265654
O O16 0.374394 0.169415 0.132425
O O17 0.353978 0.000000 0.204088
O O18 0.500000 0.302111 0.144163
O O19 0.638564 0.299673 0.000000
#
# Coordination Sequence:
#
# PCOD8194238 Si02
#       7
#     8   4   4   8   8   8   8
#     4  10  18  30  48  75 111 148 184 224 270 330
#     4   9  18  32  51  79 114 148 178 215 269 334
#     4   9  16  26  43  69 102 141 183 225 267 315
#     4  11  21  35  56  84 115 147 186 230 278 334
#     4  10  20  34  53  79 114 153 191 230 275 329
#     4  10  20  34  54  81 111 144 181 222 273 334
#     4  10  22  40  60  82 110 146 189 234 278 327
#
# _framework density 18.124137999999999
#
# number of rings (size 3 to 8) (size 9 to 14) (size 15 to 20)
#    0.000    2.000    3.333    1.000    0.000    4.333 
#    0.000    4.167    0.000    0.500    0.000    1.167 
#    0.000    2.000    0.000    0.000    0.000    0.000 
#
# Total GULP energy -594812.608961 kJ/mol
# GULP energy per Si atom -12391.929353 kJ/mol
# Density = 1.808289 g / cm^3
# Si number density = 18.124138 Si / 1000 Ang^3
#
#
#
# Elastic Constant Matrix: (Units=GPa)
#
#
# Indices 1 2 3 4 5 6 
#
# 1 109.1617 25.7591 47.4951 0.0000 0.0000 0.0000
# 2 25.7591 80.5290 35.7353 0.0000 0.0000 0.0000
# 3 47.4951 35.7353 86.0928 0.0000 0.0000 0.0000
# 4 0.0000 0.0000 0.0000 18.5188 0.0000 0.0000
# 5 0.0000 0.0000 0.0000 0.0000 18.0326 0.0000
# 6 0.0000 0.0000 0.0000 0.0000 0.0000 7.7601
#
#
#
# Elastic Compliance Matrix: (Units=1/GPa)
#
#
# Indices 1 2 3 4 5 6 
#
# 1 0.012135 -0.001117 -0.006231 0.000000 0.000000 0.000000
# 2 -0.001117 0.015324 -0.005745 0.000000 0.000000 0.000000
# 3 -0.006231 -0.005745 0.017438 0.000000 0.000000 0.000000
# 4 0.000000 0.000000 0.000000 0.053999 0.000000 0.000000
# 5 0.000000 0.000000 0.000000 0.000000 0.055455 0.000000
# 6 0.000000 0.000000 0.000000 0.000000 0.000000 0.128865
#
#
# Mechanical properties :
#
#
# Convention : Reuss Voigt Hill
#
# Bulk Modulus (GPa) = 53.44201 54.86253 54.15227
# Shear Modulus (GPa) = 15.84087 19.98189 17.91138
#
# Velocity S-wave (km/s) = 2.95959 3.32400 3.14707
# Velocity P-wave (km/s) = 6.42103 6.71328 6.56878
#
# Compressibility (1/GPa) = 0.01871187
#
# Stress axis : x y z
#
# Youngs Moduli (GPa) = 82.40370 65.25560 57.34748
#
# Poissons Ratio (x) = 0.07286 0.35735
# Poissons Ratio (y) = 0.09201 0.32945
# Poissons Ratio (z) = 0.51348 0.37488
#
# Static dielectric constant tensor:
#      x y z
#    x 3.543730 0.000000 0.000000 
#    y 0.000000 2.842990 0.000000 
#    z 0.000000 0.000000 2.979950 
# 
# 
# High freq. dielectric constant tensor:
#      x y z
#    x 1.704270 0.000000 0.000000 
#    y 0.000000 1.715270 0.000000 
#    z 0.000000 0.000000 1.654650 
# 
# From -- ./inp_files/17563.got.cif
#   From: 2010.03.12/outbox.cif.g09.slc.cpg/sg47_9_cif.got.tgz:17563.got - 2010.04.14 03:12:58.
