data_PCOD8194932
_publ_section_title
;
Structure prediction by ZEFSAII (Michael W. Deem and Ramdas Pophale) SiO2 
 PCOD8194932
Probable space group: P M M M
;
_chemical_formula_sum "Si O2"
_cell_formula_units_Z 48
_cell_length_a 12.324952
_cell_length_b 20.369969
_cell_length_c 9.177323
_cell_angle_alpha 90.000000
_cell_angle_beta 90.000000
_cell_angle_gamma 90.000000
_cell_volume 2304.048527
_symmetry_space_group_name_H-M "P M M M"
_symmetry_group_IT_number 47
_symmetry_cell_setting 'orthorhombic'
loop_
_space_group_symop_operation_xyz
x,y,z
-x,-y,z
x,-y,-z
-x,y,-z
-x,-y,-z
x,y,-z
-x,y,z
x,-y,z
loop_
_atom_site_type_symbol
_atom_site_label
_atom_site_fract_x
_atom_site_fract_y
_atom_site_fract_z
Si Si1 0.622648 0.195501 0.341904
Si Si2 0.667876 0.322886 0.167670
Si Si3 0.878503 0.258838 0.168192
Si Si4 0.628924 0.926286 0.165236
Si Si5 0.128345 0.870940 0.330371
Si Si6 0.500000 0.427301 0.172888
Si Si7 0.873379 0.000000 0.829720
O O1 0.677005 0.208849 0.500000
O O2 0.500000 0.173440 0.363531
O O3 0.619846 0.259748 0.244728
O O4 0.680411 0.130709 0.270413
O O5 0.799143 0.322144 0.189756
O O6 0.608756 0.388681 0.227165
O O7 0.636111 0.315628 0.000000
O O8 0.829501 0.199844 0.267712
O O9 0.000000 0.279553 0.215748
O O10 0.877230 0.235402 0.000000
O O11 0.500000 0.930326 0.186836
O O12 0.678031 0.000000 0.196396
O O13 0.655136 0.905408 0.000000
O O14 0.157164 0.878978 0.500000
O O15 0.176765 0.933050 0.239695
O O16 0.000000 0.868724 0.304073
O O17 0.500000 0.500000 0.243928
O O18 0.500000 0.434361 0.000000
O O19 0.000000 0.000000 0.791965
O O20 0.849862 0.000000 0.000000
#
# Coordination Sequence:
#
# PCOD8194932 Si02
#       7
#     8   8   8   8   8   4   4
#     4  10  19  29  45  72 105 137 172 220 273 322
#     4  10  19  33  56  80 106 142 178 216 260 313
#     4   9  18  32  50  74 103 136 177 222 268 317
#     4   8  14  25  42  64  92 131 178 224 268 318
#     4   9  16  26  42  66  96 132 176 227 281 331
#     4   9  18  34  59  91 118 141 176 215 251 302
#     4   9  15  23  39  63  93 132 177 228 285 337
#
# _framework density 20.832894
#
# number of rings (size 3 to 8) (size 9 to 14) (size 15 to 20)
#    0.000    2.833    0.833    1.750    0.000    4.667 
#    0.000    1.667    1.833    1.500    0.000    3.500 
#    0.000    0.000    0.000    5.667    0.000    6.000 
#
# Total GULP energy -595035.431292 kJ/mol
# GULP energy per Si atom -12396.571485 kJ/mol
# Density = 2.078548 g / cm^3
# Si number density = 20.832894 Si / 1000 Ang^3
#
#
#
# Elastic Constant Matrix: (Units=GPa)
#
#
# Indices 1 2 3 4 5 6 
#
# 1 95.5471 70.4508 10.8163 0.0000 0.0000 0.0000
# 2 70.4508 166.4725 56.9567 0.0000 0.0000 0.0000
# 3 10.8163 56.9567 83.4250 0.0000 0.0000 0.0000
# 4 0.0000 0.0000 0.0000 7.2978 0.0000 0.0000
# 5 0.0000 0.0000 0.0000 0.0000 12.0420 0.0000
# 6 0.0000 0.0000 0.0000 0.0000 0.0000 30.0754
#
#
#
# Elastic Compliance Matrix: (Units=1/GPa)
#
#
# Indices 1 2 3 4 5 6 
#
# 1 0.015880 -0.007850 0.003300 0.000000 0.000000 0.000000
# 2 -0.007850 0.011718 -0.006982 0.000000 0.000000 0.000000
# 3 0.003300 -0.006982 0.016326 0.000000 0.000000 0.000000
# 4 0.000000 0.000000 0.000000 0.137028 0.000000 0.000000
# 5 0.000000 0.000000 0.000000 0.000000 0.083043 0.000000
# 6 0.000000 0.000000 0.000000 0.000000 0.000000 0.033250
#
#
# Mechanical properties :
#
#
# Convention : Reuss Voigt Hill
#
# Bulk Modulus (GPa) = 47.93722 69.09914 58.51818
# Shear Modulus (GPa) = 15.27828 23.69775 19.48801
#
# Velocity S-wave (km/s) = 2.71102 3.37637 3.06182
# Velocity P-wave (km/s) = 5.73235 6.95989 6.37573
#
# Compressibility (1/GPa) = 0.02086062
#
# Stress axis : x y z
#
# Youngs Moduli (GPa) = 62.97094 85.33924 61.25182
#
# Poissons Ratio (x) = 0.66989 -0.20215
# Poissons Ratio (y) = 0.49430 0.42769
# Poissons Ratio (z) = -0.20782 0.59588
#
# Static dielectric constant tensor:
#      x y z
#    x 4.348700 0.000000 0.000000 
#    y 0.000000 3.650280 0.000000 
#    z 0.000000 0.000000 3.720300 
# 
# 
# High freq. dielectric constant tensor:
#      x y z
#    x 1.872750 0.000000 0.000000 
#    y 0.000000 1.769320 0.000000 
#    z 0.000000 0.000000 1.798770 
# 
# From -- ./inp_files/6391.got.cif
#   From: 2010.03.12/outbox.cif.g09.slc.cpg/sg47_4_cif.got.tgz:6391.got - 2010.04.14 03:12:58.
