data_PCOD8194435
_publ_section_title
;
Structure prediction by ZEFSAII (Michael W. Deem and Ramdas Pophale) SiO2 
 PCOD8194435
Probable space group: P M M M
;
_chemical_formula_sum "Si O2"
_cell_formula_units_Z 48
_cell_length_a 11.463338
_cell_length_b 14.393078
_cell_length_c 15.694636
_cell_angle_alpha 90.000000
_cell_angle_beta 90.000000
_cell_angle_gamma 90.000000
_cell_volume 2589.500651
_symmetry_space_group_name_H-M "P M M M"
_symmetry_group_IT_number 47
_symmetry_cell_setting 'orthorhombic'
loop_
_space_group_symop_operation_xyz
x,y,z
-x,-y,z
x,-y,-z
-x,y,-z
-x,-y,-z
x,y,-z
-x,y,z
x,-y,z
loop_
_atom_site_type_symbol
_atom_site_label
_atom_site_fract_x
_atom_site_fract_y
_atom_site_fract_z
Si Si1 0.747180 0.286570 0.905221
Si Si2 0.000000 0.108548 0.744509
Si Si3 0.364240 0.104643 0.152679
Si Si4 0.000000 0.767664 0.095952
Si Si5 0.635119 0.729703 0.594514
Si Si6 0.361758 0.395541 0.750045
Si Si7 0.244044 0.894750 0.330962
O O1 0.710015 0.178168 0.901194
O O2 0.681189 0.347243 0.835875
O O3 0.885687 0.295601 0.889150
O O4 0.715893 0.323407 0.000000
O O5 0.000000 0.147798 0.839161
O O6 0.114499 0.140116 0.693321
O O7 0.000000 0.000000 0.758561
O O8 0.500000 0.129049 0.143318
O O9 0.330121 0.112979 0.251049
O O10 0.337821 0.000000 0.119400
O O11 0.000000 0.808543 0.000000
O O12 0.653405 0.686642 0.500000
O O13 0.500000 0.751883 0.610976
O O14 0.683018 0.658544 0.665960
O O15 0.706527 0.826031 0.597624
O O16 0.500000 0.396461 0.751967
O O17 0.311929 0.500000 0.745891
O O18 0.241046 0.000000 0.366678
#
# Coordination Sequence:
#
# PCOD8194435 Si02
#       7
#     8   4   8   4   8   8   8
#     4  11  22  36  55  79 109 144 185 227 268 320
#     4  10  18  31  51  73 102 148 192 228 267 308
#     4  10  19  31  50  75 107 146 181 217 263 313
#     4  10  20  33  51  75 104 140 184 234 277 312
#     4  10  20  35  57  83 110 141 177 219 271 327
#     4  10  21  38  59  82 109 139 174 221 276 330
#     4  10  19  32  52  78 109 144 184 222 261 314
#
# _framework density 18.536391999999999
#
# number of rings (size 3 to 8) (size 9 to 14) (size 15 to 20)
#    0.000    1.833    3.333    1.000    0.000    3.833 
#    0.000    6.667    0.000    3.000    0.000    0.000 
#    0.000    4.000    0.000    0.000    0.000    0.000 
#
# Total GULP energy -595159.147496 kJ/mol
# GULP energy per Si atom -12399.148906 kJ/mol
# Density = 1.849420 g / cm^3
# Si number density = 18.536392 Si / 1000 Ang^3
#
#
#
# Elastic Constant Matrix: (Units=GPa)
#
#
# Indices 1 2 3 4 5 6 
#
# 1 52.4901 28.4409 19.4852 0.0000 0.0000 0.0000
# 2 28.4409 100.5835 51.8103 0.0000 0.0000 0.0000
# 3 19.4852 51.8103 110.0790 0.0000 0.0000 0.0000
# 4 0.0000 0.0000 0.0000 10.6011 0.0000 0.0000
# 5 0.0000 0.0000 0.0000 0.0000 20.7548 0.0000
# 6 0.0000 0.0000 0.0000 0.0000 0.0000 15.9277
#
#
#
# Elastic Compliance Matrix: (Units=1/GPa)
#
#
# Indices 1 2 3 4 5 6 
#
# 1 0.022641 -0.005726 -0.001313 0.000000 0.000000 0.000000
# 2 -0.005726 0.014572 -0.005845 0.000000 0.000000 0.000000
# 3 -0.001313 -0.005845 0.012068 0.000000 0.000000 0.000000
# 4 0.000000 0.000000 0.000000 0.094330 0.000000 0.000000
# 5 0.000000 0.000000 0.000000 0.000000 0.048182 0.000000
# 6 0.000000 0.000000 0.000000 0.000000 0.000000 0.062784
#
#
# Mechanical properties :
#
#
# Convention : Reuss Voigt Hill
#
# Bulk Modulus (GPa) = 42.52861 51.40282 46.96571
# Shear Modulus (GPa) = 17.35026 20.35114 18.85070
#
# Velocity S-wave (km/s) = 3.06275 3.31705 3.19243
# Velocity P-wave (km/s) = 5.95822 6.51624 6.24347
#
# Compressibility (1/GPa) = 0.02351358
#
# Stress axis : x y z
#
# Youngs Moduli (GPa) = 44.16779 68.62642 82.86563
#
# Poissons Ratio (x) = 0.39294 0.10879
# Poissons Ratio (y) = 0.25289 0.48434
# Poissons Ratio (z) = 0.05798 0.40111
#
# Static dielectric constant tensor:
#      x y z
#    x 3.639470 0.000000 0.000000 
#    y 0.000000 3.405260 0.000000 
#    z 0.000000 0.000000 3.302880 
# 
# 
# High freq. dielectric constant tensor:
#      x y z
#    x 1.718640 0.000000 0.000000 
#    y 0.000000 1.699940 0.000000 
#    z 0.000000 0.000000 1.713240 
# 
# From -- ./inp_files/17608.got.cif
#   From: 2010.03.12/outbox.cif.g09.slc.cpg/sg47_9_cif.got.tgz:17608.got - 2010.04.14 03:12:58.
