data_PCOD8194774
_publ_section_title
;
Structure prediction by ZEFSAII (Michael W. Deem and Ramdas Pophale) SiO2 
 PCOD8194774
Probable space group: P M M M
;
_chemical_formula_sum "Si O2"
_cell_formula_units_Z 44
_cell_length_a 18.183648
_cell_length_b 19.297133
_cell_length_c 9.156074
_cell_angle_alpha 90.000000
_cell_angle_beta 90.000000
_cell_angle_gamma 90.000000
_cell_volume 3212.795626
_symmetry_space_group_name_H-M "P M M M"
_symmetry_group_IT_number 47
_symmetry_cell_setting 'orthorhombic'
loop_
_space_group_symop_operation_xyz
x,y,z
-x,-y,z
x,-y,-z
-x,y,-z
-x,-y,-z
x,y,-z
-x,y,z
x,-y,z
loop_
_atom_site_type_symbol
_atom_site_label
_atom_site_fract_x
_atom_site_fract_y
_atom_site_fract_z
Si Si1 0.912866 0.209511 0.168129
Si Si2 0.580224 0.582331 0.835020
Si Si3 0.868684 0.343860 0.673204
Si Si4 0.000000 0.418023 0.832924
Si Si5 0.278863 0.421423 0.329200
Si Si6 0.912711 0.923674 0.663630
O O1 0.872105 0.266278 0.265926
O O2 0.884705 0.134625 0.224045
O O3 0.000000 0.218729 0.189148
O O4 0.890031 0.217562 0.000000
O O5 0.500000 0.608616 0.777685
O O6 0.581309 0.500000 0.826588
O O7 0.647464 0.611982 0.739960
O O8 0.591736 0.607889 0.000000
O O9 0.882528 0.344205 0.500000
O O10 0.789729 0.374429 0.716195
O O11 0.928522 0.391488 0.750474
O O12 0.000000 0.500000 0.829095
O O13 0.000000 0.390133 0.000000
O O14 0.291179 0.421268 0.500000
O O15 0.264770 0.500000 0.273155
O O16 0.884180 0.906946 0.500000
O O17 0.000000 0.924015 0.663207
O O18 0.884143 0.000000 0.713039
#
# Coordination Sequence:
#
# PCOD8194774 Si02
#       6
#     8   8   8   4   8   8
#     4  10  19  29  41  57  78 100 128 165 201 238
#     4   8  14  25  41  60  79  98 120 147 186 237
#     4  11  21  32  45  57  74 102 134 168 204 242
#     4  11  23  35  45  57  72  93 128 173 215 249
#     4   9  18  30  42  58  77  97 127 165 202 239
#     4   8  14  25  41  59  77  97 123 154 190 234
#
# _framework density 13.695238
#
# number of rings (size 3 to 8) (size 9 to 14) (size 15 to 20)
#    0.000    2.636    0.909    3.000    0.000    4.364 
#    0.000    5.455    0.000    0.000    0.000    0.000 
#    0.000    0.000    0.000    0.000    0.000    0.909 
#
# Total GULP energy -545393.361818 kJ/mol
# GULP energy per Si atom -12395.303678 kJ/mol
# Density = 1.366407 g / cm^3
# Si number density = 13.695238 Si / 1000 Ang^3
#
#
#
# Elastic Constant Matrix: (Units=GPa)
#
#
# Indices 1 2 3 4 5 6 
#
# 1 93.9054 36.5774 47.6265 0.0000 0.0000 0.0000
# 2 36.5774 76.2559 40.6119 0.0000 0.0000 0.0000
# 3 47.6265 40.6119 73.6470 0.0000 0.0000 0.0000
# 4 0.0000 0.0000 0.0000 20.5284 0.0000 0.0000
# 5 0.0000 0.0000 0.0000 0.0000 18.0031 0.0000
# 6 0.0000 0.0000 0.0000 0.0000 0.0000 0.7744
#
#
#
# Elastic Compliance Matrix: (Units=1/GPa)
#
#
# Indices 1 2 3 4 5 6 
#
# 1 0.016358 -0.003133 -0.008851 0.000000 0.000000 0.000000
# 2 -0.003133 0.019166 -0.008543 0.000000 0.000000 0.000000
# 3 -0.008851 -0.008543 0.024013 0.000000 0.000000 0.000000
# 4 0.000000 0.000000 0.000000 0.048713 0.000000 0.000000
# 5 0.000000 0.000000 0.000000 0.000000 0.055546 0.000000
# 6 0.000000 0.000000 0.000000 0.000000 0.000000 1.291341
#
#
# Mechanical properties :
#
#
# Convention : Reuss Voigt Hill
#
# Bulk Modulus (GPa) = 54.10155 54.82664 54.46410
# Shear Modulus (GPa) = 3.32811 15.79402 9.56106
#
# Velocity S-wave (km/s) = 1.56058 3.39964 2.64508
# Velocity P-wave (km/s) = 6.54499 7.45187 7.01310
#
# Compressibility (1/GPa) = 0.01848376
#
# Stress axis : x y z
#
# Youngs Moduli (GPa) = 61.13087 52.17513 41.64356
#
# Poissons Ratio (x) = 0.16344 0.36860
# Poissons Ratio (y) = 0.19150 0.35577
# Poissons Ratio (z) = 0.54109 0.44574
#
# Static dielectric constant tensor:
#      x y z
#    x 2.704430 0.000000 0.000000 
#    y 0.000000 2.732280 0.000000 
#    z 0.000000 0.000000 2.846450 
# 
# 
# High freq. dielectric constant tensor:
#      x y z
#    x 1.488500 0.000000 0.000000 
#    y 0.000000 1.499930 0.000000 
#    z 0.000000 0.000000 1.532690 
# 
# From -- ./inp_files/6110.got.cif
#   From: 2010.03.12/outbox.cif.g09.slc.cpg/sg47_4_cif.got.tgz:6110.got - 2010.04.14 03:12:58.
