data_PCOD8194102
_publ_section_title
;
Structure prediction by ZEFSAII (Michael W. Deem and Ramdas Pophale) SiO2 
 PCOD8194102
Probable space group: P M M M
;
_chemical_formula_sum "Si O2"
_cell_formula_units_Z 64
_cell_length_a 9.534048
_cell_length_b 14.235781
_cell_length_c 30.964205
_cell_angle_alpha 90.000000
_cell_angle_beta 90.000000
_cell_angle_gamma 90.000000
_cell_volume 4202.604938
_symmetry_space_group_name_H-M "P M M M"
_symmetry_group_IT_number 47
_symmetry_cell_setting 'orthorhombic'
loop_
_space_group_symop_operation_xyz
x,y,z
-x,-y,z
x,-y,-z
-x,y,-z
-x,-y,-z
x,y,-z
-x,y,z
x,-y,z
loop_
_atom_site_type_symbol
_atom_site_label
_atom_site_fract_x
_atom_site_fract_y
_atom_site_fract_z
Si Si1 0.166584 0.104866 0.126610
Si Si2 0.838135 0.230399 0.048423
Si Si3 0.164577 0.776016 0.208154
Si Si4 0.662565 0.393510 0.817769
Si Si5 0.838542 0.891185 0.293155
Si Si6 0.661139 0.393295 0.917546
Si Si7 0.842657 0.111720 0.452030
Si Si8 0.341799 0.111884 0.625885
O O1 0.218873 0.153392 0.082318
O O2 0.221278 0.164294 0.167420
O O3 0.000000 0.098630 0.127971
O O4 0.230796 0.000000 0.128615
O O5 0.755706 0.327524 0.052888
O O6 0.000000 0.252570 0.058007
O O7 0.816985 0.190704 0.000000
O O8 0.243667 0.676631 0.210551
O O9 0.201907 0.833160 0.250959
O O10 0.000000 0.756415 0.204030
O O11 0.500000 0.369663 0.810494
O O12 0.694455 0.500000 0.802865
O O13 0.703770 0.381043 0.867711
O O14 0.741982 0.853746 0.331990
O O15 0.000000 0.876004 0.306574
O O16 0.809408 0.000000 0.282809
O O17 0.500000 0.365180 0.924384
O O18 0.686956 0.500000 0.932399
O O19 0.795902 0.144855 0.500000
O O20 0.735028 0.153053 0.416713
O O21 0.000000 0.148109 0.441950
O O22 0.842222 0.000000 0.449838
O O23 0.500000 0.151511 0.627381
O O24 0.342044 0.000000 0.624229
#
# Coordination Sequence:
#
# PCOD8194102 Si02
#       8
#     8   8   8   8   8   8   8   8
#     4   9  17  30  47  66  88 111 137 171 207 244
#     4  10  20  32  47  69  92 112 137 170 207 244
#     4  10  18  29  48  70  86 106 139 175 209 245
#     4   9  18  32  49  68  89 111 133 161 202 250
#     4   9  17  28  41  58  82 111 142 176 214 255
#     4   9  18  33  51  68  87 113 140 163 196 246
#     4   8  13  21  33  48  67  96 136 180 224 265
#     4   9  16  24  34  50  74 104 139 179 220 258
#
# _framework density 15.228649000000001
#
# number of rings (size 3 to 8) (size 9 to 14) (size 15 to 20)
#    0.000    2.875    1.250    1.875    0.000    5.000 
#    0.000    5.000    0.000    2.250    0.000    0.875 
#    0.000    0.000    0.000    0.000    0.000    0.625 
#
# Total GULP energy -793476.868371 kJ/mol
# GULP energy per Si atom -12398.076068 kJ/mol
# Density = 1.519399 g / cm^3
# Si number density = 15.228649 Si / 1000 Ang^3
#
#
#
# Elastic Constant Matrix: (Units=GPa)
#
#
# Indices 1 2 3 4 5 6 
#
# 1 66.8573 34.9204 57.1272 0.0000 0.0000 0.0000
# 2 34.9204 69.4689 41.9887 0.0000 0.0000 0.0000
# 3 57.1272 41.9887 119.2226 0.0000 0.0000 0.0000
# 4 0.0000 0.0000 0.0000 7.1312 0.0000 0.0000
# 5 0.0000 0.0000 0.0000 0.0000 19.7524 0.0000
# 6 0.0000 0.0000 0.0000 0.0000 0.0000 14.8860
#
#
#
# Elastic Compliance Matrix: (Units=1/GPa)
#
#
# Indices 1 2 3 4 5 6 
#
# 1 0.028187 -0.007630 -0.010819 0.000000 0.000000 0.000000
# 2 -0.007630 0.020353 -0.003512 0.000000 0.000000 0.000000
# 3 -0.010819 -0.003512 0.014809 0.000000 0.000000 0.000000
# 4 0.000000 0.000000 0.000000 0.140229 0.000000 0.000000
# 5 0.000000 0.000000 0.000000 0.000000 0.050627 0.000000
# 6 0.000000 0.000000 0.000000 0.000000 0.000000 0.067177
#
#
# Mechanical properties :
#
#
# Convention : Reuss Voigt Hill
#
# Bulk Modulus (GPa) = 51.47530 58.18014 54.82772
# Shear Modulus (GPa) = 13.44884 16.45475 14.95180
#
# Velocity S-wave (km/s) = 2.97497 3.29068 3.13680
# Velocity P-wave (km/s) = 6.75837 7.26123 7.01431
#
# Compressibility (1/GPa) = 0.01942679
#
# Stress axis : x y z
#
# Youngs Moduli (GPa) = 35.47770 49.13277 67.52769
#
# Poissons Ratio (x) = 0.37486 0.73058
# Poissons Ratio (y) = 0.27068 0.23718
# Poissons Ratio (z) = 0.38383 0.17257
#
# Static dielectric constant tensor:
#      x y z
#    x 2.872470 0.000000 0.000000 
#    y 0.000000 2.677590 0.000000 
#    z 0.000000 0.000000 2.974230 
# 
# 
# High freq. dielectric constant tensor:
#      x y z
#    x 1.575340 0.000000 0.000000 
#    y 0.000000 1.542800 0.000000 
#    z 0.000000 0.000000 1.579840 
# 
# From -- ./inp_files/8270.got.cif
#   From: 2010.03.12/outbox.cif.g09.slc.cpg/sg47_5_cif.got.tgz:8270.got - 2010.04.14 03:12:58.
