data_PCOD8194797
_publ_section_title
;
Structure prediction by ZEFSAII (Michael W. Deem and Ramdas Pophale) SiO2 
 PCOD8194797
Probable space group: P M M M
;
_chemical_formula_sum "Si O2"
_cell_formula_units_Z 52
_cell_length_a 17.342883
_cell_length_b 7.780463
_cell_length_c 25.131616
_cell_angle_alpha 90.000000
_cell_angle_beta 90.000000
_cell_angle_gamma 90.000000
_cell_volume 3391.151179
_symmetry_space_group_name_H-M "P M M M"
_symmetry_group_IT_number 47
_symmetry_cell_setting 'orthorhombic'
loop_
_space_group_symop_operation_xyz
x,y,z
-x,-y,z
x,-y,-z
-x,y,-z
-x,-y,-z
x,y,-z
-x,y,z
x,-y,z
loop_
_atom_site_type_symbol
_atom_site_label
_atom_site_fract_x
_atom_site_fract_y
_atom_site_fract_z
Si Si1 0.409492 0.000000 0.835180
Si Si2 0.318555 0.689874 0.205441
Si Si3 0.777317 0.310215 0.902118
Si Si4 0.912886 0.300160 0.167732
Si Si5 0.911439 0.691721 0.632683
Si Si6 0.177444 0.194098 0.732399
Si Si7 0.908605 0.000000 0.440784
Si Si8 0.312211 0.000000 0.941857
O O1 0.385138 0.167913 0.801497
O O2 0.374114 0.000000 0.894643
O O3 0.500000 0.000000 0.842640
O O4 0.355498 0.500000 0.214031
O O5 0.267519 0.691447 0.153116
O O6 0.262530 0.732660 0.254784
O O7 0.770852 0.500000 0.928771
O O8 0.865901 0.265911 0.887070
O O9 0.742199 0.167809 0.940711
O O10 0.907411 0.500000 0.183494
O O11 0.877445 0.193569 0.216175
O O12 0.000000 0.239818 0.157481
O O13 0.904961 0.500000 0.608174
O O14 0.860426 0.695676 0.685699
O O15 0.000000 0.734453 0.648107
O O16 0.880300 0.828696 0.589712
O O17 0.186108 0.000000 0.712369
O O18 0.872268 0.000000 0.500000
O O19 0.000000 0.000000 0.445027
O O20 0.353432 0.000000 0.000000
#
# Coordination Sequence:
#
# PCOD8194797 Si02
#       8
#     4   8   8   8   8   8   4   4
#     4  10  20  34  51  72  93 111 138 171 202 246
#     4   9  17  31  48  66  90 118 142 165 199 251
#     4   8  16  30  46  63  84 110 141 172 203 249
#     4   9  17  27  40  61  87 114 142 172 211 260
#     4  10  19  29  41  59  85 116 151 195 241 275
#     4  11  18  26  41  64  92 117 143 177 217 260
#     4   9  18  31  42  53  72 105 157 212 253 285
#     4  10  20  33  50  68  84 107 138 173 217 254
#
# _framework density 15.334025
#
# number of rings (size 3 to 8) (size 9 to 14) (size 15 to 20)
#    0.000    2.538    1.538    2.769    3.231    3.231 
#    0.000    1.538    0.000    0.923    0.000    6.462 
#    0.000    0.000    0.000    0.000    0.000    6.154 
#
# Total GULP energy -644568.768762 kJ/mol
# GULP energy per Si atom -12395.553245 kJ/mol
# Density = 1.529912 g / cm^3
# Si number density = 15.334025 Si / 1000 Ang^3
#
#
#
# Elastic Constant Matrix: (Units=GPa)
#
#
# Indices 1 2 3 4 5 6 
#
# 1 77.2069 36.7428 29.6880 0.0000 0.0000 0.0000
# 2 36.7428 117.4659 33.8804 0.0000 0.0000 0.0000
# 3 29.6880 33.8804 64.7449 0.0000 0.0000 0.0000
# 4 0.0000 0.0000 0.0000 8.5060 0.0000 0.0000
# 5 0.0000 0.0000 0.0000 0.0000 9.1282 0.0000
# 6 0.0000 0.0000 0.0000 0.0000 0.0000 12.6888
#
#
#
# Elastic Compliance Matrix: (Units=1/GPa)
#
#
# Indices 1 2 3 4 5 6 
#
# 1 0.016925 -0.003599 -0.005878 0.000000 0.000000 0.000000
# 2 -0.003599 0.010792 -0.003997 0.000000 0.000000 0.000000
# 3 -0.005878 -0.003997 0.020232 0.000000 0.000000 0.000000
# 4 0.000000 0.000000 0.000000 0.117565 0.000000 0.000000
# 5 0.000000 0.000000 0.000000 0.000000 0.109550 0.000000
# 6 0.000000 0.000000 0.000000 0.000000 0.000000 0.078810
#
#
# Mechanical properties :
#
#
# Convention : Reuss Voigt Hill
#
# Bulk Modulus (GPa) = 47.61481 51.11558 49.36519
# Shear Modulus (GPa) = 12.89257 16.67170 14.78214
#
# Velocity S-wave (km/s) = 2.90277 3.30090 3.10822
# Velocity P-wave (km/s) = 6.50799 6.92351 6.71896
#
# Compressibility (1/GPa) = 0.02100187
#
# Stress axis : x y z
#
# Youngs Moduli (GPa) = 59.08449 92.66440 49.42693
#
# Poissons Ratio (x) = 0.33348 0.29051
# Poissons Ratio (y) = 0.21263 0.19756
# Poissons Ratio (z) = 0.34727 0.37038
#
# Static dielectric constant tensor:
#      x y z
#    x 2.683580 0.000000 0.000000 
#    y 0.000000 3.281850 0.000000 
#    z 0.000000 0.000000 2.694770 
# 
# 
# High freq. dielectric constant tensor:
#      x y z
#    x 1.546440 0.000000 0.000000 
#    y 0.000000 1.610240 0.000000 
#    z 0.000000 0.000000 1.550250 
# 
# From -- ./inp_files/32691.got.cif
#   From: 2010.03.12/outbox.cif.g09.slc.cpg/sg47_17_cif.got.tgz:32691.got - 2010.04.14 03:12:58.
