data_PCOD8194722
_publ_section_title
;
Structure prediction by ZEFSAII (Michael W. Deem and Ramdas Pophale) SiO2 
 PCOD8194722
Probable space group: P M M M
;
_chemical_formula_sum "Si O2"
_cell_formula_units_Z 52
_cell_length_a 26.984289
_cell_length_b 9.420399
_cell_length_c 12.788233
_cell_angle_alpha 90.000000
_cell_angle_beta 90.000000
_cell_angle_gamma 90.000000
_cell_volume 3250.804241
_symmetry_space_group_name_H-M "P M M M"
_symmetry_group_IT_number 47
_symmetry_cell_setting 'orthorhombic'
loop_
_space_group_symop_operation_xyz
x,y,z
-x,-y,z
x,-y,-z
-x,y,-z
-x,-y,-z
x,y,-z
-x,y,z
x,-y,z
loop_
_atom_site_type_symbol
_atom_site_label
_atom_site_fract_x
_atom_site_fract_y
_atom_site_fract_z
Si Si1 0.726154 0.159164 0.883421
Si Si2 0.142769 0.656328 0.622553
Si Si3 0.386509 0.839335 0.830270
Si Si4 0.249431 0.331345 0.691864
Si Si5 0.657451 0.164526 0.616572
Si Si6 0.945624 0.841430 0.375747
Si Si7 0.558550 0.662585 0.000000
O O1 0.667089 0.173467 0.881961
O O2 0.750688 0.277941 0.811019
O O3 0.741030 0.000000 0.846817
O O4 0.745389 0.188272 0.000000
O O5 0.134067 0.648311 0.500000
O O6 0.139122 0.500000 0.672915
O O7 0.197211 0.718999 0.643924
O O8 0.098856 0.749279 0.674077
O O9 0.382440 0.793983 0.706830
O O10 0.422783 0.736274 0.893367
O O11 0.406964 0.000000 0.839915
O O12 0.256914 0.500000 0.686047
O O13 0.293047 0.257435 0.626629
O O14 0.634953 0.188943 0.500000
O O15 0.672420 0.000000 0.633573
O O16 0.940999 0.844413 0.500000
O O17 0.000000 0.780073 0.344129
O O18 0.940026 0.000000 0.331230
O O19 0.576963 0.500000 0.000000
O O20 0.500000 0.672355 0.000000
#
# Coordination Sequence:
#
# PCOD8194722 Si02
#       7
#     8   8   8   8   8   8   4
#     4   9  17  31  48  65  88 116 147 183 221 263
#     4   9  17  27  37  52  80 115 145 175 210 251
#     4   9  17  32  52  72  93 120 153 188 227 268
#     4  10  19  28  40  63  92 120 151 184 218 260
#     4   9  18  32  49  69  94 124 157 190 223 265
#     4   8  14  24  37  53  72  97 135 181 222 258
#     4  11  23  35  49  73 101 123 149 189 232 275
#
# _framework density 15.996041999999999
#
# number of rings (size 3 to 8) (size 9 to 14) (size 15 to 20)
#    0.000    2.846    0.769    2.538    0.000    5.846 
#    0.000    3.077    0.000    0.462    0.000    3.231 
#    0.000    0.615    0.000    6.769    0.000    5.231 
#
# Total GULP energy -644419.050018 kJ/mol
# GULP energy per Si atom -12392.674039 kJ/mol
# Density = 1.595963 g / cm^3
# Si number density = 15.996042 Si / 1000 Ang^3
#
#
#
# Elastic Constant Matrix: (Units=GPa)
#
#
# Indices 1 2 3 4 5 6 
#
# 1 69.9244 46.6159 27.5518 0.0000 0.0000 0.0000
# 2 46.6159 77.9198 35.1122 0.0000 0.0000 0.0000
# 3 27.5518 35.1122 89.3276 0.0000 0.0000 0.0000
# 4 0.0000 0.0000 0.0000 19.4639 0.0000 0.0000
# 5 0.0000 0.0000 0.0000 0.0000 15.1150 0.0000
# 6 0.0000 0.0000 0.0000 0.0000 0.0000 25.7956
#
#
#
# Elastic Compliance Matrix: (Units=1/GPa)
#
#
# Indices 1 2 3 4 5 6 
#
# 1 0.024124 -0.013464 -0.002148 0.000000 0.000000 0.000000
# 2 -0.013464 0.023111 -0.004931 0.000000 0.000000 0.000000
# 3 -0.002148 -0.004931 0.013796 0.000000 0.000000 0.000000
# 4 0.000000 0.000000 0.000000 0.051377 0.000000 0.000000
# 5 0.000000 0.000000 0.000000 0.000000 0.066159 0.000000
# 6 0.000000 0.000000 0.000000 0.000000 0.000000 0.038766
#
#
# Mechanical properties :
#
#
# Convention : Reuss Voigt Hill
#
# Bulk Modulus (GPa) = 50.14349 50.63684 50.39016
# Shear Modulus (GPa) = 18.86310 20.60103 19.73206
#
# Velocity S-wave (km/s) = 3.43773 3.59260 3.51602
# Velocity P-wave (km/s) = 6.86824 6.99526 6.93204
#
# Compressibility (1/GPa) = 0.01994277
#
# Stress axis : x y z
#
# Youngs Moduli (GPa) = 41.45334 43.26984 72.48601
#
# Poissons Ratio (x) = 0.58258 0.15572
# Poissons Ratio (y) = 0.55813 0.35746
# Poissons Ratio (z) = 0.08905 0.21338
#
# Static dielectric constant tensor:
#      x y z
#    x 2.897730 0.000000 0.000000 
#    y 0.000000 3.190010 0.000000 
#    z 0.000000 0.000000 2.986760 
# 
# 
# High freq. dielectric constant tensor:
#      x y z
#    x 1.590760 0.000000 0.000000 
#    y 0.000000 1.617660 0.000000 
#    z 0.000000 0.000000 1.590840 
# 
# From -- ./inp_files/25693.got.cif
#   From: 2010.03.12/outbox.cif.g09.slc.cpg/sg47_13_cif.got.tgz:25693.got - 2010.04.14 03:12:58.
