data_PCOD8194536
_publ_section_title
;
Structure prediction by ZEFSAII (Michael W. Deem and Ramdas Pophale) SiO2 
 PCOD8194536
Probable space group: P M M M
;
_chemical_formula_sum "Si O2"
_cell_formula_units_Z 64
_cell_length_a 19.554342
_cell_length_b 9.183074
_cell_length_c 21.019414
_cell_angle_alpha 90.000000
_cell_angle_beta 90.000000
_cell_angle_gamma 90.000000
_cell_volume 3774.434514
_symmetry_space_group_name_H-M "P M M M"
_symmetry_group_IT_number 47
_symmetry_cell_setting 'orthorhombic'
loop_
_space_group_symop_operation_xyz
x,y,z
-x,-y,z
x,-y,-z
-x,y,-z
-x,-y,-z
x,y,-z
-x,y,z
x,-y,z
loop_
_atom_site_type_symbol
_atom_site_label
_atom_site_fract_x
_atom_site_fract_y
_atom_site_fract_z
Si Si1 0.208789 0.671193 0.930464
Si Si2 0.923767 0.666377 0.859208
Si Si3 0.577131 0.830367 0.377506
Si Si4 0.204023 0.327525 0.685149
Si Si5 0.285672 0.671073 0.809393
Si Si6 0.922302 0.829431 0.729555
Si Si7 0.299872 0.332763 0.428975
Si Si8 0.575747 0.667842 0.246827
O O1 0.221888 0.500000 0.934069
O O2 0.129511 0.704399 0.914739
O O3 0.256506 0.740637 0.874894
O O4 0.225437 0.740249 0.000000
O O5 0.913232 0.500000 0.835556
O O6 0.909376 0.770571 0.800190
O O7 0.000000 0.689844 0.886675
O O8 0.500000 0.800367 0.401780
O O9 0.629740 0.756740 0.425716
O O10 0.587948 0.765767 0.307803
O O11 0.592936 0.000000 0.373862
O O12 0.193327 0.500000 0.685671
O O13 0.245229 0.270993 0.747380
O O14 0.130077 0.250486 0.682024
O O15 0.244961 0.276258 0.622387
O O16 0.273364 0.500000 0.812159
O O17 0.366354 0.709704 0.804753
O O18 0.000000 0.795282 0.707601
O O19 0.907407 0.000000 0.729228
O O20 0.269428 0.313057 0.500000
O O21 0.317853 0.500000 0.414515
O O22 0.500000 0.694454 0.217452
O O23 0.584892 0.500000 0.267904
#
# Coordination Sequence:
#
# PCOD8194536 Si02
#       8
#     8   8   8   8   8   8   8   8
#     4   9  16  25  40  65  95 124 154 193 238 280
#     4   9  16  27  44  66  92 123 159 194 231 278
#     4  10  20  32  47  71 103 134 163 196 236 283
#     4  10  18  32  53  74  95 121 157 200 241 281
#     4   9  15  26  45  69  93 119 155 198 239 279
#     4  10  20  32  48  73 101 126 156 194 236 283
#     4  10  21  36  53  73  97 127 163 201 240 284
#     4   9  16  28  48  70  93 124 162 202 242 283
#
# _framework density 16.956182999999999
#
# number of rings (size 3 to 8) (size 9 to 14) (size 15 to 20)
#    0.000    2.500    2.500    0.750    0.000    2.750 
#    0.000    2.500    0.000    1.125    0.000    7.000 
#    0.000    0.000    0.000    3.125    0.000    3.250 
#
# Total GULP energy -793319.145672 kJ/mol
# GULP energy per Si atom -12395.611651 kJ/mol
# Density = 1.691759 g / cm^3
# Si number density = 16.956183 Si / 1000 Ang^3
#
#
#
# Elastic Constant Matrix: (Units=GPa)
#
#
# Indices 1 2 3 4 5 6 
#
# 1 122.9656 35.0135 71.1989 0.0000 0.0000 0.0000
# 2 35.0135 44.3230 27.2035 0.0000 0.0000 0.0000
# 3 71.1989 27.2035 118.0886 0.0000 0.0000 0.0000
# 4 0.0000 0.0000 0.0000 5.5757 0.0000 0.0000
# 5 0.0000 0.0000 0.0000 0.0000 23.1714 0.0000
# 6 0.0000 0.0000 0.0000 0.0000 0.0000 20.4661
#
#
#
# Elastic Compliance Matrix: (Units=1/GPa)
#
#
# Indices 1 2 3 4 5 6 
#
# 1 0.014097 -0.006894 -0.006911 0.000000 0.000000 0.000000
# 2 -0.006894 0.029649 -0.002673 0.000000 0.000000 0.000000
# 3 -0.006911 -0.002673 0.013251 0.000000 0.000000 0.000000
# 4 0.000000 0.000000 0.000000 0.179349 0.000000 0.000000
# 5 0.000000 0.000000 0.000000 0.000000 0.043157 0.000000
# 6 0.000000 0.000000 0.000000 0.000000 0.000000 0.048861
#
#
# Mechanical properties :
#
#
# Convention : Reuss Voigt Hill
#
# Bulk Modulus (GPa) = 41.59900 61.35656 51.47778
# Shear Modulus (GPa) = 13.53784 19.97339 16.75561
#
# Velocity S-wave (km/s) = 2.82866 3.43584 3.14693
# Velocity P-wave (km/s) = 5.93759 7.21137 6.60526
#
# Compressibility (1/GPa) = 0.02403904
#
# Stress axis : x y z
#
# Youngs Moduli (GPa) = 70.93553 33.72833 75.46533
#
# Poissons Ratio (x) = 0.23254 0.52157
# Poissons Ratio (y) = 0.48906 0.20173
# Poissons Ratio (z) = 0.49027 0.09016
#
# Static dielectric constant tensor:
#      x y z
#    x 3.430580 0.000000 0.000000 
#    y 0.000000 2.958330 0.000000 
#    z 0.000000 0.000000 3.141150 
# 
# 
# High freq. dielectric constant tensor:
#      x y z
#    x 1.661650 0.000000 0.000000 
#    y 0.000000 1.625460 0.000000 
#    z 0.000000 0.000000 1.627810 
# 
# From -- ./inp_files/29986.got.cif
#   From: 2010.03.12/outbox.cif.g09.slc.cpg/sg47_15_cif.got.tgz:29986.got - 2010.04.14 03:12:58.
