data_PCOD8194493
_publ_section_title
;
Structure prediction by ZEFSAII (Michael W. Deem and Ramdas Pophale) SiO2 
 PCOD8194493
Probable space group: P M M M
;
_chemical_formula_sum "Si O2"
_cell_formula_units_Z 48
_cell_length_a 9.228207
_cell_length_b 17.117805
_cell_length_c 15.349099
_cell_angle_alpha 90.000000
_cell_angle_beta 90.000000
_cell_angle_gamma 90.000000
_cell_volume 2424.645718
_symmetry_space_group_name_H-M "P M M M"
_symmetry_group_IT_number 47
_symmetry_cell_setting 'orthorhombic'
loop_
_space_group_symop_operation_xyz
x,y,z
-x,-y,z
x,-y,-z
-x,y,-z
-x,-y,-z
x,y,-z
-x,y,z
x,-y,z
loop_
_atom_site_type_symbol
_atom_site_label
_atom_site_fract_x
_atom_site_fract_y
_atom_site_fract_z
Si Si1 0.167580 0.680845 0.901204
Si Si2 0.665504 0.302281 0.402908
Si Si3 0.670829 0.588736 0.753894
Si Si4 0.167100 0.151238 0.355520
Si Si5 0.165614 0.149577 0.849869
Si Si6 0.664434 0.000000 0.644586
Si Si7 0.337136 0.000000 0.147929
O O1 0.258049 0.624967 0.839339
O O2 0.221010 0.770439 0.893565
O O3 0.000000 0.676312 0.872900
O O4 0.190426 0.652070 0.000000
O O5 0.676535 0.338851 0.500000
O O6 0.500000 0.277517 0.381899
O O7 0.720322 0.365897 0.333178
O O8 0.766665 0.226987 0.400275
O O9 0.500000 0.593343 0.766609
O O10 0.724249 0.500000 0.743836
O O11 0.186026 0.159325 0.252703
O O12 0.000000 0.142998 0.382578
O O13 0.252794 0.075982 0.391296
O O14 0.258625 0.077716 0.887504
O O15 0.000000 0.132088 0.874657
O O16 0.668287 0.000000 0.748389
O O17 0.500000 0.000000 0.609539
O O18 0.500000 0.000000 0.112061
#
# Coordination Sequence:
#
# PCOD8194493 Si02
#       7
#     8   8   8   8   8   4   4
#     4  10  21  38  60  86 115 150 192 234 279 334
#     4  10  21  37  58  84 114 149 188 230 280 339
#     4  10  22  40  62  87 115 147 183 228 283 341
#     4  10  18  31  53  80 111 148 191 237 283 331
#     4   9  17  31  51  76 108 147 188 231 277 325
#     4   9  17  29  48  77 112 150 192 235 280 331
#     4   9  17  27  46  77 108 145 190 232 275 324
#
# _framework density 19.796707000000001
#
# number of rings (size 3 to 8) (size 9 to 14) (size 15 to 20)
#    0.000    2.333    1.667    1.000    0.000    5.000 
#    0.000    4.167    0.000    5.000    0.000    2.333 
#    0.000    0.000    0.000    0.000    0.000    0.000 
#
# Total GULP energy -595278.675650 kJ/mol
# GULP energy per Si atom -12401.639076 kJ/mol
# Density = 1.975165 g / cm^3
# Si number density = 19.796707 Si / 1000 Ang^3
#
#
#
# Elastic Constant Matrix: (Units=GPa)
#
#
# Indices 1 2 3 4 5 6 
#
# 1 86.7858 60.3002 34.7488 0.0000 0.0000 0.0000
# 2 60.3002 157.3988 56.4162 0.0000 0.0000 0.0000
# 3 34.7488 56.4162 82.4257 0.0000 0.0000 0.0000
# 4 0.0000 0.0000 0.0000 14.0747 0.0000 0.0000
# 5 0.0000 0.0000 0.0000 0.0000 19.4144 0.0000
# 6 0.0000 0.0000 0.0000 0.0000 0.0000 32.9467
#
#
#
# Elastic Compliance Matrix: (Units=1/GPa)
#
#
# Indices 1 2 3 4 5 6 
#
# 1 0.016417 -0.005047 -0.003467 0.000000 0.000000 0.000000
# 2 -0.005047 0.009970 -0.004696 0.000000 0.000000 0.000000
# 3 -0.003467 -0.004696 0.016808 0.000000 0.000000 0.000000
# 4 0.000000 0.000000 0.000000 0.071049 0.000000 0.000000
# 5 0.000000 0.000000 0.000000 0.000000 0.051508 0.000000
# 6 0.000000 0.000000 0.000000 0.000000 0.000000 0.030352
#
#
# Mechanical properties :
#
#
# Convention : Reuss Voigt Hill
#
# Bulk Modulus (GPa) = 59.61127 69.94897 64.78012
# Shear Modulus (GPa) = 21.91856 24.96351 23.44103
#
# Velocity S-wave (km/s) = 3.33104 3.55490 3.44479
# Velocity P-wave (km/s) = 6.70608 7.22911 6.97250
#
# Compressibility (1/GPa) = 0.01677535
#
# Stress axis : x y z
#
# Youngs Moduli (GPa) = 60.91076 100.29968 59.49519
#
# Poissons Ratio (x) = 0.50621 0.20626
# Poissons Ratio (y) = 0.30742 0.27941
# Poissons Ratio (z) = 0.21117 0.47104
#
# Static dielectric constant tensor:
#      x y z
#    x 3.592350 0.000000 0.000000 
#    y 0.000000 3.665280 0.000000 
#    z 0.000000 0.000000 3.443620 
# 
# 
# High freq. dielectric constant tensor:
#      x y z
#    x 1.766770 0.000000 0.000000 
#    y 0.000000 1.770170 0.000000 
#    z 0.000000 0.000000 1.763190 
# 
# From -- ./inp_files/21101.got.cif
#   From: 2010.03.12/outbox.cif.g09.slc.cpg/sg47_11_cif.got.tgz:21101.got - 2010.04.14 03:12:58.
