data_PCOD8194484
_publ_section_title
;
Structure prediction by ZEFSAII (Michael W. Deem and Ramdas Pophale) SiO2 
 PCOD8194484
Probable space group: P M M M
;
_chemical_formula_sum "Si O2"
_cell_formula_units_Z 64
_cell_length_a 9.396867
_cell_length_b 19.657261
_cell_length_c 20.487135
_cell_angle_alpha 90.000000
_cell_angle_beta 90.000000
_cell_angle_gamma 90.000000
_cell_volume 3784.315298
_symmetry_space_group_name_H-M "P M M M"
_symmetry_group_IT_number 47
_symmetry_cell_setting 'orthorhombic'
loop_
_space_group_symop_operation_xyz
x,y,z
-x,-y,z
x,-y,-z
-x,y,-z
-x,-y,-z
x,y,-z
-x,y,z
x,-y,z
loop_
_atom_site_type_symbol
_atom_site_label
_atom_site_fract_x
_atom_site_fract_y
_atom_site_fract_z
Si Si1 0.835180 0.215384 0.821735
Si Si2 0.836324 0.924572 0.767886
Si Si3 0.334533 0.211110 0.426442
Si Si4 0.336277 0.924851 0.360831
Si Si5 0.336546 0.298822 0.926589
Si Si6 0.834839 0.422784 0.115012
Si Si7 0.831402 0.426450 0.263669
Si Si8 0.832455 0.714564 0.685648
O O1 0.806528 0.133839 0.821556
O O2 0.740570 0.246505 0.878560
O O3 0.790633 0.245508 0.751440
O O4 0.000000 0.232571 0.836075
O O5 0.749993 0.906562 0.703541
O O6 0.000000 0.921853 0.746639
O O7 0.796387 0.000000 0.795439
O O8 0.288483 0.229406 0.500000
O O9 0.500000 0.226712 0.414935
O O10 0.302186 0.131002 0.415768
O O11 0.245655 0.256317 0.376971
O O12 0.500000 0.922394 0.340070
O O13 0.295406 0.000000 0.387795
O O14 0.500000 0.306822 0.904634
O O15 0.261505 0.372407 0.927042
O O16 0.326598 0.269542 0.000000
O O17 0.810872 0.500000 0.090760
O O18 0.783025 0.414296 0.189466
O O19 0.000000 0.402341 0.107224
O O20 0.772176 0.500000 0.288990
O O21 0.779116 0.363830 0.307955
O O22 0.000000 0.428933 0.263726
O O23 0.000000 0.719455 0.673171
#
# Coordination Sequence:
#
# PCOD8194484 Si02
#       8
#     8   8   8   8   8   8   8   8
#     4  10  19  33  54  78 100 128 169 211 251 301
#     4   9  17  30  50  76 104 129 156 200 256 305
#     4  10  21  34  47  68 101 138 171 204 246 294
#     4   9  17  29  46  69  97 131 170 204 236 285
#     4  11  24  37  49  71 105 141 173 209 254 300
#     4   9  17  32  54  77 102 135 173 208 245 296
#     4   8  14  27  49  75 100 123 153 200 249 289
#     4  10  18  31  53  78  99 124 164 209 252 297
#
# _framework density 16.911909000000001
#
# number of rings (size 3 to 8) (size 9 to 14) (size 15 to 20)
#    0.000    2.500    2.500    1.125    0.000    3.000 
#    0.000    2.500    0.000    1.125    0.000    7.875 
#    0.000    0.000    0.000    0.000    0.000    0.000 
#
# Total GULP energy -793282.235771 kJ/mol
# GULP energy per Si atom -12395.034934 kJ/mol
# Density = 1.687342 g / cm^3
# Si number density = 16.911909 Si / 1000 Ang^3
#
#
#
# Elastic Constant Matrix: (Units=GPa)
#
#
# Indices 1 2 3 4 5 6 
#
# 1 62.2978 45.8511 48.2191 0.0000 0.0000 0.0000
# 2 45.8511 121.0054 60.9188 0.0000 0.0000 0.0000
# 3 48.2191 60.9188 95.7608 0.0000 0.0000 0.0000
# 4 0.0000 0.0000 0.0000 19.2343 0.0000 0.0000
# 5 0.0000 0.0000 0.0000 0.0000 23.8979 0.0000
# 6 0.0000 0.0000 0.0000 0.0000 0.0000 21.5816
#
#
#
# Elastic Compliance Matrix: (Units=1/GPa)
#
#
# Indices 1 2 3 4 5 6 
#
# 1 0.028395 -0.005239 -0.010965 0.000000 0.000000 0.000000
# 2 -0.005239 0.013125 -0.005711 0.000000 0.000000 0.000000
# 3 -0.010965 -0.005711 0.019597 0.000000 0.000000 0.000000
# 4 0.000000 0.000000 0.000000 0.051990 0.000000 0.000000
# 5 0.000000 0.000000 0.000000 0.000000 0.041845 0.000000
# 6 0.000000 0.000000 0.000000 0.000000 0.000000 0.046336
#
#
# Mechanical properties :
#
#
# Convention : Reuss Voigt Hill
#
# Bulk Modulus (GPa) = 57.85013 65.44912 61.64962
# Shear Modulus (GPa) = 19.92985 21.21443 20.57214
#
# Velocity S-wave (km/s) = 3.43658 3.54560 3.49152
# Velocity P-wave (km/s) = 7.07303 7.45290 7.26545
#
# Compressibility (1/GPa) = 0.01728605
#
# Stress axis : x y z
#
# Youngs Moduli (GPa) = 35.21756 76.19330 51.02789
#
# Poissons Ratio (x) = 0.39919 0.55952
# Poissons Ratio (y) = 0.18451 0.29143
# Poissons Ratio (z) = 0.38616 0.43515
#
# Static dielectric constant tensor:
#      x y z
#    x 3.034340 0.000000 0.000000 
#    y 0.000000 3.734300 0.000000 
#    z 0.000000 0.000000 2.911050 
# 
# 
# High freq. dielectric constant tensor:
#      x y z
#    x 1.637980 0.000000 0.000000 
#    y 0.000000 1.665240 0.000000 
#    z 0.000000 0.000000 1.620840 
# 
# From -- ./inp_files/9935.got.cif
#   From: 2010.03.12/outbox.cif.g09.slc.cpg/sg47_5_cif.got.tgz:9935.got - 2010.04.14 03:12:58.
