data_PCOD8194756
_publ_section_title
;
Structure prediction by ZEFSAII (Michael W. Deem and Ramdas Pophale) SiO2 
 PCOD8194756
Probable space group: P M M M
;
_chemical_formula_sum "Si O2"
_cell_formula_units_Z 52
_cell_length_a 14.313402
_cell_length_b 9.581458
_cell_length_c 25.883986
_cell_angle_alpha 90.000000
_cell_angle_beta 90.000000
_cell_angle_gamma 90.000000
_cell_volume 3549.814224
_symmetry_space_group_name_H-M "P M M M"
_symmetry_group_IT_number 47
_symmetry_cell_setting 'orthorhombic'
loop_
_space_group_symop_operation_xyz
x,y,z
-x,-y,z
x,-y,-z
-x,y,-z
-x,-y,-z
x,y,-z
-x,y,z
x,-y,z
loop_
_atom_site_type_symbol
_atom_site_label
_atom_site_fract_x
_atom_site_fract_y
_atom_site_fract_z
Si Si1 0.389675 0.346481 0.646803
Si Si2 0.604751 0.834325 0.056383
Si Si3 0.106160 0.839899 0.903329
Si Si4 0.110800 0.342042 0.000000
Si Si5 0.716002 0.838366 0.154838
Si Si6 0.388992 0.155899 0.443119
Si Si7 0.392937 0.335026 0.762751
O O1 0.500000 0.355963 0.639325
O O2 0.345685 0.500000 0.639913
O O3 0.344567 0.248955 0.602568
O O4 0.368365 0.289480 0.704175
O O5 0.500000 0.779211 0.066281
O O6 0.669329 0.779181 0.102375
O O7 0.605878 0.000000 0.055993
O O8 0.640134 0.779735 0.000000
O O9 0.172423 0.818862 0.853157
O O10 0.000000 0.803536 0.886935
O O11 0.113777 0.000000 0.922939
O O12 0.143635 0.741069 0.949135
O O13 0.151571 0.500000 0.000000
O O14 0.000000 0.345986 0.000000
O O15 0.680121 0.747005 0.202122
O O16 0.689931 0.000000 0.165122
O O17 0.360610 0.214117 0.500000
O O18 0.500000 0.153638 0.438233
O O19 0.349513 0.000000 0.436357
O O20 0.500000 0.293464 0.776273
O O21 0.379452 0.500000 0.769843
#
# Coordination Sequence:
#
# PCOD8194756 Si02
#       7
#     8   8   8   4   8   8   8
#     4   8  14  24  36  49  67  96 131 161 192 230
#     4   8  14  24  37  54  75  94 115 151 192 223
#     4   9  18  31  45  62  84 105 124 154 197 238
#     4   9  17  29  45  63  80  99 124 151 181 226
#     4  10  19  28  44  63  76  98 134 165 191 235
#     4   8  13  20  30  47  71  96 123 159 200 231
#     4   9  18  31  43  56  79 107 132 165 207 240
#
# _framework density 14.648652999999999
#
# number of rings (size 3 to 8) (size 9 to 14) (size 15 to 20)
#    0.000    3.308    0.000    2.538    1.077    3.385 
#    0.000    3.077    0.000    0.000    0.000    2.154 
#    0.000    0.000    0.000    0.000    0.000    0.769 
#
# Total GULP energy -644345.658798 kJ/mol
# GULP energy per Si atom -12391.262669 kJ/mol
# Density = 1.461531 g / cm^3
# Si number density = 14.648653 Si / 1000 Ang^3
#
#
#
# Elastic Constant Matrix: (Units=GPa)
#
#
# Indices 1 2 3 4 5 6 
#
# 1 45.5188 23.1852 38.4474 0.0000 0.0000 0.0000
# 2 23.1852 61.6582 53.6566 0.0000 0.0000 0.0000
# 3 38.4474 53.6566 116.5831 0.0000 0.0000 0.0000
# 4 0.0000 0.0000 0.0000 25.9615 0.0000 0.0000
# 5 0.0000 0.0000 0.0000 0.0000 6.5118 0.0000
# 6 0.0000 0.0000 0.0000 0.0000 0.0000 11.6255
#
#
#
# Elastic Compliance Matrix: (Units=1/GPa)
#
#
# Indices 1 2 3 4 5 6 
#
# 1 0.031227 -0.004638 -0.008163 0.000000 0.000000 0.000000
# 2 -0.004638 0.027743 -0.011239 0.000000 0.000000 0.000000
# 3 -0.008163 -0.011239 0.016442 0.000000 0.000000 0.000000
# 4 0.000000 0.000000 0.000000 0.038519 0.000000 0.000000
# 5 0.000000 0.000000 0.000000 0.000000 0.153566 0.000000
# 6 0.000000 0.000000 0.000000 0.000000 0.000000 0.086018
#
#
# Mechanical properties :
#
#
# Convention : Reuss Voigt Hill
#
# Bulk Modulus (GPa) = 36.58840 50.48208 43.53524
# Shear Modulus (GPa) = 12.17416 16.05115 14.11265
#
# Velocity S-wave (km/s) = 2.88597 3.31379 3.10725
# Velocity P-wave (km/s) = 6.01137 7.01273 6.53127
#
# Compressibility (1/GPa) = 0.02733107
#
# Stress axis : x y z
#
# Youngs Moduli (GPa) = 32.02398 36.04525 60.81826
#
# Poissons Ratio (x) = 0.16718 0.49649
# Poissons Ratio (y) = 0.14853 0.68353
# Poissons Ratio (z) = 0.26143 0.40511
#
# Static dielectric constant tensor:
#      x y z
#    x 2.562000 0.000000 0.000000 
#    y 0.000000 2.894530 0.000000 
#    z 0.000000 0.000000 2.977310 
# 
# 
# High freq. dielectric constant tensor:
#      x y z
#    x 1.511600 0.000000 0.000000 
#    y 0.000000 1.549320 0.000000 
#    z 0.000000 0.000000 1.553050 
# 
# From -- ./inp_files/21974.got.cif
#   From: 2010.03.12/outbox.cif.g09.slc.cpg/sg47_11_cif.got.tgz:21974.got - 2010.04.14 03:12:58.
