data_PCOD8194269
_publ_section_title
;
Structure prediction by ZEFSAII (Michael W. Deem and Ramdas Pophale) SiO2 
 PCOD8194269
Probable space group: P M M M
;
_chemical_formula_sum "Si O2"
_cell_formula_units_Z 60
_cell_length_a 20.870360
_cell_length_b 18.786619
_cell_length_c 9.104449
_cell_angle_alpha 90.000000
_cell_angle_beta 90.000000
_cell_angle_gamma 90.000000
_cell_volume 3569.704245
_symmetry_space_group_name_H-M "P M M M"
_symmetry_group_IT_number 47
_symmetry_cell_setting 'orthorhombic'
loop_
_space_group_symop_operation_xyz
x,y,z
-x,-y,z
x,-y,-z
-x,y,-z
-x,-y,-z
x,y,-z
-x,y,z
x,-y,z
loop_
_atom_site_type_symbol
_atom_site_label
_atom_site_fract_x
_atom_site_fract_y
_atom_site_fract_z
Si Si1 0.633282 0.080727 0.167666
Si Si2 0.881271 0.342011 0.172784
Si Si3 0.780182 0.080518 0.828222
Si Si4 0.817808 0.783798 0.672441
Si Si5 0.428416 0.794498 0.672814
Si Si6 0.311882 0.297692 0.671043
Si Si7 0.749740 0.579835 0.829357
Si Si8 0.000000 0.583603 0.673638
O O1 0.706464 0.088129 0.221231
O O2 0.586008 0.128124 0.263227
O O3 0.609891 0.000000 0.186026
O O4 0.628136 0.105594 0.000000
O O5 0.870156 0.264230 0.243454
O O6 0.820095 0.390879 0.204108
O O7 0.938784 0.380438 0.253992
O O8 0.895704 0.333808 0.000000
O O9 0.822497 0.135834 0.734240
O O10 0.804015 0.000000 0.795494
O O11 0.787671 0.097937 0.000000
O O12 0.833173 0.783227 0.500000
O O13 0.746973 0.754498 0.707968
O O14 0.421079 0.801288 0.500000
O O15 0.500000 0.770351 0.718178
O O16 0.377074 0.737396 0.733099
O O17 0.316500 0.313263 0.500000
O O18 0.303801 0.373221 0.749592
O O19 0.745633 0.500000 0.767143
O O20 0.734311 0.582204 0.000000
O O21 0.000000 0.500000 0.710212
O O22 0.000000 0.597505 0.500000
#
# Coordination Sequence:
#
# PCOD8194269 Si02
#       8
#     8   8   8   8   8   8   8   4
#     4   9  18  31  46  65  91 123 160 201 244 293
#     4  10  20  34  53  76 104 139 173 203 238 286
#     4   9  17  29  46  69  97 129 164 204 251 299
#     4  10  18  30  49  73 100 128 165 210 253 295
#     4  10  20  33  47  64  89 122 161 202 245 298
#     4   9  18  31  46  67  92 120 154 196 246 294
#     4   9  18  32  51  75  98 121 154 196 239 285
#     4  11  23  37  53  77 112 147 176 207 241 279
#
# _framework density 16.808115999999998
#
# number of rings (size 3 to 8) (size 9 to 14) (size 15 to 20)
#    0.000    2.467    1.333    2.200    0.000    4.000 
#    0.000    2.667    0.000    0.400    0.000    3.267 
#    0.000    3.733    0.000    0.000    0.000    0.000 
#
# Total GULP energy -744009.249757 kJ/mol
# GULP energy per Si atom -12400.154163 kJ/mol
# Density = 1.676986 g / cm^3
# Si number density = 16.808116 Si / 1000 Ang^3
#
#
#
# Elastic Constant Matrix: (Units=GPa)
#
#
# Indices 1 2 3 4 5 6 
#
# 1 84.4775 56.7465 44.5565 0.0000 0.0000 0.0000
# 2 56.7465 132.3026 57.1426 0.0000 0.0000 0.0000
# 3 44.5565 57.1426 64.2506 0.0000 0.0000 0.0000
# 4 0.0000 0.0000 0.0000 32.8336 0.0000 0.0000
# 5 0.0000 0.0000 0.0000 0.0000 23.4638 0.0000
# 6 0.0000 0.0000 0.0000 0.0000 0.0000 23.5734
#
#
#
# Elastic Compliance Matrix: (Units=1/GPa)
#
#
# Indices 1 2 3 4 5 6 
#
# 1 0.020007 -0.004204 -0.010136 0.000000 0.000000 0.000000
# 2 -0.004204 0.013156 -0.008785 0.000000 0.000000 0.000000
# 3 -0.010136 -0.008785 0.030407 0.000000 0.000000 0.000000
# 4 0.000000 0.000000 0.000000 0.030457 0.000000 0.000000
# 5 0.000000 0.000000 0.000000 0.000000 0.042619 0.000000
# 6 0.000000 0.000000 0.000000 0.000000 0.000000 0.042421
#
#
# Mechanical properties :
#
#
# Convention : Reuss Voigt Hill
#
# Bulk Modulus (GPa) = 57.73750 66.43579 62.08665
# Shear Modulus (GPa) = 21.63662 24.14649 22.89155
#
# Velocity S-wave (km/s) = 3.59175 3.79436 3.69444
# Velocity P-wave (km/s) = 7.18515 7.66864 7.43083
#
# Compressibility (1/GPa) = 0.01731976
#
# Stress axis : x y z
#
# Youngs Moduli (GPa) = 49.98164 76.01168 32.88734
#
# Poissons Ratio (x) = 0.31952 0.33335
# Poissons Ratio (y) = 0.21010 0.28893
# Poissons Ratio (z) = 0.50662 0.66779
#
# Static dielectric constant tensor:
#      x y z
#    x 3.026100 0.000000 0.000000 
#    y 0.000000 3.250430 0.000000 
#    z 0.000000 0.000000 3.121440 
# 
# 
# High freq. dielectric constant tensor:
#      x y z
#    x 1.617810 0.000000 0.000000 
#    y 0.000000 1.649950 0.000000 
#    z 0.000000 0.000000 1.650470 
# 
# From -- ./inp_files/11597.got.cif
#   From: 2010.03.12/outbox.cif.g09.slc.cpg/sg47_6_cif.got.tgz:11597.got - 2010.04.14 03:12:58.
