data_PCOD8194081
_publ_section_title
;
Structure prediction by ZEFSAII (Michael W. Deem and Ramdas Pophale) SiO2 
 PCOD8194081
Probable space group: P M M M
;
_chemical_formula_sum "Si O2"
_cell_formula_units_Z 48
_cell_length_a 13.726487
_cell_length_b 12.903549
_cell_length_c 17.304357
_cell_angle_alpha 90.000000
_cell_angle_beta 90.000000
_cell_angle_gamma 90.000000
_cell_volume 3064.954592
_symmetry_space_group_name_H-M "P M M M"
_symmetry_group_IT_number 47
_symmetry_cell_setting 'orthorhombic'
loop_
_space_group_symop_operation_xyz
x,y,z
-x,-y,z
x,-y,-z
-x,y,-z
-x,-y,-z
x,y,-z
-x,y,z
x,-y,z
loop_
_atom_site_type_symbol
_atom_site_label
_atom_site_fract_x
_atom_site_fract_y
_atom_site_fract_z
Si Si1 0.212518 0.120250 0.916359
Si Si2 0.112971 0.884099 0.762437
Si Si3 0.231019 0.382559 0.854752
Si Si4 0.889557 0.624666 0.000000
Si Si5 0.390894 0.247154 0.087524
Si Si6 0.885202 0.500000 0.585345
Si Si7 0.113669 0.329923 0.705134
O O1 0.159534 0.165688 0.840353
O O2 0.328473 0.141026 0.910326
O O3 0.192454 0.000000 0.913702
O O4 0.172579 0.163026 0.000000
O O5 0.131985 0.795423 0.696666
O O6 0.000000 0.895942 0.779065
O O7 0.154107 0.000000 0.739665
O O8 0.252162 0.500000 0.875372
O O9 0.165912 0.331999 0.923660
O O10 0.336253 0.327189 0.855446
O O11 0.176981 0.375953 0.773835
O O12 0.890813 0.500000 0.000000
O O13 0.000000 0.666878 0.000000
O O14 0.500000 0.226369 0.118767
O O15 0.394757 0.291411 0.000000
O O16 0.836642 0.500000 0.500000
O O17 0.853379 0.606139 0.629182
O O18 0.000000 0.500000 0.576592
O O19 0.000000 0.351386 0.723140
#
# Coordination Sequence:
#
# PCOD8194081 Si02
#       7
#     8   8   8   4   8   4   8
#     4   9  17  29  43  59  82 115 157 200 237 268
#     4   9  17  28  43  65  93 124 153 184 228 276
#     4  11  19  29  42  61  87 116 153 190 229 269
#     4   9  18  28  39  57  84 115 147 185 225 270
#     4  10  20  32  43  56  79 116 163 204 238 271
#     4   9  18  32  50  73  98 123 150 181 218 265
#     4  10  18  29  47  69  94 122 151 186 223 267
#
# _framework density 15.660918000000001
#
# number of rings (size 3 to 8) (size 9 to 14) (size 15 to 20)
#    0.000    2.333    3.333    0.500    0.000    1.667 
#    0.000    4.167    0.000    0.500    0.000    3.500 
#    0.000    1.333    0.000    0.000    0.000    5.333 
#
# Total GULP energy -594655.819343 kJ/mol
# GULP energy per Si atom -12388.662903 kJ/mol
# Density = 1.562527 g / cm^3
# Si number density = 15.660918 Si / 1000 Ang^3
#
#
#
# Elastic Constant Matrix: (Units=GPa)
#
#
# Indices 1 2 3 4 5 6 
#
# 1 40.0875 2.8316 17.7136 0.0000 0.0000 0.0000
# 2 2.8316 72.4329 42.0746 0.0000 0.0000 0.0000
# 3 17.7136 42.0746 88.2334 0.0000 0.0000 0.0000
# 4 0.0000 0.0000 0.0000 16.5686 0.0000 0.0000
# 5 0.0000 0.0000 0.0000 0.0000 6.8135 0.0000
# 6 0.0000 0.0000 0.0000 0.0000 0.0000 17.1981
#
#
#
# Elastic Compliance Matrix: (Units=1/GPa)
#
#
# Indices 1 2 3 4 5 6 
#
# 1 0.027832 0.002984 -0.007011 0.000000 0.000000 0.000000
# 2 0.002984 0.019415 -0.009857 0.000000 0.000000 0.000000
# 3 -0.007011 -0.009857 0.017442 0.000000 0.000000 0.000000
# 4 0.000000 0.000000 0.000000 0.060355 0.000000 0.000000
# 5 0.000000 0.000000 0.000000 0.000000 0.146768 0.000000
# 6 0.000000 0.000000 0.000000 0.000000 0.000000 0.058146
#
#
# Mechanical properties :
#
#
# Convention : Reuss Voigt Hill
#
# Bulk Modulus (GPa) = 27.08437 36.22149 31.65293
# Shear Modulus (GPa) = 13.51232 17.32497 15.41865
#
# Velocity S-wave (km/s) = 2.94054 3.32965 3.14113
# Velocity P-wave (km/s) = 5.37223 6.16124 5.78021
#
# Compressibility (1/GPa) = 0.03692166
#
# Stress axis : x y z
#
# Youngs Moduli (GPa) = 35.92932 51.50624 57.33438
#
# Poissons Ratio (x) = -0.15371 0.40195
# Poissons Ratio (y) = -0.10722 0.56516
# Poissons Ratio (z) = 0.25189 0.50771
#
# Static dielectric constant tensor:
#      x y z
#    x 2.829090 0.000000 0.000000 
#    y 0.000000 3.335230 0.000000 
#    z 0.000000 0.000000 2.872610 
# 
# 
# High freq. dielectric constant tensor:
#      x y z
#    x 1.569990 0.000000 0.000000 
#    y 0.000000 1.626140 0.000000 
#    z 0.000000 0.000000 1.552310 
# 
# From -- ./inp_files/23710.got.cif
#   From: 2010.03.12/outbox.cif.g09.slc.cpg/sg47_12_cif.got.tgz:23710.got - 2010.04.14 03:12:58.
