data_PCOD8194411
_publ_section_title
;
Structure prediction by ZEFSAII (Michael W. Deem and Ramdas Pophale) SiO2 
 PCOD8194411
Probable space group: P M M M
;
_chemical_formula_sum "Si O2"
_cell_formula_units_Z 64
_cell_length_a 20.079980
_cell_length_b 9.378908
_cell_length_c 19.682282
_cell_angle_alpha 90.000000
_cell_angle_beta 90.000000
_cell_angle_gamma 90.000000
_cell_volume 3706.730415
_symmetry_space_group_name_H-M "P M M M"
_symmetry_group_IT_number 47
_symmetry_cell_setting 'orthorhombic'
loop_
_space_group_symop_operation_xyz
x,y,z
-x,-y,z
x,-y,-z
-x,y,-z
-x,-y,-z
x,y,-z
-x,y,z
x,-y,z
loop_
_atom_site_type_symbol
_atom_site_label
_atom_site_fract_x
_atom_site_fract_y
_atom_site_fract_z
Si Si1 0.770062 0.837683 0.699803
Si Si2 0.612555 0.164669 0.297719
Si Si3 0.678612 0.835416 0.919902
Si Si4 0.613285 0.339788 0.424721
Si Si5 0.812940 0.168160 0.153648
Si Si6 0.076443 0.335517 0.922414
Si Si7 0.228414 0.339991 0.425796
Si Si8 0.424292 0.663778 0.166744
O O1 0.691446 0.818029 0.708328
O O2 0.803773 0.781564 0.768692
O O3 0.800490 0.753529 0.635665
O O4 0.788639 0.000000 0.686308
O O5 0.585469 0.229864 0.368752
O O6 0.579627 0.252496 0.237372
O O7 0.590636 0.000000 0.293594
O O8 0.748925 0.783628 0.889750
O O9 0.620434 0.738116 0.890245
O O10 0.664993 0.000000 0.899511
O O11 0.680771 0.814411 0.000000
O O12 0.587907 0.294533 0.500000
O O13 0.588395 0.500000 0.407851
O O14 0.692459 0.336565 0.423461
O O15 0.878924 0.241205 0.126421
O O16 0.822297 0.000000 0.148305
O O17 0.095474 0.500000 0.912673
O O18 0.000000 0.308916 0.902331
O O19 0.088861 0.288895 0.000000
O O20 0.204807 0.282012 0.500000
O O21 0.202047 0.500000 0.415743
O O22 0.500000 0.669544 0.140462
O O23 0.401150 0.500000 0.177259
#
# Coordination Sequence:
#
# PCOD8194411 Si02
#       8
#     8   8   8   8   8   8   8   8
#     4   9  17  28  44  68  98 128 160 201 245 289
#     4  10  18  31  50  70  95 126 162 204 249 299
#     4  10  21  38  58  78 101 128 159 201 253 304
#     4   8  14  25  42  66  96 127 158 195 241 293
#     4  10  19  33  52  77 107 134 166 206 246 292
#     4   9  19  35  52  73 104 139 174 210 246 288
#     4   8  14  24  38  60  92 128 164 199 236 283
#     4  11  24  39  54  72  95 125 163 208 256 307
#
# _framework density 17.265889999999999
#
# number of rings (size 3 to 8) (size 9 to 14) (size 15 to 20)
#    0.000    2.625    1.250    2.250    0.000    4.500 
#    0.000    4.375    0.000    0.375    0.000    2.625 
#    0.000    0.500    0.000    5.500    0.000    4.250 
#
# Total GULP energy -793464.474990 kJ/mol
# GULP energy per Si atom -12397.882422 kJ/mol
# Density = 1.722659 g / cm^3
# Si number density = 17.265890 Si / 1000 Ang^3
#
#
#
# Elastic Constant Matrix: (Units=GPa)
#
#
# Indices 1 2 3 4 5 6 
#
# 1 54.2824 36.6794 46.8376 0.0000 0.0000 0.0000
# 2 36.6794 90.9597 68.0652 0.0000 0.0000 0.0000
# 3 46.8376 68.0652 135.9617 0.0000 0.0000 0.0000
# 4 0.0000 0.0000 0.0000 36.9399 0.0000 0.0000
# 5 0.0000 0.0000 0.0000 0.0000 7.2770 0.0000
# 6 0.0000 0.0000 0.0000 0.0000 0.0000 23.0109
#
#
#
# Elastic Compliance Matrix: (Units=1/GPa)
#
#
# Indices 1 2 3 4 5 6 
#
# 1 0.028515 -0.006633 -0.006503 0.000000 0.000000 0.000000
# 2 -0.006633 0.019122 -0.007288 0.000000 0.000000 0.000000
# 3 -0.006503 -0.007288 0.013244 0.000000 0.000000 0.000000
# 4 0.000000 0.000000 0.000000 0.027071 0.000000 0.000000
# 5 0.000000 0.000000 0.000000 0.000000 0.137419 0.000000
# 6 0.000000 0.000000 0.000000 0.000000 0.000000 0.043458
#
#
# Mechanical properties :
#
#
# Convention : Reuss Voigt Hill
#
# Bulk Modulus (GPa) = 49.91533 64.92980 57.42256
# Shear Modulus (GPa) = 15.80513 22.08700 18.94607
#
# Velocity S-wave (km/s) = 3.02883 3.58051 3.31616
# Velocity P-wave (km/s) = 6.41906 7.40141 6.92767
#
# Compressibility (1/GPa) = 0.02003393
#
# Stress axis : x y z
#
# Youngs Moduli (GPa) = 35.06957 52.29553 75.50777
#
# Poissons Ratio (x) = 0.34685 0.49100
# Poissons Ratio (y) = 0.23260 0.55030
# Poissons Ratio (z) = 0.22805 0.38113
#
# Static dielectric constant tensor:
#      x y z
#    x 2.819230 0.000000 0.000000 
#    y 0.000000 3.302090 0.000000 
#    z 0.000000 0.000000 3.469580 
# 
# 
# High freq. dielectric constant tensor:
#      x y z
#    x 1.621180 0.000000 0.000000 
#    y 0.000000 1.667680 0.000000 
#    z 0.000000 0.000000 1.678590 
# 
# From -- ./inp_files/30014.got.cif
#   From: 2010.03.12/outbox.cif.g09.slc.cpg/sg47_16_cif.got.tgz:30014.got - 2010.04.14 03:12:58.
