data_PCOD8194632
_publ_section_title
;
Structure prediction by ZEFSAII (Michael W. Deem and Ramdas Pophale) SiO2 
 PCOD8194632
Probable space group: P M M M
;
_chemical_formula_sum "Si O2"
_cell_formula_units_Z 44
_cell_length_a 18.601767
_cell_length_b 9.284559
_cell_length_c 13.596730
_cell_angle_alpha 90.000000
_cell_angle_beta 90.000000
_cell_angle_gamma 90.000000
_cell_volume 2348.280405
_symmetry_space_group_name_H-M "P M M M"
_symmetry_group_IT_number 47
_symmetry_cell_setting 'orthorhombic'
loop_
_space_group_symop_operation_xyz
x,y,z
-x,-y,z
x,-y,-z
-x,y,-z
-x,-y,-z
x,y,-z
-x,y,z
x,-y,z
loop_
_atom_site_type_symbol
_atom_site_label
_atom_site_fract_x
_atom_site_fract_y
_atom_site_fract_z
Si Si1 0.082531 0.667769 0.772823
Si Si2 0.159174 0.162320 0.389231
Si Si3 0.806752 0.162126 0.109925
Si Si4 0.415162 0.334395 0.000000
Si Si5 0.348887 0.165919 0.182130
Si Si6 0.679047 0.828849 0.393113
O O1 0.097490 0.500000 0.763659
O O2 0.104221 0.740704 0.670873
O O3 0.130265 0.730015 0.860949
O O4 0.000000 0.701316 0.797030
O O5 0.130600 0.161924 0.500000
O O6 0.239437 0.228679 0.384052
O O7 0.158562 0.000000 0.345616
O O8 0.737054 0.182562 0.177507
O O9 0.836527 0.000000 0.118327
O O10 0.781577 0.198318 0.000000
O O11 0.387408 0.261824 0.100341
O O12 0.389870 0.500000 0.000000
O O13 0.500000 0.320361 0.000000
O O14 0.367253 0.216862 0.295428
O O15 0.371954 0.000000 0.163845
O O16 0.646639 0.775469 0.500000
O O17 0.682787 0.000000 0.395196
#
# Coordination Sequence:
#
# PCOD8194632 Si02
#       6
#     8   8   8   4   8   8
#     4  11  24  37  48  68 103 144 183 228 281 335
#     4   9  17  32  54  76 100 134 178 228 278 328
#     4  10  20  36  57  80 103 131 177 231 279 330
#     4  11  25  41  57  85 124 157 184 217 261 318
#     4  10  18  34  61  88 114 144 182 228 273 322
#     4   8  14  27  52  85 114 138 171 223 279 324
#
# _framework density 18.737114999999999
#
# number of rings (size 3 to 8) (size 9 to 14) (size 15 to 20)
#    0.000    2.273    2.727    1.909    0.000    4.364 
#    0.000    3.636    0.000    1.091    0.000    3.818 
#    0.000    0.000    0.000    0.000    0.000    0.000 
#
# Total GULP energy -545249.400717 kJ/mol
# GULP energy per Si atom -12392.031834 kJ/mol
# Density = 1.869447 g / cm^3
# Si number density = 18.737115 Si / 1000 Ang^3
#
#
#
# Elastic Constant Matrix: (Units=GPa)
#
#
# Indices 1 2 3 4 5 6 
#
# 1 46.8674 35.8705 32.4613 0.0000 0.0000 0.0000
# 2 35.8705 76.6391 49.5873 0.0000 0.0000 0.0000
# 3 32.4613 49.5873 165.3437 0.0000 0.0000 0.0000
# 4 0.0000 0.0000 0.0000 -1.5554 0.0000 0.0000
# 5 0.0000 0.0000 0.0000 0.0000 14.7579 0.0000
# 6 0.0000 0.0000 0.0000 0.0000 0.0000 24.8612
#
#
#
# Elastic Compliance Matrix: (Units=1/GPa)
#
#
# Indices 1 2 3 4 5 6 
#
# 1 0.033972 -0.014374 -0.002359 0.000000 0.000000 0.000000
# 2 -0.014374 0.022272 -0.003857 0.000000 0.000000 0.000000
# 3 -0.002359 -0.003857 0.007668 0.000000 0.000000 0.000000
# 4 0.000000 0.000000 0.000000 -0.642932 0.000000 0.000000
# 5 0.000000 0.000000 0.000000 0.000000 0.067760 0.000000
# 6 0.000000 0.000000 0.000000 0.000000 0.000000 0.040223
#
#
# Mechanical properties :
#
#
# Convention : Reuss Voigt Hill
#
# Bulk Modulus (GPa) = 43.99269 58.29871 51.14570
# Shear Modulus (GPa) = -11.84052 19.00816 3.58382
#
# Velocity S-wave (km/s) = -2.51655 3.18852 1.38450
# Velocity P-wave (km/s) = 3.88405 6.68858 5.46914
#
# Compressibility (1/GPa) = 0.02273105
#
# Stress axis : x y z
#
# Youngs Moduli (GPa) = 29.43603 44.89991 130.41355
#
# Poissons Ratio (x) = 0.64540 0.30760
# Poissons Ratio (y) = 0.42312 0.50305
# Poissons Ratio (z) = 0.06943 0.17320
#
# Static dielectric constant tensor:
#      x y z
#    x 3.079350 0.000000 0.000000 
#    y 0.000000 3.213230 0.000000 
#    z 0.000000 0.000000 3.904790 
# 
# 
# High freq. dielectric constant tensor:
#      x y z
#    x 1.690010 0.000000 0.000000 
#    y 0.000000 1.697980 0.000000 
#    z 0.000000 0.000000 1.755600 
# 
# From -- ./inp_files/9002.got.cif
#   From: 2010.03.12/outbox.cif.g09.slc.cpg/sg47_5_cif.got.tgz:9002.got - 2010.04.14 03:12:58.
