data_PCOD8194744
_publ_section_title
;
Structure prediction by ZEFSAII (Michael W. Deem and Ramdas Pophale) SiO2 
 PCOD8194744
Probable space group: P M M M
;
_chemical_formula_sum "Si O2"
_cell_formula_units_Z 64
_cell_length_a 20.847110
_cell_length_b 19.387329
_cell_length_c 9.267566
_cell_angle_alpha 90.000000
_cell_angle_beta 90.000000
_cell_angle_gamma 90.000000
_cell_volume 3745.670114
_symmetry_space_group_name_H-M "P M M M"
_symmetry_group_IT_number 47
_symmetry_cell_setting 'orthorhombic'
loop_
_space_group_symop_operation_xyz
x,y,z
-x,-y,z
x,-y,-z
-x,y,-z
-x,-y,-z
x,y,-z
-x,y,z
x,-y,z
loop_
_atom_site_type_symbol
_atom_site_label
_atom_site_fract_x
_atom_site_fract_y
_atom_site_fract_z
Si Si1 0.296213 0.659785 0.340096
Si Si2 0.184100 0.173899 0.830663
Si Si3 0.691250 0.823918 0.336354
Si Si4 0.568458 0.326971 0.334738
Si Si5 0.175419 0.334148 0.832541
Si Si6 0.925889 0.421188 0.665996
Si Si7 0.570618 0.187465 0.167739
Si Si8 0.071090 0.077320 0.828625
O O1 0.273331 0.638234 0.500000
O O2 0.306840 0.741515 0.329004
O O3 0.367121 0.627152 0.303961
O O4 0.241673 0.634443 0.230707
O O5 0.246806 0.146852 0.747213
O O6 0.169839 0.253567 0.796413
O O7 0.123792 0.130693 0.769397
O O8 0.195430 0.162029 0.000000
O O9 0.692081 0.851343 0.500000
O O10 0.626456 0.851583 0.257681
O O11 0.574908 0.298260 0.500000
O O12 0.500000 0.368115 0.320158
O O13 0.566148 0.265522 0.221341
O O14 0.114418 0.370845 0.765397
O O15 0.175978 0.349812 0.000000
O O16 0.911751 0.403719 0.500000
O O17 0.907051 0.500000 0.699449
O O18 0.000000 0.408552 0.702625
O O19 0.500000 0.152542 0.190043
O O20 0.590056 0.187439 0.000000
O O21 0.000000 0.098316 0.771897
O O22 0.088059 0.000000 0.775648
O O23 0.070944 0.079696 0.000000
#
# Coordination Sequence:
#
# PCOD8194744 Si02
#       8
#     8   8   8   8   8   8   8   8
#     4   8  14  24  37  53  78 113 147 178 212 252
#     4   9  17  28  43  65  92 118 145 181 221 258
#     4   9  16  25  37  53  77 111 147 180 215 257
#     4   8  13  21  33  50  74 107 146 182 215 253
#     4  10  19  28  42  66  93 118 143 177 220 261
#     4   9  19  36  54  68  84 110 143 177 214 259
#     4   9  15  21  31  49  74 105 140 177 217 259
#     4   8  14  26  45  67  89 115 148 183 217 255
#
# _framework density 17.086393999999999
#
# number of rings (size 3 to 8) (size 9 to 14) (size 15 to 20)
#    0.000    3.250    0.000    2.625    0.000    5.250 
#    0.000    1.875    0.000    0.750    0.000    0.875 
#    0.000    1.000    0.000   11.500    0.000   11.500 
#
# Total GULP energy -792897.476774 kJ/mol
# GULP energy per Si atom -12389.023075 kJ/mol
# Density = 1.704750 g / cm^3
# Si number density = 17.086394 Si / 1000 Ang^3
#
#
#
# Elastic Constant Matrix: (Units=GPa)
#
#
# Indices 1 2 3 4 5 6 
#
# 1 166.0343 45.0071 74.3459 0.0000 0.0000 0.0000
# 2 45.0071 30.4720 29.5636 0.0000 0.0000 0.0000
# 3 74.3459 29.5636 88.4152 0.0000 0.0000 0.0000
# 4 0.0000 0.0000 0.0000 8.9364 0.0000 0.0000
# 5 0.0000 0.0000 0.0000 0.0000 29.3320 0.0000
# 6 0.0000 0.0000 0.0000 0.0000 0.0000 0.7073
#
#
#
# Elastic Compliance Matrix: (Units=1/GPa)
#
#
# Indices 1 2 3 4 5 6 
#
# 1 0.011933 -0.011679 -0.006129 0.000000 0.000000 0.000000
# 2 -0.011679 0.060005 -0.010244 0.000000 0.000000 0.000000
# 3 -0.006129 -0.010244 0.019889 0.000000 0.000000 0.000000
# 4 0.000000 0.000000 0.000000 0.111902 0.000000 0.000000
# 5 0.000000 0.000000 0.000000 0.000000 0.034092 0.000000
# 6 0.000000 0.000000 0.000000 0.000000 0.000000 1.413908
#
#
# Mechanical properties :
#
#
# Convention : Reuss Voigt Hill
#
# Bulk Modulus (GPa) = 27.99227 64.75052 46.37140
# Shear Modulus (GPa) = 2.90741 16.86212 9.88476
#
# Velocity S-wave (km/s) = 1.30587 3.14486 2.40785
# Velocity P-wave (km/s) = 4.32343 7.15298 5.91004
#
# Compressibility (1/GPa) = 0.03572414
#
# Stress axis : x y z
#
# Youngs Moduli (GPa) = 83.80050 16.66534 50.27826
#
# Poissons Ratio (x) = 0.19463 0.30816
# Poissons Ratio (y) = 0.97868 0.51503
# Poissons Ratio (z) = 0.51363 0.17071
#
# Static dielectric constant tensor:
#      x y z
#    x 3.820100 0.000000 0.000000 
#    y 0.000000 2.635010 0.000000 
#    z 0.000000 0.000000 3.133680 
# 
# 
# High freq. dielectric constant tensor:
#      x y z
#    x 1.688360 0.000000 0.000000 
#    y 0.000000 1.582060 0.000000 
#    z 0.000000 0.000000 1.652600 
# 
# From -- ./inp_files/11883.got.cif
#   From: 2010.03.12/outbox.cif.g09.slc.cpg/sg47_6_cif.got.tgz:11883.got - 2010.04.14 03:12:58.
