data_PCOD8194763
_publ_section_title
;
Structure prediction by ZEFSAII (Michael W. Deem and Ramdas Pophale) SiO2 
 PCOD8194763
Probable space group: P M M M
;
_chemical_formula_sum "Si O2"
_cell_formula_units_Z 56
_cell_length_a 18.155776
_cell_length_b 8.264150
_cell_length_c 28.847075
_cell_angle_alpha 90.000000
_cell_angle_beta 90.000000
_cell_angle_gamma 90.000000
_cell_volume 4328.274449
_symmetry_space_group_name_H-M "P M M M"
_symmetry_group_IT_number 47
_symmetry_cell_setting 'orthorhombic'
loop_
_space_group_symop_operation_xyz
x,y,z
-x,-y,z
x,-y,-z
-x,y,-z
-x,-y,-z
x,y,-z
-x,y,z
x,-y,z
loop_
_atom_site_type_symbol
_atom_site_label
_atom_site_fract_x
_atom_site_fract_y
_atom_site_fract_z
Si Si1 0.912854 0.181816 0.798649
Si Si2 0.420186 0.817467 0.554931
Si Si3 0.087569 0.000000 0.947108
Si Si4 0.912320 0.319287 0.106254
Si Si5 0.000000 0.807243 0.551704
Si Si6 0.863064 0.186887 0.610193
Si Si7 0.917065 0.687837 0.702853
Si Si8 0.731855 0.314507 0.446673
O O1 0.884840 0.294461 0.840748
O O2 0.880539 0.233536 0.748767
O O3 0.000000 0.197285 0.794781
O O4 0.888213 0.000000 0.810295
O O5 0.423017 0.813577 0.500000
O O6 0.500000 0.753464 0.573753
O O7 0.351839 0.708429 0.571913
O O8 0.407235 0.000000 0.572545
O O9 0.118372 0.167669 0.924201
O O10 0.000000 0.000000 0.942568
O O11 0.114096 0.000000 0.000000
O O12 0.885263 0.500000 0.089687
O O13 0.000000 0.314297 0.103886
O O14 0.927608 0.741373 0.577711
O O15 0.000000 0.734161 0.500000
O O16 0.000000 0.000000 0.549497
O O17 0.864296 0.276038 0.659510
O O18 0.785212 0.209546 0.585221
O O19 0.877193 0.000000 0.619856
O O20 0.920839 0.500000 0.712514
O O21 0.000000 0.755501 0.692968
O O22 0.738917 0.255042 0.500000
O O23 0.754452 0.500000 0.442030
#
# Coordination Sequence:
#
# PCOD8194763 Si02
#       8
#     8   8   4   8   4   8   8   8
#     4   9  15  24  38  52  65  81 105 135 170 208
#     4   8  14  26  44  63  79  94 113 135 158 189
#     4   9  16  24  32  44  64  86 108 132 160 200
#     4   9  15  23  34  47  63  82 106 134 165 201
#     4   9  18  30  43  55  65  83 115 149 175 204
#     4  11  20  31  44  55  71  91 118 148 175 209
#     4  10  19  29  40  54  71  87 107 140 182 218
#     4  10  20  31  42  58  78  97 115 136 168 207
#
# _framework density 12.938181
#
# number of rings (size 3 to 8) (size 9 to 14) (size 15 to 20)
#    0.000    2.571    1.429    2.571    0.000    4.286 
#    0.000    2.857    0.000    1.714    0.000    0.000 
#    0.000    0.000    0.000    0.000    0.000    0.000 
#
# Total GULP energy -693989.899251 kJ/mol
# GULP energy per Si atom -12392.676772 kJ/mol
# Density = 1.290873 g / cm^3
# Si number density = 12.938181 Si / 1000 Ang^3
#
#
#
# Elastic Constant Matrix: (Units=GPa)
#
#
# Indices 1 2 3 4 5 6 
#
# 1 46.1710 8.7031 16.3429 0.0000 0.0000 0.0000
# 2 8.7031 62.3329 30.5527 0.0000 0.0000 0.0000
# 3 16.3429 30.5527 78.6924 0.0000 0.0000 0.0000
# 4 0.0000 0.0000 0.0000 17.0529 0.0000 0.0000
# 5 0.0000 0.0000 0.0000 0.0000 2.7864 0.0000
# 6 0.0000 0.0000 0.0000 0.0000 0.0000 11.0285
#
#
#
# Elastic Compliance Matrix: (Units=1/GPa)
#
#
# Indices 1 2 3 4 5 6 
#
# 1 0.023437 -0.001095 -0.004442 0.000000 0.000000 0.000000
# 2 -0.001095 0.019865 -0.007485 0.000000 0.000000 0.000000
# 3 -0.004442 -0.007485 0.016536 0.000000 0.000000 0.000000
# 4 0.000000 0.000000 0.000000 0.058641 0.000000 0.000000
# 5 0.000000 0.000000 0.000000 0.000000 0.358881 0.000000
# 6 0.000000 0.000000 0.000000 0.000000 0.000000 0.090674
#
#
# Mechanical properties :
#
#
# Convention : Reuss Voigt Hill
#
# Bulk Modulus (GPa) = 29.59140 33.15485 31.37312
# Shear Modulus (GPa) = 8.25976 14.94675 11.60325
#
# Velocity S-wave (km/s) = 2.52940 3.40257 2.99795
# Velocity P-wave (km/s) = 5.60817 6.41232 6.02368
#
# Compressibility (1/GPa) = 0.03379360
#
# Stress axis : x y z
#
# Youngs Moduli (GPa) = 42.66673 50.34073 60.47255
#
# Poissons Ratio (x) = 0.05512 0.26864
# Poissons Ratio (y) = 0.04672 0.45264
# Poissons Ratio (z) = 0.18954 0.37681
#
# Static dielectric constant tensor:
#      x y z
#    x 2.386710 0.000000 0.000000 
#    y 0.000000 2.710740 0.000000 
#    z 0.000000 0.000000 2.559940 
# 
# 
# High freq. dielectric constant tensor:
#      x y z
#    x 1.428980 0.000000 0.000000 
#    y 0.000000 1.504690 0.000000 
#    z 0.000000 0.000000 1.472360 
# 
# From -- ./inp_files/34637.got.cif
#   From: 2010.03.12/outbox.cif.g09.slc.cpg/sg47_18_cif.got.tgz:34637.got - 2010.04.14 03:12:58.
