data_PCOD8194257
_publ_section_title
;
Structure prediction by ZEFSAII (Michael W. Deem and Ramdas Pophale) SiO2 
 PCOD8194257
Probable space group: P M M M
;
_chemical_formula_sum "Si O2"
_cell_formula_units_Z 40
_cell_length_a 24.583495
_cell_length_b 9.121515
_cell_length_c 10.339099
_cell_angle_alpha 90.000000
_cell_angle_beta 90.000000
_cell_angle_gamma 90.000000
_cell_volume 2318.426309
_symmetry_space_group_name_H-M "P M M M"
_symmetry_group_IT_number 47
_symmetry_cell_setting 'orthorhombic'
loop_
_space_group_symop_operation_xyz
x,y,z
-x,-y,z
x,-y,-z
-x,y,-z
-x,-y,-z
x,y,-z
-x,y,z
x,-y,z
loop_
_atom_site_type_symbol
_atom_site_label
_atom_site_fract_x
_atom_site_fract_y
_atom_site_fract_z
Si Si1 0.373802 0.174192 0.752123
Si Si2 0.837248 0.836135 0.846349
Si Si3 0.940058 0.664730 0.153823
Si Si4 0.561436 0.826126 0.500000
Si Si5 0.439691 0.826091 0.000000
Si Si6 0.270761 0.672757 0.150116
O O1 0.405765 0.228060 0.625352
O O2 0.408859 0.229645 0.873375
O O3 0.315798 0.253086 0.758996
O O4 0.364703 0.000000 0.753293
O O5 0.893074 0.768901 0.788318
O O6 0.786870 0.736053 0.802651
O O7 0.829790 0.000000 0.790934
O O8 0.840729 0.839692 0.000000
O O9 0.930577 0.500000 0.205504
O O10 0.000000 0.721282 0.197436
O O11 0.936619 0.663977 0.000000
O O12 0.500000 0.760922 0.500000
O O13 0.557409 0.000000 0.500000
O O14 0.500000 0.757985 0.000000
O O15 0.443086 0.000000 0.000000
O O16 0.270626 0.500000 0.171790
O O17 0.281725 0.713492 0.000000
#
# Coordination Sequence:
#
# PCOD8194257 Si02
#       6
#     8   8   8   4   4   8
#     4  10  18  30  49  71  94 119 150 188 227 272
#     4   9  16  24  36  55  79 108 146 191 235 276
#     4   8  13  21  32  47  72 109 150 187 225 272
#     4   9  18  32  51  75  99 121 148 185 230 279
#     4   9  16  26  45  71  93 115 146 183 220 261
#     4  10  19  30  44  62  87 117 151 191 235 280
#
# _framework density 17.253081999999999
#
# number of rings (size 3 to 8) (size 9 to 14) (size 15 to 20)
#    0.000    2.800    1.000    2.400    0.000    6.000 
#    0.000    2.500    0.000    3.600    0.000    0.000 
#    0.000    0.000    0.000    0.900    0.000   17.800 
#
# Total GULP energy -495870.752863 kJ/mol
# GULP energy per Si atom -12396.768822 kJ/mol
# Density = 1.721381 g / cm^3
# Si number density = 17.253082 Si / 1000 Ang^3
#
#
#
# Elastic Constant Matrix: (Units=GPa)
#
#
# Indices 1 2 3 4 5 6 
#
# 1 176.7606 62.1206 47.9279 0.0000 0.0000 0.0000
# 2 62.1206 74.5052 22.3435 0.0000 0.0000 0.0000
# 3 47.9279 22.3435 71.3643 0.0000 0.0000 0.0000
# 4 0.0000 0.0000 0.0000 7.3614 0.0000 0.0000
# 5 0.0000 0.0000 0.0000 0.0000 13.7327 0.0000
# 6 0.0000 0.0000 0.0000 0.0000 0.0000 19.9531
#
#
#
# Elastic Compliance Matrix: (Units=1/GPa)
#
#
# Indices 1 2 3 4 5 6 
#
# 1 0.008953 -0.006248 -0.004057 0.000000 0.000000 0.000000
# 2 -0.006248 0.019173 -0.001807 0.000000 0.000000 0.000000
# 3 -0.004057 -0.001807 0.017303 0.000000 0.000000 0.000000
# 4 0.000000 0.000000 0.000000 0.135843 0.000000 0.000000
# 5 0.000000 0.000000 0.000000 0.000000 0.072819 0.000000
# 6 0.000000 0.000000 0.000000 0.000000 0.000000 0.050118
#
#
# Mechanical properties :
#
#
# Convention : Reuss Voigt Hill
#
# Bulk Modulus (GPa) = 47.15645 65.26822 56.21234
# Shear Modulus (GPa) = 14.90308 20.89197 17.89753
#
# Velocity S-wave (km/s) = 2.94222 3.48359 3.22429
# Velocity P-wave (km/s) = 6.23969 7.35476 6.82006
#
# Compressibility (1/GPa) = 0.02120600
#
# Stress axis : x y z
#
# Youngs Moduli (GPa) = 111.69119 52.15535 57.79457
#
# Poissons Ratio (x) = 0.32589 0.23445
# Poissons Ratio (y) = 0.69790 0.10441
# Poissons Ratio (z) = 0.45309 0.09422
#
# Static dielectric constant tensor:
#      x y z
#    x 3.521680 0.000000 0.000000 
#    y 0.000000 3.087890 0.000000 
#    z 0.000000 0.000000 2.745500 
# 
# 
# High freq. dielectric constant tensor:
#      x y z
#    x 1.687670 0.000000 0.000000 
#    y 0.000000 1.648260 0.000000 
#    z 0.000000 0.000000 1.599410 
# 
# From -- ./inp_files/12982.got.cif
#   From: 2010.03.12/outbox.cif.g09.slc.cpg/sg47_7_cif.got.tgz:12982.got - 2010.04.14 03:12:58.
