data_PCOD8194782
_publ_section_title
;
Structure prediction by ZEFSAII (Michael W. Deem and Ramdas Pophale) SiO2 
 PCOD8194782
Probable space group: P M M M
;
_chemical_formula_sum "Si O2"
_cell_formula_units_Z 64
_cell_length_a 15.670514
_cell_length_b 14.628150
_cell_length_c 17.896625
_cell_angle_alpha 90.000000
_cell_angle_beta 90.000000
_cell_angle_gamma 90.000000
_cell_volume 4102.454612
_symmetry_space_group_name_H-M "P M M M"
_symmetry_group_IT_number 47
_symmetry_cell_setting 'orthorhombic'
loop_
_space_group_symop_operation_xyz
x,y,z
-x,-y,z
x,-y,-z
-x,y,-z
-x,-y,-z
x,y,-z
-x,y,z
x,-y,z
loop_
_atom_site_type_symbol
_atom_site_label
_atom_site_fract_x
_atom_site_fract_y
_atom_site_fract_z
Si Si1 0.594999 0.391322 0.915568
Si Si2 0.810313 0.397145 0.341363
Si Si3 0.751560 0.608227 0.820128
Si Si4 0.243350 0.102134 0.411289
Si Si5 0.638848 0.401986 0.414049
Si Si6 0.903353 0.760441 0.413022
Si Si7 0.093867 0.608732 0.916247
Si Si8 0.407078 0.208302 0.588666
O O1 0.500000 0.355449 0.893979
O O2 0.595452 0.500000 0.912659
O O3 0.664619 0.351219 0.856867
O O4 0.618427 0.359624 0.000000
O O5 0.847420 0.500000 0.331383
O O6 0.761150 0.364374 0.266357
O O7 0.740918 0.392317 0.407245
O O8 0.887158 0.330281 0.363839
O O9 0.749830 0.500000 0.829815
O O10 0.833669 0.650189 0.862729
O O11 0.248658 0.097761 0.500000
O O12 0.161006 0.160119 0.386126
O O13 0.330362 0.147182 0.378222
O O14 0.234932 0.000000 0.378155
O O15 0.613759 0.407139 0.500000
O O16 0.610218 0.500000 0.376259
O O17 0.595368 0.312160 0.378216
O O18 0.889080 0.737280 0.500000
O O19 0.000000 0.793669 0.398465
O O20 0.097204 0.500000 0.915077
O O21 0.000000 0.641559 0.888872
O O22 0.111048 0.644232 0.000000
O O23 0.394579 0.214272 0.500000
O O24 0.500000 0.165792 0.608985
#
# Coordination Sequence:
#
# PCOD8194782 Si02
#       8
#     8   8   8   8   8   8   8   8
#     4   8  13  22  37  55  74  99 133 172 209 242
#     4  10  19  29  41  57  79 108 141 176 215 254
#     4   9  16  24  35  52  75 100 129 167 208 247
#     4   9  17  30  47  65  84 101 121 162 218 266
#     4   9  16  27  42  55  73 106 145 180 209 239
#     4  10  20  33  48  63  79 103 138 178 219 263
#     4   8  13  21  33  48  66  90 121 156 193 234
#     4   9  16  26  42  63  83 102 127 161 203 249
#
# _framework density 15.600417
#
# number of rings (size 3 to 8) (size 9 to 14) (size 15 to 20)
#    0.000    3.000    1.250    1.500    0.000    3.750 
#    0.000    6.250    0.000    2.250    0.000    0.000 
#    0.000    0.000    0.000    0.000    0.000    2.500 
#
# Total GULP energy -792894.343331 kJ/mol
# GULP energy per Si atom -12388.974115 kJ/mol
# Density = 1.556491 g / cm^3
# Si number density = 15.600417 Si / 1000 Ang^3
#
#
#
# Elastic Constant Matrix: (Units=GPa)
#
#
# Indices 1 2 3 4 5 6 
#
# 1 127.3189 45.9616 29.6000 0.0000 0.0000 0.0000
# 2 45.9616 74.5972 19.1148 0.0000 0.0000 0.0000
# 3 29.6000 19.1148 36.2812 0.0000 0.0000 0.0000
# 4 0.0000 0.0000 0.0000 2.5716 0.0000 0.0000
# 5 0.0000 0.0000 0.0000 0.0000 15.5234 0.0000
# 6 0.0000 0.0000 0.0000 0.0000 0.0000 8.6344
#
#
#
# Elastic Compliance Matrix: (Units=1/GPa)
#
#
# Indices 1 2 3 4 5 6 
#
# 1 0.011251 -0.005295 -0.006390 0.000000 0.000000 0.000000
# 2 -0.005295 0.017989 -0.005158 0.000000 0.000000 0.000000
# 3 -0.006390 -0.005158 0.035493 0.000000 0.000000 0.000000
# 4 0.000000 0.000000 0.000000 0.388856 0.000000 0.000000
# 5 0.000000 0.000000 0.000000 0.000000 0.064419 0.000000
# 6 0.000000 0.000000 0.000000 0.000000 0.000000 0.115815
#
#
# Mechanical properties :
#
#
# Convention : Reuss Voigt Hill
#
# Bulk Modulus (GPa) = 32.20758 47.50557 39.85658
# Shear Modulus (GPa) = 7.37617 14.91395 11.14506
#
# Velocity S-wave (km/s) = 2.17680 3.09527 2.67574
# Velocity P-wave (km/s) = 5.19693 6.57966 5.92874
#
# Compressibility (1/GPa) = 0.03104859
#
# Stress axis : x y z
#
# Youngs Moduli (GPa) = 88.87887 55.58841 28.17464
#
# Poissons Ratio (x) = 0.29434 0.18003
# Poissons Ratio (y) = 0.47061 0.14532
# Poissons Ratio (z) = 0.56791 0.28672
#
# Static dielectric constant tensor:
#      x y z
#    x 3.220640 0.000000 0.000000 
#    y 0.000000 2.742930 0.000000 
#    z 0.000000 0.000000 2.741720 
# 
# 
# High freq. dielectric constant tensor:
#      x y z
#    x 1.612690 0.000000 0.000000 
#    y 0.000000 1.540030 0.000000 
#    z 0.000000 0.000000 1.556570 
# 
# From -- ./inp_files/28350.got.cif
#   From: 2010.03.12/outbox.cif.g09.slc.cpg/sg47_15_cif.got.tgz:28350.got - 2010.04.14 03:12:58.
