data_PCOD8194547
_publ_section_title
;
Structure prediction by ZEFSAII (Michael W. Deem and Ramdas Pophale) SiO2 
 PCOD8194547
Probable space group: P M M M
;
_chemical_formula_sum "Si O2"
_cell_formula_units_Z 40
_cell_length_a 20.385699
_cell_length_b 11.853170
_cell_length_c 8.982799
_cell_angle_alpha 90.000000
_cell_angle_beta 90.000000
_cell_angle_gamma 90.000000
_cell_volume 2170.560036
_symmetry_space_group_name_H-M "P M M M"
_symmetry_group_IT_number 47
_symmetry_cell_setting 'orthorhombic'
loop_
_space_group_symop_operation_xyz
x,y,z
-x,-y,z
x,-y,-z
-x,y,-z
-x,-y,-z
x,y,-z
-x,y,z
x,-y,z
loop_
_atom_site_type_symbol
_atom_site_label
_atom_site_fract_x
_atom_site_fract_y
_atom_site_fract_z
Si Si1 0.574490 0.872094 0.824984
Si Si2 0.904154 0.000000 0.322769
Si Si3 0.072178 0.229389 0.171252
Si Si4 0.756552 0.000000 0.676055
Si Si5 0.308696 0.225629 0.324442
Si Si6 0.813218 0.630625 0.674709
O O1 0.500000 0.842844 0.780637
O O2 0.619569 0.774149 0.750895
O O3 0.591216 0.000000 0.768674
O O4 0.584139 0.866327 0.000000
O O5 0.936328 0.888506 0.256271
O O6 0.912853 0.000000 0.500000
O O7 0.829998 0.000000 0.267074
O O8 0.127693 0.307348 0.243212
O O9 0.000000 0.288246 0.182708
O O10 0.091299 0.208126 0.000000
O O11 0.722624 0.889010 0.738654
O O12 0.754543 0.000000 0.500000
O O13 0.318924 0.227328 0.500000
O O14 0.259004 0.325257 0.275111
O O15 0.822366 0.654159 0.500000
O O16 0.816602 0.500000 0.715905
#
# Coordination Sequence:
#
# PCOD8194547 Si02
#       6
#     8   4   8   4   8   8
#     4   9  18  31  47  74 112 146 174 207 253 315
#     4  11  20  36  59  83 113 145 179 219 268 328
#     4  11  24  39  55  80 114 146 178 222 276 331
#     4   9  16  28  49  78 106 132 167 217 268 315
#     4  10  18  32  53  78 107 135 171 221 271 318
#     4  10  22  40  60  80 103 138 187 236 278 324
#
# _framework density 18.428422999999999
#
# number of rings (size 3 to 8) (size 9 to 14) (size 15 to 20)
#    0.000    2.000    3.000    1.800    0.000    4.800 
#    0.000    3.000    0.000    0.600    0.000    4.200 
#    0.000    0.000    0.000    0.000    0.000    0.000 
#
# Total GULP energy -495765.942346 kJ/mol
# GULP energy per Si atom -12394.148559 kJ/mol
# Density = 1.838648 g / cm^3
# Si number density = 18.428423 Si / 1000 Ang^3
#
#
#
# Elastic Constant Matrix: (Units=GPa)
#
#
# Indices 1 2 3 4 5 6 
#
# 1 151.5511 60.8035 55.1018 0.0000 0.0000 0.0000
# 2 60.8035 104.8292 47.6846 0.0000 0.0000 0.0000
# 3 55.1018 47.6846 67.7355 0.0000 0.0000 0.0000
# 4 0.0000 0.0000 0.0000 16.8706 0.0000 0.0000
# 5 0.0000 0.0000 0.0000 0.0000 33.4957 0.0000
# 6 0.0000 0.0000 0.0000 0.0000 0.0000 36.0943
#
#
#
# Elastic Compliance Matrix: (Units=1/GPa)
#
#
# Indices 1 2 3 4 5 6 
#
# 1 0.010007 -0.003091 -0.005965 0.000000 0.000000 0.000000
# 2 -0.003091 0.014988 -0.008037 0.000000 0.000000 0.000000
# 3 -0.005965 -0.008037 0.025273 0.000000 0.000000 0.000000
# 4 0.000000 0.000000 0.000000 0.059275 0.000000 0.000000
# 5 0.000000 0.000000 0.000000 0.000000 0.029855 0.000000
# 6 0.000000 0.000000 0.000000 0.000000 0.000000 0.027705
#
#
# Mechanical properties :
#
#
# Convention : Reuss Voigt Hill
#
# Bulk Modulus (GPa) = 62.17578 72.36620 67.27099
# Shear Modulus (GPa) = 24.19561 27.99385 26.09473
#
# Velocity S-wave (km/s) = 3.62740 3.90174 3.76707
# Velocity P-wave (km/s) = 7.16633 7.72348 7.45012
#
# Compressibility (1/GPa) = 0.01608343
#
# Stress axis : x y z
#
# Youngs Moduli (GPa) = 99.92667 66.71984 39.56792
#
# Poissons Ratio (x) = 0.20625 0.23601
# Poissons Ratio (y) = 0.30891 0.31799
# Poissons Ratio (z) = 0.59602 0.53620
#
# Static dielectric constant tensor:
#      x y z
#    x 3.640900 0.000000 0.000000 
#    y 0.000000 3.304130 0.000000 
#    z 0.000000 0.000000 3.206710 
# 
# 
# High freq. dielectric constant tensor:
#      x y z
#    x 1.732700 0.000000 0.000000 
#    y 0.000000 1.685030 0.000000 
#    z 0.000000 0.000000 1.703130 
# 
# From -- ./inp_files/4107.got.cif
#   From: 2010.03.12/outbox.cif.g09.slc.cpg/sg47_3_cif.got.tgz:4107.got - 2010.04.14 03:12:58.
