data_PCOD8194008
_publ_section_title
;
Structure prediction by ZEFSAII (Michael W. Deem and Ramdas Pophale) SiO2 
 PCOD8194008
Probable space group: P M M M
;
_chemical_formula_sum "Si O2"
_cell_formula_units_Z 48
_cell_length_a 23.365823
_cell_length_b 17.174291
_cell_length_c 9.311899
_cell_angle_alpha 90.000000
_cell_angle_beta 90.000000
_cell_angle_gamma 90.000000
_cell_volume 3736.785393
_symmetry_space_group_name_H-M "P M M M"
_symmetry_group_IT_number 47
_symmetry_cell_setting 'orthorhombic'
loop_
_space_group_symop_operation_xyz
x,y,z
-x,-y,z
x,-y,-z
-x,y,-z
-x,-y,-z
x,y,-z
-x,y,z
x,-y,z
loop_
_atom_site_type_symbol
_atom_site_label
_atom_site_fract_x
_atom_site_fract_y
_atom_site_fract_z
Si Si1 0.563170 0.092593 0.338706
Si Si2 0.936206 0.334477 0.670333
Si Si3 0.220959 0.910055 0.333622
Si Si4 0.896240 0.170120 0.330779
Si Si5 0.068349 0.500000 0.658350
Si Si6 0.330640 0.092832 0.838606
Si Si7 0.000000 0.092033 0.833454
O O1 0.574031 0.123263 0.500000
O O2 0.500000 0.119384 0.285178
O O3 0.612159 0.127330 0.235563
O O4 0.566336 0.000000 0.338184
O O5 0.938874 0.345029 0.500000
O O6 0.896310 0.261669 0.712157
O O7 0.913292 0.417901 0.735554
O O8 0.000000 0.315840 0.728547
O O9 0.235632 0.898384 0.500000
O O10 0.165495 0.861903 0.286606
O O11 0.274636 0.877259 0.244704
O O12 0.208744 0.000000 0.298067
O O13 0.908708 0.158258 0.500000
O O14 0.943688 0.124421 0.242560
O O15 0.095898 0.500000 0.500000
O O16 0.000000 0.500000 0.648084
O O17 0.332297 0.000000 0.835032
O O18 0.328359 0.124955 0.000000
O O19 0.000000 0.000000 0.815855
O O20 0.000000 0.116983 0.000000
#
# Coordination Sequence:
#
# PCOD8194008 Si02
#       7
#     8   8   8   8   4   8   4
#     4   8  13  21  33  48  65  84 105 132 168 205
#     4   8  12  20  35  56  76  89 103 130 167 207
#     4   9  17  27  37  48  62  83 112 145 178 206
#     4  10  18  29  44  57  67  84 115 149 175 205
#     4   7  10  16  30  54  80  94  98 116 161 210
#     4   9  16  24  34  47  63  84 109 138 170 204
#     4  11  23  33  39  50  69  90 110 139 183 225
#
# _framework density 12.845266000000001
#
# number of rings (size 3 to 8) (size 9 to 14) (size 15 to 20)
#    0.000    3.167    0.833    2.750    0.000    4.333 
#    0.000    3.333    0.000    0.000    0.000    1.167 
#    0.000    0.000    0.000    0.000    0.000    0.000 
#
# Total GULP energy -594701.679052 kJ/mol
# GULP energy per Si atom -12389.618314 kJ/mol
# Density = 1.281603 g / cm^3
# Si number density = 12.845266 Si / 1000 Ang^3
#
#
#
# Elastic Constant Matrix: (Units=GPa)
#
#
# Indices 1 2 3 4 5 6 
#
# 1 113.1416 41.0755 52.5729 0.0000 0.0000 0.0000
# 2 41.0755 62.7907 23.4256 0.0000 0.0000 0.0000
# 3 52.5729 23.4256 58.1262 0.0000 0.0000 0.0000
# 4 0.0000 0.0000 0.0000 4.5932 0.0000 0.0000
# 5 0.0000 0.0000 0.0000 0.0000 9.9226 0.0000
# 6 0.0000 0.0000 0.0000 0.0000 0.0000 1.4605
#
#
#
# Elastic Compliance Matrix: (Units=1/GPa)
#
#
# Indices 1 2 3 4 5 6 
#
# 1 0.017189 -0.006408 -0.012964 0.000000 0.000000 0.000000
# 2 -0.006408 0.021133 -0.002721 0.000000 0.000000 0.000000
# 3 -0.012964 -0.002721 0.030026 0.000000 0.000000 0.000000
# 4 0.000000 0.000000 0.000000 0.217711 0.000000 0.000000
# 5 0.000000 0.000000 0.000000 0.000000 0.100780 0.000000
# 6 0.000000 0.000000 0.000000 0.000000 0.000000 0.684711
#
#
# Mechanical properties :
#
#
# Convention : Reuss Voigt Hill
#
# Bulk Modulus (GPa) = 41.38812 52.02294 46.70553
# Shear Modulus (GPa) = 4.44923 10.99423 7.72173
#
# Velocity S-wave (km/s) = 1.86312 2.92875 2.45446
# Velocity P-wave (km/s) = 6.07608 7.21279 6.66870
#
# Compressibility (1/GPa) = 0.02416152
#
# Stress axis : x y z
#
# Youngs Moduli (GPa) = 58.17761 47.31963 33.30420
#
# Poissons Ratio (x) = 0.30321 0.43176
# Poissons Ratio (y) = 0.37278 0.09063
# Poissons Ratio (z) = 0.75422 0.12877
#
# Static dielectric constant tensor:
#      x y z
#    x 2.645980 0.000000 0.000000 
#    y 0.000000 2.557500 0.000000 
#    z 0.000000 0.000000 2.525660 
# 
# 
# High freq. dielectric constant tensor:
#      x y z
#    x 1.475770 0.000000 0.000000 
#    y 0.000000 1.447180 0.000000 
#    z 0.000000 0.000000 1.473440 
# 
# From -- ./inp_files/11425.got.cif
#   From: 2010.03.12/outbox.cif.g09.slc.cpg/sg47_6_cif.got.tgz:11425.got - 2010.04.14 03:12:58.
