data_PCOD8194903
_publ_section_title
;
Structure prediction by ZEFSAII (Michael W. Deem and Ramdas Pophale) SiO2 
 PCOD8194903
Probable space group: P M M M
;
_chemical_formula_sum "Si O2"
_cell_formula_units_Z 64
_cell_length_a 20.917940
_cell_length_b 19.459774
_cell_length_c 9.131804
_cell_angle_alpha 90.000000
_cell_angle_beta 90.000000
_cell_angle_gamma 90.000000
_cell_volume 3717.177388
_symmetry_space_group_name_H-M "P M M M"
_symmetry_group_IT_number 47
_symmetry_cell_setting 'orthorhombic'
loop_
_space_group_symop_operation_xyz
x,y,z
-x,-y,z
x,-y,-z
-x,y,-z
-x,-y,-z
x,y,-z
-x,y,z
x,-y,z
loop_
_atom_site_type_symbol
_atom_site_label
_atom_site_fract_x
_atom_site_fract_y
_atom_site_fract_z
Si Si1 0.068036 0.192925 0.832280
Si Si2 0.428925 0.923291 0.674248
Si Si3 0.426725 0.419822 0.167405
Si Si4 0.806260 0.339911 0.833891
Si Si5 0.679445 0.336130 0.326829
Si Si6 0.798091 0.823755 0.837861
Si Si7 0.070456 0.666471 0.670912
Si Si8 0.323337 0.178936 0.672058
O O1 0.130877 0.145488 0.800268
O O2 0.066338 0.254749 0.718450
O O3 0.000000 0.152178 0.817109
O O4 0.075003 0.221353 0.000000
O O5 0.428413 0.920062 0.500000
O O6 0.500000 0.905344 0.732017
O O7 0.379803 0.867578 0.740489
O O8 0.409338 0.000000 0.725937
O O9 0.500000 0.400319 0.202228
O O10 0.415454 0.500000 0.194337
O O11 0.382044 0.378472 0.277463
O O12 0.410082 0.400512 0.000000
O O13 0.743295 0.366503 0.748451
O O14 0.807313 0.257924 0.825161
O O15 0.871236 0.369961 0.759071
O O16 0.802851 0.367026 0.000000
O O17 0.687889 0.341828 0.500000
O O18 0.667455 0.257362 0.277068
O O19 0.744579 0.850780 0.727184
O O20 0.775788 0.845139 0.000000
O O21 0.087254 0.662846 0.500000
O O22 0.000000 0.632363 0.701474
O O23 0.323155 0.172272 0.500000
#
# Coordination Sequence:
#
# PCOD8194903 Si02
#       8
#     8   8   8   8   8   8   8   8
#     4   8  13  21  32  46  67 100 141 175 203 246
#     4   8  14  26  44  63  82 107 141 178 212 249
#     4   9  19  36  54  69  88 117 151 183 214 254
#     4   9  16  26  39  54  78 114 151 182 213 257
#     4  10  19  29  44  68  95 118 142 179 226 270
#     4   8  14  23  35  52  76 107 138 169 208 252
#     4   9  15  21  31  50  77 108 142 181 223 262
#     4   9  17  27  41  63  88 112 139 175 217 259
#
# _framework density 17.217365000000001
#
# number of rings (size 3 to 8) (size 9 to 14) (size 15 to 20)
#    0.000    3.250    0.000    2.625    0.000    5.250 
#    0.000    1.875    0.000    0.750    0.000    0.875 
#    0.000    1.000    0.000   11.500    0.000   10.500 
#
# Total GULP energy -792854.013013 kJ/mol
# GULP energy per Si atom -12388.343953 kJ/mol
# Density = 1.717818 g / cm^3
# Si number density = 17.217365 Si / 1000 Ang^3
#
#
#
# Elastic Constant Matrix: (Units=GPa)
#
#
# Indices 1 2 3 4 5 6 
#
# 1 166.5376 44.4531 50.9677 0.0000 0.0000 0.0000
# 2 44.4531 31.1649 20.1420 0.0000 0.0000 0.0000
# 3 50.9677 20.1420 63.3129 0.0000 0.0000 0.0000
# 4 0.0000 0.0000 0.0000 8.8149 0.0000 0.0000
# 5 0.0000 0.0000 0.0000 0.0000 33.4277 0.0000
# 6 0.0000 0.0000 0.0000 0.0000 0.0000 1.2342
#
#
#
# Elastic Compliance Matrix: (Units=1/GPa)
#
#
# Indices 1 2 3 4 5 6 
#
# 1 0.010718 -0.012226 -0.004739 0.000000 0.000000 0.000000
# 2 -0.012226 0.054337 -0.007445 0.000000 0.000000 0.000000
# 3 -0.004739 -0.007445 0.021978 0.000000 0.000000 0.000000
# 4 0.000000 0.000000 0.000000 0.113445 0.000000 0.000000
# 5 0.000000 0.000000 0.000000 0.000000 0.029915 0.000000
# 6 0.000000 0.000000 0.000000 0.000000 0.000000 0.810251
#
#
# Mechanical properties :
#
#
# Convention : Reuss Voigt Hill
#
# Bulk Modulus (GPa) = 26.16786 54.68233 40.42509
# Shear Modulus (GPa) = 4.53637 18.39219 11.46428
#
# Velocity S-wave (km/s) = 1.62496 3.27193 2.58322
# Velocity P-wave (km/s) = 4.33038 6.78992 5.69452
#
# Compressibility (1/GPa) = 0.03821482
#
# Stress axis : x y z
#
# Youngs Moduli (GPa) = 93.29830 18.40357 45.50012
#
# Poissons Ratio (x) = 0.22499 0.21563
# Poissons Ratio (y) = 1.14063 0.33874
# Poissons Ratio (z) = 0.44214 0.13701
#
# Static dielectric constant tensor:
#      x y z
#    x 3.855390 0.000000 0.000000 
#    y 0.000000 2.698660 0.000000 
#    z 0.000000 0.000000 3.102150 
# 
# 
# High freq. dielectric constant tensor:
#      x y z
#    x 1.693990 0.000000 0.000000 
#    y 0.000000 1.586990 0.000000 
#    z 0.000000 0.000000 1.655890 
# 
# From -- ./inp_files/11580.got.cif
#   From: 2010.03.12/outbox.cif.g09.slc.cpg/sg47_6_cif.got.tgz:11580.got - 2010.04.14 03:12:58.
