data_PCOD8194094
_publ_section_title
;
Structure prediction by ZEFSAII (Michael W. Deem and Ramdas Pophale) SiO2 
 PCOD8194094
Probable space group: P M M M
;
_chemical_formula_sum "Si O2"
_cell_formula_units_Z 52
_cell_length_a 9.212077
_cell_length_b 10.617057
_cell_length_c 29.456938
_cell_angle_alpha 90.000000
_cell_angle_beta 90.000000
_cell_angle_gamma 90.000000
_cell_volume 2881.040139
_symmetry_space_group_name_H-M "P M M M"
_symmetry_group_IT_number 47
_symmetry_cell_setting 'orthorhombic'
loop_
_space_group_symop_operation_xyz
x,y,z
-x,-y,z
x,-y,-z
-x,y,-z
-x,-y,-z
x,y,-z
-x,y,z
x,-y,z
loop_
_atom_site_type_symbol
_atom_site_label
_atom_site_fract_x
_atom_site_fract_y
_atom_site_fract_z
Si Si1 0.658176 0.355152 0.048855
Si Si2 0.172193 0.853846 0.609420
Si Si3 0.828649 0.779585 0.884718
Si Si4 0.827007 0.000000 0.050931
Si Si5 0.164621 0.149800 0.786537
Si Si6 0.662382 0.148733 0.299588
Si Si7 0.333666 0.642661 0.553629
O O1 0.500000 0.293619 0.059415
O O2 0.634925 0.500000 0.041768
O O3 0.766624 0.344790 0.091936
O O4 0.718743 0.301029 0.000000
O O5 0.241218 0.814117 0.657291
O O6 0.232689 0.753406 0.573359
O O7 0.000000 0.839486 0.612676
O O8 0.212591 0.000000 0.596643
O O9 0.769116 0.882257 0.920415
O O10 0.768631 0.799186 0.833814
O O11 0.000000 0.780231 0.881610
O O12 0.000000 0.000000 0.049384
O O13 0.762421 0.000000 0.000000
O O14 0.262161 0.204167 0.745589
O O15 0.000000 0.197231 0.778997
O O16 0.167171 0.000000 0.788272
O O17 0.500000 0.205361 0.304546
O O18 0.654006 0.000000 0.295089
O O19 0.317723 0.651204 0.500000
O O20 0.500000 0.667974 0.568311
O O21 0.288010 0.500000 0.569365
#
# Coordination Sequence:
#
# PCOD8194094 Si02
#       7
#     8   8   8   4   8   8   8
#     4   9  19  35  50  63  84 116 152 191 236 281
#     4  10  20  33  51  78 110 142 178 222 271 316
#     4  10  18  29  47  71  94 120 152 187 228 279
#     4   9  16  26  41  65  97 125 147 177 222 275
#     4   9  16  28  45  67  98 129 156 189 239 298
#     4   9  17  29  47  71  98 130 169 210 251 295
#     4   9  19  36  56  78 107 145 186 224 264 314
#
# _framework density 18.049036999999998
#
# number of rings (size 3 to 8) (size 9 to 14) (size 15 to 20)
#    0.000    2.692    0.769    2.308    0.000    5.538 
#    0.000    3.462    0.000    2.308    0.000    4.308 
#    0.000    0.000    0.000    0.000    0.000    0.000 
#
# Total GULP energy -644233.416550 kJ/mol
# GULP energy per Si atom -12389.104164 kJ/mol
# Density = 1.800796 g / cm^3
# Si number density = 18.049037 Si / 1000 Ang^3
#
#
#
# Elastic Constant Matrix: (Units=GPa)
#
#
# Indices 1 2 3 4 5 6 
#
# 1 75.8916 34.3198 52.0004 0.0000 0.0000 0.0000
# 2 34.3198 58.0905 41.1233 0.0000 0.0000 0.0000
# 3 52.0004 41.1233 112.7072 0.0000 0.0000 0.0000
# 4 0.0000 0.0000 0.0000 16.2500 0.0000 0.0000
# 5 0.0000 0.0000 0.0000 0.0000 32.4810 0.0000
# 6 0.0000 0.0000 0.0000 0.0000 0.0000 21.8035
#
#
#
# Elastic Compliance Matrix: (Units=1/GPa)
#
#
# Indices 1 2 3 4 5 6 
#
# 1 0.021536 -0.007671 -0.007137 0.000000 0.000000 0.000000
# 2 -0.007671 0.025942 -0.005926 0.000000 0.000000 0.000000
# 3 -0.007137 -0.005926 0.014328 0.000000 0.000000 0.000000
# 4 0.000000 0.000000 0.000000 0.061538 0.000000 0.000000
# 5 0.000000 0.000000 0.000000 0.000000 0.030787 0.000000
# 6 0.000000 0.000000 0.000000 0.000000 0.000000 0.045864
#
#
# Mechanical properties :
#
#
# Convention : Reuss Voigt Hill
#
# Bulk Modulus (GPa) = 49.17181 55.73070 52.45126
# Shear Modulus (GPa) = 20.14155 22.05663 21.09909
#
# Velocity S-wave (km/s) = 3.34419 3.49956 3.42275
# Velocity P-wave (km/s) = 6.49723 6.87558 6.68908
#
# Compressibility (1/GPa) = 0.02033685
#
# Stress axis : x y z
#
# Youngs Moduli (GPa) = 46.43373 38.54797 69.79417
#
# Poissons Ratio (x) = 0.29569 0.49815
# Poissons Ratio (y) = 0.35618 0.41361
# Poissons Ratio (z) = 0.33142 0.22844
#
# Static dielectric constant tensor:
#      x y z
#    x 3.308520 0.000000 0.000000 
#    y 0.000000 3.148330 0.000000 
#    z 0.000000 0.000000 3.480060 
# 
# 
# High freq. dielectric constant tensor:
#      x y z
#    x 1.692540 0.000000 0.000000 
#    y 0.000000 1.663700 0.000000 
#    z 0.000000 0.000000 1.705770 
# 
# From -- ./inp_files/4818.got.cif
#   From: 2010.03.12/outbox.cif.g09.slc.cpg/sg47_3_cif.got.tgz:4818.got - 2010.04.14 03:12:58.
