data_PCOD8194792
_publ_section_title
;
Structure prediction by ZEFSAII (Michael W. Deem and Ramdas Pophale) SiO2 
 PCOD8194792
Probable space group: P M M M
;
_chemical_formula_sum "Si O2"
_cell_formula_units_Z 60
_cell_length_a 9.033715
_cell_length_b 18.108057
_cell_length_c 24.229980
_cell_angle_alpha 90.000000
_cell_angle_beta 90.000000
_cell_angle_gamma 90.000000
_cell_volume 3963.613452
_symmetry_space_group_name_H-M "P M M M"
_symmetry_group_IT_number 47
_symmetry_cell_setting 'orthorhombic'
loop_
_space_group_symop_operation_xyz
x,y,z
-x,-y,z
x,-y,-z
-x,y,-z
-x,-y,-z
x,y,-z
-x,y,z
x,-y,z
loop_
_atom_site_type_symbol
_atom_site_label
_atom_site_fract_x
_atom_site_fract_y
_atom_site_fract_z
Si Si1 0.666793 0.087461 0.500000
Si Si2 0.825406 0.417522 0.834984
Si Si3 0.171358 0.323918 0.938337
Si Si4 0.826132 0.086402 0.610803
Si Si5 0.323823 0.844694 0.715250
Si Si6 0.830659 0.914130 0.181862
Si Si7 0.334511 0.800531 0.884197
Si Si8 0.663493 0.702766 0.775229
O O1 0.500000 0.120273 0.500000
O O2 0.755837 0.114493 0.553609
O O3 0.659819 0.000000 0.500000
O O4 0.759326 0.500000 0.829811
O O5 0.772750 0.384487 0.894004
O O6 0.769301 0.367667 0.783777
O O7 0.000000 0.419805 0.831463
O O8 0.259062 0.246992 0.932557
O O9 0.000000 0.306267 0.927643
O O10 0.198010 0.355376 0.000000
O O11 0.748327 0.133911 0.657729
O O12 0.000000 0.102694 0.609967
O O13 0.794382 0.000000 0.621010
O O14 0.500000 0.856283 0.713882
O O15 0.258454 0.897184 0.762462
O O16 0.283689 0.758222 0.726612
O O17 0.760470 0.873471 0.128807
O O18 0.000000 0.888148 0.189910
O O19 0.820786 0.000000 0.168942
O O20 0.500000 0.823239 0.902373
O O21 0.338017 0.751375 0.829847
O O22 0.500000 0.672063 0.762350
#
# Coordination Sequence:
#
# PCOD8194792 Si02
#       8
#     4   8   8   8   8   8   8   8
#     4   9  17  29  43  57  77 111 152 189 224 259
#     4   9  17  28  43  64  87 110 136 164 195 236
#     4   9  17  29  45  63  83 108 135 163 197 237
#     4  10  19  29  41  59  84 114 149 187 224 259
#     4  10  19  29  42  61  84 110 142 178 212 248
#     4  10  19  29  42  61  83 105 131 166 209 254
#     4   9  17  29  44  60  79 104 133 165 201 243
#     4   8  16  29  42  58  80 107 137 166 200 243
#
# _framework density 15.137701
#
# number of rings (size 3 to 8) (size 9 to 14) (size 15 to 20)
#    0.000    2.733    0.000    3.000    0.000    8.800 
#    0.000    1.333    0.000    0.400    0.000    6.533 
#    0.000    0.000    0.000    0.600    0.000   11.200 
#
# Total GULP energy -743794.050857 kJ/mol
# GULP energy per Si atom -12396.567514 kJ/mol
# Density = 1.510325 g / cm^3
# Si number density = 15.137701 Si / 1000 Ang^3
#
#
#
# Elastic Constant Matrix: (Units=GPa)
#
#
# Indices 1 2 3 4 5 6 
#
# 1 86.5769 46.5505 36.0586 0.0000 0.0000 0.0000
# 2 46.5505 88.4040 44.8725 0.0000 0.0000 0.0000
# 3 36.0586 44.8725 65.5503 0.0000 0.0000 0.0000
# 4 0.0000 0.0000 0.0000 15.9975 0.0000 0.0000
# 5 0.0000 0.0000 0.0000 0.0000 23.1268 0.0000
# 6 0.0000 0.0000 0.0000 0.0000 0.0000 19.6026
#
#
#
# Elastic Compliance Matrix: (Units=1/GPa)
#
#
# Indices 1 2 3 4 5 6 
#
# 1 0.017108 -0.006485 -0.004972 0.000000 0.000000 0.000000
# 2 -0.006485 0.019793 -0.009982 0.000000 0.000000 0.000000
# 3 -0.004972 -0.009982 0.024824 0.000000 0.000000 0.000000
# 4 0.000000 0.000000 0.000000 0.062510 0.000000 0.000000
# 5 0.000000 0.000000 0.000000 0.000000 0.043240 0.000000
# 6 0.000000 0.000000 0.000000 0.000000 0.000000 0.051014
#
#
# Mechanical properties :
#
#
# Convention : Reuss Voigt Hill
#
# Bulk Modulus (GPa) = 53.05805 55.05494 54.05650
# Shear Modulus (GPa) = 18.68127 19.28203 18.98165
#
# Velocity S-wave (km/s) = 3.51677 3.57287 3.54493
# Velocity P-wave (km/s) = 7.18447 7.31224 7.24864
#
# Compressibility (1/GPa) = 0.01884728
#
# Stress axis : x y z
#
# Youngs Moduli (GPa) = 58.45273 50.52233 40.28424
#
# Poissons Ratio (x) = 0.32763 0.20028
# Poissons Ratio (y) = 0.37906 0.40213
# Poissons Ratio (z) = 0.29060 0.50432
#
# Static dielectric constant tensor:
#      x y z
#    x 3.106080 0.000000 0.000000 
#    y 0.000000 2.908750 0.000000 
#    z 0.000000 0.000000 2.824600 
# 
# 
# High freq. dielectric constant tensor:
#      x y z
#    x 1.593500 0.000000 0.000000 
#    y 0.000000 1.554270 0.000000 
#    z 0.000000 0.000000 1.552760 
# 
# From -- ./inp_files/32235.got.cif
#   From: 2010.03.12/outbox.cif.g09.slc.cpg/sg47_17_cif.got.tgz:32235.got - 2010.04.14 03:12:58.
