data_PCOD8194486
_publ_section_title
;
Structure prediction by ZEFSAII (Michael W. Deem and Ramdas Pophale) SiO2 
 PCOD8194486
Probable space group: P M M M
;
_chemical_formula_sum "Si O2"
_cell_formula_units_Z 64
_cell_length_a 9.108403
_cell_length_b 24.516292
_cell_length_c 15.291141
_cell_angle_alpha 90.000000
_cell_angle_beta 90.000000
_cell_angle_gamma 90.000000
_cell_volume 3414.577042
_symmetry_space_group_name_H-M "P M M M"
_symmetry_group_IT_number 47
_symmetry_cell_setting 'orthorhombic'
loop_
_space_group_symop_operation_xyz
x,y,z
-x,-y,z
x,-y,-z
-x,y,-z
-x,-y,-z
x,y,-z
-x,y,z
x,-y,z
loop_
_atom_site_type_symbol
_atom_site_label
_atom_site_fract_x
_atom_site_fract_y
_atom_site_fract_z
Si Si1 0.327584 0.764209 0.689748
Si Si2 0.331933 0.107398 0.095556
Si Si3 0.169118 0.851516 0.597979
Si Si4 0.829545 0.665753 0.097010
Si Si5 0.328450 0.641792 0.269726
Si Si6 0.831406 0.436381 0.599366
Si Si7 0.172212 0.788326 0.137116
Si Si8 0.170165 0.938347 0.741108
O O1 0.500000 0.773052 0.702915
O O2 0.267825 0.796297 0.605136
O O3 0.289254 0.700021 0.686790
O O4 0.236521 0.793088 0.766063
O O5 0.500000 0.117155 0.123002
O O6 0.252138 0.165417 0.082116
O O7 0.256458 0.070671 0.168912
O O8 0.322267 0.078389 0.000000
O O9 0.189327 0.874241 0.500000
O O10 0.225475 0.898320 0.664235
O O11 0.000000 0.836198 0.616030
O O12 0.739401 0.635209 0.172646
O O13 0.791369 0.729750 0.095947
O O14 0.000000 0.656504 0.117871
O O15 0.789748 0.642725 0.000000
O O16 0.500000 0.633630 0.258744
O O17 0.269179 0.595642 0.333355
O O18 0.785032 0.422015 0.500000
O O19 0.808057 0.500000 0.617100
O O20 0.000000 0.419945 0.614834
O O21 0.000000 0.799959 0.138974
O O22 0.000000 0.927733 0.761112
O O23 0.198117 0.000000 0.709140
#
# Coordination Sequence:
#
# PCOD8194486 Si02
#       8
#     8   8   8   8   8   8   8   8
#     4  10  20  34  52  78 114 150 181 215 264 322
#     4  11  23  36  53  79 109 141 175 214 266 326
#     4  10  21  37  58  83 108 138 177 220 271 329
#     4   9  18  32  51  77 110 149 190 229 270 318
#     4  10  21  34  52  82 117 152 187 225 273 328
#     4   9  19  37  60  84 110 144 189 238 283 327
#     4  10  18  31  53  79 107 140 180 223 267 315
#     4  10  22  40  60  80 103 135 177 226 274 323
#
# _framework density 18.743169999999999
#
# number of rings (size 3 to 8) (size 9 to 14) (size 15 to 20)
#    0.000    2.125    1.250    2.250    0.000    5.750 
#    0.000    5.625    0.000    0.375    0.000    4.375 
#    0.000    0.000    0.000    0.000    0.000    0.000 
#
# Total GULP energy -793498.817287 kJ/mol
# GULP energy per Si atom -12398.419020 kJ/mol
# Density = 1.870051 g / cm^3
# Si number density = 18.743170 Si / 1000 Ang^3
#
#
#
# Elastic Constant Matrix: (Units=GPa)
#
#
# Indices 1 2 3 4 5 6 
#
# 1 83.5032 37.9997 52.8890 0.0000 0.0000 0.0000
# 2 37.9997 67.6012 53.3976 0.0000 0.0000 0.0000
# 3 52.8890 53.3976 127.0150 0.0000 0.0000 0.0000
# 4 0.0000 0.0000 0.0000 19.7304 0.0000 0.0000
# 5 0.0000 0.0000 0.0000 0.0000 18.1307 0.0000
# 6 0.0000 0.0000 0.0000 0.0000 0.0000 25.1990
#
#
#
# Elastic Compliance Matrix: (Units=1/GPa)
#
#
# Indices 1 2 3 4 5 6 
#
# 1 0.017865 -0.006237 -0.004817 0.000000 0.000000 0.000000
# 2 -0.006237 0.024325 -0.007629 0.000000 0.000000 0.000000
# 3 -0.004817 -0.007629 0.013086 0.000000 0.000000 0.000000
# 4 0.000000 0.000000 0.000000 0.050683 0.000000 0.000000
# 5 0.000000 0.000000 0.000000 0.000000 0.055155 0.000000
# 6 0.000000 0.000000 0.000000 0.000000 0.000000 0.039684
#
#
# Mechanical properties :
#
#
# Convention : Reuss Voigt Hill
#
# Bulk Modulus (GPa) = 55.83635 62.96577 59.40106
# Shear Modulus (GPa) = 20.48055 21.53424 21.00740
#
# Velocity S-wave (km/s) = 3.30918 3.39324 3.35147
# Velocity P-wave (km/s) = 6.66752 7.00136 6.83647
#
# Compressibility (1/GPa) = 0.01790948
#
# Stress axis : x y z
#
# Youngs Moduli (GPa) = 55.97602 41.11021 76.41763
#
# Poissons Ratio (x) = 0.25642 0.36808
# Poissons Ratio (y) = 0.34915 0.58299
# Poissons Ratio (z) = 0.26962 0.31363
#
# Static dielectric constant tensor:
#      x y z
#    x 3.410270 0.000000 0.000000 
#    y 0.000000 3.260090 0.000000 
#    z 0.000000 0.000000 3.558320 
# 
# 
# High freq. dielectric constant tensor:
#      x y z
#    x 1.728740 0.000000 0.000000 
#    y 0.000000 1.705760 0.000000 
#    z 0.000000 0.000000 1.732620 
# 
# From -- ./inp_files/7846.got.cif
#   From: 2010.03.12/outbox.cif.g09.slc.cpg/sg47_4_cif.got.tgz:7846.got - 2010.04.14 03:12:58.
