data_PCOD8194811
_publ_section_title
;
Structure prediction by ZEFSAII (Michael W. Deem and Ramdas Pophale) SiO2 
 PCOD8194811
Probable space group: P M M M
;
_chemical_formula_sum "Si O2"
_cell_formula_units_Z 56
_cell_length_a 8.685464
_cell_length_b 21.684808
_cell_length_c 18.471687
_cell_angle_alpha 90.000000
_cell_angle_beta 90.000000
_cell_angle_gamma 90.000000
_cell_volume 3479.005911
_symmetry_space_group_name_H-M "P M M M"
_symmetry_group_IT_number 47
_symmetry_cell_setting 'orthorhombic'
loop_
_space_group_symop_operation_xyz
x,y,z
-x,-y,z
x,-y,-z
-x,y,-z
-x,-y,-z
x,y,-z
-x,y,z
x,-y,z
loop_
_atom_site_type_symbol
_atom_site_label
_atom_site_fract_x
_atom_site_fract_y
_atom_site_fract_z
Si Si1 0.677577 0.648486 0.207509
Si Si2 0.320780 0.179692 0.163666
Si Si3 0.178473 0.241014 0.711749
Si Si4 0.178567 0.070899 0.082829
Si Si5 0.182342 0.682266 0.419024
Si Si6 0.678488 0.431597 0.337069
Si Si7 0.181480 0.705006 0.917427
O O1 0.500000 0.670436 0.213173
O O2 0.793334 0.697784 0.241973
O O3 0.700842 0.585044 0.251618
O O4 0.732171 0.647764 0.123734
O O5 0.500000 0.192103 0.155059
O O6 0.273169 0.186018 0.249083
O O7 0.280331 0.111448 0.136846
O O8 0.229334 0.228996 0.115314
O O9 0.235593 0.259092 0.630324
O O10 0.000000 0.222747 0.712046
O O11 0.000000 0.086064 0.095256
O O12 0.213775 0.000000 0.101012
O O13 0.224083 0.085499 0.000000
O O14 0.245997 0.693031 0.500000
O O15 0.241340 0.617012 0.389504
O O16 0.000000 0.678309 0.417840
O O17 0.500000 0.430896 0.357272
O O18 0.748032 0.500000 0.349265
O O19 0.000000 0.696894 0.910426
O O20 0.236124 0.702419 0.000000
#
# Coordination Sequence:
#
# PCOD8194811 Si02
#       7
#     8   8   8   8   8   8   8
#     4   9  16  27  43  60  79 103 134 174 213 249
#     4  11  20  28  42  64  89 114 144 181 213 247
#     4   9  16  28  45  61  82 112 141 171 210 254
#     4   9  18  32  47  62  85 120 157 187 215 249
#     4   9  18  31  46  66  90 113 139 173 211 249
#     4   9  18  31  45  62  84 111 142 171 203 250
#     4  10  19  29  42  60  82 107 136 173 217 262
#
# _framework density 16.096551999999999
#
# number of rings (size 3 to 8) (size 9 to 14) (size 15 to 20)
#    0.000    2.571    0.000    5.143    0.000    5.429 
#    0.000    2.143    0.000    0.429    0.000    3.000 
#    0.000    0.571    0.000    6.571    0.000    1.857 
#
# Total GULP energy -693886.826620 kJ/mol
# GULP energy per Si atom -12390.836190 kJ/mol
# Density = 1.605992 g / cm^3
# Si number density = 16.096552 Si / 1000 Ang^3
#
#
#
# Elastic Constant Matrix: (Units=GPa)
#
#
# Indices 1 2 3 4 5 6 
#
# 1 37.9874 20.2959 29.8990 0.0000 0.0000 0.0000
# 2 20.2959 63.8286 52.0328 0.0000 0.0000 0.0000
# 3 29.8990 52.0328 128.1373 0.0000 0.0000 0.0000
# 4 0.0000 0.0000 0.0000 22.8012 0.0000 0.0000
# 5 0.0000 0.0000 0.0000 0.0000 17.3491 0.0000
# 6 0.0000 0.0000 0.0000 0.0000 0.0000 20.5876
#
#
#
# Elastic Compliance Matrix: (Units=1/GPa)
#
#
# Indices 1 2 3 4 5 6 
#
# 1 0.033952 -0.006484 -0.005289 0.000000 0.000000 0.000000
# 2 -0.006484 0.024658 -0.008500 0.000000 0.000000 0.000000
# 3 -0.005289 -0.008500 0.012490 0.000000 0.000000 0.000000
# 4 0.000000 0.000000 0.000000 0.043857 0.000000 0.000000
# 5 0.000000 0.000000 0.000000 0.000000 0.057640 0.000000
# 6 0.000000 0.000000 0.000000 0.000000 0.000000 0.048573
#
#
# Mechanical properties :
#
#
# Convention : Reuss Voigt Hill
#
# Bulk Modulus (GPa) = 32.72981 48.26764 40.49873
# Shear Modulus (GPa) = 18.38909 20.66261 19.52585
#
# Velocity S-wave (km/s) = 3.38364 3.58672 3.48666
# Velocity P-wave (km/s) = 5.97017 6.87053 6.43611
#
# Compressibility (1/GPa) = 0.03055319
#
# Stress axis : x y z
#
# Youngs Moduli (GPa) = 29.45347 40.55516 80.06527
#
# Poissons Ratio (x) = 0.26297 0.42348
# Poissons Ratio (y) = 0.19098 0.68054
# Poissons Ratio (z) = 0.15578 0.34471
#
# Static dielectric constant tensor:
#      x y z
#    x 3.020290 0.000000 0.000000 
#    y 0.000000 2.933560 0.000000 
#    z 0.000000 0.000000 3.548160 
# 
# 
# High freq. dielectric constant tensor:
#      x y z
#    x 1.624200 0.000000 0.000000 
#    y 0.000000 1.582060 0.000000 
#    z 0.000000 0.000000 1.613640 
# 
# From -- ./inp_files/30074.got.cif
#   From: 2010.03.12/outbox.cif.g09.slc.cpg/sg47_16_cif.got.tgz:30074.got - 2010.04.14 03:12:58.
