data_PCOD8194380
_publ_section_title
;
Structure prediction by ZEFSAII (Michael W. Deem and Ramdas Pophale) SiO2 
 PCOD8194380
Probable space group: P M M M
;
_chemical_formula_sum "Si O2"
_cell_formula_units_Z 64
_cell_length_a 10.302013
_cell_length_b 27.564822
_cell_length_c 13.303665
_cell_angle_alpha 90.000000
_cell_angle_beta 90.000000
_cell_angle_gamma 90.000000
_cell_volume 3777.883718
_symmetry_space_group_name_H-M "P M M M"
_symmetry_group_IT_number 47
_symmetry_cell_setting 'orthorhombic'
loop_
_space_group_symop_operation_xyz
x,y,z
-x,-y,z
x,-y,-z
-x,y,-z
-x,-y,-z
x,y,-z
-x,y,z
x,-y,z
loop_
_atom_site_type_symbol
_atom_site_label
_atom_site_fract_x
_atom_site_fract_y
_atom_site_fract_z
Si Si1 0.151578 0.785181 0.610799
Si Si2 0.847264 0.150723 0.792007
Si Si3 0.153462 0.946946 0.887512
Si Si4 0.358820 0.781855 0.887500
Si Si5 0.150929 0.556517 0.270628
Si Si6 0.725672 0.296176 0.742888
Si Si7 0.355809 0.384550 0.385443
Si Si8 0.150201 0.367750 0.890156
O O1 0.215887 0.791534 0.500000
O O2 0.185062 0.832718 0.678097
O O3 0.197518 0.735874 0.662384
O O4 0.000000 0.780259 0.597971
O O5 0.804860 0.094677 0.808325
O O6 0.761180 0.182571 0.867119
O O7 0.000000 0.158912 0.817286
O O8 0.000000 0.949476 0.891557
O O9 0.207467 0.000000 0.853169
O O10 0.205323 0.934601 0.000000
O O11 0.500000 0.808397 0.878963
O O12 0.367179 0.737741 0.808774
O O13 0.339319 0.761326 0.000000
O O14 0.175856 0.500000 0.255899
O O15 0.244483 0.576645 0.357963
O O16 0.192102 0.583020 0.167296
O O17 0.000000 0.567302 0.298849
O O18 0.646178 0.336676 0.683267
O O19 0.822975 0.321112 0.821553
O O20 0.331432 0.368735 0.500000
O O21 0.500000 0.407702 0.372733
O O22 0.000000 0.369132 0.910672
O O23 0.220590 0.365503 0.000000
#
# Coordination Sequence:
#
# PCOD8194380 Si02
#       8
#     8   8   8   8   8   8   8   8
#     4   9  17  28  43  65  93 123 154 191 233 270
#     4   9  17  29  46  66  88 118 156 193 227 268
#     4   8  13  22  39  64  90 114 145 188 233 274
#     4  10  20  31  44  65  94 125 152 182 224 270
#     4   9  19  35  53  73  95 119 148 180 218 267
#     4  10  18  31  47  65  89 123 157 186 216 266
#     4  10  21  35  51  71  93 118 149 187 229 267
#     4   9  17  29  47  72  98 120 146 184 224 260
#
# _framework density 16.940701000000001
#
# number of rings (size 3 to 8) (size 9 to 14) (size 15 to 20)
#    0.000    2.750    0.000    2.250    0.000    2.750 
#    0.000    2.500    0.000    7.500    0.000    7.875 
#    0.000    0.000    0.000    4.500    0.000    4.000 
#
# Total GULP energy -792974.090105 kJ/mol
# GULP energy per Si atom -12390.220158 kJ/mol
# Density = 1.690214 g / cm^3
# Si number density = 16.940701 Si / 1000 Ang^3
#
#
#
# Elastic Constant Matrix: (Units=GPa)
#
#
# Indices 1 2 3 4 5 6 
#
# 1 44.8808 35.2988 36.0795 0.0000 0.0000 0.0000
# 2 35.2988 116.4614 57.8969 0.0000 0.0000 0.0000
# 3 36.0795 57.8969 127.0121 0.0000 0.0000 0.0000
# 4 0.0000 0.0000 0.0000 15.9559 0.0000 0.0000
# 5 0.0000 0.0000 0.0000 0.0000 17.2637 0.0000
# 6 0.0000 0.0000 0.0000 0.0000 0.0000 11.4911
#
#
#
# Elastic Compliance Matrix: (Units=1/GPa)
#
#
# Indices 1 2 3 4 5 6 
#
# 1 0.032588 -0.006821 -0.006148 0.000000 0.000000 0.000000
# 2 -0.006821 0.012530 -0.003774 0.000000 0.000000 0.000000
# 3 -0.006148 -0.003774 0.011340 0.000000 0.000000 0.000000
# 4 0.000000 0.000000 0.000000 0.062673 0.000000 0.000000
# 5 0.000000 0.000000 0.000000 0.000000 0.057925 0.000000
# 6 0.000000 0.000000 0.000000 0.000000 0.000000 0.087024
#
#
# Mechanical properties :
#
#
# Convention : Reuss Voigt Hill
#
# Bulk Modulus (GPa) = 43.53039 60.76717 52.14878
# Shear Modulus (GPa) = 16.38145 19.54742 17.96444
#
# Velocity S-wave (km/s) = 3.11302 3.40056 3.25996
# Velocity P-wave (km/s) = 6.21874 7.16706 6.70967
#
# Compressibility (1/GPa) = 0.02297246
#
# Stress axis : x y z
#
# Youngs Moduli (GPa) = 30.68600 79.80722 88.18314
#
# Poissons Ratio (x) = 0.54436 0.54214
# Poissons Ratio (y) = 0.20931 0.33282
# Poissons Ratio (z) = 0.18865 0.30120
#
# Static dielectric constant tensor:
#      x y z
#    x 2.982140 0.000000 0.000000 
#    y 0.000000 3.289290 0.000000 
#    z 0.000000 0.000000 3.562150 
# 
# 
# High freq. dielectric constant tensor:
#      x y z
#    x 1.631310 0.000000 0.000000 
#    y 0.000000 1.642980 0.000000 
#    z 0.000000 0.000000 1.656420 
# 
# From -- ./inp_files/16876.got.cif
#   From: 2010.03.12/outbox.cif.g09.slc.cpg/sg47_9_cif.got.tgz:16876.got - 2010.04.14 03:12:58.
