data_PCOD8194417
_publ_section_title
;
Structure prediction by ZEFSAII (Michael W. Deem and Ramdas Pophale) SiO2 
 PCOD8194417
Probable space group: P M M M
;
_chemical_formula_sum "Si O2"
_cell_formula_units_Z 64
_cell_length_a 15.017320
_cell_length_b 24.957475
_cell_length_c 8.983848
_cell_angle_alpha 90.000000
_cell_angle_beta 90.000000
_cell_angle_gamma 90.000000
_cell_volume 3367.095817
_symmetry_space_group_name_H-M "P M M M"
_symmetry_group_IT_number 47
_symmetry_cell_setting 'orthorhombic'
loop_
_space_group_symop_operation_xyz
x,y,z
-x,-y,z
x,-y,-z
-x,y,-z
-x,-y,-z
x,y,-z
-x,y,z
x,-y,z
loop_
_atom_site_type_symbol
_atom_site_label
_atom_site_fract_x
_atom_site_fract_y
_atom_site_fract_z
Si Si1 0.727363 0.644118 0.176195
Si Si2 0.678363 0.171637 0.324019
Si Si3 0.598003 0.261431 0.169649
Si Si4 0.097867 0.091542 0.168516
Si Si5 0.399193 0.437320 0.671256
Si Si6 0.729767 0.942201 0.324595
Si Si7 0.900380 0.316319 0.326694
Si Si8 0.854218 0.209765 0.827937
O O1 0.670900 0.696128 0.226947
O O2 0.674530 0.592019 0.229915
O O3 0.825900 0.646773 0.247564
O O4 0.737427 0.641206 0.000000
O O5 0.690761 0.173921 0.500000
O O6 0.595275 0.206931 0.269561
O O7 0.671937 0.109125 0.269514
O O8 0.758053 0.201618 0.242303
O O9 0.500000 0.287646 0.185087
O O10 0.617625 0.245080 0.000000
O O11 0.167813 0.064217 0.277457
O O12 0.090554 0.155363 0.191472
O O13 0.000000 0.067557 0.201321
O O14 0.127974 0.078743 0.000000
O O15 0.386223 0.420562 0.500000
O O16 0.500000 0.422647 0.722453
O O17 0.382686 0.500000 0.692394
O O18 0.728161 0.943387 0.500000
O O19 0.693194 0.000000 0.264051
O O20 0.876311 0.312422 0.500000
O O21 0.903550 0.257028 0.257772
O O22 0.000000 0.341002 0.304229
O O23 0.843693 0.226528 0.000000
#
# Coordination Sequence:
#
# PCOD8194417 Si02
#       8
#     8   8   8   8   8   8   8   8
#     4  11  22  36  57  85 118 155 191 231 278 327
#     4  10  19  32  52  75 100 133 173 215 265 324
#     4  10  21  36  54  80 114 147 175 212 270 333
#     4   9  18  30  44  65  93 124 162 210 261 317
#     4   9  19  37  61  89 122 160 198 235 278 328
#     4   9  19  34  49  66  90 123 165 214 266 320
#     4  11  23  36  52  77 110 149 193 237 278 324
#     4  10  18  31  50  71  99 137 177 217 267 321
#
# _framework density 19.007477999999999
#
# number of rings (size 3 to 8) (size 9 to 14) (size 15 to 20)
#    0.000    2.125    1.250    2.625    0.000    5.000 
#    0.000    1.875    0.000    0.750    0.000    5.250 
#    0.000    0.000    0.000    0.000    0.000    0.000 
#
# Total GULP energy -793217.672860 kJ/mol
# GULP energy per Si atom -12394.026138 kJ/mol
# Density = 1.896422 g / cm^3
# Si number density = 19.007478 Si / 1000 Ang^3
#
#
#
# Elastic Constant Matrix: (Units=GPa)
#
#
# Indices 1 2 3 4 5 6 
#
# 1 92.0907 40.4397 37.9160 0.0000 0.0000 0.0000
# 2 40.4397 87.2842 38.7376 0.0000 0.0000 0.0000
# 3 37.9160 38.7376 69.2388 0.0000 0.0000 0.0000
# 4 0.0000 0.0000 0.0000 24.7576 0.0000 0.0000
# 5 0.0000 0.0000 0.0000 0.0000 25.9052 0.0000
# 6 0.0000 0.0000 0.0000 0.0000 0.0000 11.6695
#
#
#
# Elastic Compliance Matrix: (Units=1/GPa)
#
#
# Indices 1 2 3 4 5 6 
#
# 1 0.015222 -0.004461 -0.005840 0.000000 0.000000 0.000000
# 2 -0.004461 0.016548 -0.006816 0.000000 0.000000 0.000000
# 3 -0.005840 -0.006816 0.021454 0.000000 0.000000 0.000000
# 4 0.000000 0.000000 0.000000 0.040392 0.000000 0.000000
# 5 0.000000 0.000000 0.000000 0.000000 0.038602 0.000000
# 6 0.000000 0.000000 0.000000 0.000000 0.000000 0.085693
#
#
# Mechanical properties :
#
#
# Convention : Reuss Voigt Hill
#
# Bulk Modulus (GPa) = 52.65502 53.64448 53.14975
# Shear Modulus (GPa) = 19.34417 21.23450 20.28934
#
# Velocity S-wave (km/s) = 3.19362 3.34603 3.27071
# Velocity P-wave (km/s) = 6.43128 6.57358 6.50282
#
# Compressibility (1/GPa) = 0.01899154
#
# Stress axis : x y z
#
# Youngs Moduli (GPa) = 65.69341 60.42876 46.61082
#
# Poissons Ratio (x) = 0.26955 0.27222
# Poissons Ratio (y) = 0.29304 0.31769
# Poissons Ratio (z) = 0.38366 0.41187
#
# Static dielectric constant tensor:
#      x y z
#    x 3.460110 0.000000 0.000000 
#    y 0.000000 3.588110 0.000000 
#    z 0.000000 0.000000 3.457660 
# 
# 
# High freq. dielectric constant tensor:
#      x y z
#    x 1.725680 0.000000 0.000000 
#    y 0.000000 1.726230 0.000000 
#    z 0.000000 0.000000 1.738690 
# 
# From -- ./inp_files/7938.got.cif
#   From: 2010.03.12/outbox.cif.g09.slc.cpg/sg47_4_cif.got.tgz:7938.got - 2010.04.14 03:12:58.
