data_PCOD8194522
_publ_section_title
;
Structure prediction by ZEFSAII (Michael W. Deem and Ramdas Pophale) SiO2 
 PCOD8194522
Probable space group: P M M M
;
_chemical_formula_sum "Si O2"
_cell_formula_units_Z 52
_cell_length_a 23.086615
_cell_length_b 8.840688
_cell_length_c 14.401342
_cell_angle_alpha 90.000000
_cell_angle_beta 90.000000
_cell_angle_gamma 90.000000
_cell_volume 2939.336371
_symmetry_space_group_name_H-M "P M M M"
_symmetry_group_IT_number 47
_symmetry_cell_setting 'orthorhombic'
loop_
_space_group_symop_operation_xyz
x,y,z
-x,-y,z
x,-y,-z
-x,y,-z
-x,-y,-z
x,y,-z
-x,y,z
x,-y,z
loop_
_atom_site_type_symbol
_atom_site_label
_atom_site_fract_x
_atom_site_fract_y
_atom_site_fract_z
Si Si1 0.715007 0.679350 0.600909
Si Si2 0.566512 0.825271 0.893498
Si Si3 0.000000 0.680356 0.105249
Si Si4 0.668747 0.678430 0.793173
Si Si5 0.776242 0.825714 0.890798
Si Si6 0.885654 0.679779 0.205652
Si Si7 0.845434 0.679599 0.600819
O O1 0.691708 0.737926 0.500000
O O2 0.716376 0.500000 0.599644
O O3 0.675376 0.735451 0.686271
O O4 0.780229 0.740481 0.616708
O O5 0.500000 0.795904 0.866840
O O6 0.604866 0.722125 0.826529
O O7 0.582917 0.000000 0.878777
O O8 0.577802 0.778919 0.000000
O O9 0.056636 0.744794 0.157374
O O10 0.000000 0.500000 0.106739
O O11 0.000000 0.741417 0.000000
O O12 0.677985 0.500000 0.800872
O O13 0.715600 0.758527 0.857651
O O14 0.829277 0.737941 0.845924
O O15 0.779594 0.000000 0.861736
O O16 0.780160 0.803423 0.000000
O O17 0.884681 0.500000 0.199556
O O18 0.885163 0.735524 0.313458
O O19 0.868968 0.737711 0.500000
O O20 0.844177 0.500000 0.600124
#
# Coordination Sequence:
#
# PCOD8194522 Si02
#       7
#     8   8   4   8   8   8   8
#     4   8  14  26  45  71 101 128 155 193 246 300
#     4   9  19  36  54  71  99 141 176 200 239 293
#     4   9  18  30  46  70  98 127 161 207 256 295
#     4  11  20  31  52  80 102 126 164 207 249 289
#     4  11  23  35  47  68 100 133 162 199 249 298
#     4  10  18  32  52  72  94 126 166 204 245 296
#     4   8  13  24  45  71  97 124 155 196 246 295
#
# _framework density 17.691068000000001
#
# number of rings (size 3 to 8) (size 9 to 14) (size 15 to 20)
#    0.000    2.538    1.538    3.231    0.000    4.308 
#    0.000    1.538    0.000    7.385    0.000    3.231 
#    0.000    1.231    0.000    0.000    0.000    0.000 
#
# Total GULP energy -644511.690607 kJ/mol
# GULP energy per Si atom -12394.455589 kJ/mol
# Density = 1.765080 g / cm^3
# Si number density = 17.691068 Si / 1000 Ang^3
#
#
#
# Elastic Constant Matrix: (Units=GPa)
#
#
# Indices 1 2 3 4 5 6 
#
# 1 92.9027 11.1240 65.2585 0.0000 0.0000 0.0000
# 2 11.1240 18.6515 25.8673 0.0000 0.0000 0.0000
# 3 65.2585 25.8673 147.8589 0.0000 0.0000 0.0000
# 4 0.0000 0.0000 0.0000 7.3459 0.0000 0.0000
# 5 0.0000 0.0000 0.0000 0.0000 28.6180 0.0000
# 6 0.0000 0.0000 0.0000 0.0000 0.0000 10.2004
#
#
#
# Elastic Compliance Matrix: (Units=1/GPa)
#
#
# Indices 1 2 3 4 5 6 
#
# 1 0.015602 0.000323 -0.006943 0.000000 0.000000 0.000000
# 2 0.000323 0.070798 -0.012528 0.000000 0.000000 0.000000
# 3 -0.006943 -0.012528 0.012019 0.000000 0.000000 0.000000
# 4 0.000000 0.000000 0.000000 0.136130 0.000000 0.000000
# 5 0.000000 0.000000 0.000000 0.000000 0.034943 0.000000
# 6 0.000000 0.000000 0.000000 0.000000 0.000000 0.098035
#
#
# Mechanical properties :
#
#
# Convention : Reuss Voigt Hill
#
# Bulk Modulus (GPa) = 16.63252 51.54588 34.08920
# Shear Modulus (GPa) = 11.74086 19.71043 15.72565
#
# Velocity S-wave (km/s) = 2.57896 3.34150 2.98468
# Velocity P-wave (km/s) = 4.27669 6.63984 5.58469
#
# Compressibility (1/GPa) = 0.06012317
#
# Stress axis : x y z
#
# Youngs Moduli (GPa) = 64.09431 14.12479 83.20045
#
# Poissons Ratio (x) = -0.00457 0.57763
# Poissons Ratio (y) = -0.02072 1.04237
# Poissons Ratio (z) = 0.44498 0.17696
#
# Static dielectric constant tensor:
#      x y z
#    x 3.222170 0.000000 0.000000 
#    y 0.000000 2.930850 0.000000 
#    z 0.000000 0.000000 3.829680 
# 
# 
# High freq. dielectric constant tensor:
#      x y z
#    x 1.667030 0.000000 0.000000 
#    y 0.000000 1.646870 0.000000 
#    z 0.000000 0.000000 1.701380 
# 
# From -- ./inp_files/25454.got.cif
#   From: 2010.03.12/outbox.cif.g09.slc.cpg/sg47_13_cif.got.tgz:25454.got - 2010.04.14 03:12:58.
