data_PCOD8194994
_publ_section_title
;
Structure prediction by ZEFSAII (Michael W. Deem and Ramdas Pophale) SiO2 
 PCOD8194994
Probable space group: P M M M
;
_chemical_formula_sum "Si O2"
_cell_formula_units_Z 36
_cell_length_a 13.933349
_cell_length_b 8.099703
_cell_length_c 20.612732
_cell_angle_alpha 90.000000
_cell_angle_beta 90.000000
_cell_angle_gamma 90.000000
_cell_volume 2326.270250
_symmetry_space_group_name_H-M "P M M M"
_symmetry_group_IT_number 47
_symmetry_cell_setting 'orthorhombic'
loop_
_space_group_symop_operation_xyz
x,y,z
-x,-y,z
x,-y,-z
-x,y,-z
-x,-y,-z
x,y,-z
-x,y,z
x,-y,z
loop_
_atom_site_type_symbol
_atom_site_label
_atom_site_fract_x
_atom_site_fract_y
_atom_site_fract_z
Si Si1 0.610392 0.311552 0.337327
Si Si2 0.390071 0.693942 0.069670
Si Si3 0.229879 0.185896 0.424577
Si Si4 0.107343 0.500000 0.423053
Si Si5 0.611625 0.187150 0.202797
O O1 0.500000 0.251332 0.340411
O O2 0.620586 0.500000 0.359514
O O3 0.670358 0.198643 0.386203
O O4 0.650436 0.293599 0.263485
O O5 0.500000 0.752928 0.067451
O O6 0.383349 0.500000 0.077450
O O7 0.338043 0.771527 0.133297
O O8 0.342671 0.747977 0.000000
O O9 0.252305 0.213973 0.500000
O O10 0.158850 0.330814 0.398980
O O11 0.187092 0.000000 0.413442
O O12 0.103078 0.500000 0.500000
O O13 0.000000 0.500000 0.393874
O O14 0.500000 0.228052 0.193933
O O15 0.632103 0.000000 0.221361
#
# Coordination Sequence:
#
# PCOD8194994 Si02
#       5
#     8   8   8   4   8
#     4  10  19  30  44  60  83 117 152 184 217 254
#     4   8  13  21  32  45  63  90 127 171 213 249
#     4  10  20  33  49  69  91 114 144 180 217 259
#     4   9  18  34  53  71  91 111 135 172 218 266
#     4   9  16  24  34  50  72  99 135 176 214 251
#
# _framework density 15.475415999999999
#
# number of rings (size 3 to 8) (size 9 to 14) (size 15 to 20)
#    0.000    2.778    1.111    2.000    0.000    5.333 
#    0.000    6.667    0.000    0.000    0.000    0.000 
#    0.000    0.000    0.000    0.000    0.000    2.222 
#
# Total GULP energy -445984.253837 kJ/mol
# GULP energy per Si atom -12388.451495 kJ/mol
# Density = 1.544019 g / cm^3
# Si number density = 15.475416 Si / 1000 Ang^3
#
#
#
# Elastic Constant Matrix: (Units=GPa)
#
#
# Indices 1 2 3 4 5 6 
#
# 1 46.9284 28.0383 30.4731 0.0000 0.0000 0.0000
# 2 28.0383 79.0525 35.8160 0.0000 0.0000 0.0000
# 3 30.4731 35.8160 77.2698 0.0000 0.0000 0.0000
# 4 0.0000 0.0000 0.0000 23.6645 0.0000 0.0000
# 5 0.0000 0.0000 0.0000 0.0000 0.8734 0.0000
# 6 0.0000 0.0000 0.0000 0.0000 0.0000 11.7471
#
#
#
# Elastic Compliance Matrix: (Units=1/GPa)
#
#
# Indices 1 2 3 4 5 6 
#
# 1 0.031436 -0.007004 -0.009151 0.000000 0.000000 0.000000
# 2 -0.007004 0.017573 -0.005383 0.000000 0.000000 0.000000
# 3 -0.009151 -0.005383 0.019046 0.000000 0.000000 0.000000
# 4 0.000000 0.000000 0.000000 0.042257 0.000000 0.000000
# 5 0.000000 0.000000 0.000000 0.000000 1.145013 0.000000
# 6 0.000000 0.000000 0.000000 0.000000 0.000000 0.085128
#
#
# Mechanical properties :
#
#
# Convention : Reuss Voigt Hill
#
# Bulk Modulus (GPa) = 40.03444 43.54506 41.78975
# Shear Modulus (GPa) = 3.59233 14.51854 9.05544
#
# Velocity S-wave (km/s) = 1.52524 3.06628 2.42161
# Velocity P-wave (km/s) = 5.38773 6.38243 5.90606
#
# Compressibility (1/GPa) = 0.02497849
#
# Stress axis : x y z
#
# Youngs Moduli (GPa) = 31.81083 56.90596 52.50472
#
# Poissons Ratio (x) = 0.39854 0.48048
# Poissons Ratio (y) = 0.22279 0.28265
# Poissons Ratio (z) = 0.29111 0.30634
#
# Static dielectric constant tensor:
#      x y z
#    x 2.462330 0.000000 0.000000 
#    y 0.000000 3.033410 0.000000 
#    z 0.000000 0.000000 3.233220 
# 
# 
# High freq. dielectric constant tensor:
#      x y z
#    x 1.505400 0.000000 0.000000 
#    y 0.000000 1.607540 0.000000 
#    z 0.000000 0.000000 1.601370 
# 
# From -- ./inp_files/3901.got.cif
#   From: 2010.03.12/outbox.cif.g09.slc.cpg/sg47_2_cif.got.tgz:3901.got - 2010.04.14 03:12:58.
