data_PCOD8194462
_publ_section_title
;
Structure prediction by ZEFSAII (Michael W. Deem and Ramdas Pophale) SiO2 
 PCOD8194462
Probable space group: P M M M
;
_chemical_formula_sum "Si O2"
_cell_formula_units_Z 40
_cell_length_a 10.252484
_cell_length_b 24.199777
_cell_length_c 8.933473
_cell_angle_alpha 90.000000
_cell_angle_beta 90.000000
_cell_angle_gamma 90.000000
_cell_volume 2216.464569
_symmetry_space_group_name_H-M "P M M M"
_symmetry_group_IT_number 47
_symmetry_cell_setting 'orthorhombic'
loop_
_space_group_symop_operation_xyz
x,y,z
-x,-y,z
x,-y,-z
-x,y,-z
-x,-y,-z
x,y,-z
-x,y,z
x,-y,z
loop_
_atom_site_type_symbol
_atom_site_label
_atom_site_fract_x
_atom_site_fract_y
_atom_site_fract_z
Si Si1 0.354272 0.938322 0.677747
Si Si2 0.149200 0.849003 0.676184
Si Si3 0.248568 0.371460 0.677740
Si Si4 0.850259 0.734222 0.175970
Si Si5 0.000000 0.561533 0.677896
Si Si6 0.500000 0.562352 0.677873
O O1 0.347716 0.939019 0.500000
O O2 0.500000 0.919967 0.729286
O O3 0.244724 0.896565 0.740006
O O4 0.324114 0.000000 0.738766
O O5 0.167422 0.840032 0.500000
O O6 0.190869 0.793036 0.757900
O O7 0.000000 0.865455 0.714480
O O8 0.247970 0.364050 0.500000
O O9 0.244359 0.311290 0.752021
O O10 0.126472 0.406668 0.736417
O O11 0.374792 0.404214 0.735164
O O12 0.000000 0.720866 0.219382
O O13 0.829192 0.735383 0.000000
O O14 0.000000 0.500000 0.745872
O O15 0.000000 0.558555 0.500000
O O16 0.500000 0.500000 0.743906
O O17 0.500000 0.558742 0.500000
#
# Coordination Sequence:
#
# PCOD8194462 Si02
#       6
#     8   8   8   8   4   4
#     4   8  14  26  45  71 102 130 155 191 241 289
#     4   9  17  29  48  73  98 125 161 202 240 283
#     4  10  18  31  52  75  99 127 160 198 240 290
#     4  10  20  34  51  70  97 131 166 206 249 289
#     4   9  16  26  47  77  99 119 154 197 236 279
#     4   9  18  32  51  77 105 127 152 195 248 295
#
# _framework density 18.046758000000001
#
# number of rings (size 3 to 8) (size 9 to 14) (size 15 to 20)
#    0.000    2.800    1.000    1.800    0.000    3.600 
#    1.800    2.500    0.000    4.200    0.000    4.200 
#    0.000    0.000    0.000    0.000    0.000    0.000 
#
# Total GULP energy -495940.529973 kJ/mol
# GULP energy per Si atom -12398.513249 kJ/mol
# Density = 1.800568 g / cm^3
# Si number density = 18.046758 Si / 1000 Ang^3
#
#
#
# Elastic Constant Matrix: (Units=GPa)
#
#
# Indices 1 2 3 4 5 6 
#
# 1 145.8612 103.2188 24.3575 0.0000 0.0000 0.0000
# 2 103.2188 174.1439 34.1940 0.0000 0.0000 0.0000
# 3 24.3575 34.1940 27.6003 0.0000 0.0000 0.0000
# 4 0.0000 0.0000 0.0000 -0.6769 0.0000 0.0000
# 5 0.0000 0.0000 0.0000 0.0000 9.4881 0.0000
# 6 0.0000 0.0000 0.0000 0.0000 0.0000 39.3869
#
#
#
# Elastic Compliance Matrix: (Units=1/GPa)
#
#
# Indices 1 2 3 4 5 6 
#
# 1 0.011922 -0.006608 -0.002335 0.000000 0.000000 0.000000
# 2 -0.006608 0.011251 -0.008107 0.000000 0.000000 0.000000
# 3 -0.002335 -0.008107 0.048336 0.000000 0.000000 0.000000
# 4 0.000000 0.000000 0.000000 -1.477257 0.000000 0.000000
# 5 0.000000 0.000000 0.000000 0.000000 0.105395 0.000000
# 6 0.000000 0.000000 0.000000 0.000000 0.000000 0.025389
#
#
# Mechanical properties :
#
#
# Convention : Reuss Voigt Hill
#
# Bulk Modulus (GPa) = 26.73139 74.57176 50.65158
# Shear Modulus (GPa) = -4.07035 22.02863 8.97914
#
# Velocity S-wave (km/s) = -1.50344 3.49756 2.23300
# Velocity P-wave (km/s) = 3.43957 7.59748 5.89713
#
# Compressibility (1/GPa) = 0.03740920
#
# Stress axis : x y z
#
# Youngs Moduli (GPa) = 83.88031 88.88174 20.68857
#
# Poissons Ratio (x) = 0.58732 0.04830
# Poissons Ratio (y) = 0.55427 0.16773
# Poissons Ratio (z) = 0.19582 0.72059
#
# Static dielectric constant tensor:
#      x y z
#    x 3.472490 0.000000 0.000000 
#    y 0.000000 3.530720 0.000000 
#    z 0.000000 0.000000 2.816480 
# 
# 
# High freq. dielectric constant tensor:
#      x y z
#    x 1.696620 0.000000 0.000000 
#    y 0.000000 1.709950 0.000000 
#    z 0.000000 0.000000 1.649950 
# 
# From -- ./inp_files/1729.got.cif
#   From: 2010.03.12/outbox.cif.g09.slc.cpg/sg47_1_cif.got.tgz:1729.got - 2010.04.14 03:12:58.
