data_PCOD8194306
_publ_section_title
;
Structure prediction by ZEFSAII (Michael W. Deem and Ramdas Pophale) SiO2 
 PCOD8194306
Probable space group: P M M M
;
_chemical_formula_sum "Si O2"
_cell_formula_units_Z 64
_cell_length_a 20.595129
_cell_length_b 8.858409
_cell_length_c 19.849970
_cell_angle_alpha 90.000000
_cell_angle_beta 90.000000
_cell_angle_gamma 90.000000
_cell_volume 3621.430037
_symmetry_space_group_name_H-M "P M M M"
_symmetry_group_IT_number 47
_symmetry_cell_setting 'orthorhombic'
loop_
_space_group_symop_operation_xyz
x,y,z
-x,-y,z
x,-y,-z
-x,y,-z
-x,-y,-z
x,y,-z
-x,y,z
x,-y,z
loop_
_atom_site_type_symbol
_atom_site_label
_atom_site_fract_x
_atom_site_fract_y
_atom_site_fract_z
Si Si1 0.766237 0.330461 0.926265
Si Si2 0.810247 0.678995 0.335521
Si Si3 0.621058 0.680564 0.214315
Si Si4 0.427024 0.173055 0.344607
Si Si5 0.238945 0.822301 0.207682
Si Si6 0.072009 0.679104 0.424830
Si Si7 0.388112 0.669307 0.070920
Si Si8 0.685701 0.324639 0.577462
O O1 0.792198 0.500000 0.913431
O O2 0.789959 0.222894 0.865675
O O3 0.689051 0.332159 0.926446
O O4 0.791011 0.272695 0.000000
O O5 0.812666 0.500000 0.323925
O O6 0.810781 0.764428 0.264266
O O7 0.873715 0.741367 0.374108
O O8 0.747241 0.726015 0.378705
O O9 0.625464 0.500000 0.213408
O O10 0.576508 0.735153 0.274901
O O11 0.693024 0.743391 0.224429
O O12 0.589740 0.740925 0.142688
O O13 0.500000 0.191233 0.373014
O O14 0.377993 0.234238 0.400478
O O15 0.410122 0.000000 0.329198
O O16 0.247856 0.000000 0.210982
O O17 0.085102 0.742777 0.500000
O O18 0.077013 0.500000 0.427471
O O19 0.000000 0.728805 0.400325
O O20 0.415276 0.500000 0.067259
O O21 0.410495 0.751551 0.000000
O O22 0.701253 0.287917 0.500000
O O23 0.670743 0.500000 0.588562
#
# Coordination Sequence:
#
# PCOD8194306 Si02
#       8
#     8   8   8   8   8   8   8   8
#     4   8  14  26  43  63  91 128 167 204 244 291
#     4  10  18  30  50  75 104 135 167 203 243 290
#     4  10  18  31  51  71  92 122 162 204 246 294
#     4  11  24  39  53  70  94 125 160 202 255 309
#     4  11  20  28  43  69 102 134 165 203 248 296
#     4   8  14  26  47  76 106 134 167 208 250 289
#     4   7  11  21  40  66  91 114 144 185 232 280
#     4  10  21  36  55  77  97 122 160 203 244 293
#
# _framework density 17.672575999999999
#
# number of rings (size 3 to 8) (size 9 to 14) (size 15 to 20)
#    0.000    2.625    1.250    4.125    0.000    3.250 
#    0.000    1.250    0.000    3.000    0.000    3.500 
#    0.000    0.500    0.000    5.750    0.000    1.750 
#
# Total GULP energy -792989.374576 kJ/mol
# GULP energy per Si atom -12390.458978 kJ/mol
# Density = 1.763235 g / cm^3
# Si number density = 17.672576 Si / 1000 Ang^3
#
#
#
# Elastic Constant Matrix: (Units=GPa)
#
#
# Indices 1 2 3 4 5 6 
#
# 1 76.7728 27.1749 44.3674 0.0000 0.0000 0.0000
# 2 27.1749 64.6779 39.4272 0.0000 0.0000 0.0000
# 3 44.3674 39.4272 127.1131 0.0000 0.0000 0.0000
# 4 0.0000 0.0000 0.0000 12.1102 0.0000 0.0000
# 5 0.0000 0.0000 0.0000 0.0000 14.6579 0.0000
# 6 0.0000 0.0000 0.0000 0.0000 0.0000 5.5233
#
#
#
# Elastic Compliance Matrix: (Units=1/GPa)
#
#
# Indices 1 2 3 4 5 6 
#
# 1 0.017284 -0.004420 -0.004662 0.000000 0.000000 0.000000
# 2 -0.004420 0.020197 -0.004722 0.000000 0.000000 0.000000
# 3 -0.004662 -0.004722 0.010959 0.000000 0.000000 0.000000
# 4 0.000000 0.000000 0.000000 0.082575 0.000000 0.000000
# 5 0.000000 0.000000 0.000000 0.000000 0.068223 0.000000
# 6 0.000000 0.000000 0.000000 0.000000 0.000000 0.181051
#
#
# Mechanical properties :
#
#
# Convention : Reuss Voigt Hill
#
# Bulk Modulus (GPa) = 48.00277 54.50031 51.25154
# Shear Modulus (GPa) = 12.05283 16.96455 14.50869
#
# Velocity S-wave (km/s) = 2.61436 3.10165 2.86837
# Velocity P-wave (km/s) = 6.02781 6.61308 6.32721
#
# Compressibility (1/GPa) = 0.02083213
#
# Stress axis : x y z
#
# Youngs Moduli (GPa) = 57.85650 49.51294 91.25186
#
# Poissons Ratio (x) = 0.21886 0.42540
# Poissons Ratio (y) = 0.25574 0.43086
# Poissons Ratio (z) = 0.26971 0.23378
#
# Static dielectric constant tensor:
#      x y z
#    x 3.002240 0.000000 0.000000 
#    y 0.000000 3.026990 0.000000 
#    z 0.000000 0.000000 3.851690 
# 
# 
# High freq. dielectric constant tensor:
#      x y z
#    x 1.635010 0.000000 0.000000 
#    y 0.000000 1.653140 0.000000 
#    z 0.000000 0.000000 1.704420 
# 
# From -- ./inp_files/31510.got.cif
#   From: 2010.03.12/outbox.cif.g09.slc.cpg/sg47_16_cif.got.tgz:31510.got - 2010.04.14 03:12:58.
