data_PCOD8194606
_publ_section_title
;
Structure prediction by ZEFSAII (Michael W. Deem and Ramdas Pophale) SiO2 
 PCOD8194606
Probable space group: P M M M
;
_chemical_formula_sum "Si O2"
_cell_formula_units_Z 52
_cell_length_a 16.320294
_cell_length_b 9.112308
_cell_length_c 20.570185
_cell_angle_alpha 90.000000
_cell_angle_beta 90.000000
_cell_angle_gamma 90.000000
_cell_volume 3059.106285
_symmetry_space_group_name_H-M "P M M M"
_symmetry_group_IT_number 47
_symmetry_cell_setting 'orthorhombic'
loop_
_space_group_symop_operation_xyz
x,y,z
-x,-y,z
x,-y,-z
-x,y,-z
-x,-y,-z
x,y,-z
-x,y,z
x,-y,z
loop_
_atom_site_type_symbol
_atom_site_label
_atom_site_fract_x
_atom_site_fract_y
_atom_site_fract_z
Si Si1 0.682145 0.327361 0.379903
Si Si2 0.000000 0.829480 0.725509
Si Si3 0.729237 0.167811 0.814900
Si Si4 0.404168 0.174068 0.500000
Si Si5 0.000000 0.673453 0.862864
Si Si6 0.822895 0.830369 0.314896
Si Si7 0.408910 0.328565 0.247528
Si Si8 0.850475 0.168606 0.074679
O O1 0.685494 0.500000 0.395156
O O2 0.639926 0.242126 0.438054
O O3 0.774526 0.268466 0.367483
O O4 0.627909 0.288860 0.317427
O O5 0.080238 0.793135 0.682236
O O6 0.000000 0.736061 0.790636
O O7 0.000000 0.000000 0.746507
O O8 0.793419 0.208164 0.757986
O O9 0.646309 0.260489 0.809193
O O10 0.769623 0.205206 0.883904
O O11 0.703091 0.000000 0.809700
O O12 0.500000 0.217457 0.500000
O O13 0.392485 0.000000 0.500000
O O14 0.921904 0.724683 0.903275
O O15 0.000000 0.500000 0.857960
O O16 0.806378 0.000000 0.331893
O O17 0.500000 0.261785 0.243559
O O18 0.410736 0.500000 0.236212
O O19 0.877917 0.000000 0.086592
O O20 0.828558 0.197885 0.000000
#
# Coordination Sequence:
#
# PCOD8194606 Si02
#       8
#     8   4   8   4   4   8   8   8
#     4  10  20  34  53  77 108 139 168 203 251 306
#     4  10  18  33  55  75 103 139 175 212 254 300
#     4   9  17  30  49  72  95 123 164 211 254 298
#     4  11  23  37  55  80 109 140 175 211 246 293
#     4  12  23  31  46  73 105 133 167 212 255 301
#     4   9  17  31  52  75 101 133 171 213 252 295
#     4   9  18  32  50  73 101 131 162 199 247 304
#     4  10  20  35  52  68  94 134 173 207 254 314
#
# _framework density 16.998428000000001
#
# number of rings (size 3 to 8) (size 9 to 14) (size 15 to 20)
#    0.000    2.231    1.538    2.077    0.000    4.615 
#    0.000    0.000    0.000    0.923    0.000    6.462 
#    0.000    0.000    0.000    0.000    0.000    0.000 
#
# Total GULP energy -644846.041238 kJ/mol
# GULP energy per Si atom -12400.885408 kJ/mol
# Density = 1.695974 g / cm^3
# Si number density = 16.998428 Si / 1000 Ang^3
#
#
#
# Elastic Constant Matrix: (Units=GPa)
#
#
# Indices 1 2 3 4 5 6 
#
# 1 152.9439 60.2972 64.8773 0.0000 0.0000 0.0000
# 2 60.2972 75.7555 54.3745 0.0000 0.0000 0.0000
# 3 64.8773 54.3745 95.0567 0.0000 0.0000 0.0000
# 4 0.0000 0.0000 0.0000 20.2326 0.0000 0.0000
# 5 0.0000 0.0000 0.0000 0.0000 16.2350 0.0000
# 6 0.0000 0.0000 0.0000 0.0000 0.0000 24.1765
#
#
#
# Elastic Compliance Matrix: (Units=1/GPa)
#
#
# Indices 1 2 3 4 5 6 
#
# 1 0.010349 -0.005374 -0.003990 0.000000 0.000000 0.000000
# 2 -0.005374 0.025186 -0.010739 0.000000 0.000000 0.000000
# 3 -0.003990 -0.010739 0.019386 0.000000 0.000000 0.000000
# 4 0.000000 0.000000 0.000000 0.049425 0.000000 0.000000
# 5 0.000000 0.000000 0.000000 0.000000 0.061595 0.000000
# 6 0.000000 0.000000 0.000000 0.000000 0.000000 0.041363
#
#
# Mechanical properties :
#
#
# Convention : Reuss Voigt Hill
#
# Bulk Modulus (GPa) = 67.95323 75.87268 71.91296
# Shear Modulus (GPa) = 19.80868 21.74261 20.77565
#
# Velocity S-wave (km/s) = 3.41739 3.58032 3.49980
# Velocity P-wave (km/s) = 7.45884 7.86280 7.66348
#
# Compressibility (1/GPa) = 0.01471600
#
# Stress axis : x y z
#
# Youngs Moduli (GPa) = 96.62483 39.70482 51.58387
#
# Poissons Ratio (x) = 0.21337 0.20579
# Poissons Ratio (y) = 0.51926 0.55396
# Poissons Ratio (z) = 0.38548 0.42639
#
# Static dielectric constant tensor:
#      x y z
#    x 3.386860 0.000000 0.000000 
#    y 0.000000 3.180260 0.000000 
#    z 0.000000 0.000000 3.053370 
# 
# 
# High freq. dielectric constant tensor:
#      x y z
#    x 1.657850 0.000000 0.000000 
#    y 0.000000 1.655280 0.000000 
#    z 0.000000 0.000000 1.634350 
# 
# From -- ./inp_files/28550.got.cif
#   From: 2010.03.12/outbox.cif.g09.slc.cpg/sg47_15_cif.got.tgz:28550.got - 2010.04.14 03:12:58.
