data_PCOD8194684
_publ_section_title
;
Structure prediction by ZEFSAII (Michael W. Deem and Ramdas Pophale) SiO2 
 PCOD8194684
Probable space group: P M M M
;
_chemical_formula_sum "Si O2"
_cell_formula_units_Z 44
_cell_length_a 12.150214
_cell_length_b 18.414188
_cell_length_c 12.903955
_cell_angle_alpha 90.000000
_cell_angle_beta 90.000000
_cell_angle_gamma 90.000000
_cell_volume 2887.083468
_symmetry_space_group_name_H-M "P M M M"
_symmetry_group_IT_number 47
_symmetry_cell_setting 'orthorhombic'
loop_
_space_group_symop_operation_xyz
x,y,z
-x,-y,z
x,-y,-z
-x,y,-z
-x,-y,-z
x,y,-z
-x,y,z
x,-y,z
loop_
_atom_site_type_symbol
_atom_site_label
_atom_site_fract_x
_atom_site_fract_y
_atom_site_fract_z
Si Si1 0.261432 0.913358 0.380598
Si Si2 0.131201 0.417343 0.000000
Si Si3 0.869085 0.418806 0.614183
Si Si4 0.130851 0.163169 0.203738
Si Si5 0.500000 0.078903 0.622085
Si Si6 0.869019 0.918353 0.000000
Si Si7 0.868832 0.672433 0.803600
O O1 0.234050 0.893851 0.500000
O O2 0.174031 0.873608 0.308305
O O3 0.383917 0.882805 0.348549
O O4 0.255188 0.000000 0.364685
O O5 0.176232 0.374136 0.099838
O O6 0.176522 0.500000 0.000000
O O7 0.000000 0.418782 0.000000
O O8 0.829075 0.393938 0.500000
O O9 0.826221 0.500000 0.638326
O O10 0.820981 0.363754 0.699030
O O11 0.000000 0.418756 0.618624
O O12 0.174472 0.245338 0.192645
O O13 0.000000 0.160521 0.209820
O O14 0.175640 0.121034 0.102892
O O15 0.500000 0.067142 0.500000
O O16 0.500000 0.000000 0.676040
O O17 0.000000 0.916904 0.000000
O O18 0.823209 0.000000 0.000000
O O19 0.000000 0.671564 0.804897
#
# Coordination Sequence:
#
# PCOD8194684 Si02
#       7
#     8   4   8   8   4   4   8
#     4   9  17  29  45  63  81 103 134 171 207 242
#     4   9  15  23  37  53  68  94 137 180 205 222
#     4   8  13  21  32  44  60  88 124 152 175 214
#     4  10  19  28  39  57  82 111 138 165 202 244
#     4   7  12  26  46  63  77  97 129 167 206 246
#     4   9  17  29  41  50  67 102 144 171 186 221
#     4   9  16  24  33  48  72  98 125 160 199 234
#
# _framework density 15.240292999999999
#
# number of rings (size 3 to 8) (size 9 to 14) (size 15 to 20)
#    0.000    3.182    0.000    3.273    0.000    6.545 
#    0.000    2.727    0.000    0.545    0.000    2.545 
#    0.000    0.000    0.000    4.091    0.000   28.182 
#
# Total GULP energy -545183.761467 kJ/mol
# GULP energy per Si atom -12390.540033 kJ/mol
# Density = 1.520561 g / cm^3
# Si number density = 15.240293 Si / 1000 Ang^3
#
#
#
# Elastic Constant Matrix: (Units=GPa)
#
#
# Indices 1 2 3 4 5 6 
#
# 1 21.1083 16.2336 19.1799 0.0000 0.0000 0.0000
# 2 16.2336 120.4421 78.9072 0.0000 0.0000 0.0000
# 3 19.1799 78.9072 132.0298 0.0000 0.0000 0.0000
# 4 0.0000 0.0000 0.0000 22.8828 0.0000 0.0000
# 5 0.0000 0.0000 0.0000 0.0000 5.1706 0.0000
# 6 0.0000 0.0000 0.0000 0.0000 0.0000 3.6963
#
#
#
# Elastic Compliance Matrix: (Units=1/GPa)
#
#
# Indices 1 2 3 4 5 6 
#
# 1 0.055520 -0.003614 -0.005905 0.000000 0.000000 0.000000
# 2 -0.003614 0.013881 -0.007771 0.000000 0.000000 0.000000
# 3 -0.005905 -0.007771 0.013076 0.000000 0.000000 0.000000
# 4 0.000000 0.000000 0.000000 0.043701 0.000000 0.000000
# 5 0.000000 0.000000 0.000000 0.000000 0.193402 0.000000
# 6 0.000000 0.000000 0.000000 0.000000 0.000000 0.270540
#
#
# Mechanical properties :
#
#
# Convention : Reuss Voigt Hill
#
# Bulk Modulus (GPa) = 20.87847 55.80242 38.34044
# Shear Modulus (GPa) = 7.80437 16.96724 12.38580
#
# Velocity S-wave (km/s) = 2.26539 3.34026 2.85388
# Velocity P-wave (km/s) = 4.53563 7.18129 6.00595
#
# Compressibility (1/GPa) = 0.04789624
#
# Stress axis : x y z
#
# Youngs Moduli (GPa) = 18.01148 72.04123 76.47527
#
# Poissons Ratio (x) = 0.26039 0.45161
# Poissons Ratio (y) = 0.06510 0.59428
# Poissons Ratio (z) = 0.10636 0.55982
#
# Static dielectric constant tensor:
#      x y z
#    x 2.466980 0.000000 0.000000 
#    y 0.000000 3.024190 0.000000 
#    z 0.000000 0.000000 3.093530 
# 
# 
# High freq. dielectric constant tensor:
#      x y z
#    x 1.506690 0.000000 0.000000 
#    y 0.000000 1.583320 0.000000 
#    z 0.000000 0.000000 1.594050 
# 
# From -- ./inp_files/22640.got.cif
#   From: 2010.03.12/outbox.cif.g09.slc.cpg/sg47_12_cif.got.tgz:22640.got - 2010.04.14 03:12:58.
