data_PCOD8194148
_publ_section_title
;
Structure prediction by ZEFSAII (Michael W. Deem and Ramdas Pophale) SiO2 
 PCOD8194148
Probable space group: P M M M
;
_chemical_formula_sum "Si O2"
_cell_formula_units_Z 52
_cell_length_a 23.289154
_cell_length_b 8.914997
_cell_length_c 14.115711
_cell_angle_alpha 90.000000
_cell_angle_beta 90.000000
_cell_angle_gamma 90.000000
_cell_volume 2930.742567
_symmetry_space_group_name_H-M "P M M M"
_symmetry_group_IT_number 47
_symmetry_cell_setting 'orthorhombic'
loop_
_space_group_symop_operation_xyz
x,y,z
-x,-y,z
x,-y,-z
-x,y,-z
-x,-y,-z
x,y,-z
-x,y,z
x,-y,z
loop_
_atom_site_type_symbol
_atom_site_label
_atom_site_fract_x
_atom_site_fract_y
_atom_site_fract_z
Si Si1 0.563640 0.177965 0.894228
Si Si2 0.845850 0.176338 0.393022
Si Si3 0.669560 0.824277 0.774515
Si Si4 0.725125 0.673333 0.392292
Si Si5 0.887725 0.677312 0.785285
Si Si6 0.000000 0.678394 0.106381
Si Si7 0.783349 0.173269 0.110059
O O1 0.500000 0.225844 0.858684
O O2 0.611848 0.240289 0.823098
O O3 0.568784 0.000000 0.898503
O O4 0.574319 0.242002 0.000000
O O5 0.864237 0.219401 0.500000
O O6 0.782255 0.233523 0.370270
O O7 0.889678 0.253024 0.320166
O O8 0.846270 0.000000 0.376851
O O9 0.675621 0.735208 0.676029
O O10 0.722223 0.788818 0.844145
O O11 0.664876 0.000000 0.752122
O O12 0.704533 0.697685 0.500000
O O13 0.738251 0.500000 0.371371
O O14 0.888644 0.500000 0.775829
O O15 0.831399 0.725327 0.841866
O O16 0.943584 0.738043 0.840113
O O17 0.000000 0.500000 0.103185
O O18 0.000000 0.744162 0.000000
O O19 0.799711 0.000000 0.125887
O O20 0.779488 0.214377 0.000000
#
# Coordination Sequence:
#
# PCOD8194148 Si02
#       7
#     8   8   8   8   8   4   8
#     4   8  14  26  46  73 104 138 175 211 248 295
#     4  10  20  35  55  78 105 135 166 206 259 314
#     4  10  18  29  49  76 105 135 168 210 259 305
#     4  10  20  33  50  74 103 134 169 209 255 310
#     4  11  21  35  56  78 102 135 174 215 256 300
#     4   9  20  38  56  75 102 138 177 213 250 297
#     4  10  20  32  47  72 106 137 166 207 259 309
#
# _framework density 17.742944000000001
#
# number of rings (size 3 to 8) (size 9 to 14) (size 15 to 20)
#    0.000    2.231    1.538    2.769    0.000    4.615 
#    0.000    1.923    0.000    7.385    0.000    4.308 
#    0.000    0.000    0.000    0.000    0.000    0.000 
#
# Total GULP energy -644837.477049 kJ/mol
# GULP energy per Si atom -12400.720712 kJ/mol
# Density = 1.770256 g / cm^3
# Si number density = 17.742944 Si / 1000 Ang^3
#
#
#
# Elastic Constant Matrix: (Units=GPa)
#
#
# Indices 1 2 3 4 5 6 
#
# 1 120.8558 35.8034 75.0590 0.0000 0.0000 0.0000
# 2 35.8034 52.3446 43.3048 0.0000 0.0000 0.0000
# 3 75.0590 43.3048 147.3208 0.0000 0.0000 0.0000
# 4 0.0000 0.0000 0.0000 27.9138 0.0000 0.0000
# 5 0.0000 0.0000 0.0000 0.0000 33.1756 0.0000
# 6 0.0000 0.0000 0.0000 0.0000 0.0000 5.2681
#
#
#
# Elastic Compliance Matrix: (Units=1/GPa)
#
#
# Indices 1 2 3 4 5 6 
#
# 1 0.012845 -0.004455 -0.005235 0.000000 0.000000 0.000000
# 2 -0.004455 0.026788 -0.005604 0.000000 0.000000 0.000000
# 3 -0.005235 -0.005604 0.011103 0.000000 0.000000 0.000000
# 4 0.000000 0.000000 0.000000 0.035825 0.000000 0.000000
# 5 0.000000 0.000000 0.000000 0.000000 0.030143 0.000000
# 6 0.000000 0.000000 0.000000 0.000000 0.000000 0.189822
#
#
# Mechanical properties :
#
#
# Convention : Reuss Voigt Hill
#
# Bulk Modulus (GPa) = 49.63606 69.87285 59.75446
# Shear Modulus (GPa) = 14.54206 24.36179 19.45192
#
# Velocity S-wave (km/s) = 2.86597 3.70948 3.31466
# Velocity P-wave (km/s) = 6.24400 7.60349 6.95703
#
# Compressibility (1/GPa) = 0.02014664
#
# Stress axis : x y z
#
# Youngs Moduli (GPa) = 77.84831 37.33012 90.06939
#
# Poissons Ratio (x) = 0.16631 0.47152
# Poissons Ratio (y) = 0.34683 0.50478
# Poissons Ratio (z) = 0.40754 0.20921
#
# Static dielectric constant tensor:
#      x y z
#    x 3.301050 0.000000 0.000000 
#    y 0.000000 3.082380 0.000000 
#    z 0.000000 0.000000 3.554970 
# 
# 
# High freq. dielectric constant tensor:
#      x y z
#    x 1.669440 0.000000 0.000000 
#    y 0.000000 1.667820 0.000000 
#    z 0.000000 0.000000 1.698410 
# 
# From -- ./inp_files/21391.got.cif
#   From: 2010.03.12/outbox.cif.g09.slc.cpg/sg47_11_cif.got.tgz:21391.got - 2010.04.14 03:12:58.
