data_PCOD8194492
_publ_section_title
;
Structure prediction by ZEFSAII (Michael W. Deem and Ramdas Pophale) SiO2 
 PCOD8194492
Probable space group: P M M M
;
_chemical_formula_sum "Si O2"
_cell_formula_units_Z 44
_cell_length_a 13.268800
_cell_length_b 18.094024
_cell_length_c 10.187250
_cell_angle_alpha 90.000000
_cell_angle_beta 90.000000
_cell_angle_gamma 90.000000
_cell_volume 2445.815957
_symmetry_space_group_name_H-M "P M M M"
_symmetry_group_IT_number 47
_symmetry_cell_setting 'orthorhombic'
loop_
_space_group_symop_operation_xyz
x,y,z
-x,-y,z
x,-y,-z
-x,y,-z
-x,-y,-z
x,y,-z
-x,y,z
x,-y,z
loop_
_atom_site_type_symbol
_atom_site_label
_atom_site_fract_x
_atom_site_fract_y
_atom_site_fract_z
Si Si1 0.613134 0.281115 0.770324
Si Si2 0.183528 0.683696 0.845338
Si Si3 0.115341 0.836654 0.745455
Si Si4 0.000000 0.417630 0.155533
Si Si5 0.815108 0.914271 0.000000
Si Si6 0.783996 0.911719 0.500000
Si Si7 0.610894 0.164851 0.000000
Si Si8 0.386623 0.201599 0.500000
O O1 0.500000 0.316068 0.780592
O O2 0.700519 0.340809 0.811522
O O3 0.623793 0.213279 0.870022
O O4 0.635684 0.252529 0.625029
O O5 0.170421 0.758284 0.761979
O O6 0.101888 0.623539 0.797155
O O7 0.169365 0.699810 0.000000
O O8 0.157396 0.884933 0.627410
O O9 0.000000 0.818810 0.717504
O O10 0.127190 0.883470 0.875595
O O11 0.000000 0.500000 0.216359
O O12 0.000000 0.422128 0.000000
O O13 0.695896 0.897265 0.000000
O O14 0.829009 0.000000 0.000000
O O15 0.674951 0.874187 0.500000
O O16 0.772591 0.000000 0.500000
O O17 0.500000 0.127326 0.000000
O O18 0.500000 0.172919 0.500000
#
# Coordination Sequence:
#
# PCOD8194492 Si02
#       8
#     8   8   8   4   4   4   4   4
#     4  10  18  31  53  80 104 137 183 230 268 317
#     4  11  18  32  59  84 109 146 180 222 264 325
#     4  12  23  37  54  75  99 141 191 225 274 333
#     4   9  20  34  56  93 126 147 171 213 273 327
#     4  12  23  35  52  73 101 136 183 235 282 329
#     4  12  25  39  52  71 109 146 185 237 290 335
#     4  10  18  32  51  72 102 132 175 229 282 328
#     4  10  20  34  53  76 104 134 185 239 278 328
#
# _framework density 17.989906000000001
#
# number of rings (size 3 to 8) (size 9 to 14) (size 15 to 20)
#    0.000    1.182    6.364    1.091    0.000    2.545 
#    0.000    0.000    0.000    6.000    0.000    7.636 
#    0.000    2.182    0.000    0.000    0.000    0.000 
#
# Total GULP energy -545433.094424 kJ/mol
# GULP energy per Si atom -12396.206691 kJ/mol
# Density = 1.794896 g / cm^3
# Si number density = 17.989906 Si / 1000 Ang^3
#
#
#
# Elastic Constant Matrix: (Units=GPa)
#
#
# Indices 1 2 3 4 5 6 
#
# 1 149.4607 46.6524 20.6450 0.0000 0.0000 0.0000
# 2 46.6524 80.8687 20.1376 0.0000 0.0000 0.0000
# 3 20.6450 20.1376 97.8512 0.0000 0.0000 0.0000
# 4 0.0000 0.0000 0.0000 12.2391 0.0000 0.0000
# 5 0.0000 0.0000 0.0000 0.0000 94.9300 0.0000
# 6 0.0000 0.0000 0.0000 0.0000 0.0000 22.3535
#
#
#
# Elastic Compliance Matrix: (Units=1/GPa)
#
#
# Indices 1 2 3 4 5 6 
#
# 1 0.008219 -0.004542 -0.000799 0.000000 0.000000 0.000000
# 2 -0.004542 0.015544 -0.002241 0.000000 0.000000 0.000000
# 3 -0.000799 -0.002241 0.010849 0.000000 0.000000 0.000000
# 4 0.000000 0.000000 0.000000 0.081706 0.000000 0.000000
# 5 0.000000 0.000000 0.000000 0.000000 0.010534 0.000000
# 6 0.000000 0.000000 0.000000 0.000000 0.000000 0.044736
#
#
# Mechanical properties :
#
#
# Convention : Reuss Voigt Hill
#
# Bulk Modulus (GPa) = 51.41929 55.89450 53.65690
# Shear Modulus (GPa) = 25.87522 41.95422 33.91472
#
# Velocity S-wave (km/s) = 3.79663 4.83442 4.34661
# Velocity P-wave (km/s) = 6.91835 7.89300 7.42169
#
# Compressibility (1/GPa) = 0.01944796
#
# Stress axis : x y z
#
# Youngs Moduli (GPa) = 121.66938 64.33280 92.17156
#
# Poissons Ratio (x) = 0.29223 0.07367
# Poissons Ratio (y) = 0.55268 0.20652
# Poissons Ratio (z) = 0.09724 0.14414
#
# Static dielectric constant tensor:
#      x y z
#    x 3.876040 0.000000 0.000000 
#    y 0.000000 3.004090 0.000000 
#    z 0.000000 0.000000 3.392270 
# 
# 
# High freq. dielectric constant tensor:
#      x y z
#    x 1.727310 0.000000 0.000000 
#    y 0.000000 1.642530 0.000000 
#    z 0.000000 0.000000 1.698630 
# 
# From -- ./inp_files/6317.got.cif
#   From: 2010.03.12/outbox.cif.g09.slc.cpg/sg47_4_cif.got.tgz:6317.got - 2010.04.14 03:12:58.
