data_PCOD8194753
_publ_section_title
;
Structure prediction by ZEFSAII (Michael W. Deem and Ramdas Pophale) SiO2 
 PCOD8194753
Probable space group: P M M M
;
_chemical_formula_sum "Si O2"
_cell_formula_units_Z 52
_cell_length_a 16.804314
_cell_length_b 12.671381
_cell_length_c 14.598514
_cell_angle_alpha 90.000000
_cell_angle_beta 90.000000
_cell_angle_gamma 90.000000
_cell_volume 3108.518011
_symmetry_space_group_name_H-M "P M M M"
_symmetry_group_IT_number 47
_symmetry_cell_setting 'orthorhombic'
loop_
_space_group_symop_operation_xyz
x,y,z
-x,-y,z
x,-y,-z
-x,y,-z
-x,-y,-z
x,y,-z
-x,y,z
x,-y,z
loop_
_atom_site_type_symbol
_atom_site_label
_atom_site_fract_x
_atom_site_fract_y
_atom_site_fract_z
Si Si1 0.908332 0.376123 0.778728
Si Si2 0.649966 0.877438 0.105607
Si Si3 0.820877 0.624959 0.600519
Si Si4 0.646494 0.615936 0.607840
Si Si5 0.500000 0.122320 0.783308
Si Si6 0.820586 0.205947 0.892757
Si Si7 0.500000 0.757836 0.608042
Si Si8 0.090242 0.000000 0.890998
O O1 0.892037 0.500000 0.793978
O O2 0.886639 0.341773 0.674736
O O3 0.852604 0.312918 0.847895
O O4 0.000000 0.347725 0.796496
O O5 0.579135 0.831291 0.168518
O O6 0.727471 0.807905 0.128579
O O7 0.669669 0.000000 0.126387
O O8 0.624926 0.864118 0.000000
O O9 0.844035 0.671578 0.500000
O O10 0.814781 0.500000 0.592050
O O11 0.733175 0.665022 0.632443
O O12 0.640231 0.602400 0.500000
O O13 0.634572 0.500000 0.653357
O O14 0.577103 0.693096 0.639988
O O15 0.500000 0.140105 0.673572
O O16 0.500000 0.000000 0.804634
O O17 0.867381 0.104788 0.852182
O O18 0.836774 0.215988 0.000000
O O19 0.500000 0.788944 0.500000
O O20 0.000000 0.000000 0.856165
O O21 0.096784 0.000000 0.000000
#
# Coordination Sequence:
#
# PCOD8194753 Si02
#       8
#     8   8   8   8   4   8   4   4
#     4  10  21  33  46  70 102 134 166 197 237 296
#     4   9  17  33  54  74  93 116 153 203 250 287
#     4   8  15  29  48  68  92 123 159 202 245 279
#     4   8  14  26  44  66  90 115 148 192 237 275
#     4  10  21  32  47  71  98 128 157 189 234 285
#     4  10  19  32  51  73  98 128 160 200 246 290
#     4  10  19  28  43  69  98 128 155 181 222 281
#     4   9  16  28  48  73  96 118 153 201 252 292
#
# _framework density 16.728228000000001
#
# number of rings (size 3 to 8) (size 9 to 14) (size 15 to 20)
#    0.000    2.846    0.769    1.846    2.154    3.538 
#    0.000    2.308    0.000    0.000    0.000    0.538 
#    0.000    6.769    0.000    0.000    0.000    0.000 
#
# Total GULP energy -644503.761214 kJ/mol
# GULP energy per Si atom -12394.303100 kJ/mol
# Density = 1.669015 g / cm^3
# Si number density = 16.728228 Si / 1000 Ang^3
#
#
#
# Elastic Constant Matrix: (Units=GPa)
#
#
# Indices 1 2 3 4 5 6 
#
# 1 109.8492 42.1883 52.3367 0.0000 0.0000 0.0000
# 2 42.1883 48.4851 32.9398 0.0000 0.0000 0.0000
# 3 52.3367 32.9398 73.9437 0.0000 0.0000 0.0000
# 4 0.0000 0.0000 0.0000 19.4426 0.0000 0.0000
# 5 0.0000 0.0000 0.0000 0.0000 24.9357 0.0000
# 6 0.0000 0.0000 0.0000 0.0000 0.0000 17.5775
#
#
#
# Elastic Compliance Matrix: (Units=1/GPa)
#
#
# Indices 1 2 3 4 5 6 
#
# 1 0.016059 -0.008964 -0.007373 0.000000 0.000000 0.000000
# 2 -0.008964 0.034580 -0.009059 0.000000 0.000000 0.000000
# 3 -0.007373 -0.009059 0.022778 0.000000 0.000000 0.000000
# 4 0.000000 0.000000 0.000000 0.051434 0.000000 0.000000
# 5 0.000000 0.000000 0.000000 0.000000 0.040103 0.000000
# 6 0.000000 0.000000 0.000000 0.000000 0.000000 0.056891
#
#
# Mechanical properties :
#
#
# Convention : Reuss Voigt Hill
#
# Bulk Modulus (GPa) = 44.20227 54.13418 49.16822
# Shear Modulus (GPa) = 17.84571 19.37871 18.61221
#
# Velocity S-wave (km/s) = 3.26974 3.40728 3.33922
# Velocity P-wave (km/s) = 6.38248 6.92175 6.65758
#
# Compressibility (1/GPa) = 0.02262327
#
# Stress axis : x y z
#
# Youngs Moduli (GPa) = 62.27023 28.91857 43.90173
#
# Poissons Ratio (x) = 0.25924 0.32369
# Poissons Ratio (y) = 0.55821 0.39773
# Poissons Ratio (z) = 0.45912 0.26199
#
# Static dielectric constant tensor:
#      x y z
#    x 3.442470 0.000000 0.000000 
#    y 0.000000 2.971830 0.000000 
#    z 0.000000 0.000000 2.982360 
# 
# 
# High freq. dielectric constant tensor:
#      x y z
#    x 1.660250 0.000000 0.000000 
#    y 0.000000 1.609900 0.000000 
#    z 0.000000 0.000000 1.621360 
# 
# From -- ./inp_files/24668.got.cif
#   From: 2010.03.12/outbox.cif.g09.slc.cpg/sg47_13_cif.got.tgz:24668.got - 2010.04.14 03:12:58.
