data_PCOD8194775
_publ_section_title
;
Structure prediction by ZEFSAII (Michael W. Deem and Ramdas Pophale) SiO2 
 PCOD8194775
Probable space group: P M M M
;
_chemical_formula_sum "Si O2"
_cell_formula_units_Z 60
_cell_length_a 19.446682
_cell_length_b 28.553113
_cell_length_c 9.044758
_cell_angle_alpha 90.000000
_cell_angle_beta 90.000000
_cell_angle_gamma 90.000000
_cell_volume 5022.222253
_symmetry_space_group_name_H-M "P M M M"
_symmetry_group_IT_number 47
_symmetry_cell_setting 'orthorhombic'
loop_
_space_group_symop_operation_xyz
x,y,z
-x,-y,z
x,-y,-z
-x,y,-z
-x,-y,-z
x,y,-z
-x,y,z
x,-y,z
loop_
_atom_site_type_symbol
_atom_site_label
_atom_site_fract_x
_atom_site_fract_y
_atom_site_fract_z
Si Si1 0.081553 0.732023 0.834147
Si Si2 0.290419 0.945188 0.672330
Si Si3 0.917871 0.641293 0.665931
Si Si4 0.080318 0.825916 0.326852
Si Si5 0.918255 0.448536 0.166232
Si Si6 0.076738 0.000000 0.824440
Si Si7 0.841019 0.090241 0.823928
Si Si8 0.575480 0.944449 0.165900
O O1 0.111092 0.684529 0.761849
O O2 0.104441 0.775666 0.733970
O O3 0.000000 0.729074 0.839715
O O4 0.111358 0.737367 0.000000
O O5 0.281220 0.935373 0.500000
O O6 0.235790 0.914795 0.762994
O O7 0.365670 0.926913 0.722149
O O8 0.280787 0.000000 0.710475
O O9 0.890088 0.646728 0.500000
O O10 0.888226 0.592531 0.730764
O O11 0.000000 0.641189 0.668428
O O12 0.096369 0.828247 0.500000
O O13 0.124222 0.863877 0.240474
O O14 0.000000 0.834714 0.294059
O O15 0.894459 0.500000 0.224014
O O16 0.000000 0.446156 0.166603
O O17 0.891072 0.440564 0.000000
O O18 0.115515 0.954139 0.766208
O O19 0.000000 0.000000 0.757900
O O20 0.074508 0.000000 0.000000
O O21 0.839387 0.093360 0.000000
O O22 0.500000 0.925581 0.216104
O O23 0.573693 0.000000 0.166983
O O24 0.592151 0.926681 0.000000
#
# Coordination Sequence:
#
# PCOD8194775 Si02
#       8
#     8   8   8   8   8   4   8   8
#     4   9  16  26  39  51  61  76  99 125 154 191
#     4  10  19  29  41  57  78  97 113 133 158 189
#     4   9  15  21  30  44  60  76  94 119 151 184
#     4  10  20  32  43  55  70  84 101 132 172 207
#     4   8  13  20  28  38  54  76  99 120 142 173
#     4   9  18  30  43  57  68  81 106 137 163 192
#     4  11  20  31  45  57  71  90 112 136 161 195
#     4   8  14  25  41  59  77  96 117 136 152 175
#
# _framework density 11.946902
#
# number of rings (size 3 to 8) (size 9 to 14) (size 15 to 20)
#    0.000    2.733    0.667    3.200    0.000    5.600 
#    0.000    2.667    0.000    1.600    0.000    0.000 
#    0.000    0.000    0.000    0.000    0.000    0.000 
#
# Total GULP energy -743753.620378 kJ/mol
# GULP energy per Si atom -12395.893673 kJ/mol
# Density = 1.191971 g / cm^3
# Si number density = 11.946902 Si / 1000 Ang^3
#
#
#
# Elastic Constant Matrix: (Units=GPa)
#
#
# Indices 1 2 3 4 5 6 
#
# 1 49.3099 25.4181 27.6425 0.0000 0.0000 0.0000
# 2 25.4181 81.9659 39.9623 0.0000 0.0000 0.0000
# 3 27.6425 39.9623 78.4054 0.0000 0.0000 0.0000
# 4 0.0000 0.0000 0.0000 20.0497 0.0000 0.0000
# 5 0.0000 0.0000 0.0000 0.0000 13.4601 0.0000
# 6 0.0000 0.0000 0.0000 0.0000 0.0000 0.5579
#
#
#
# Elastic Compliance Matrix: (Units=1/GPa)
#
#
# Indices 1 2 3 4 5 6 
#
# 1 0.026680 -0.004907 -0.006905 0.000000 0.000000 0.000000
# 2 -0.004907 0.017137 -0.007004 0.000000 0.000000 0.000000
# 3 -0.006905 -0.007004 0.018759 0.000000 0.000000 0.000000
# 4 0.000000 0.000000 0.000000 0.049876 0.000000 0.000000
# 5 0.000000 0.000000 0.000000 0.000000 0.074294 0.000000
# 6 0.000000 0.000000 0.000000 0.000000 0.000000 1.792305
#
#
# Mechanical properties :
#
#
# Convention : Reuss Voigt Hill
#
# Bulk Modulus (GPa) = 40.09228 43.96967 42.03097
# Shear Modulus (GPa) = 2.46914 14.59078 8.52996
#
# Velocity S-wave (km/s) = 1.43918 3.49851 2.67496
# Velocity P-wave (km/s) = 6.03268 7.29407 6.69316
#
# Compressibility (1/GPa) = 0.02494246
#
# Stress axis : x y z
#
# Youngs Moduli (GPa) = 37.48071 58.35362 53.30820
#
# Poissons Ratio (x) = 0.28634 0.36811
# Poissons Ratio (y) = 0.18392 0.37339
# Poissons Ratio (z) = 0.25882 0.40873
#
# Static dielectric constant tensor:
#      x y z
#    x 2.245270 0.000000 0.000000 
#    y 0.000000 2.490580 0.000000 
#    z 0.000000 0.000000 2.585970 
# 
# 
# High freq. dielectric constant tensor:
#      x y z
#    x 1.397230 0.000000 0.000000 
#    y 0.000000 1.437080 0.000000 
#    z 0.000000 0.000000 1.465350 
# 
# From -- ./inp_files/11986.got.cif
#   From: 2010.03.12/outbox.cif.g09.slc.cpg/sg47_6_cif.got.tgz:11986.got - 2010.04.14 03:12:58.
