data_PCOD8194791
_publ_section_title
;
Structure prediction by ZEFSAII (Michael W. Deem and Ramdas Pophale) SiO2 
 PCOD8194791
Probable space group: P M M M
;
_chemical_formula_sum "Si O2"
_cell_formula_units_Z 56
_cell_length_a 9.223800
_cell_length_b 29.381244
_cell_length_c 13.763724
_cell_angle_alpha 90.000000
_cell_angle_beta 90.000000
_cell_angle_gamma 90.000000
_cell_volume 3730.061674
_symmetry_space_group_name_H-M "P M M M"
_symmetry_group_IT_number 47
_symmetry_cell_setting 'orthorhombic'
loop_
_space_group_symop_operation_xyz
x,y,z
-x,-y,z
x,-y,-z
-x,y,-z
-x,-y,-z
x,y,-z
-x,y,z
x,-y,z
loop_
_atom_site_type_symbol
_atom_site_label
_atom_site_fract_x
_atom_site_fract_y
_atom_site_fract_z
Si Si1 0.168594 0.192820 0.890057
Si Si2 0.163591 0.549726 0.115428
Si Si3 0.172510 0.049826 0.389791
Si Si4 0.669600 0.363620 0.110466
Si Si5 0.170968 0.230252 0.388729
Si Si6 0.169541 0.138253 0.709079
Si Si7 0.671793 0.271717 0.784290
O O1 0.207975 0.149892 0.821039
O O2 0.265010 0.235771 0.861035
O O3 0.000000 0.206193 0.876152
O O4 0.203469 0.178312 0.000000
O O5 0.219287 0.500000 0.152463
O O6 0.259991 0.590934 0.156663
O O7 0.000000 0.557420 0.151444
O O8 0.171247 0.550238 0.000000
O O9 0.222734 0.058919 0.500000
O O10 0.240830 0.090067 0.322782
O O11 0.000000 0.049918 0.384279
O O12 0.229540 0.000000 0.354938
O O13 0.500000 0.371524 0.111639
O O14 0.714929 0.321347 0.177106
O O15 0.723525 0.354618 0.000000
O O16 0.212009 0.239801 0.500000
O O17 0.223267 0.179474 0.359718
O O18 0.256688 0.266077 0.321786
O O19 0.000000 0.235851 0.369825
O O20 0.000000 0.132951 0.693727
O O21 0.500000 0.264970 0.777488
#
# Coordination Sequence:
#
# PCOD8194791 Si02
#       7
#     8   8   8   8   8   8   8
#     4   9  17  28  41  56  75 103 138 170 200 237
#     4   8  14  24  37  54  76 102 133 167 199 229
#     4   8  12  17  28  49  75 100 125 155 195 243
#     4   9  17  27  38  54  78 108 137 163 194 232
#     4   9  17  29  44  60  79 105 135 164 196 238
#     4   8  13  22  36  53  74 101 131 161 193 232
#     4  10  19  29  41  59  83 107 133 167 204 239
#
# _framework density 15.013157
#
# number of rings (size 3 to 8) (size 9 to 14) (size 15 to 20)
#    0.000    3.286    0.000    3.000    0.000    4.286 
#    0.000    2.857    0.000    0.429    0.000    3.000 
#    0.000    9.714    0.000   42.857    0.000   39.143 
#
# Total GULP energy -693938.820082 kJ/mol
# GULP energy per Si atom -12391.764644 kJ/mol
# Density = 1.497899 g / cm^3
# Si number density = 15.013157 Si / 1000 Ang^3
#
#
#
# Elastic Constant Matrix: (Units=GPa)
#
#
# Indices 1 2 3 4 5 6 
#
# 1 32.3535 40.3835 29.3790 0.0000 0.0000 0.0000
# 2 40.3835 147.9780 65.9986 0.0000 0.0000 0.0000
# 3 29.3790 65.9986 102.1883 0.0000 0.0000 0.0000
# 4 0.0000 0.0000 0.0000 20.2359 0.0000 0.0000
# 5 0.0000 0.0000 0.0000 0.0000 15.1088 0.0000
# 6 0.0000 0.0000 0.0000 0.0000 0.0000 5.5960
#
#
#
# Elastic Compliance Matrix: (Units=1/GPa)
#
#
# Indices 1 2 3 4 5 6 
#
# 1 0.051134 -0.010391 -0.007990 0.000000 0.000000 0.000000
# 2 -0.010391 0.011604 -0.004507 0.000000 0.000000 0.000000
# 3 -0.007990 -0.004507 0.014994 0.000000 0.000000 0.000000
# 4 0.000000 0.000000 0.000000 0.049417 0.000000 0.000000
# 5 0.000000 0.000000 0.000000 0.000000 0.066186 0.000000
# 6 0.000000 0.000000 0.000000 0.000000 0.000000 0.178701
#
#
# Mechanical properties :
#
#
# Convention : Reuss Voigt Hill
#
# Bulk Modulus (GPa) = 31.29323 61.56022 46.42672
# Shear Modulus (GPa) = 11.66963 17.97205 14.82084
#
# Velocity S-wave (km/s) = 2.79102 3.46365 3.14537
# Velocity P-wave (km/s) = 5.59245 7.55573 6.64697
#
# Compressibility (1/GPa) = 0.03195579
#
# Stress axis : x y z
#
# Youngs Moduli (GPa) = 19.55648 86.18062 66.69501
#
# Poissons Ratio (x) = 0.89551 0.53288
# Poissons Ratio (y) = 0.20321 0.30058
# Poissons Ratio (z) = 0.15625 0.38840
#
# Static dielectric constant tensor:
#      x y z
#    x 2.664760 0.000000 0.000000 
#    y 0.000000 3.226260 0.000000 
#    z 0.000000 0.000000 2.816830 
# 
# 
# High freq. dielectric constant tensor:
#      x y z
#    x 1.548120 0.000000 0.000000 
#    y 0.000000 1.574870 0.000000 
#    z 0.000000 0.000000 1.548130 
# 
# From -- ./inp_files/8158.got.cif
#   From: 2010.03.12/outbox.cif.g09.slc.cpg/sg47_5_cif.got.tgz:8158.got - 2010.04.14 03:12:58.
