data_PCOD8194292
_publ_section_title
;
Structure prediction by ZEFSAII (Michael W. Deem and Ramdas Pophale) SiO2 
 PCOD8194292
Probable space group: P M M M
;
_chemical_formula_sum "Si O2"
_cell_formula_units_Z 32
_cell_length_a 23.944057
_cell_length_b 7.851390
_cell_length_c 7.979397
_cell_angle_alpha 90.000000
_cell_angle_beta 90.000000
_cell_angle_gamma 90.000000
_cell_volume 1500.079794
_symmetry_space_group_name_H-M "P M M M"
_symmetry_group_IT_number 47
_symmetry_cell_setting 'orthorhombic'
loop_
_space_group_symop_operation_xyz
x,y,z
-x,-y,z
x,-y,-z
-x,y,-z
-x,-y,-z
x,y,-z
-x,y,z
x,-y,z
loop_
_atom_site_type_symbol
_atom_site_label
_atom_site_fract_x
_atom_site_fract_y
_atom_site_fract_z
Si Si1 0.062610 0.500000 0.199814
Si Si2 0.250571 0.308759 0.307569
Si Si3 0.367297 0.297475 0.814808
Si Si4 0.135898 0.188664 0.194805
Si Si5 0.563150 0.296648 0.500000
O O1 0.093945 0.331075 0.268394
O O2 0.000000 0.500000 0.273370
O O3 0.060536 0.500000 0.000000
O O4 0.268603 0.309627 0.500000
O O5 0.236348 0.500000 0.245264
O O6 0.303612 0.232329 0.208107
O O7 0.196057 0.194716 0.282053
O O8 0.366884 0.500000 0.800245
O O9 0.407086 0.223891 0.668287
O O10 0.388465 0.239461 0.000000
O O11 0.110516 0.000000 0.227160
O O12 0.145252 0.223650 0.000000
O O13 0.564667 0.500000 0.500000
O O14 0.500000 0.228371 0.500000
#
# Coordination Sequence:
#
# PCOD8194292 Si02
#       5
#     4   8   8   8   4
#     4   9  18  34  55  79 111 149 187 230 281 335
#     4  10  18  30  50  73 101 137 180 231 288 347
#     4   9  16  26  42  65  95 136 184 233 288 344
#     4  10  20  33  52  80 110 141 183 232 283 342
#     4   9  16  26  38  60  99 141 187 237 281 338
#
# _framework density 21.332198000000002
#
# number of rings (size 3 to 8) (size 9 to 14) (size 15 to 20)
#    0.000    2.500    2.500    0.750    0.000    2.500 
#    0.000    5.000    0.000    1.500    0.000    1.750 
#    0.000    2.000    0.000    5.250    0.000    5.000 
#
# Total GULP energy -396689.116073 kJ/mol
# GULP energy per Si atom -12396.534877 kJ/mol
# Density = 2.128365 g / cm^3
# Si number density = 21.332198 Si / 1000 Ang^3
#
#
#
# Elastic Constant Matrix: (Units=GPa)
#
#
# Indices 1 2 3 4 5 6 
#
# 1 162.8496 41.6499 59.0065 0.0000 0.0000 0.0000
# 2 41.6499 81.8228 21.4284 0.0000 0.0000 0.0000
# 3 59.0065 21.4284 110.6172 0.0000 0.0000 0.0000
# 4 0.0000 0.0000 0.0000 7.5682 0.0000 0.0000
# 5 0.0000 0.0000 0.0000 0.0000 25.6746 0.0000
# 6 0.0000 0.0000 0.0000 0.0000 0.0000 4.3546
#
#
#
# Elastic Compliance Matrix: (Units=1/GPa)
#
#
# Indices 1 2 3 4 5 6 
#
# 1 0.008360 -0.003253 -0.003829 0.000000 0.000000 0.000000
# 2 -0.003253 0.014140 -0.001004 0.000000 0.000000 0.000000
# 3 -0.003829 -0.001004 0.011277 0.000000 0.000000 0.000000
# 4 0.000000 0.000000 0.000000 0.132132 0.000000 0.000000
# 5 0.000000 0.000000 0.000000 0.000000 0.038949 0.000000
# 6 0.000000 0.000000 0.000000 0.000000 0.000000 0.229640
#
#
# Mechanical properties :
#
#
# Convention : Reuss Voigt Hill
#
# Bulk Modulus (GPa) = 56.80108 66.60659 61.70383
# Shear Modulus (GPa) = 10.95198 23.06648 17.00923
#
# Velocity S-wave (km/s) = 2.26829 3.29188 2.82680
# Velocity P-wave (km/s) = 5.79180 6.76313 6.29622
#
# Compressibility (1/GPa) = 0.01760530
#
# Stress axis : x y z
#
# Youngs Moduli (GPa) = 119.61646 70.72057 88.67265
#
# Poissons Ratio (x) = 0.23003 0.33956
# Poissons Ratio (y) = 0.38906 0.08904
# Poissons Ratio (z) = 0.45806 0.07101
#
# Static dielectric constant tensor:
#      x y z
#    x 3.823650 0.000000 0.000000 
#    y 0.000000 3.479300 0.000000 
#    z 0.000000 0.000000 3.776200 
# 
# 
# High freq. dielectric constant tensor:
#      x y z
#    x 1.826030 0.000000 0.000000 
#    y 0.000000 1.800770 0.000000 
#    z 0.000000 0.000000 1.827400 
# 
# From -- ./inp_files/12014.got.cif
#   From: 2010.03.12/outbox.cif.g09.slc.cpg/sg47_7_cif.got.tgz:12014.got - 2010.04.14 03:12:58.
