data_PCOD8194243
_publ_section_title
;
Structure prediction by ZEFSAII (Michael W. Deem and Ramdas Pophale) SiO2 
 PCOD8194243
Probable space group: P M M M
;
_chemical_formula_sum "Si O2"
_cell_formula_units_Z 52
_cell_length_a 9.041801
_cell_length_b 28.163908
_cell_length_c 11.940559
_cell_angle_alpha 90.000000
_cell_angle_beta 90.000000
_cell_angle_gamma 90.000000
_cell_volume 3040.692622
_symmetry_space_group_name_H-M "P M M M"
_symmetry_group_IT_number 47
_symmetry_cell_setting 'orthorhombic'
loop_
_space_group_symop_operation_xyz
x,y,z
-x,-y,z
x,-y,-z
-x,y,-z
-x,-y,-z
x,y,-z
-x,y,z
x,-y,z
loop_
_atom_site_type_symbol
_atom_site_label
_atom_site_fract_x
_atom_site_fract_y
_atom_site_fract_z
Si Si1 0.337905 0.167234 0.000000
Si Si2 0.668218 0.774964 0.224167
Si Si3 0.670379 0.947667 0.225098
Si Si4 0.666271 0.592583 0.132900
Si Si5 0.173123 0.073874 0.000000
Si Si6 0.825877 0.688194 0.129331
Si Si7 0.832887 0.500000 0.866283
Si Si8 0.323814 0.139179 0.374313
O O1 0.321778 0.199454 0.106732
O O2 0.206933 0.129633 0.000000
O O3 0.500000 0.142074 0.000000
O O4 0.500000 0.759591 0.251497
O O5 0.769826 0.728559 0.214884
O O6 0.729857 0.811559 0.317720
O O7 0.500000 0.935847 0.197940
O O8 0.758981 0.949721 0.109847
O O9 0.735830 0.906938 0.306875
O O10 0.685051 0.000000 0.281835
O O11 0.500000 0.593973 0.181344
O O12 0.752616 0.639506 0.171079
O O13 0.749909 0.546469 0.181090
O O14 0.662698 0.589568 0.000000
O O15 0.000000 0.064734 0.000000
O O16 0.000000 0.683047 0.140938
O O17 0.781263 0.699394 0.000000
O O18 0.000000 0.500000 0.820568
O O19 0.832381 0.500000 0.000000
O O20 0.259789 0.137107 0.500000
O O21 0.500000 0.137756 0.374800
#
# Coordination Sequence:
#
# PCOD8194243 Si02
#       8
#     4   8   8   8   4   8   4   8
#     4  10  18  31  51  72  94 122 157 190 233 286
#     4  10  18  30  49  68  91 120 150 189 235 284
#     4  10  20  35  55  76  99 127 156 189 232 281
#     4   9  16  25  37  54  79 115 159 198 235 280
#     4  12  23  33  50  75 104 128 153 189 231 278
#     4  10  19  28  40  62  91 118 151 195 239 282
#     4   9  15  23  35  51  77 115 158 201 240 273
#     4   9  18  33  53  76  97 119 154 197 236 278
#
# _framework density 17.101367
#
# number of rings (size 3 to 8) (size 9 to 14) (size 15 to 20)
#    0.000    2.231    2.308    2.077    0.000    5.538 
#    0.000    1.538    0.000    1.846    0.000    1.077 
#    0.000    0.000    0.000    0.692    0.000   14.385 
#
# Total GULP energy -644644.651997 kJ/mol
# GULP energy per Si atom -12397.012538 kJ/mol
# Density = 1.706244 g / cm^3
# Si number density = 17.101367 Si / 1000 Ang^3
#
#
#
# Elastic Constant Matrix: (Units=GPa)
#
#
# Indices 1 2 3 4 5 6 
#
# 1 87.9530 58.2426 24.3201 0.0000 0.0000 0.0000
# 2 58.2426 154.8051 45.3458 0.0000 0.0000 0.0000
# 3 24.3201 45.3458 80.3572 0.0000 0.0000 0.0000
# 4 0.0000 0.0000 0.0000 8.0256 0.0000 0.0000
# 5 0.0000 0.0000 0.0000 0.0000 10.9846 0.0000
# 6 0.0000 0.0000 0.0000 0.0000 0.0000 17.8652
#
#
#
# Elastic Compliance Matrix: (Units=1/GPa)
#
#
# Indices 1 2 3 4 5 6 
#
# 1 0.015325 -0.005280 -0.001659 0.000000 0.000000 0.000000
# 2 -0.005280 0.009558 -0.003796 0.000000 0.000000 0.000000
# 3 -0.001659 -0.003796 0.015088 0.000000 0.000000 0.000000
# 4 0.000000 0.000000 0.000000 0.124601 0.000000 0.000000
# 5 0.000000 0.000000 0.000000 0.000000 0.091036 0.000000
# 6 0.000000 0.000000 0.000000 0.000000 0.000000 0.055975
#
#
# Mechanical properties :
#
#
# Convention : Reuss Voigt Hill
#
# Bulk Modulus (GPa) = 54.04583 64.32582 59.18582
# Shear Modulus (GPa) = 14.73974 20.38886 17.56430
#
# Velocity S-wave (km/s) = 2.93901 3.45662 3.20827
# Velocity P-wave (km/s) = 6.57182 7.32305 6.95758
#
# Compressibility (1/GPa) = 0.01850282
#
# Stress axis : x y z
#
# Youngs Moduli (GPa) = 65.25455 104.62451 66.27639
#
# Poissons Ratio (x) = 0.55239 0.10993
# Poissons Ratio (y) = 0.34453 0.25156
# Poissons Ratio (z) = 0.10823 0.39712
#
# Static dielectric constant tensor:
#      x y z
#    x 3.098200 0.000000 0.000000 
#    y 0.000000 3.378840 0.000000 
#    z 0.000000 0.000000 2.839720 
# 
# 
# High freq. dielectric constant tensor:
#      x y z
#    x 1.646240 0.000000 0.000000 
#    y 0.000000 1.674390 0.000000 
#    z 0.000000 0.000000 1.601620 
# 
# From -- ./inp_files/15587.got.cif
#   From: 2010.03.12/outbox.cif.g09.slc.cpg/sg47_8_cif.got.tgz:15587.got - 2010.04.14 03:12:58.
