data_PCOD8194598
_publ_section_title
;
Structure prediction by ZEFSAII (Michael W. Deem and Ramdas Pophale) SiO2 
 PCOD8194598
Probable space group: P M M M
;
_chemical_formula_sum "Si O2"
_cell_formula_units_Z 52
_cell_length_a 10.056046
_cell_length_b 17.434472
_cell_length_c 17.489688
_cell_angle_alpha 90.000000
_cell_angle_beta 90.000000
_cell_angle_gamma 90.000000
_cell_volume 3066.324498
_symmetry_space_group_name_H-M "P M M M"
_symmetry_group_IT_number 47
_symmetry_cell_setting 'orthorhombic'
loop_
_space_group_symop_operation_xyz
x,y,z
-x,-y,z
x,-y,-z
-x,y,-z
-x,-y,-z
x,y,-z
-x,y,z
x,-y,z
loop_
_atom_site_type_symbol
_atom_site_label
_atom_site_fract_x
_atom_site_fract_y
_atom_site_fract_z
Si Si1 0.776966 0.674160 0.817177
Si Si2 0.349510 0.803166 0.088005
Si Si3 0.655390 0.726604 0.588826
Si Si4 0.853584 0.798056 0.301133
Si Si5 0.846680 0.911230 0.171516
Si Si6 0.000000 0.589486 0.090351
Si Si7 0.656056 0.416179 0.685038
O O1 0.673894 0.725842 0.864278
O O2 0.857563 0.728077 0.758950
O O3 0.871193 0.630195 0.875551
O O4 0.697471 0.611242 0.768969
O O5 0.500000 0.831355 0.103667
O O6 0.247994 0.870565 0.110200
O O7 0.326599 0.783037 0.000000
O O8 0.688573 0.732219 0.500000
O O9 0.500000 0.741933 0.605733
O O10 0.741454 0.789847 0.633792
O O11 0.700671 0.642882 0.618791
O O12 0.822020 0.876337 0.255763
O O13 0.000000 0.802062 0.339465
O O14 0.000000 0.898287 0.146477
O O15 0.808995 0.000000 0.174692
O O16 0.000000 0.500000 0.112424
O O17 0.000000 0.601624 0.000000
O O18 0.500000 0.423702 0.683855
O O19 0.720114 0.500000 0.668244
#
# Coordination Sequence:
#
# PCOD8194598 Si02
#       7
#     8   8   8   8   8   4   8
#     4  10  18  33  49  67  94 129 166 214 253 297
#     4  10  21  34  50  73 101 135 172 211 257 308
#     4   9  18  31  48  72 102 131 161 201 247 297
#     4   9  17  31  52  74  94 125 165 200 241 291
#     4   9  19  35  54  77 104 132 165 207 254 303
#     4  11  22  32  46  70  96 128 170 215 266 314
#     4   9  17  29  48  71  93 124 165 206 252 302
#
# _framework density 16.958414000000001
#
# number of rings (size 3 to 8) (size 9 to 14) (size 15 to 20)
#    0.000    2.538    0.769    1.385    1.077    5.231 
#    0.000    3.077    0.000    0.462    0.000   11.846 
#    0.000    0.000    0.000    0.000    0.000    0.000 
#
# Total GULP energy -644687.532171 kJ/mol
# GULP energy per Si atom -12397.837157 kJ/mol
# Density = 1.691982 g / cm^3
# Si number density = 16.958414 Si / 1000 Ang^3
#
#
#
# Elastic Constant Matrix: (Units=GPa)
#
#
# Indices 1 2 3 4 5 6 
#
# 1 75.5806 35.1049 50.7480 0.0000 0.0000 0.0000
# 2 35.1049 58.2805 25.6505 0.0000 0.0000 0.0000
# 3 50.7480 25.6505 98.3309 0.0000 0.0000 0.0000
# 4 0.0000 0.0000 0.0000 17.3348 0.0000 0.0000
# 5 0.0000 0.0000 0.0000 0.0000 30.4775 0.0000
# 6 0.0000 0.0000 0.0000 0.0000 0.0000 23.9476
#
#
#
# Elastic Compliance Matrix: (Units=1/GPa)
#
#
# Indices 1 2 3 4 5 6 
#
# 1 0.024924 -0.010565 -0.010107 0.000000 0.000000 0.000000
# 2 -0.010565 0.023862 -0.000772 0.000000 0.000000 0.000000
# 3 -0.010107 -0.000772 0.015588 0.000000 0.000000 0.000000
# 4 0.000000 0.000000 0.000000 0.057687 0.000000 0.000000
# 5 0.000000 0.000000 0.000000 0.000000 0.032811 0.000000
# 6 0.000000 0.000000 0.000000 0.000000 0.000000 0.041758
#
#
# Mechanical properties :
#
#
# Convention : Reuss Voigt Hill
#
# Bulk Modulus (GPa) = 46.54362 50.57763 48.56062
# Shear Modulus (GPa) = 20.26913 22.39788 21.33351
#
# Velocity S-wave (km/s) = 3.46095 3.63816 3.55066
# Velocity P-wave (km/s) = 6.59365 6.89475 6.74588
#
# Compressibility (1/GPa) = 0.02148522
#
# Stress axis : x y z
#
# Youngs Moduli (GPa) = 40.12130 41.90801 64.15348
#
# Poissons Ratio (x) = 0.44274 0.64843
# Poissons Ratio (y) = 0.42386 0.04954
# Poissons Ratio (z) = 0.40553 0.03236
#
# Static dielectric constant tensor:
#      x y z
#    x 3.221900 0.000000 0.000000 
#    y 0.000000 3.325340 0.000000 
#    z 0.000000 0.000000 3.085580 
# 
# 
# High freq. dielectric constant tensor:
#      x y z
#    x 1.654610 0.000000 0.000000 
#    y 0.000000 1.647700 0.000000 
#    z 0.000000 0.000000 1.645340 
# 
# From -- ./inp_files/9576.got.cif
#   From: 2010.03.12/outbox.cif.g09.slc.cpg/sg47_5_cif.got.tgz:9576.got - 2010.04.14 03:12:58.
