data_PCOD8194327
_publ_section_title
;
Structure prediction by ZEFSAII (Michael W. Deem and Ramdas Pophale) SiO2 
 PCOD8194327
Probable space group: P M M M
;
_chemical_formula_sum "Si O2"
_cell_formula_units_Z 52
_cell_length_a 13.758679
_cell_length_b 9.065060
_cell_length_c 22.391236
_cell_angle_alpha 90.000000
_cell_angle_beta 90.000000
_cell_angle_gamma 90.000000
_cell_volume 2792.707740
_symmetry_space_group_name_H-M "P M M M"
_symmetry_group_IT_number 47
_symmetry_cell_setting 'orthorhombic'
loop_
_space_group_symop_operation_xyz
x,y,z
-x,-y,z
x,-y,-z
-x,y,-z
-x,-y,-z
x,y,-z
-x,y,z
x,-y,z
loop_
_atom_site_type_symbol
_atom_site_label
_atom_site_fract_x
_atom_site_fract_y
_atom_site_fract_z
Si Si1 0.610981 0.675349 0.734463
Si Si2 0.890848 0.675598 0.067298
Si Si3 0.386627 0.160609 0.934939
Si Si4 0.707537 0.325234 0.389068
Si Si5 0.110436 0.171054 0.569235
Si Si6 0.725734 0.328930 0.847006
Si Si7 0.385478 0.833676 0.500000
O O1 0.500000 0.737099 0.742374
O O2 0.606860 0.500000 0.739592
O O3 0.653985 0.725261 0.671165
O O4 0.687692 0.738781 0.783934
O O5 0.883237 0.500000 0.068055
O O6 0.821655 0.741412 0.120453
O O7 0.000000 0.727492 0.082427
O O8 0.862518 0.730505 0.000000
O O9 0.500000 0.157461 0.941569
O O10 0.360723 0.296710 0.892756
O O11 0.350675 0.000000 0.910281
O O12 0.339687 0.188464 0.000000
O O13 0.707391 0.500000 0.396739
O O14 0.818709 0.267774 0.389344
O O15 0.648511 0.251895 0.441986
O O16 0.137622 0.198289 0.500000
O O17 0.000000 0.221884 0.581631
O O18 0.122845 0.000000 0.585429
O O19 0.743478 0.500000 0.837657
O O20 0.500000 0.838870 0.500000
O O21 0.342047 0.000000 0.500000
#
# Coordination Sequence:
#
# PCOD8194327 Si02
#       7
#     8   8   8   8   8   8   4
#     4   9  19  34  49  70 105 140 167 206 262 312
#     4   8  14  25  43  71 104 131 159 204 259 304
#     4   9  18  31  45  65  97 131 159 197 255 311
#     4  11  21  34  54  79 105 137 174 214 263 322
#     4   9  18  34  56  80 108 139 166 202 258 313
#     4  10  18  30  51  74  94 127 175 216 247 293
#     4  11  23  37  54  77 104 133 171 222 272 319
#
# _framework density 18.61992
#
# number of rings (size 3 to 8) (size 9 to 14) (size 15 to 20)
#    0.000    2.538    0.769    3.462    0.000    3.385 
#    0.000    3.846    0.000    6.923    0.000    2.154 
#    0.000    0.000    0.000    0.000    0.000    0.000 
#
# Total GULP energy -644199.633037 kJ/mol
# GULP energy per Si atom -12388.454481 kJ/mol
# Density = 1.857754 g / cm^3
# Si number density = 18.619920 Si / 1000 Ang^3
#
#
#
# Elastic Constant Matrix: (Units=GPa)
#
#
# Indices 1 2 3 4 5 6 
#
# 1 124.9104 28.2520 80.7511 0.0000 0.0000 0.0000
# 2 28.2520 31.8629 26.8437 0.0000 0.0000 0.0000
# 3 80.7511 26.8437 145.7498 0.0000 0.0000 0.0000
# 4 0.0000 0.0000 0.0000 7.1891 0.0000 0.0000
# 5 0.0000 0.0000 0.0000 0.0000 -3.0973 0.0000
# 6 0.0000 0.0000 0.0000 0.0000 0.0000 23.0359
#
#
#
# Elastic Compliance Matrix: (Units=1/GPa)
#
#
# Indices 1 2 3 4 5 6 
#
# 1 0.013602 -0.006760 -0.006291 0.000000 0.000000 0.000000
# 2 -0.006760 0.040509 -0.003715 0.000000 0.000000 0.000000
# 3 -0.006291 -0.003715 0.011031 0.000000 0.000000 0.000000
# 4 0.000000 0.000000 0.000000 0.139099 0.000000 0.000000
# 5 0.000000 0.000000 0.000000 0.000000 -0.322862 0.000000
# 6 0.000000 0.000000 0.000000 0.000000 0.000000 0.043411
#
#
# Mechanical properties :
#
#
# Convention : Reuss Voigt Hill
#
# Bulk Modulus (GPa) = 31.63726 63.80185 47.71955
# Shear Modulus (GPa) = -160.55104 16.53729 -72.00688
#
# Velocity S-wave (km/s) = -9.29584 2.98342 -6.22542
# Velocity P-wave (km/s) = 9.90903 6.79761 5.09811
#
# Compressibility (1/GPa) = 0.03160830
#
# Stress axis : x y z
#
# Youngs Moduli (GPa) = 73.52113 24.68600 90.65673
#
# Poissons Ratio (x) = 0.16689 0.57029
# Poissons Ratio (y) = 0.49703 0.33681
# Poissons Ratio (z) = 0.46250 0.09172
#
# Static dielectric constant tensor:
#      x y z
#    x 3.673010 0.000000 0.000000 
#    y 0.000000 3.149530 0.000000 
#    z 0.000000 0.000000 3.593190 
# 
# 
# High freq. dielectric constant tensor:
#      x y z
#    x 1.732200 0.000000 0.000000 
#    y 0.000000 1.687560 0.000000 
#    z 0.000000 0.000000 1.713530 
# 
# From -- ./inp_files/30840.got.cif
#   From: 2010.03.12/outbox.cif.g09.slc.cpg/sg47_16_cif.got.tgz:30840.got - 2010.04.14 03:12:58.
