data_PCOD8194733
_publ_section_title
;
Structure prediction by ZEFSAII (Michael W. Deem and Ramdas Pophale) SiO2 
 PCOD8194733
Probable space group: P M M M
;
_chemical_formula_sum "Si O2"
_cell_formula_units_Z 48
_cell_length_a 24.026264
_cell_length_b 8.983512
_cell_length_c 13.621583
_cell_angle_alpha 90.000000
_cell_angle_beta 90.000000
_cell_angle_gamma 90.000000
_cell_volume 2940.085621
_symmetry_space_group_name_H-M "P M M M"
_symmetry_group_IT_number 47
_symmetry_cell_setting 'orthorhombic'
loop_
_space_group_symop_operation_xyz
x,y,z
-x,-y,z
x,-y,-z
-x,y,-z
-x,-y,-z
x,y,-z
-x,y,z
x,-y,z
loop_
_atom_site_type_symbol
_atom_site_label
_atom_site_fract_x
_atom_site_fract_y
_atom_site_fract_z
Si Si1 0.060995 0.666903 0.383630
Si Si2 0.666096 0.171616 0.112622
Si Si3 0.271605 0.324155 0.718365
Si Si4 0.829696 0.173682 0.385778
Si Si5 0.380802 0.675340 0.606899
Si Si6 0.437074 0.324163 0.800713
O O1 0.059130 0.667090 0.500000
O O2 0.074308 0.500000 0.345874
O O3 0.109001 0.779034 0.347776
O O4 0.000000 0.718244 0.343792
O O5 0.712735 0.255174 0.176367
O O6 0.604715 0.241315 0.126460
O O7 0.663746 0.000000 0.144395
O O8 0.683713 0.190202 0.000000
O O9 0.267145 0.500000 0.730963
O O10 0.213715 0.261550 0.680420
O O11 0.319068 0.277815 0.640621
O O12 0.821314 0.216497 0.500000
O O13 0.821902 0.000000 0.368240
O O14 0.393382 0.748535 0.500000
O O15 0.384265 0.500000 0.596359
O O16 0.425283 0.728249 0.688383
O O17 0.500000 0.281129 0.828859
O O18 0.426483 0.500000 0.810691
#
# Coordination Sequence:
#
# PCOD8194733 Si02
#       6
#     8   8   8   8   8   8
#     4   8  14  25  40  58  84 122 166 204 232 260
#     4  10  21  36  52  68  87 112 142 181 233 287
#     4  10  19  31  48  68  90 116 150 190 228 272
#     4  10  19  28  41  65  97 130 160 191 228 268
#     4   8  14  25  42  64  88 114 144 178 215 253
#     4   9  18  31  47  69  93 116 146 182 218 262
#
# _framework density 16.326056000000001
#
# number of rings (size 3 to 8) (size 9 to 14) (size 15 to 20)
#    0.000    2.833    0.000    3.500    0.000    4.333 
#    0.000    5.000    0.000    4.500    0.000    4.667 
#    0.000    0.667    0.000    7.000    0.000    3.333 
#
# Total GULP energy -594974.071943 kJ/mol
# GULP energy per Si atom -12395.293165 kJ/mol
# Density = 1.628890 g / cm^3
# Si number density = 16.326056 Si / 1000 Ang^3
#
#
#
# Elastic Constant Matrix: (Units=GPa)
#
#
# Indices 1 2 3 4 5 6 
#
# 1 112.6221 50.8445 32.6303 0.0000 0.0000 0.0000
# 2 50.8445 76.5708 35.5430 0.0000 0.0000 0.0000
# 3 32.6303 35.5430 66.6802 0.0000 0.0000 0.0000
# 4 0.0000 0.0000 0.0000 19.7515 0.0000 0.0000
# 5 0.0000 0.0000 0.0000 0.0000 19.2134 0.0000
# 6 0.0000 0.0000 0.0000 0.0000 0.0000 20.7801
#
#
#
# Elastic Compliance Matrix: (Units=1/GPa)
#
#
# Indices 1 2 3 4 5 6 
#
# 1 0.012947 -0.007516 -0.002330 0.000000 0.000000 0.000000
# 2 -0.007516 0.021717 -0.007898 0.000000 0.000000 0.000000
# 3 -0.002330 -0.007898 0.020347 0.000000 0.000000 0.000000
# 4 0.000000 0.000000 0.000000 0.050629 0.000000 0.000000
# 5 0.000000 0.000000 0.000000 0.000000 0.052047 0.000000
# 6 0.000000 0.000000 0.000000 0.000000 0.000000 0.048123
#
#
# Mechanical properties :
#
#
# Convention : Reuss Voigt Hill
#
# Bulk Modulus (GPa) = 51.21877 54.87874 53.04876
# Shear Modulus (GPa) = 20.17721 21.07269 20.62495
#
# Velocity S-wave (km/s) = 3.51934 3.59658 3.55817
# Velocity P-wave (km/s) = 6.92494 7.13683 7.03169
#
# Compressibility (1/GPa) = 0.01952409
#
# Stress axis : x y z
#
# Youngs Moduli (GPa) = 77.23578 46.04775 49.14791
#
# Poissons Ratio (x) = 0.34609 0.11449
# Poissons Ratio (y) = 0.58050 0.38816
# Poissons Ratio (z) = 0.17993 0.36367
#
# Static dielectric constant tensor:
#      x y z
#    x 3.248780 0.000000 0.000000 
#    y 0.000000 3.021270 0.000000 
#    z 0.000000 0.000000 2.908150 
# 
# 
# High freq. dielectric constant tensor:
#      x y z
#    x 1.625960 0.000000 0.000000 
#    y 0.000000 1.621060 0.000000 
#    z 0.000000 0.000000 1.595960 
# 
# From -- ./inp_files/7477.got.cif
#   From: 2010.03.12/outbox.cif.g09.slc.cpg/sg47_4_cif.got.tgz:7477.got - 2010.04.14 03:12:58.
