data_PCOD8194674
_publ_section_title
;
Structure prediction by ZEFSAII (Michael W. Deem and Ramdas Pophale) SiO2 
 PCOD8194674
Probable space group: P M M M
;
_chemical_formula_sum "Si O2"
_cell_formula_units_Z 60
_cell_length_a 9.251512
_cell_length_b 23.748213
_cell_length_c 18.555208
_cell_angle_alpha 90.000000
_cell_angle_beta 90.000000
_cell_angle_gamma 90.000000
_cell_volume 4076.706812
_symmetry_space_group_name_H-M "P M M M"
_symmetry_group_IT_number 47
_symmetry_cell_setting 'orthorhombic'
loop_
_space_group_symop_operation_xyz
x,y,z
-x,-y,z
x,-y,-z
-x,y,-z
-x,-y,-z
x,y,-z
-x,y,z
x,-y,z
loop_
_atom_site_type_symbol
_atom_site_label
_atom_site_fract_x
_atom_site_fract_y
_atom_site_fract_z
Si Si1 0.336046 0.780964 0.280875
Si Si2 0.830715 0.389930 0.916201
Si Si3 0.168287 0.063312 0.341037
Si Si4 0.663198 0.500000 0.914498
Si Si5 0.333245 0.161582 0.579798
Si Si6 0.166635 0.874505 0.202779
Si Si7 0.332548 0.827672 0.080752
Si Si8 0.663169 0.291564 0.155455
O O1 0.500000 0.802846 0.262838
O O2 0.311451 0.783704 0.367565
O O3 0.214932 0.820251 0.247401
O O4 0.319121 0.719843 0.242226
O O5 0.747778 0.444956 0.887203
O O6 0.777514 0.337617 0.869169
O O7 0.000000 0.399121 0.903794
O O8 0.795723 0.378368 0.000000
O O9 0.253911 0.106389 0.391002
O O10 0.197798 0.072569 0.255304
O O11 0.000000 0.072761 0.357268
O O12 0.217010 0.000000 0.360250
O O13 0.500000 0.500000 0.883453
O O14 0.661180 0.500000 0.000000
O O15 0.275187 0.177472 0.500000
O O16 0.500000 0.144929 0.576262
O O17 0.254255 0.876293 0.127712
O O18 0.000000 0.869097 0.182502
O O19 0.500000 0.842324 0.080972
O O20 0.303073 0.766117 0.113506
O O21 0.269498 0.829012 0.000000
O O22 0.500000 0.312218 0.137761
#
# Coordination Sequence:
#
# PCOD8194674 Si02
#       8
#     8   8   8   4   8   8   8   8
#     4   8  15  28  42  56  78 106 131 156 192 237
#     4  10  19  28  38  55  80 107 136 173 211 237
#     4   9  18  31  44  58  78 104 131 158 191 233
#     4   9  17  29  43  55  71 103 144 177 204 239
#     4   9  17  29  45  64  84 105 130 160 193 230
#     4   9  16  26  41  58  74  95 126 161 194 232
#     4   9  17  28  41  57  78 102 126 157 200 245
#     4   9  16  26  40  56  75 102 134 162 190 231
#
# _framework density 14.717762
#
# number of rings (size 3 to 8) (size 9 to 14) (size 15 to 20)
#    0.000    3.000    0.000    2.200    0.000    5.867 
#    0.000    1.333    0.000    0.400    0.000    2.800 
#    0.000    0.000    0.000    0.600    0.000   14.133 
#
# Total GULP energy -743394.190983 kJ/mol
# GULP energy per Si atom -12389.903183 kJ/mol
# Density = 1.468426 g / cm^3
# Si number density = 14.717762 Si / 1000 Ang^3
#
#
#
# Elastic Constant Matrix: (Units=GPa)
#
#
# Indices 1 2 3 4 5 6 
#
# 1 56.9207 29.8786 36.8513 0.0000 0.0000 0.0000
# 2 29.8786 50.2159 39.3296 0.0000 0.0000 0.0000
# 3 36.8513 39.3296 113.2022 0.0000 0.0000 0.0000
# 4 0.0000 0.0000 0.0000 13.9915 0.0000 0.0000
# 5 0.0000 0.0000 0.0000 0.0000 18.1702 0.0000
# 6 0.0000 0.0000 0.0000 0.0000 0.0000 21.4203
#
#
#
# Elastic Compliance Matrix: (Units=1/GPa)
#
#
# Indices 1 2 3 4 5 6 
#
# 1 0.027066 -0.012644 -0.004418 0.000000 0.000000 0.000000
# 2 -0.012644 0.033265 -0.007441 0.000000 0.000000 0.000000
# 3 -0.004418 -0.007441 0.012857 0.000000 0.000000 0.000000
# 4 0.000000 0.000000 0.000000 0.071472 0.000000 0.000000
# 5 0.000000 0.000000 0.000000 0.000000 0.055035 0.000000
# 6 0.000000 0.000000 0.000000 0.000000 0.000000 0.046685
#
#
# Mechanical properties :
#
#
# Convention : Reuss Voigt Hill
#
# Bulk Modulus (GPa) = 41.35333 48.05087 44.70210
# Shear Modulus (GPa) = 16.47736 18.33502 17.40619
#
# Velocity S-wave (km/s) = 3.34961 3.53338 3.44272
# Velocity P-wave (km/s) = 6.56646 7.02606 6.80014
#
# Compressibility (1/GPa) = 0.02418185
#
# Stress axis : x y z
#
# Youngs Moduli (GPa) = 36.94738 30.06139 77.77715
#
# Poissons Ratio (x) = 0.38009 0.34361
# Poissons Ratio (y) = 0.46716 0.57876
# Poissons Ratio (z) = 0.16323 0.22369
#
# Static dielectric constant tensor:
#      x y z
#    x 2.909080 0.000000 0.000000 
#    y 0.000000 2.684680 0.000000 
#    z 0.000000 0.000000 3.082900 
# 
# 
# High freq. dielectric constant tensor:
#      x y z
#    x 1.571270 0.000000 0.000000 
#    y 0.000000 1.525100 0.000000 
#    z 0.000000 0.000000 1.549610 
# 
# From -- ./inp_files/27174.got.cif
#   From: 2010.03.12/outbox.cif.g09.slc.cpg/sg47_14_cif.got.tgz:27174.got - 2010.04.14 03:12:58.
