data_PCOD8194816
_publ_section_title
;
Structure prediction by ZEFSAII (Michael W. Deem and Ramdas Pophale) SiO2 
 PCOD8194816
Probable space group: P M M M
;
_chemical_formula_sum "Si O2"
_cell_formula_units_Z 64
_cell_length_a 17.494489
_cell_length_b 15.487740
_cell_length_c 14.610547
_cell_angle_alpha 90.000000
_cell_angle_beta 90.000000
_cell_angle_gamma 90.000000
_cell_volume 3958.729128
_symmetry_space_group_name_H-M "P M M M"
_symmetry_group_IT_number 47
_symmetry_cell_setting 'orthorhombic'
loop_
_space_group_symop_operation_xyz
x,y,z
-x,-y,z
x,-y,-z
-x,y,-z
-x,-y,-z
x,y,-z
-x,y,z
x,-y,z
loop_
_atom_site_type_symbol
_atom_site_label
_atom_site_fract_x
_atom_site_fract_y
_atom_site_fract_z
Si Si1 0.086585 0.596289 0.891251
Si Si2 0.414440 0.862972 0.105205
Si Si3 0.797544 0.739137 0.105414
Si Si4 0.413832 0.253887 0.396513
Si Si5 0.370709 0.672775 0.101154
Si Si6 0.411254 0.592759 0.280694
Si Si7 0.693278 0.902989 0.601266
Si Si8 0.741293 0.903732 0.202592
O O1 0.111708 0.500000 0.856574
O O2 0.139472 0.673584 0.851638
O O3 0.000000 0.614864 0.859603
O O4 0.093025 0.597021 0.000000
O O5 0.500000 0.898230 0.130394
O O6 0.418212 0.760103 0.115334
O O7 0.347998 0.899466 0.170929
O O8 0.393817 0.887747 0.000000
O O9 0.718124 0.690773 0.117262
O O10 0.795100 0.831686 0.156435
O O11 0.815484 0.760133 0.000000
O O12 0.409338 0.287017 0.500000
O O13 0.500000 0.240453 0.362865
O O14 0.372174 0.327748 0.335291
O O15 0.376040 0.161739 0.383199
O O16 0.399663 0.602326 0.172368
O O17 0.384461 0.634753 0.000000
O O18 0.500000 0.591825 0.306026
O O19 0.375550 0.500000 0.309713
O O20 0.731707 0.886275 0.500000
O O21 0.749889 0.889911 0.687310
O O22 0.659924 0.000000 0.604140
O O23 0.771284 0.000000 0.177405
#
# Coordination Sequence:
#
# PCOD8194816 Si02
#       8
#     8   8   8   8   8   8   8   8
#     4   8  14  26  45  68  93 120 147 174 206 243
#     4   9  17  28  41  56  76 107 148 190 225 256
#     4   9  17  28  43  64  89 116 143 171 203 241
#     4   9  17  29  44  58  72  93 122 163 216 265
#     4   9  17  28  40  54  75 105 140 177 214 245
#     4  10  20  30  39  53  74 103 139 174 206 245
#     4   9  18  31  45  61  79  99 129 172 220 266
#     4  10  19  29  42  60  84 115 146 176 214 257
#
# _framework density 16.166803999999999
#
# number of rings (size 3 to 8) (size 9 to 14) (size 15 to 20)
#    0.000    2.875    0.000    3.375    0.000    4.750 
#    0.000    6.250    0.000    0.375    0.000    1.750 
#    0.000    0.500    0.000    4.500    0.000    0.875 
#
# Total GULP energy -792912.194088 kJ/mol
# GULP energy per Si atom -12389.253033 kJ/mol
# Density = 1.613001 g / cm^3
# Si number density = 16.166804 Si / 1000 Ang^3
#
#
#
# Elastic Constant Matrix: (Units=GPa)
#
#
# Indices 1 2 3 4 5 6 
#
# 1 44.9657 38.6493 15.1459 0.0000 0.0000 0.0000
# 2 38.6493 121.2270 44.0447 0.0000 0.0000 0.0000
# 3 15.1459 44.0447 69.3370 0.0000 0.0000 0.0000
# 4 0.0000 0.0000 0.0000 17.2243 0.0000 0.0000
# 5 0.0000 0.0000 0.0000 0.0000 7.0503 0.0000
# 6 0.0000 0.0000 0.0000 0.0000 0.0000 19.9140
#
#
#
# Elastic Compliance Matrix: (Units=1/GPa)
#
#
# Indices 1 2 3 4 5 6 
#
# 1 0.030655 -0.009543 -0.000634 0.000000 0.000000 0.000000
# 2 -0.009543 0.013695 -0.006615 0.000000 0.000000 0.000000
# 3 -0.000634 -0.006615 0.018763 0.000000 0.000000 0.000000
# 4 0.000000 0.000000 0.000000 0.058057 0.000000 0.000000
# 5 0.000000 0.000000 0.000000 0.000000 0.141839 0.000000
# 6 0.000000 0.000000 0.000000 0.000000 0.000000 0.050216
#
#
# Mechanical properties :
#
#
# Convention : Reuss Voigt Hill
#
# Bulk Modulus (GPa) = 33.86536 47.91217 40.88876
# Shear Modulus (GPa) = 14.01928 18.01704 16.01816
#
# Velocity S-wave (km/s) = 2.94796 3.34195 3.15112
# Velocity P-wave (km/s) = 5.70791 6.67773 6.21177
#
# Compressibility (1/GPa) = 0.02952870
#
# Stress axis : x y z
#
# Youngs Moduli (GPa) = 32.62077 73.02066 53.29716
#
# Poissons Ratio (x) = 0.69684 0.03381
# Poissons Ratio (y) = 0.31130 0.35255
# Poissons Ratio (z) = 0.02069 0.48301
#
# Static dielectric constant tensor:
#      x y z
#    x 2.723000 0.000000 0.000000 
#    y 0.000000 3.307770 0.000000 
#    z 0.000000 0.000000 3.141580 
# 
# 
# High freq. dielectric constant tensor:
#      x y z
#    x 1.558830 0.000000 0.000000 
#    y 0.000000 1.633020 0.000000 
#    z 0.000000 0.000000 1.610530 
# 
# From -- ./inp_files/24806.got.cif
#   From: 2010.03.12/outbox.cif.g09.slc.cpg/sg47_13_cif.got.tgz:24806.got - 2010.04.14 03:12:58.
