data_PCOD8194644
_publ_section_title
;
Structure prediction by ZEFSAII (Michael W. Deem and Ramdas Pophale) SiO2 
 PCOD8194644
Probable space group: P M M M
;
_chemical_formula_sum "Si O2"
_cell_formula_units_Z 56
_cell_length_a 13.706655
_cell_length_b 9.306259
_cell_length_c 29.250569
_cell_angle_alpha 90.000000
_cell_angle_beta 90.000000
_cell_angle_gamma 90.000000
_cell_volume 3731.134763
_symmetry_space_group_name_H-M "P M M M"
_symmetry_group_IT_number 47
_symmetry_cell_setting 'orthorhombic'
loop_
_space_group_symop_operation_xyz
x,y,z
-x,-y,z
x,-y,-z
-x,y,-z
-x,-y,-z
x,y,-z
-x,y,z
x,-y,z
loop_
_atom_site_type_symbol
_atom_site_label
_atom_site_fract_x
_atom_site_fract_y
_atom_site_fract_z
Si Si1 0.206991 0.663941 0.314749
Si Si2 0.610106 0.665682 0.627905
Si Si3 0.887112 0.831142 0.233862
Si Si4 0.116419 0.661543 0.146083
Si Si5 0.109242 0.670745 0.951596
Si Si6 0.284690 0.834536 0.447787
Si Si7 0.110697 0.665719 0.589926
O O1 0.199328 0.500000 0.297384
O O2 0.317281 0.702355 0.330360
O O3 0.178160 0.769731 0.274404
O O4 0.134319 0.690428 0.356888
O O5 0.500000 0.697686 0.644070
O O6 0.624856 0.500000 0.613609
O O7 0.634046 0.759647 0.583478
O O8 0.847629 0.765564 0.186336
O O9 0.000000 0.788788 0.242019
O O10 0.872465 0.000000 0.231686
O O11 0.153859 0.500000 0.156543
O O12 0.158603 0.719846 0.096696
O O13 0.000000 0.661844 0.142662
O O14 0.104685 0.500000 0.949247
O O15 0.000000 0.733278 0.953637
O O16 0.162110 0.718019 0.000000
O O17 0.318525 0.817971 0.500000
O O18 0.179013 0.762454 0.441697
O O19 0.276177 0.000000 0.433298
O O20 0.128267 0.500000 0.576843
O O21 0.000000 0.712718 0.580701
#
# Coordination Sequence:
#
# PCOD8194644 Si02
#       7
#     8   8   8   8   8   8   8
#     4   9  17  30  47  64  81 101 128 162 199 240
#     4   9  19  36  55  71  85 103 130 165 203 242
#     4  10  19  27  36  54  81 110 137 166 199 234
#     4   8  13  21  33  48  67  95 131 168 204 239
#     4   7   9  14  26  44  63  84 118 166 210 240
#     4  10  21  34  47  67  94 118 138 162 194 234
#     4   9  18  32  49  67  86 111 143 175 203 233
#
# _framework density 15.008838000000001
#
# number of rings (size 3 to 8) (size 9 to 14) (size 15 to 20)
#    0.000    3.143    0.000    3.429    0.000    6.000 
#    0.000    2.857    0.000    0.429    0.000    3.000 
#    0.000    0.000    0.000    0.000    0.000    0.714 
#
# Total GULP energy -693897.103602 kJ/mol
# GULP energy per Si atom -12391.019707 kJ/mol
# Density = 1.497468 g / cm^3
# Si number density = 15.008838 Si / 1000 Ang^3
#
#
#
# Elastic Constant Matrix: (Units=GPa)
#
#
# Indices 1 2 3 4 5 6 
#
# 1 64.9219 29.1327 31.1728 0.0000 0.0000 0.0000
# 2 29.1327 68.3176 53.5185 0.0000 0.0000 0.0000
# 3 31.1728 53.5185 110.7599 0.0000 0.0000 0.0000
# 4 0.0000 0.0000 0.0000 5.7713 0.0000 0.0000
# 5 0.0000 0.0000 0.0000 0.0000 7.7682 0.0000
# 6 0.0000 0.0000 0.0000 0.0000 0.0000 10.4915
#
#
#
# Elastic Compliance Matrix: (Units=1/GPa)
#
#
# Indices 1 2 3 4 5 6 
#
# 1 0.019423 -0.006437 -0.002356 0.000000 0.000000 0.000000
# 2 -0.006437 0.025686 -0.010600 0.000000 0.000000 0.000000
# 3 -0.002356 -0.010600 0.014813 0.000000 0.000000 0.000000
# 4 0.000000 0.000000 0.000000 0.173270 0.000000 0.000000
# 5 0.000000 0.000000 0.000000 0.000000 0.128730 0.000000
# 6 0.000000 0.000000 0.000000 0.000000 0.000000 0.095315
#
#
# Mechanical properties :
#
#
# Convention : Reuss Voigt Hill
#
# Bulk Modulus (GPa) = 47.31070 52.40526 49.85798
# Shear Modulus (GPa) = 9.93899 13.48456 11.71177
#
# Velocity S-wave (km/s) = 2.57613 3.00065 2.79646
# Velocity P-wave (km/s) = 6.35916 6.85546 6.61197
#
# Compressibility (1/GPa) = 0.02113687
#
# Stress axis : x y z
#
# Youngs Moduli (GPa) = 51.48566 38.93195 67.50639
#
# Poissons Ratio (x) = 0.25059 0.15907
# Poissons Ratio (y) = 0.33139 0.71555
# Poissons Ratio (z) = 0.12132 0.41267
#
# Static dielectric constant tensor:
#      x y z
#    x 2.643780 0.000000 0.000000 
#    y 0.000000 2.806740 0.000000 
#    z 0.000000 0.000000 3.150840 
# 
# 
# High freq. dielectric constant tensor:
#      x y z
#    x 1.523720 0.000000 0.000000 
#    y 0.000000 1.565510 0.000000 
#    z 0.000000 0.000000 1.580050 
# 
# From -- ./inp_files/8173.got.cif
#   From: 2010.03.12/outbox.cif.g09.slc.cpg/sg47_5_cif.got.tgz:8173.got - 2010.04.14 03:12:58.
