data_PCOD8194540
_publ_section_title
;
Structure prediction by ZEFSAII (Michael W. Deem and Ramdas Pophale) SiO2 
 PCOD8194540
Probable space group: P M M M
;
_chemical_formula_sum "Si O2"
_cell_formula_units_Z 40
_cell_length_a 7.826964
_cell_length_b 13.290757
_cell_length_c 19.369302
_cell_angle_alpha 90.000000
_cell_angle_beta 90.000000
_cell_angle_gamma 90.000000
_cell_volume 2014.916367
_symmetry_space_group_name_H-M "P M M M"
_symmetry_group_IT_number 47
_symmetry_cell_setting 'orthorhombic'
loop_
_space_group_symop_operation_xyz
x,y,z
-x,-y,z
x,-y,-z
-x,y,-z
-x,-y,-z
x,y,-z
-x,y,z
x,-y,z
loop_
_atom_site_type_symbol
_atom_site_label
_atom_site_fract_x
_atom_site_fract_y
_atom_site_fract_z
Si Si1 0.500000 0.609318 0.581403
Si Si2 0.804753 0.250855 0.420563
Si Si3 0.801858 0.198483 0.159074
Si Si4 0.796693 0.611633 0.922113
Si Si5 0.200556 0.889398 0.702106
Si Si6 0.299543 0.000000 0.920354
O O1 0.500000 0.500000 0.616815
O O2 0.500000 0.598955 0.500000
O O3 0.674729 0.663290 0.604210
O O4 0.773692 0.219090 0.500000
O O5 0.761707 0.155502 0.373196
O O6 0.000000 0.288679 0.409609
O O7 0.717044 0.298946 0.125425
O O8 0.722105 0.178228 0.235462
O O9 0.000000 0.221746 0.166667
O O10 0.778082 0.100150 0.112550
O O11 0.739001 0.500000 0.895820
O O12 0.000000 0.617758 0.922199
O O13 0.729012 0.628319 0.000000
O O14 0.000000 0.899085 0.714685
O O15 0.285116 0.000000 0.704585
O O16 0.500000 0.000000 0.908661
O O17 0.247505 0.000000 0.000000
#
# Coordination Sequence:
#
# PCOD8194540 Si02
#       6
#     4   8   8   8   8   4
#     4   9  18  34  55  79 107 137 176 229 278 321
#     4   9  18  33  53  78 108 143 182 223 271 325
#     4  10  18  32  53  75  98 129 173 216 257 313
#     4   8  14  25  44  72 100 123 154 202 256 304
#     4   9  17  31  50  75 105 134 169 216 267 319
#     4  11  23  35  47  71 106 137 170 214 262 316
#
# _framework density 19.851939999999999
#
# number of rings (size 3 to 8) (size 9 to 14) (size 15 to 20)
#    0.000    2.800    1.000    1.500    0.000    2.400 
#    1.800    5.500    0.000    6.000    0.000    2.800 
#    0.000    0.000    0.000    0.000    0.000    0.000 
#
# Total GULP energy -495672.939254 kJ/mol
# GULP energy per Si atom -12391.823481 kJ/mol
# Density = 1.980676 g / cm^3
# Si number density = 19.851940 Si / 1000 Ang^3
#
#
#
# Elastic Constant Matrix: (Units=GPa)
#
#
# Indices 1 2 3 4 5 6 
#
# 1 46.2745 27.4537 22.9592 0.0000 0.0000 0.0000
# 2 27.4537 191.8552 85.2567 0.0000 0.0000 0.0000
# 3 22.9592 85.2567 124.0699 0.0000 0.0000 0.0000
# 4 0.0000 0.0000 0.0000 39.1996 0.0000 0.0000
# 5 0.0000 0.0000 0.0000 0.0000 7.7718 0.0000
# 6 0.0000 0.0000 0.0000 0.0000 0.0000 -3.6777
#
#
#
# Elastic Compliance Matrix: (Units=1/GPa)
#
#
# Indices 1 2 3 4 5 6 
#
# 1 0.024389 -0.002137 -0.003045 0.000000 0.000000 0.000000
# 2 -0.002137 0.007691 -0.004889 0.000000 0.000000 0.000000
# 3 -0.003045 -0.004889 0.011983 0.000000 0.000000 0.000000
# 4 0.000000 0.000000 0.000000 0.025510 0.000000 0.000000
# 5 0.000000 0.000000 0.000000 0.000000 0.128670 0.000000
# 6 0.000000 0.000000 0.000000 0.000000 0.000000 -0.271909
#
#
# Mechanical properties :
#
#
# Convention : Reuss Voigt Hill
#
# Bulk Modulus (GPa) = 41.80504 70.39320 56.09912
# Shear Modulus (GPa) = -109.76832 23.76074 -43.00379
#
# Velocity S-wave (km/s) = -7.44403 3.46337 -4.65932
# Velocity P-wave (km/s) = 7.26502 7.17840 0.79096
#
# Compressibility (1/GPa) = 0.02392056
#
# Stress axis : x y z
#
# Youngs Moduli (GPa) = 41.00277 130.02527 83.44980
#
# Poissons Ratio (x) = 0.27785 0.25408
# Poissons Ratio (y) = 0.08762 0.40802
# Poissons Ratio (z) = 0.12484 0.63575
#
# Static dielectric constant tensor:
#      x y z
#    x 3.315680 0.000000 0.000000 
#    y 0.000000 3.938840 0.000000 
#    z 0.000000 0.000000 3.703570 
# 
# 
# High freq. dielectric constant tensor:
#      x y z
#    x 1.745380 0.000000 0.000000 
#    y 0.000000 1.773820 0.000000 
#    z 0.000000 0.000000 1.766620 
# 
# From -- ./inp_files/29329.got.cif
#   From: 2010.03.12/outbox.cif.g09.slc.cpg/sg47_15_cif.got.tgz:29329.got - 2010.04.14 03:12:58.
