data_PCOD8194383
_publ_section_title
;
Structure prediction by ZEFSAII (Michael W. Deem and Ramdas Pophale) SiO2 
 PCOD8194383
Probable space group: P M M M
;
_chemical_formula_sum "Si O2"
_cell_formula_units_Z 64
_cell_length_a 20.234348
_cell_length_b 20.052243
_cell_length_c 9.065342
_cell_angle_alpha 90.000000
_cell_angle_beta 90.000000
_cell_angle_gamma 90.000000
_cell_volume 3678.208696
_symmetry_space_group_name_H-M "P M M M"
_symmetry_group_IT_number 47
_symmetry_cell_setting 'orthorhombic'
loop_
_space_group_symop_operation_xyz
x,y,z
-x,-y,z
x,-y,-z
-x,y,-z
-x,-y,-z
x,y,-z
-x,y,z
x,-y,z
loop_
_atom_site_type_symbol
_atom_site_label
_atom_site_fract_x
_atom_site_fract_y
_atom_site_fract_z
Si Si1 0.888053 0.426005 0.670928
Si Si2 0.758638 0.603466 0.832716
Si Si3 0.927705 0.296360 0.826698
Si Si4 0.337483 0.184284 0.824389
Si Si5 0.574330 0.711167 0.331475
Si Si6 0.207096 0.754565 0.166667
Si Si7 0.370379 0.572752 0.666689
Si Si8 0.574832 0.922726 0.328521
O O1 0.888336 0.406375 0.500000
O O2 0.919290 0.500000 0.694169
O O3 0.813473 0.428329 0.728388
O O4 0.929367 0.369920 0.756765
O O5 0.758496 0.683100 0.820563
O O6 0.688993 0.575989 0.781160
O O7 0.771648 0.580472 0.000000
O O8 0.867250 0.250537 0.760584
O O9 0.000000 0.263073 0.798118
O O10 0.914240 0.306719 0.000000
O O11 0.378428 0.248887 0.776871
O O12 0.260926 0.193236 0.765246
O O13 0.370062 0.117779 0.760141
O O14 0.338164 0.180371 0.000000
O O15 0.594316 0.727509 0.500000
O O16 0.500000 0.734736 0.300656
O O17 0.578255 0.631977 0.299460
O O18 0.195958 0.777304 0.000000
O O19 0.342906 0.580985 0.500000
O O20 0.405078 0.500000 0.684969
O O21 0.582449 0.905641 0.500000
O O22 0.500000 0.904430 0.277562
O O23 0.588665 0.000000 0.297874
#
# Coordination Sequence:
#
# PCOD8194383 Si02
#       8
#     8   8   8   8   8   8   8   8
#     4  10  20  31  43  62  89 118 150 192 245 304
#     4  10  18  31  48  65  87 116 152 196 247 302
#     4   9  18  33  51  68  89 121 160 199 241 295
#     4  11  20  32  52  77 104 131 163 205 246 287
#     4  10  21  35  49  66  91 125 165 206 249 300
#     4   8  16  30  47  69  95 120 151 195 243 285
#     4  10  20  32  46  64  86 114 154 206 261 309
#     4   9  19  36  55  76 107 144 175 202 236 283
#
# _framework density 17.399774000000001
#
# number of rings (size 3 to 8) (size 9 to 14) (size 15 to 20)
#    0.000    2.375    1.250    3.000    0.000    5.750 
#    0.000    3.750    0.000    0.000    0.000    1.750 
#    0.000    0.500    0.000    6.250    0.000    1.000 
#
# Total GULP energy -792958.489766 kJ/mol
# GULP energy per Si atom -12389.976403 kJ/mol
# Density = 1.736017 g / cm^3
# Si number density = 17.399774 Si / 1000 Ang^3
#
#
#
# Elastic Constant Matrix: (Units=GPa)
#
#
# Indices 1 2 3 4 5 6 
#
# 1 121.4616 51.4035 35.6080 0.0000 0.0000 0.0000
# 2 51.4035 72.7959 26.8309 0.0000 0.0000 0.0000
# 3 35.6080 26.8309 52.7117 0.0000 0.0000 0.0000
# 4 0.0000 0.0000 0.0000 20.5312 0.0000 0.0000
# 5 0.0000 0.0000 0.0000 0.0000 18.2937 0.0000
# 6 0.0000 0.0000 0.0000 0.0000 0.0000 15.8426
#
#
#
# Elastic Compliance Matrix: (Units=1/GPa)
#
#
# Indices 1 2 3 4 5 6 
#
# 1 0.012710 -0.007152 -0.004945 0.000000 0.000000 0.000000
# 2 -0.007152 0.020934 -0.005824 0.000000 0.000000 0.000000
# 3 -0.004945 -0.005824 0.025276 0.000000 0.000000 0.000000
# 4 0.000000 0.000000 0.000000 0.048706 0.000000 0.000000
# 5 0.000000 0.000000 0.000000 0.000000 0.054664 0.000000
# 6 0.000000 0.000000 0.000000 0.000000 0.000000 0.063121
#
#
# Mechanical properties :
#
#
# Convention : Reuss Voigt Hill
#
# Bulk Modulus (GPa) = 43.33326 52.73933 48.03630
# Shear Modulus (GPa) = 18.59110 19.80863 19.19986
#
# Velocity S-wave (km/s) = 3.27229 3.37774 3.32543
# Velocity P-wave (km/s) = 6.26384 6.75191 6.51245
#
# Compressibility (1/GPa) = 0.02307696
#
# Stress axis : x y z
#
# Youngs Moduli (GPa) = 78.68099 47.76925 39.56266
#
# Poissons Ratio (x) = 0.34164 0.19564
# Poissons Ratio (y) = 0.56272 0.23043
# Poissons Ratio (z) = 0.38909 0.27822
#
# Static dielectric constant tensor:
#      x y z
#    x 3.406350 0.000000 0.000000 
#    y 0.000000 3.073320 0.000000 
#    z 0.000000 0.000000 3.141540 
# 
# 
# High freq. dielectric constant tensor:
#      x y z
#    x 1.669570 0.000000 0.000000 
#    y 0.000000 1.638590 0.000000 
#    z 0.000000 0.000000 1.661470 
# 
# From -- ./inp_files/11885.got.cif
#   From: 2010.03.12/outbox.cif.g09.slc.cpg/sg47_6_cif.got.tgz:11885.got - 2010.04.14 03:12:58.
