data_PCOD8194505
_publ_section_title
;
Structure prediction by ZEFSAII (Michael W. Deem and Ramdas Pophale) SiO2 
 PCOD8194505
Probable space group: P M M M
;
_chemical_formula_sum "Si O2"
_cell_formula_units_Z 48
_cell_length_a 17.333589
_cell_length_b 8.903365
_cell_length_c 15.520723
_cell_angle_alpha 90.000000
_cell_angle_beta 90.000000
_cell_angle_gamma 90.000000
_cell_volume 2395.270803
_symmetry_space_group_name_H-M "P M M M"
_symmetry_group_IT_number 47
_symmetry_cell_setting 'orthorhombic'
loop_
_space_group_symop_operation_xyz
x,y,z
-x,-y,z
x,-y,-z
-x,y,-z
-x,-y,-z
x,y,-z
-x,y,z
x,-y,z
loop_
_atom_site_type_symbol
_atom_site_label
_atom_site_fract_x
_atom_site_fract_y
_atom_site_fract_z
Si Si1 0.682450 0.672332 0.096252
Si Si2 0.674219 0.325578 0.596428
Si Si3 0.000000 0.175520 0.850648
Si Si4 0.166568 0.821873 0.147679
Si Si5 0.833948 0.328232 0.670363
Si Si6 0.411858 0.822962 0.247327
Si Si7 0.000000 0.330070 0.674124
O O1 0.687301 0.500000 0.125182
O O2 0.768147 0.740419 0.092909
O O3 0.628917 0.757248 0.163462
O O4 0.647389 0.688177 0.000000
O O5 0.648724 0.279555 0.500000
O O6 0.657106 0.500000 0.613617
O O7 0.765708 0.290867 0.603996
O O8 0.626330 0.230154 0.664260
O O9 0.917950 0.233141 0.889366
O O10 0.000000 0.212440 0.750552
O O11 0.000000 0.000000 0.861561
O O12 0.175545 0.779078 0.247694
O O13 0.176560 0.000000 0.138671
O O14 0.826173 0.500000 0.702639
O O15 0.918466 0.304526 0.623579
O O16 0.500000 0.768899 0.246736
O O17 0.404374 0.000000 0.242284
O O18 0.000000 0.500000 0.711296
#
# Coordination Sequence:
#
# PCOD8194505 Si02
#       7
#     8   8   4   8   8   8   4
#     4  11  24  41  62  89 120 154 192 235 287 351
#     4  10  21  37  59  88 122 160 200 240 285 343
#     4   8  16  28  45  76 113 151 195 240 285 335
#     4  10  18  31  54  82 115 155 198 242 289 338
#     4   9  16  29  50  77 113 155 198 241 285 335
#     4  11  25  44  66  91 117 147 187 239 296 353
#     4   8  14  24  43  73 107 149 197 241 283 327
#
# _framework density 20.039486
#
# number of rings (size 3 to 8) (size 9 to 14) (size 15 to 20)
#    0.000    2.167    1.667    1.500    0.000    4.333 
#    0.000    4.167    0.000    5.000    0.000    0.000 
#    0.000    8.000    0.000    0.000    0.000    0.000 
#
# Total GULP energy -594703.065091 kJ/mol
# GULP energy per Si atom -12389.647189 kJ/mol
# Density = 1.999388 g / cm^3
# Si number density = 20.039486 Si / 1000 Ang^3
#
#
#
# Elastic Constant Matrix: (Units=GPa)
#
#
# Indices 1 2 3 4 5 6 
#
# 1 168.0437 47.9944 58.5656 0.0000 0.0000 0.0000
# 2 47.9944 52.3895 32.9117 0.0000 0.0000 0.0000
# 3 58.5656 32.9117 92.3807 0.0000 0.0000 0.0000
# 4 0.0000 0.0000 0.0000 -3.4489 0.0000 0.0000
# 5 0.0000 0.0000 0.0000 0.0000 2.3714 0.0000
# 6 0.0000 0.0000 0.0000 0.0000 0.0000 27.6871
#
#
#
# Elastic Compliance Matrix: (Units=1/GPa)
#
#
# Indices 1 2 3 4 5 6 
#
# 1 0.008864 -0.005914 -0.003513 0.000000 0.000000 0.000000
# 2 -0.005914 0.028537 -0.006418 0.000000 0.000000 0.000000
# 3 -0.003513 -0.006418 0.015338 0.000000 0.000000 0.000000
# 4 0.000000 0.000000 0.000000 -0.289947 0.000000 0.000000
# 5 0.000000 0.000000 0.000000 0.000000 0.421688 0.000000
# 6 0.000000 0.000000 0.000000 0.000000 0.000000 0.036118
#
#
# Mechanical properties :
#
#
# Convention : Reuss Voigt Hill
#
# Bulk Modulus (GPa) = 47.50332 65.75080 56.62706
# Shear Modulus (GPa) = 19.28247 16.87808 18.08027
#
# Velocity S-wave (km/s) = 3.10534 2.90529 3.00698
# Velocity P-wave (km/s) = 6.05094 6.64350 6.35413
#
# Compressibility (1/GPa) = 0.02105116
#
# Stress axis : x y z
#
# Youngs Moduli (GPa) = 112.81559 35.04223 65.19777
#
# Poissons Ratio (x) = 0.20723 0.22901
# Poissons Ratio (y) = 0.66716 0.41841
# Poissons Ratio (z) = 0.39627 0.22489
#
# Static dielectric constant tensor:
#      x y z
#    x 4.192570 0.000000 0.000000 
#    y 0.000000 3.626050 0.000000 
#    z 0.000000 0.000000 3.290820 
# 
# 
# High freq. dielectric constant tensor:
#      x y z
#    x 1.801280 0.000000 0.000000 
#    y 0.000000 1.778100 0.000000 
#    z 0.000000 0.000000 1.750850 
# 
# From -- ./inp_files/24471.got.cif
#   From: 2010.03.12/outbox.cif.g09.slc.cpg/sg47_13_cif.got.tgz:24471.got - 2010.04.14 03:12:58.
