data_PCOD8194712
_publ_section_title
;
Structure prediction by ZEFSAII (Michael W. Deem and Ramdas Pophale) SiO2 
 PCOD8194712
Probable space group: P M M M
;
_chemical_formula_sum "Si O2"
_cell_formula_units_Z 56
_cell_length_a 13.699034
_cell_length_b 28.966264
_cell_length_c 9.192961
_cell_angle_alpha 90.000000
_cell_angle_beta 90.000000
_cell_angle_gamma 90.000000
_cell_volume 3647.857341
_symmetry_space_group_name_H-M "P M M M"
_symmetry_group_IT_number 47
_symmetry_cell_setting 'orthorhombic'
loop_
_space_group_symop_operation_xyz
x,y,z
-x,-y,z
x,-y,-z
-x,y,-z
-x,-y,-z
x,y,-z
-x,y,z
x,-y,z
loop_
_atom_site_type_symbol
_atom_site_label
_atom_site_fract_x
_atom_site_fract_y
_atom_site_fract_z
Si Si1 0.385521 0.639623 0.830420
Si Si2 0.279538 0.278116 0.328985
Si Si3 0.109196 0.949039 0.827335
Si Si4 0.112505 0.230823 0.169277
Si Si5 0.389375 0.814911 0.669803
Si Si6 0.776060 0.138252 0.829885
Si Si7 0.615742 0.449210 0.662881
O O1 0.500000 0.646686 0.797225
O O2 0.324299 0.677016 0.743679
O O3 0.348221 0.589558 0.775768
O O4 0.362644 0.643927 0.000000
O O5 0.269313 0.286373 0.500000
O O6 0.172928 0.267907 0.262770
O O7 0.351211 0.235944 0.291261
O O8 0.179761 0.909291 0.765289
O O9 0.000000 0.941728 0.765246
O O10 0.147988 0.000000 0.781720
O O11 0.105054 0.944693 0.000000
O O12 0.148016 0.179111 0.205479
O O13 0.000000 0.234894 0.214865
O O14 0.128138 0.242016 0.000000
O O15 0.380434 0.824678 0.500000
O O16 0.500000 0.818668 0.724933
O O17 0.326907 0.853499 0.752132
O O18 0.755307 0.134472 0.000000
O O19 0.653183 0.437333 0.500000
O O20 0.500000 0.450484 0.662620
O O21 0.655212 0.500000 0.710436
#
# Coordination Sequence:
#
# PCOD8194712 Si02
#       7
#     8   8   8   8   8   8   8
#     4  10  19  28  40  60  86 115 145 178 215 253
#     4  10  19  30  44  61  82 109 142 177 210 248
#     4   8  13  22  39  64  90 111 131 160 201 248
#     4   9  17  29  44  62  86 112 135 165 207 252
#     4   9  18  31  44  58  79 109 142 174 209 247
#     4   9  16  26  43  66  86 106 136 170 203 242
#     4   8  14  25  40  57  79 110 146 179 211 249
#
# _framework density 15.351478
#
# number of rings (size 3 to 8) (size 9 to 14) (size 15 to 20)
#    0.000    3.000    0.000    2.571    0.000    4.571 
#    0.000    1.429    0.000    2.143    0.000    4.000 
#    0.000    0.571    0.000    6.000    0.000    2.857 
#
# Total GULP energy -694225.956129 kJ/mol
# GULP energy per Si atom -12396.892074 kJ/mol
# Density = 1.531654 g / cm^3
# Si number density = 15.351478 Si / 1000 Ang^3
#
#
#
# Elastic Constant Matrix: (Units=GPa)
#
#
# Indices 1 2 3 4 5 6 
#
# 1 102.3243 59.6540 43.1594 0.0000 0.0000 0.0000
# 2 59.6540 121.4525 49.1468 0.0000 0.0000 0.0000
# 3 43.1594 49.1468 55.9503 0.0000 0.0000 0.0000
# 4 0.0000 0.0000 0.0000 19.9415 0.0000 0.0000
# 5 0.0000 0.0000 0.0000 0.0000 19.5085 0.0000
# 6 0.0000 0.0000 0.0000 0.0000 0.0000 20.7576
#
#
#
# Elastic Compliance Matrix: (Units=1/GPa)
#
#
# Indices 1 2 3 4 5 6 
#
# 1 0.015875 -0.004409 -0.008373 0.000000 0.000000 0.000000
# 2 -0.004409 0.013999 -0.008896 0.000000 0.000000 0.000000
# 3 -0.008373 -0.008896 0.032145 0.000000 0.000000 0.000000
# 4 0.000000 0.000000 0.000000 0.050147 0.000000 0.000000
# 5 0.000000 0.000000 0.000000 0.000000 0.051260 0.000000
# 6 0.000000 0.000000 0.000000 0.000000 0.000000 0.048175
#
#
# Mechanical properties :
#
#
# Convention : Reuss Voigt Hill
#
# Bulk Modulus (GPa) = 53.57756 64.84974 59.21365
# Shear Modulus (GPa) = 19.14412 20.55934 19.85173
#
# Velocity S-wave (km/s) = 3.53520 3.66353 3.59994
# Velocity P-wave (km/s) = 7.18609 7.76082 7.47898
#
# Compressibility (1/GPa) = 0.01866453
#
# Stress axis : x y z
#
# Youngs Moduli (GPa) = 62.99260 71.43364 31.10866
#
# Poissons Ratio (x) = 0.31497 0.26046
# Poissons Ratio (y) = 0.27775 0.27673
# Poissons Ratio (z) = 0.52741 0.63544
#
# Static dielectric constant tensor:
#      x y z
#    x 2.821960 0.000000 0.000000 
#    y 0.000000 3.124320 0.000000 
#    z 0.000000 0.000000 2.858150 
# 
# 
# High freq. dielectric constant tensor:
#      x y z
#    x 1.559610 0.000000 0.000000 
#    y 0.000000 1.586990 0.000000 
#    z 0.000000 0.000000 1.579120 
# 
# From -- ./inp_files/8147.got.cif
#   From: 2010.03.12/outbox.cif.g09.slc.cpg/sg47_5_cif.got.tgz:8147.got - 2010.04.14 03:12:58.
