data_PCOD8194819
_publ_section_title
;
Structure prediction by ZEFSAII (Michael W. Deem and Ramdas Pophale) SiO2 
 PCOD8194819
Probable space group: P M M M
;
_chemical_formula_sum "Si O2"
_cell_formula_units_Z 52
_cell_length_a 9.212922
_cell_length_b 26.739545
_cell_length_c 13.607822
_cell_angle_alpha 90.000000
_cell_angle_beta 90.000000
_cell_angle_gamma 90.000000
_cell_volume 3352.278001
_symmetry_space_group_name_H-M "P M M M"
_symmetry_group_IT_number 47
_symmetry_cell_setting 'orthorhombic'
loop_
_space_group_symop_operation_xyz
x,y,z
-x,-y,z
x,-y,-z
-x,y,-z
-x,-y,-z
x,y,-z
-x,y,z
x,-y,z
loop_
_atom_site_type_symbol
_atom_site_label
_atom_site_fract_x
_atom_site_fract_y
_atom_site_fract_z
Si Si1 0.168816 0.901283 0.719189
Si Si2 0.172941 0.000000 0.610745
Si Si3 0.669984 0.148332 0.111811
Si Si4 0.670667 0.249786 0.781558
Si Si5 0.837465 0.552852 0.116573
Si Si6 0.167622 0.799399 0.386887
Si Si7 0.172708 0.661045 0.886566
O O1 0.230011 0.951249 0.668227
O O2 0.249756 0.892878 0.822324
O O3 0.200278 0.856205 0.644388
O O4 0.000000 0.906481 0.743489
O O5 0.236105 0.000000 0.500000
O O6 0.000000 0.000000 0.605754
O O7 0.500000 0.139157 0.122761
O O8 0.711486 0.204112 0.146413
O O9 0.722400 0.141923 0.000000
O O10 0.500000 0.258603 0.775223
O O11 0.732127 0.238645 0.673390
O O12 0.745764 0.299335 0.820378
O O13 0.758391 0.500000 0.149557
O O14 0.768402 0.605965 0.149738
O O15 0.000000 0.550812 0.158752
O O16 0.844299 0.554817 0.000000
O O17 0.209458 0.793339 0.500000
O O18 0.000000 0.786090 0.367140
O O19 0.000000 0.665062 0.871872
O O20 0.213745 0.670526 0.000000
#
# Coordination Sequence:
#
# PCOD8194819 Si02
#       7
#     8   4   8   8   8   8   8
#     4   9  17  29  47  70  89 107 135 168 203 246
#     4   9  16  28  48  71  92 110 129 161 208 257
#     4   9  18  32  46  59  81 115 148 174 204 242
#     4  10  19  29  42  61  85 112 142 175 210 251
#     4   7  10  18  33  53  77 106 140 175 208 241
#     4   9  17  30  47  65  85 108 135 169 208 249
#     4   9  16  25  39  60  85 113 145 179 211 243
#
# _framework density 15.511839999999999
#
# number of rings (size 3 to 8) (size 9 to 14) (size 15 to 20)
#    0.000    3.154    0.000    2.769    0.000    4.000 
#    0.000    0.769    0.000    4.615    0.000    2.154 
#    0.000    0.615    0.000    7.077    0.000    2.308 
#
# Total GULP energy -644369.395656 kJ/mol
# GULP energy per Si atom -12391.719147 kJ/mol
# Density = 1.547653 g / cm^3
# Si number density = 15.511840 Si / 1000 Ang^3
#
#
#
# Elastic Constant Matrix: (Units=GPa)
#
#
# Indices 1 2 3 4 5 6 
#
# 1 35.5873 41.1296 37.1740 0.0000 0.0000 0.0000
# 2 41.1296 141.9903 67.4323 0.0000 0.0000 0.0000
# 3 37.1740 67.4323 110.4367 0.0000 0.0000 0.0000
# 4 0.0000 0.0000 0.0000 18.3912 0.0000 0.0000
# 5 0.0000 0.0000 0.0000 0.0000 18.1578 0.0000
# 6 0.0000 0.0000 0.0000 0.0000 0.0000 11.9351
#
#
#
# Elastic Compliance Matrix: (Units=1/GPa)
#
#
# Indices 1 2 3 4 5 6 
#
# 1 0.050750 -0.009278 -0.011418 0.000000 0.000000 0.000000
# 2 -0.009278 0.011615 -0.003969 0.000000 0.000000 0.000000
# 3 -0.011418 -0.003969 0.015322 0.000000 0.000000 0.000000
# 4 0.000000 0.000000 0.000000 0.054374 0.000000 0.000000
# 5 0.000000 0.000000 0.000000 0.000000 0.055073 0.000000
# 6 0.000000 0.000000 0.000000 0.000000 0.000000 0.083786
#
#
# Mechanical properties :
#
#
# Convention : Reuss Voigt Hill
#
# Bulk Modulus (GPa) = 35.26464 64.38734 49.82599
# Shear Modulus (GPa) = 15.16521 19.18203 17.17362
#
# Velocity S-wave (km/s) = 3.13014 3.52036 3.33097
# Velocity P-wave (km/s) = 5.98724 7.62381 6.85454
#
# Compressibility (1/GPa) = 0.02835701
#
# Stress axis : x y z
#
# Youngs Moduli (GPa) = 19.70454 86.09365 65.26646
#
# Poissons Ratio (x) = 0.79878 0.74519
# Poissons Ratio (y) = 0.18282 0.25905
# Poissons Ratio (z) = 0.22498 0.34172
#
# Static dielectric constant tensor:
#      x y z
#    x 2.736720 0.000000 0.000000 
#    y 0.000000 3.241420 0.000000 
#    z 0.000000 0.000000 2.841120 
# 
# 
# High freq. dielectric constant tensor:
#      x y z
#    x 1.570580 0.000000 0.000000 
#    y 0.000000 1.599580 0.000000 
#    z 0.000000 0.000000 1.570080 
# 
# From -- ./inp_files/21736.got.cif
#   From: 2010.03.12/outbox.cif.g09.slc.cpg/sg47_11_cif.got.tgz:21736.got - 2010.04.14 03:12:58.
