data_PCOD8194307
_publ_section_title
;
Structure prediction by ZEFSAII (Michael W. Deem and Ramdas Pophale) SiO2 
 PCOD8194307
Probable space group: P M M M
;
_chemical_formula_sum "Si O2"
_cell_formula_units_Z 56
_cell_length_a 17.016159
_cell_length_b 20.102968
_cell_length_c 9.105605
_cell_angle_alpha 90.000000
_cell_angle_beta 90.000000
_cell_angle_gamma 90.000000
_cell_volume 3114.802561
_symmetry_space_group_name_H-M "P M M M"
_symmetry_group_IT_number 47
_symmetry_cell_setting 'orthorhombic'
loop_
_space_group_symop_operation_xyz
x,y,z
-x,-y,z
x,-y,-z
-x,y,-z
-x,-y,-z
x,y,-z
-x,y,z
x,-y,z
loop_
_atom_site_type_symbol
_atom_site_label
_atom_site_fract_x
_atom_site_fract_y
_atom_site_fract_z
Si Si1 0.408810 0.076611 0.332855
Si Si2 0.000000 0.375455 0.164871
Si Si3 0.311177 0.184042 0.173595
Si Si4 0.410457 0.688828 0.172571
Si Si5 0.155275 0.782677 0.671129
Si Si6 0.319257 0.576040 0.671176
Si Si7 0.847100 0.373400 0.669427
Si Si8 0.000000 0.782923 0.167035
O O1 0.390066 0.098503 0.500000
O O2 0.500000 0.087806 0.298070
O O3 0.359567 0.119113 0.217620
O O4 0.385813 0.000000 0.309915
O O5 0.921721 0.402493 0.243596
O O6 0.000000 0.296292 0.171461
O O7 0.000000 0.402663 0.000000
O O8 0.358334 0.249300 0.227023
O O9 0.228166 0.180342 0.254989
O O10 0.297662 0.184759 0.000000
O O11 0.500000 0.702704 0.219764
O O12 0.382099 0.621063 0.246515
O O13 0.402749 0.679318 0.000000
O O14 0.151391 0.800530 0.500000
O O15 0.164706 0.704440 0.697984
O O16 0.076576 0.809939 0.748596
O O17 0.323514 0.593590 0.500000
O O18 0.341616 0.500000 0.703239
O O19 0.230862 0.589958 0.727958
O O20 0.862949 0.388980 0.500000
O O21 0.000000 0.809288 0.000000
#
# Coordination Sequence:
#
# PCOD8194307 Si02
#       8
#     8   4   8   8   8   8   8   4
#     4   9  19  36  56  79 110 147 183 218 259 310
#     4   9  17  27  46  72  97 127 163 202 249 306
#     4  11  21  33  53  81 111 141 176 218 263 309
#     4  10  22  38  54  74 102 134 169 212 264 319
#     4  10  18  30  50  75 104 138 177 216 260 313
#     4  10  21  37  55  74  96 127 171 220 267 315
#     4   9  17  31  49  70  97 129 165 207 258 311
#     4   9  17  29  45  72 107 138 170 212 264 311
#
# _framework density 17.978667999999999
#
# number of rings (size 3 to 8) (size 9 to 14) (size 15 to 20)
#    0.000    2.286    1.429    2.143    0.000    5.429 
#    0.000    2.500    0.000    2.143    0.000    0.500 
#    0.000    4.000    0.000    0.000    0.000    0.000 
#
# Total GULP energy -694554.214883 kJ/mol
# GULP energy per Si atom -12402.753837 kJ/mol
# Density = 1.793775 g / cm^3
# Si number density = 17.978668 Si / 1000 Ang^3
#
#
#
# Elastic Constant Matrix: (Units=GPa)
#
#
# Indices 1 2 3 4 5 6 
#
# 1 129.4033 42.4521 57.8322 0.0000 0.0000 0.0000
# 2 42.4521 59.6660 32.1053 0.0000 0.0000 0.0000
# 3 57.8322 32.1053 82.1587 0.0000 0.0000 0.0000
# 4 0.0000 0.0000 0.0000 24.2786 0.0000 0.0000
# 5 0.0000 0.0000 0.0000 0.0000 34.9356 0.0000
# 6 0.0000 0.0000 0.0000 0.0000 0.0000 23.1772
#
#
#
# Elastic Compliance Matrix: (Units=1/GPa)
#
#
# Indices 1 2 3 4 5 6 
#
# 1 0.012449 -0.005245 -0.006713 0.000000 0.000000 0.000000
# 2 -0.005245 0.023432 -0.005465 0.000000 0.000000 0.000000
# 3 -0.006713 -0.005465 0.019032 0.000000 0.000000 0.000000
# 4 0.000000 0.000000 0.000000 0.041189 0.000000 0.000000
# 5 0.000000 0.000000 0.000000 0.000000 0.028624 0.000000
# 6 0.000000 0.000000 0.000000 0.000000 0.000000 0.043146
#
#
# Mechanical properties :
#
#
# Convention : Reuss Voigt Hill
#
# Bulk Modulus (GPa) = 49.83117 59.55636 54.69376
# Shear Modulus (GPa) = 23.87702 25.73417 24.80560
#
# Velocity S-wave (km/s) = 3.64823 3.78745 3.71849
# Velocity P-wave (km/s) = 6.74708 7.23356 6.99455
#
# Compressibility (1/GPa) = 0.02006776
#
# Stress axis : x y z
#
# Youngs Moduli (GPa) = 80.33015 42.67642 52.54190
#
# Poissons Ratio (x) = 0.22383 0.35272
# Poissons Ratio (y) = 0.42133 0.28712
# Poissons Ratio (z) = 0.53927 0.23321
#
# Static dielectric constant tensor:
#      x y z
#    x 3.437250 0.000000 0.000000 
#    y 0.000000 2.987360 0.000000 
#    z 0.000000 0.000000 3.316270 
# 
# 
# High freq. dielectric constant tensor:
#      x y z
#    x 1.706280 0.000000 0.000000 
#    y 0.000000 1.659870 0.000000 
#    z 0.000000 0.000000 1.698540 
# 
# From -- ./inp_files/7404.got.cif
#   From: 2010.03.12/outbox.cif.g09.slc.cpg/sg47_4_cif.got.tgz:7404.got - 2010.04.14 03:12:58.
