data_PCOD8194896
_publ_section_title
;
Structure prediction by ZEFSAII (Michael W. Deem and Ramdas Pophale) SiO2 
 PCOD8194896
Probable space group: P M M M
;
_chemical_formula_sum "Si O2"
_cell_formula_units_Z 64
_cell_length_a 18.861266
_cell_length_b 23.523438
_cell_length_c 9.103201
_cell_angle_alpha 90.000000
_cell_angle_beta 90.000000
_cell_angle_gamma 90.000000
_cell_volume 4038.924800
_symmetry_space_group_name_H-M "P M M M"
_symmetry_group_IT_number 47
_symmetry_cell_setting 'orthorhombic'
loop_
_space_group_symop_operation_xyz
x,y,z
-x,-y,z
x,-y,-z
-x,y,-z
-x,-y,-z
x,y,-z
-x,y,z
x,-y,z
loop_
_atom_site_type_symbol
_atom_site_label
_atom_site_fract_x
_atom_site_fract_y
_atom_site_fract_z
Si Si1 0.717390 0.935270 0.171000
Si Si2 0.919130 0.564875 0.328594
Si Si3 0.420478 0.247113 0.328485
Si Si4 0.149230 0.334247 0.828306
Si Si5 0.785158 0.835099 0.671835
Si Si6 0.712522 0.731835 0.827595
Si Si7 0.079354 0.766974 0.668291
Si Si8 0.421392 0.130343 0.833052
O O1 0.772457 0.897782 0.264524
O O2 0.636281 0.917564 0.204764
O O3 0.727077 0.000000 0.221841
O O4 0.735350 0.927696 0.000000
O O5 0.908948 0.576221 0.500000
O O6 0.900456 0.500000 0.289216
O O7 0.865024 0.604380 0.240616
O O8 0.000000 0.578458 0.282624
O O9 0.404015 0.250431 0.500000
O O10 0.500000 0.269247 0.293425
O O11 0.363355 0.286187 0.241694
O O12 0.411546 0.182430 0.277095
O O13 0.229934 0.316550 0.790154
O O14 0.094931 0.288016 0.765774
O O15 0.136313 0.337879 0.000000
O O16 0.767204 0.833284 0.500000
O O17 0.733977 0.791634 0.755603
O O18 0.866910 0.818375 0.703454
O O19 0.705222 0.741365 0.000000
O O20 0.087507 0.747355 0.500000
O O21 0.000000 0.788802 0.702201
O O22 0.500000 0.103549 0.813499
O O23 0.411201 0.152771 0.000000
#
# Coordination Sequence:
#
# PCOD8194896 Si02
#       8
#     8   8   8   8   8   8   8   8
#     4  10  20  32  46  64  87 115 146 181 220 269
#     4   9  18  32  48  66  93 132 171 199 225 263
#     4  10  19  29  44  67  92 117 148 186 225 266
#     4  10  20  30  44  70  99 124 155 194 228 263
#     4  10  19  31  48  67  86 111 144 182 226 271
#     4  10  19  31  46  65  92 123 152 183 224 273
#     4   9  18  32  49  68  90 116 146 183 228 277
#     4   9  17  29  45  63  85 115 146 176 214 262
#
# _framework density 15.845801
#
# number of rings (size 3 to 8) (size 9 to 14) (size 15 to 20)
#    0.000    2.375    1.250    2.250    0.000    5.500 
#    0.000    1.875    0.000    0.375    0.000    5.250 
#    0.000    0.500    0.000    5.500    0.000    4.000 
#
# Total GULP energy -793559.776162 kJ/mol
# GULP energy per Si atom -12399.371503 kJ/mol
# Density = 1.580974 g / cm^3
# Si number density = 15.845801 Si / 1000 Ang^3
#
#
#
# Elastic Constant Matrix: (Units=GPa)
#
#
# Indices 1 2 3 4 5 6 
#
# 1 120.8481 56.7004 56.1297 0.0000 0.0000 0.0000
# 2 56.7004 88.7378 44.8430 0.0000 0.0000 0.0000
# 3 56.1297 44.8430 77.1499 0.0000 0.0000 0.0000
# 4 0.0000 0.0000 0.0000 25.4327 0.0000 0.0000
# 5 0.0000 0.0000 0.0000 0.0000 25.4521 0.0000
# 6 0.0000 0.0000 0.0000 0.0000 0.0000 23.3969
#
#
#
# Elastic Compliance Matrix: (Units=1/GPa)
#
#
# Indices 1 2 3 4 5 6 
#
# 1 0.014132 -0.005429 -0.007126 0.000000 0.000000 0.000000
# 2 -0.005429 0.018041 -0.006537 0.000000 0.000000 0.000000
# 3 -0.007126 -0.006537 0.021946 0.000000 0.000000 0.000000
# 4 0.000000 0.000000 0.000000 0.039319 0.000000 0.000000
# 5 0.000000 0.000000 0.000000 0.000000 0.039289 0.000000
# 6 0.000000 0.000000 0.000000 0.000000 0.000000 0.042741
#
#
# Mechanical properties :
#
#
# Convention : Reuss Voigt Hill
#
# Bulk Modulus (GPa) = 62.75211 66.89801 64.82506
# Shear Modulus (GPa) = 22.83491 23.46053 23.14772
#
# Velocity S-wave (km/s) = 3.80026 3.85197 3.82620
# Velocity P-wave (km/s) = 7.67748 7.87993 7.77936
#
# Compressibility (1/GPa) = 0.01593572
#
# Stress axis : x y z
#
# Youngs Moduli (GPa) = 70.76314 55.42883 45.56688
#
# Poissons Ratio (x) = 0.30090 0.32471
# Poissons Ratio (y) = 0.38414 0.29786
# Poissons Ratio (z) = 0.50426 0.36233
#
# Static dielectric constant tensor:
#      x y z
#    x 3.256830 0.000000 0.000000 
#    y 0.000000 2.745370 0.000000 
#    z 0.000000 0.000000 3.064420 
# 
# 
# High freq. dielectric constant tensor:
#      x y z
#    x 1.611970 0.000000 0.000000 
#    y 0.000000 1.569270 0.000000 
#    z 0.000000 0.000000 1.617750 
# 
# From -- ./inp_files/10153.got.cif
#   From: 2010.03.12/outbox.cif.g09.slc.cpg/sg47_6_cif.got.tgz:10153.got - 2010.04.14 03:12:58.
