data_PCOD8194834
_publ_section_title
;
Structure prediction by ZEFSAII (Michael W. Deem and Ramdas Pophale) SiO2 
 PCOD8194834
Probable space group: P M M M
;
_chemical_formula_sum "Si O2"
_cell_formula_units_Z 44
_cell_length_a 10.067504
_cell_length_b 13.731927
_cell_length_c 18.324317
_cell_angle_alpha 90.000000
_cell_angle_beta 90.000000
_cell_angle_gamma 90.000000
_cell_volume 2533.267743
_symmetry_space_group_name_H-M "P M M M"
_symmetry_group_IT_number 47
_symmetry_cell_setting 'orthorhombic'
loop_
_space_group_symop_operation_xyz
x,y,z
-x,-y,z
x,-y,-z
-x,y,-z
-x,-y,-z
x,y,-z
-x,y,z
x,-y,z
loop_
_atom_site_type_symbol
_atom_site_label
_atom_site_fract_x
_atom_site_fract_y
_atom_site_fract_z
Si Si1 0.842473 0.107480 0.279414
Si Si2 0.500000 0.385970 0.581767
Si Si3 0.148165 0.204527 0.578723
Si Si4 0.773687 0.387616 0.652121
Si Si5 0.843161 0.702264 0.197931
Si Si6 0.349387 0.612793 0.915114
O O1 0.780430 0.141085 0.357717
O O2 0.804968 0.186187 0.217900
O O3 0.000000 0.106385 0.287870
O O4 0.788077 0.000000 0.258422
O O5 0.500000 0.500000 0.570754
O O6 0.500000 0.338318 0.500000
O O7 0.625493 0.354523 0.629978
O O8 0.222581 0.195235 0.500000
O O9 0.134105 0.317389 0.603958
O O10 0.000000 0.165033 0.568352
O O11 0.803429 0.500000 0.633006
O O12 0.799857 0.370635 0.737601
O O13 0.758494 0.677241 0.126773
O O14 0.000000 0.690538 0.181836
O O15 0.500000 0.638959 0.890604
O O16 0.321181 0.500000 0.898759
O O17 0.331325 0.635723 0.000000
#
# Coordination Sequence:
#
# PCOD8194834 Si02
#       6
#     8   4   8   8   8   8
#     4   8  15  29  47  67  93 124 160 207 258 299
#     4   9  18  30  42  58  82 122 174 209 232 282
#     4   9  17  27  40  62  89 119 159 202 248 302
#     4  10  19  29  42  62  92 126 162 206 249 290
#     4  10  20  32  50  77 103 128 166 210 250 298
#     4   9  19  35  54  77 107 141 170 194 228 282
#
# _framework density 17.368870999999999
#
# number of rings (size 3 to 8) (size 9 to 14) (size 15 to 20)
#    0.000    2.818    0.000    3.273    1.273    4.364 
#    0.000    3.636    0.000    1.091    0.000    3.818 
#    0.000    6.909    0.000    0.000    0.000    0.000 
#
# Total GULP energy -545166.429961 kJ/mol
# GULP energy per Si atom -12390.146135 kJ/mol
# Density = 1.732934 g / cm^3
# Si number density = 17.368871 Si / 1000 Ang^3
#
#
#
# Elastic Constant Matrix: (Units=GPa)
#
#
# Indices 1 2 3 4 5 6 
#
# 1 74.9956 30.8528 49.5696 0.0000 0.0000 0.0000
# 2 30.8528 105.4596 47.7401 0.0000 0.0000 0.0000
# 3 49.5696 47.7401 101.4884 0.0000 0.0000 0.0000
# 4 0.0000 0.0000 0.0000 12.2069 0.0000 0.0000
# 5 0.0000 0.0000 0.0000 0.0000 25.5650 0.0000
# 6 0.0000 0.0000 0.0000 0.0000 0.0000 6.8909
#
#
#
# Elastic Compliance Matrix: (Units=1/GPa)
#
#
# Indices 1 2 3 4 5 6 
#
# 1 0.019960 -0.001812 -0.008897 0.000000 0.000000 0.000000
# 2 -0.001812 0.012212 -0.004860 0.000000 0.000000 0.000000
# 3 -0.008897 -0.004860 0.016485 0.000000 0.000000 0.000000
# 4 0.000000 0.000000 0.000000 0.081921 0.000000 0.000000
# 5 0.000000 0.000000 0.000000 0.000000 0.039116 0.000000
# 6 0.000000 0.000000 0.000000 0.000000 0.000000 0.145118
#
#
# Mechanical properties :
#
#
# Convention : Reuss Voigt Hill
#
# Bulk Modulus (GPa) = 57.07630 59.80760 58.44195
# Shear Modulus (GPa) = 14.21312 19.18466 16.69889
#
# Velocity S-wave (km/s) = 2.86371 3.32707 3.10405
# Velocity P-wave (km/s) = 6.62322 7.01910 6.82403
#
# Compressibility (1/GPa) = 0.01752041
#
# Stress axis : x y z
#
# Youngs Moduli (GPa) = 50.10047 81.88459 60.66267
#
# Poissons Ratio (x) = 0.14838 0.53969
# Poissons Ratio (y) = 0.09078 0.29480
# Poissons Ratio (z) = 0.44572 0.39793
#
# Static dielectric constant tensor:
#      x y z
#    x 3.148910 0.000000 0.000000 
#    y 0.000000 3.281230 0.000000 
#    z 0.000000 0.000000 3.198220 
# 
# 
# High freq. dielectric constant tensor:
#      x y z
#    x 1.645000 0.000000 0.000000 
#    y 0.000000 1.654610 0.000000 
#    z 0.000000 0.000000 1.663950 
# 
# From -- ./inp_files/6202.got.cif
#   From: 2010.03.12/outbox.cif.g09.slc.cpg/sg47_4_cif.got.tgz:6202.got - 2010.04.14 03:12:58.
