data_PCOD8194741
_publ_section_title
;
Structure prediction by ZEFSAII (Michael W. Deem and Ramdas Pophale) SiO2 
 PCOD8194741
Probable space group: P M M M
;
_chemical_formula_sum "Si O2"
_cell_formula_units_Z 52
_cell_length_a 13.385333
_cell_length_b 24.242896
_cell_length_c 9.447998
_cell_angle_alpha 90.000000
_cell_angle_beta 90.000000
_cell_angle_gamma 90.000000
_cell_volume 3065.868131
_symmetry_space_group_name_H-M "P M M M"
_symmetry_group_IT_number 47
_symmetry_cell_setting 'orthorhombic'
loop_
_space_group_symop_operation_xyz
x,y,z
-x,-y,z
x,-y,-z
-x,y,-z
-x,-y,-z
x,y,-z
-x,y,z
x,-y,z
loop_
_atom_site_type_symbol
_atom_site_label
_atom_site_fract_x
_atom_site_fract_y
_atom_site_fract_z
Si Si1 0.792957 0.250022 0.835387
Si Si2 0.115654 0.340244 0.343532
Si Si3 0.881140 0.561179 0.158650
Si Si4 0.610299 0.115319 0.659532
Si Si5 0.000000 0.937420 0.168206
Si Si6 0.200633 0.120870 0.164848
Si Si7 0.609919 0.753831 0.657615
O O1 0.874039 0.284703 0.748804
O O2 0.812237 0.185740 0.806325
O O3 0.685241 0.269049 0.775545
O O4 0.799977 0.264525 0.000000
O O5 0.164353 0.333731 0.500000
O O6 0.165334 0.392653 0.263083
O O7 0.000000 0.352160 0.361709
O O8 0.848306 0.500000 0.210076
O O9 0.000000 0.565397 0.156904
O O10 0.840658 0.572105 0.000000
O O11 0.630057 0.094170 0.500000
O O12 0.500000 0.093758 0.710969
O O13 0.701637 0.095003 0.758337
O O14 0.607837 0.180691 0.663417
O O15 0.100276 0.907726 0.225162
O O16 0.000000 0.000000 0.223297
O O17 0.000000 0.934168 0.000000
O O18 0.215725 0.108453 0.000000
O O19 0.643021 0.734978 0.500000
O O20 0.500000 0.730411 0.692957
#
# Coordination Sequence:
#
# PCOD8194741 Si02
#       7
#     8   8   8   8   4   8   8
#     4  10  19  28  42  64  91 118 144 182 225 270
#     4  10  20  30  40  58  86 120 155 187 220 262
#     4   8  14  26  43  60  79 108 147 187 227 267
#     4   8  14  26  45  68  93 119 144 175 222 276
#     4   9  18  34  53  69  89 119 156 197 236 273
#     4   9  18  30  47  70  90 116 153 191 231 275
#     4   8  14  26  43  61  85 116 145 174 212 263
#
# _framework density 16.960939
#
# number of rings (size 3 to 8) (size 9 to 14) (size 15 to 20)
#    0.000    3.154    0.000    2.308    1.077    2.462 
#    0.000    5.000    0.000    1.385    0.000    3.231 
#    0.000    0.615    0.000    6.462    0.000    3.385 
#
# Total GULP energy -644353.608560 kJ/mol
# GULP energy per Si atom -12391.415549 kJ/mol
# Density = 1.692233 g / cm^3
# Si number density = 16.960939 Si / 1000 Ang^3
#
#
#
# Elastic Constant Matrix: (Units=GPa)
#
#
# Indices 1 2 3 4 5 6 
#
# 1 95.7623 34.2384 45.2764 0.0000 0.0000 0.0000
# 2 34.2384 62.7972 43.8244 0.0000 0.0000 0.0000
# 3 45.2764 43.8244 98.3057 0.0000 0.0000 0.0000
# 4 0.0000 0.0000 0.0000 13.1321 0.0000 0.0000
# 5 0.0000 0.0000 0.0000 0.0000 27.7021 0.0000
# 6 0.0000 0.0000 0.0000 0.0000 0.0000 2.8172
#
#
#
# Elastic Compliance Matrix: (Units=1/GPa)
#
#
# Indices 1 2 3 4 5 6 
#
# 1 0.014216 -0.004618 -0.004489 0.000000 0.000000 0.000000
# 2 -0.004618 0.024616 -0.008847 0.000000 0.000000 0.000000
# 3 -0.004489 -0.008847 0.016183 0.000000 0.000000 0.000000
# 4 0.000000 0.000000 0.000000 0.076150 0.000000 0.000000
# 5 0.000000 0.000000 0.000000 0.000000 0.036098 0.000000
# 6 0.000000 0.000000 0.000000 0.000000 0.000000 0.354958
#
#
# Mechanical properties :
#
#
# Convention : Reuss Voigt Hill
#
# Bulk Modulus (GPa) = 52.33341 55.94929 54.14135
# Shear Modulus (GPa) = 8.85743 17.63202 13.24473
#
# Velocity S-wave (km/s) = 2.28770 3.22773 2.79748
# Velocity P-wave (km/s) = 6.15633 6.85199 6.51345
#
# Compressibility (1/GPa) = 0.01910825
#
# Stress axis : x y z
#
# Youngs Moduli (GPa) = 70.34354 40.62360 61.79147
#
# Poissons Ratio (x) = 0.18762 0.27735
# Poissons Ratio (y) = 0.32488 0.54665
# Poissons Ratio (z) = 0.31574 0.35939
#
# Static dielectric constant tensor:
#      x y z
#    x 3.292770 0.000000 0.000000 
#    y 0.000000 2.972300 0.000000 
#    z 0.000000 0.000000 3.344060 
# 
# 
# High freq. dielectric constant tensor:
#      x y z
#    x 1.632430 0.000000 0.000000 
#    y 0.000000 1.622770 0.000000 
#    z 0.000000 0.000000 1.651530 
# 
# From -- ./inp_files/7576.got.cif
#   From: 2010.03.12/outbox.cif.g09.slc.cpg/sg47_4_cif.got.tgz:7576.got - 2010.04.14 03:12:58.
