data_PCOD8194026
_publ_section_title
;
Structure prediction by ZEFSAII (Michael W. Deem and Ramdas Pophale) SiO2 
 PCOD8194026
Probable space group: P M M M
;
_chemical_formula_sum "Si O2"
_cell_formula_units_Z 56
_cell_length_a 9.802870
_cell_length_b 30.783730
_cell_length_c 11.953263
_cell_angle_alpha 90.000000
_cell_angle_beta 90.000000
_cell_angle_gamma 90.000000
_cell_volume 3607.123066
_symmetry_space_group_name_H-M "P M M M"
_symmetry_group_IT_number 47
_symmetry_cell_setting 'orthorhombic'
loop_
_space_group_symop_operation_xyz
x,y,z
-x,-y,z
x,-y,-z
-x,y,-z
-x,-y,-z
x,y,-z
-x,y,z
x,-y,z
loop_
_atom_site_type_symbol
_atom_site_label
_atom_site_fract_x
_atom_site_fract_y
_atom_site_fract_z
Si Si1 0.152418 0.048095 0.633018
Si Si2 0.838078 0.372571 0.375224
Si Si3 0.161408 0.712561 0.758827
Si Si4 0.162577 0.548216 0.231399
Si Si5 0.659221 0.219185 0.629821
Si Si6 0.349739 0.121059 0.367468
Si Si7 0.839461 0.316616 0.000000
Si Si8 0.837217 0.413741 0.000000
O O1 0.151742 0.051638 0.500000
O O2 0.248385 0.085345 0.685836
O O3 0.000000 0.055691 0.679077
O O4 0.204450 0.000000 0.668644
O O5 0.777263 0.367939 0.500000
O O6 0.791941 0.331747 0.301366
O O7 0.780575 0.417019 0.320955
O O8 0.000000 0.374536 0.379223
O O9 0.244607 0.751752 0.706029
O O10 0.204371 0.709556 0.889076
O O11 0.000000 0.720848 0.743522
O O12 0.215822 0.500000 0.262770
O O13 0.217148 0.560979 0.108718
O O14 0.000000 0.549207 0.231160
O O15 0.692020 0.228338 0.500000
O O16 0.500000 0.228465 0.654027
O O17 0.697323 0.169750 0.662257
O O18 0.355075 0.116069 0.500000
O O19 0.500000 0.112231 0.317717
O O20 0.775838 0.364973 0.000000
O O21 0.000000 0.322998 0.000000
O O22 0.000000 0.412155 0.000000
#
# Coordination Sequence:
#
# PCOD8194026 Si02
#       8
#     8   8   8   8   8   8   4   4
#     4   8  13  20  30  47  73 104 138 176 212 241
#     4   9  16  24  34  51  76 104 134 167 202 244
#     4  10  18  29  45  63  81 106 141 175 210 255
#     4   9  15  21  31  48  72 104 137 165 198 245
#     4   9  18  31  44  60  85 113 140 176 219 256
#     4   8  14  24  36  50  71 102 138 172 207 247
#     4   9  16  27  43  60  81 106 133 173 218 251
#     4   9  13  22  35  49  71 102 136 167 201 243
#
# _framework density 15.524837
#
# number of rings (size 3 to 8) (size 9 to 14) (size 15 to 20)
#    0.000    3.143    1.429    1.929    0.000    2.857 
#    0.000    4.643    0.000    0.000    0.000    0.000 
#    0.000    0.571    0.000    4.929    0.000   17.143 
#
# Total GULP energy -694006.181754 kJ/mol
# GULP energy per Si atom -12392.967531 kJ/mol
# Density = 1.548950 g / cm^3
# Si number density = 15.524837 Si / 1000 Ang^3
#
#
#
# Elastic Constant Matrix: (Units=GPa)
#
#
# Indices 1 2 3 4 5 6 
#
# 1 42.0626 56.3318 26.8929 0.0000 0.0000 0.0000
# 2 56.3318 145.9412 54.3197 0.0000 0.0000 0.0000
# 3 26.8929 54.3197 90.6812 0.0000 0.0000 0.0000
# 4 0.0000 0.0000 0.0000 7.6084 0.0000 0.0000
# 5 0.0000 0.0000 0.0000 0.0000 9.1725 0.0000
# 6 0.0000 0.0000 0.0000 0.0000 0.0000 2.7861
#
#
#
# Elastic Compliance Matrix: (Units=1/GPa)
#
#
# Indices 1 2 3 4 5 6 
#
# 1 0.050452 -0.017895 -0.004243 0.000000 0.000000 0.000000
# 2 -0.017895 0.015165 -0.003777 0.000000 0.000000 0.000000
# 3 -0.004243 -0.003777 0.014549 0.000000 0.000000 0.000000
# 4 0.000000 0.000000 0.000000 0.131433 0.000000 0.000000
# 5 0.000000 0.000000 0.000000 0.000000 0.109022 0.000000
# 6 0.000000 0.000000 0.000000 0.000000 0.000000 0.358921
#
#
# Mechanical properties :
#
#
# Convention : Reuss Voigt Hill
#
# Bulk Modulus (GPa) = 35.29101 61.53043 48.41072
# Shear Modulus (GPa) = 6.74930 13.32277 10.03604
#
# Velocity S-wave (km/s) = 2.08731 2.93261 2.54530
# Velocity P-wave (km/s) = 5.34701 7.15448 6.31573
#
# Compressibility (1/GPa) = 0.02833582
#
# Stress axis : x y z
#
# Youngs Moduli (GPa) = 19.82074 65.94056 68.73491
#
# Poissons Ratio (x) = 1.17999 0.29165
# Poissons Ratio (y) = 0.35469 0.25963
# Poissons Ratio (z) = 0.08410 0.24907
#
# Static dielectric constant tensor:
#      x y z
#    x 2.687130 0.000000 0.000000 
#    y 0.000000 3.167350 0.000000 
#    z 0.000000 0.000000 2.862030 
# 
# 
# High freq. dielectric constant tensor:
#      x y z
#    x 1.548440 0.000000 0.000000 
#    y 0.000000 1.606150 0.000000 
#    z 0.000000 0.000000 1.561070 
# 
# From -- ./inp_files/16769.got.cif
#   From: 2010.03.12/outbox.cif.g09.slc.cpg/sg47_9_cif.got.tgz:16769.got - 2010.04.14 03:12:58.
