data_PCOD8194005
_publ_section_title
;
Structure prediction by ZEFSAII (Michael W. Deem and Ramdas Pophale) SiO2 
 PCOD8194005
Probable space group: P M M M
;
_chemical_formula_sum "Si O2"
_cell_formula_units_Z 64
_cell_length_a 9.287760
_cell_length_b 14.247006
_cell_length_c 31.432919
_cell_angle_alpha 90.000000
_cell_angle_beta 90.000000
_cell_angle_gamma 90.000000
_cell_volume 4159.290988
_symmetry_space_group_name_H-M "P M M M"
_symmetry_group_IT_number 47
_symmetry_cell_setting 'orthorhombic'
loop_
_space_group_symop_operation_xyz
x,y,z
-x,-y,z
x,-y,-z
-x,y,-z
-x,-y,-z
x,y,-z
-x,y,z
x,-y,z
loop_
_atom_site_type_symbol
_atom_site_label
_atom_site_fract_x
_atom_site_fract_y
_atom_site_fract_z
Si Si1 0.667962 0.392883 0.257607
Si Si2 0.165646 0.604720 0.171078
Si Si3 0.662206 0.111497 0.453427
Si Si4 0.170418 0.774687 0.291205
Si Si5 0.828768 0.106184 0.046797
Si Si6 0.831070 0.892677 0.372752
Si Si7 0.171322 0.894700 0.210578
Si Si8 0.830635 0.210965 0.127750
O O1 0.500000 0.368398 0.255639
O O2 0.693614 0.500000 0.272389
O O3 0.734307 0.376058 0.211193
O O4 0.748033 0.325147 0.291013
O O5 0.189281 0.500000 0.152716
O O6 0.205706 0.678753 0.134023
O O7 0.000000 0.619876 0.185805
O O8 0.715832 0.147560 0.500000
O O9 0.500000 0.146543 0.445471
O O10 0.761122 0.150648 0.415488
O O11 0.668628 0.000000 0.453201
O O12 0.219059 0.830225 0.333149
O O13 0.224031 0.834890 0.250866
O O14 0.000000 0.757310 0.290259
O O15 0.762929 0.174258 0.083277
O O16 0.000000 0.111452 0.046667
O O17 0.779367 0.000000 0.056818
O O18 0.771294 0.137052 0.000000
O O19 0.000000 0.887866 0.379174
O O20 0.781544 0.000000 0.364399
O O21 0.232453 0.847610 0.167543
O O22 0.000000 0.896932 0.210086
O O23 0.233280 0.000000 0.214161
O O24 0.000000 0.193771 0.126050
#
# Coordination Sequence:
#
# PCOD8194005 Si02
#       8
#     8   8   8   8   8   8   8   8
#     4  10  20  32  45  61  81 106 138 176 215 251
#     4   9  16  27  43  61  79 100 132 171 208 250
#     4   8  14  25  40  57  79 111 151 188 217 247
#     4  10  18  29  43  61  85 113 142 171 206 249
#     4   8  13  20  30  48  77 108 134 164 203 245
#     4   9  17  27  40  61  88 116 145 177 212 249
#     4   9  15  22  35  56  79 104 137 172 198 230
#     4   9  14  21  35  55  75 102 138 170 202 241
#
# _framework density 15.387238
#
# number of rings (size 3 to 8) (size 9 to 14) (size 15 to 20)
#    0.000    3.000    1.250    1.875    0.000    4.500 
#    0.000    1.250    0.000    1.500    0.000    2.625 
#    0.000    1.000    0.000   10.000    0.000    8.750 
#
# Total GULP energy -793198.742193 kJ/mol
# GULP energy per Si atom -12393.730347 kJ/mol
# Density = 1.535222 g / cm^3
# Si number density = 15.387238 Si / 1000 Ang^3
#
#
#
# Elastic Constant Matrix: (Units=GPa)
#
#
# Indices 1 2 3 4 5 6 
#
# 1 31.0775 30.4193 33.3642 0.0000 0.0000 0.0000
# 2 30.4193 101.4469 66.0775 0.0000 0.0000 0.0000
# 3 33.3642 66.0775 140.6847 0.0000 0.0000 0.0000
# 4 0.0000 0.0000 0.0000 13.0023 0.0000 0.0000
# 5 0.0000 0.0000 0.0000 0.0000 6.4386 0.0000
# 6 0.0000 0.0000 0.0000 0.0000 0.0000 12.2736
#
#
#
# Elastic Compliance Matrix: (Units=1/GPa)
#
#
# Indices 1 2 3 4 5 6 
#
# 1 0.049811 -0.010434 -0.006912 0.000000 0.000000 0.000000
# 2 -0.010434 0.016388 -0.005223 0.000000 0.000000 0.000000
# 3 -0.006912 -0.005223 0.011200 0.000000 0.000000 0.000000
# 4 0.000000 0.000000 0.000000 0.076909 0.000000 0.000000
# 5 0.000000 0.000000 0.000000 0.000000 0.155314 0.000000
# 6 0.000000 0.000000 0.000000 0.000000 0.000000 0.081476
#
#
# Mechanical properties :
#
#
# Convention : Reuss Voigt Hill
#
# Bulk Modulus (GPa) = 30.99636 59.21457 45.10547
# Shear Modulus (GPa) = 11.18591 15.89943 13.54267
#
# Velocity S-wave (km/s) = 2.69915 3.21797 2.96991
# Velocity P-wave (km/s) = 5.46825 7.23696 6.41386
#
# Compressibility (1/GPa) = 0.03226185
#
# Stress axis : x y z
#
# Youngs Moduli (GPa) = 20.07572 61.02118 89.28217
#
# Poissons Ratio (x) = 0.63668 0.61716
# Poissons Ratio (y) = 0.20946 0.46629
# Poissons Ratio (z) = 0.13877 0.31869
#
# Static dielectric constant tensor:
#      x y z
#    x 2.631480 0.000000 0.000000 
#    y 0.000000 2.994920 0.000000 
#    z 0.000000 0.000000 3.188090 
# 
# 
# High freq. dielectric constant tensor:
#      x y z
#    x 1.551210 0.000000 0.000000 
#    y 0.000000 1.574860 0.000000 
#    z 0.000000 0.000000 1.582690 
# 
# From -- ./inp_files/34450.got.cif
#   From: 2010.03.12/outbox.cif.g09.slc.cpg/sg47_18_cif.got.tgz:34450.got - 2010.04.14 03:12:58.
