data_PCOD8194196
_publ_section_title
;
Structure prediction by ZEFSAII (Michael W. Deem and Ramdas Pophale) SiO2 
 PCOD8194196
Probable space group: P M M M
;
_chemical_formula_sum "Si O2"
_cell_formula_units_Z 40
_cell_length_a 12.962900
_cell_length_b 9.161045
_cell_length_c 22.139442
_cell_angle_alpha 90.000000
_cell_angle_beta 90.000000
_cell_angle_gamma 90.000000
_cell_volume 2629.140880
_symmetry_space_group_name_H-M "P M M M"
_symmetry_group_IT_number 47
_symmetry_cell_setting 'orthorhombic'
loop_
_space_group_symop_operation_xyz
x,y,z
-x,-y,z
x,-y,-z
-x,y,-z
-x,-y,-z
x,y,-z
-x,y,z
x,-y,z
loop_
_atom_site_type_symbol
_atom_site_label
_atom_site_fract_x
_atom_site_fract_y
_atom_site_fract_z
Si Si1 0.619239 0.832060 0.233335
Si Si2 0.500000 0.329362 0.429076
Si Si3 0.622935 0.664777 0.116522
Si Si4 0.886644 0.826788 0.432361
Si Si5 0.376921 0.164923 0.000000
Si Si6 0.313241 0.828025 0.364478
O O1 0.500000 0.796035 0.246457
O O2 0.663941 0.736519 0.178375
O O3 0.682186 0.792206 0.293447
O O4 0.632977 0.000000 0.214837
O O5 0.500000 0.500000 0.413922
O O6 0.500000 0.298660 0.500000
O O7 0.600887 0.257920 0.400936
O O8 0.500000 0.669814 0.115989
O O9 0.664217 0.500000 0.112535
O O10 0.666359 0.753518 0.059231
O O11 0.863179 0.768900 0.500000
O O12 0.798134 0.771078 0.387140
O O13 0.000000 0.770237 0.411212
O O14 0.886962 0.000000 0.432988
O O15 0.500000 0.166880 0.000000
O O16 0.334961 0.000000 0.000000
O O17 0.330539 0.000000 0.375933
#
# Coordination Sequence:
#
# PCOD8194196 Si02
#       6
#     8   4   8   8   4   8
#     4   9  16  26  37  53  77 104 136 170 203 244
#     4  11  23  33  41  59  87 112 137 174 217 257
#     4   9  16  24  35  51  72 101 136 170 203 240
#     4   8  14  25  43  67  88 104 131 176 223 261
#     4   9  15  23  35  51  71  99 134 173 208 233
#     4  10  18  30  47  64  82 110 144 176 211 258
#
# _framework density 15.214096
#
# number of rings (size 3 to 8) (size 9 to 14) (size 15 to 20)
#    0.000    2.800    1.000    2.400    0.000    6.000 
#    0.000    0.000    0.000    0.600    0.000    2.800 
#    0.000    0.000    0.000    0.900    0.000   21.300 
#
# Total GULP energy -495870.205087 kJ/mol
# GULP energy per Si atom -12396.755127 kJ/mol
# Density = 1.517947 g / cm^3
# Si number density = 15.214096 Si / 1000 Ang^3
#
#
#
# Elastic Constant Matrix: (Units=GPa)
#
#
# Indices 1 2 3 4 5 6 
#
# 1 76.8728 30.6133 57.9292 0.0000 0.0000 0.0000
# 2 30.6133 82.2283 64.8668 0.0000 0.0000 0.0000
# 3 57.9292 64.8668 140.7957 0.0000 0.0000 0.0000
# 4 0.0000 0.0000 0.0000 21.8555 0.0000 0.0000
# 5 0.0000 0.0000 0.0000 0.0000 8.4304 0.0000
# 6 0.0000 0.0000 0.0000 0.0000 0.0000 2.3616
#
#
#
# Elastic Compliance Matrix: (Units=1/GPa)
#
#
# Indices 1 2 3 4 5 6 
#
# 1 0.018959 -0.001421 -0.007146 0.000000 0.000000 0.000000
# 2 -0.001421 0.019211 -0.008266 0.000000 0.000000 0.000000
# 3 -0.007146 -0.008266 0.013851 0.000000 0.000000 0.000000
# 4 0.000000 0.000000 0.000000 0.045755 0.000000 0.000000
# 5 0.000000 0.000000 0.000000 0.000000 0.118618 0.000000
# 6 0.000000 0.000000 0.000000 0.000000 0.000000 0.423433
#
#
# Mechanical properties :
#
#
# Convention : Reuss Voigt Hill
#
# Bulk Modulus (GPa) = 54.48140 67.41280 60.94710
# Shear Modulus (GPa) = 7.35713 16.29535 11.82624
#
# Velocity S-wave (km/s) = 2.20142 3.27627 2.79107
# Velocity P-wave (km/s) = 6.50763 7.66274 7.10868
#
# Compressibility (1/GPa) = 0.01835489
#
# Stress axis : x y z
#
# Youngs Moduli (GPa) = 52.74405 52.05286 72.19757
#
# Poissons Ratio (x) = 0.07399 0.51591
# Poissons Ratio (y) = 0.07497 0.59679
# Poissons Ratio (z) = 0.37690 0.43027
#
# Static dielectric constant tensor:
#      x y z
#    x 2.768130 0.000000 0.000000 
#    y 0.000000 2.860520 0.000000 
#    z 0.000000 0.000000 3.087550 
# 
# 
# High freq. dielectric constant tensor:
#      x y z
#    x 1.526550 0.000000 0.000000 
#    y 0.000000 1.572920 0.000000 
#    z 0.000000 0.000000 1.592660 
# 
# From -- ./inp_files/30727.got.cif
#   From: 2010.03.12/outbox.cif.g09.slc.cpg/sg47_16_cif.got.tgz:30727.got - 2010.04.14 03:12:58.
