data_PCOD8194278
_publ_section_title
;
Structure prediction by ZEFSAII (Michael W. Deem and Ramdas Pophale) SiO2 
 PCOD8194278
Probable space group: P M M M
;
_chemical_formula_sum "Si O2"
_cell_formula_units_Z 52
_cell_length_a 26.380074
_cell_length_b 8.835020
_cell_length_c 12.484680
_cell_angle_alpha 90.000000
_cell_angle_beta 90.000000
_cell_angle_gamma 90.000000
_cell_volume 2909.785408
_symmetry_space_group_name_H-M "P M M M"
_symmetry_group_IT_number 47
_symmetry_cell_setting 'orthorhombic'
loop_
_space_group_symop_operation_xyz
x,y,z
-x,-y,z
x,-y,-z
-x,y,-z
-x,-y,-z
x,y,-z
-x,y,z
x,-y,z
loop_
_atom_site_type_symbol
_atom_site_label
_atom_site_fract_x
_atom_site_fract_y
_atom_site_fract_z
Si Si1 0.222194 0.175421 0.500000
Si Si2 0.669088 0.678534 0.500000
Si Si3 0.159134 0.822050 0.289860
Si Si4 0.771122 0.674926 0.876332
Si Si5 0.666504 0.823914 0.124733
Si Si6 0.602361 0.679286 0.698091
Si Si7 0.500000 0.820625 0.376981
Si Si8 0.944609 0.820532 0.380185
O O1 0.273946 0.265898 0.500000
O O2 0.190102 0.220324 0.603872
O O3 0.235844 0.000000 0.500000
O O4 0.669897 0.500000 0.500000
O O5 0.639878 0.738425 0.604914
O O6 0.180607 0.730772 0.189603
O O7 0.101129 0.764186 0.304760
O O8 0.161922 0.000000 0.265587
O O9 0.759898 0.500000 0.852696
O O10 0.722080 0.769023 0.839440
O O11 0.783784 0.704081 0.000000
O O12 0.624196 0.730711 0.187950
O O13 0.661713 0.000000 0.152192
O O14 0.657656 0.790052 0.000000
O O15 0.595760 0.500000 0.695240
O O16 0.548333 0.755948 0.683729
O O17 0.500000 0.765060 0.500000
O O18 0.500000 0.000000 0.369165
O O19 0.938014 0.753925 0.500000
O O20 0.000000 0.771568 0.333918
O O21 0.941004 0.000000 0.388332
#
# Coordination Sequence:
#
# PCOD8194278 Si02
#       8
#     4   4   8   8   8   8   4   8
#     4  10  20  30  44  73 108 136 161 203 258 313
#     4  10  22  35  49  73 106 141 174 209 254 309
#     4  10  18  30  49  75 105 134 170 215 263 314
#     4  10  21  36  53  74 102 139 181 219 261 315
#     4  10  21  38  59  83 110 139 176 223 271 318
#     4  11  22  38  59  82 111 145 181 220 263 315
#     4  11  23  39  60  85 112 145 185 223 265 314
#     4   8  13  24  45  72 102 135 170 210 260 316
#
# _framework density 17.870733999999999
#
# number of rings (size 3 to 8) (size 9 to 14) (size 15 to 20)
#    0.000    2.077    1.538    3.000    0.000    6.462 
#    0.000    0.385    0.000    3.231    0.000    4.308 
#    0.000    0.000    0.000    0.000    0.000    0.000 
#
# Total GULP energy -644878.088916 kJ/mol
# GULP energy per Si atom -12401.501710 kJ/mol
# Density = 1.783006 g / cm^3
# Si number density = 17.870734 Si / 1000 Ang^3
#
#
#
# Elastic Constant Matrix: (Units=GPa)
#
#
# Indices 1 2 3 4 5 6 
#
# 1 141.2879 32.6992 57.6270 0.0000 0.0000 0.0000
# 2 32.6992 49.9551 32.2470 0.0000 0.0000 0.0000
# 3 57.6270 32.2470 80.2296 0.0000 0.0000 0.0000
# 4 0.0000 0.0000 0.0000 25.9569 0.0000 0.0000
# 5 0.0000 0.0000 0.0000 0.0000 26.4973 0.0000
# 6 0.0000 0.0000 0.0000 0.0000 0.0000 -14.5910
#
#
#
# Elastic Compliance Matrix: (Units=1/GPa)
#
#
# Indices 1 2 3 4 5 6 
#
# 1 0.010263 -0.002646 -0.006308 0.000000 0.000000 0.000000
# 2 -0.002646 0.027714 -0.009239 0.000000 0.000000 0.000000
# 3 -0.006308 -0.009239 0.020709 0.000000 0.000000 0.000000
# 4 0.000000 0.000000 0.000000 0.038525 0.000000 0.000000
# 5 0.000000 0.000000 0.000000 0.000000 0.037740 0.000000
# 6 0.000000 0.000000 0.000000 0.000000 0.000000 -0.068535
#
#
# Mechanical properties :
#
#
# Convention : Reuss Voigt Hill
#
# Bulk Modulus (GPa) = 44.84330 57.40212 51.12271
# Shear Modulus (GPa) = 45.35823 17.49926 31.42875
#
# Velocity S-wave (km/s) = 5.04345 3.13263 4.19820
# Velocity P-wave (km/s) = 7.68523 6.72867 7.22280
#
# Compressibility (1/GPa) = 0.02229987
#
# Stress axis : x y z
#
# Youngs Moduli (GPa) = 97.43719 36.08343 48.28909
#
# Poissons Ratio (x) = 0.09547 0.30462
# Poissons Ratio (y) = 0.25780 0.44612
# Poissons Ratio (z) = 0.61466 0.33336
#
# Static dielectric constant tensor:
#      x y z
#    x 3.483920 0.000000 0.000000 
#    y 0.000000 3.154460 0.000000 
#    z 0.000000 0.000000 3.275570 
# 
# 
# High freq. dielectric constant tensor:
#      x y z
#    x 1.698140 0.000000 0.000000 
#    y 0.000000 1.680570 0.000000 
#    z 0.000000 0.000000 1.681600 
# 
# From -- ./inp_files/19887.got.cif
#   From: 2010.03.12/outbox.cif.g09.slc.cpg/sg47_10_cif.got.tgz:19887.got - 2010.04.14 03:12:58.
