data_PCOD8194867
_publ_section_title
;
Structure prediction by ZEFSAII (Michael W. Deem and Ramdas Pophale) SiO2 
 PCOD8194867
Probable space group: P M M M
;
_chemical_formula_sum "Si O2"
_cell_formula_units_Z 48
_cell_length_a 23.896997
_cell_length_b 9.270007
_cell_length_c 13.582254
_cell_angle_alpha 90.000000
_cell_angle_beta 90.000000
_cell_angle_gamma 90.000000
_cell_volume 3008.813292
_symmetry_space_group_name_H-M "P M M M"
_symmetry_group_IT_number 47
_symmetry_cell_setting 'orthorhombic'
loop_
_space_group_symop_operation_xyz
x,y,z
-x,-y,z
x,-y,-z
-x,y,-z
-x,-y,-z
x,y,-z
-x,y,z
x,-y,z
loop_
_atom_site_type_symbol
_atom_site_label
_atom_site_fract_x
_atom_site_fract_y
_atom_site_fract_z
Si Si1 0.889384 0.667988 0.280858
Si Si2 0.500000 0.666842 0.885347
Si Si3 0.721056 0.830477 0.781862
Si Si4 0.164999 0.168604 0.887861
Si Si5 0.224760 0.666914 0.613193
Si Si6 0.000000 0.671806 0.610765
Si Si7 0.621111 0.669470 0.884028
O O1 0.894738 0.500000 0.256726
O O2 0.880620 0.748918 0.177587
O O3 0.838724 0.700294 0.355213
O O4 0.945344 0.728246 0.331962
O O5 0.500000 0.500000 0.861664
O O6 0.559673 0.726472 0.845365
O O7 0.500000 0.695395 0.000000
O O8 0.772431 0.791443 0.853675
O O9 0.732156 0.763830 0.674524
O O10 0.665637 0.761920 0.825572
O O11 0.712395 0.000000 0.771041
O O12 0.153885 0.000000 0.875937
O O13 0.157923 0.219743 0.000000
O O14 0.231602 0.709947 0.500000
O O15 0.239209 0.500000 0.631778
O O16 0.000000 0.500000 0.605659
O O17 0.000000 0.734977 0.500000
O O18 0.629116 0.500000 0.861686
O O19 0.627789 0.698271 0.000000
#
# Coordination Sequence:
#
# PCOD8194867 Si02
#       7
#     8   4   8   8   8   4   8
#     4   9  17  29  47  70  90 110 141 178 216 260
#     4   7  12  24  41  61  86 117 150 181 213 250
#     4  10  19  29  43  65  91 117 147 182 220 263
#     4   9  18  32  46  60  85 121 152 178 213 255
#     4   9  17  30  47  66  88 113 143 180 219 261
#     4   9  16  28  48  71  92 112 135 171 222 271
#     4   9  16  27  44  65  90 120 152 183 214 252
#
# _framework density 15.953134
#
# number of rings (size 3 to 8) (size 9 to 14) (size 15 to 20)
#    0.000    3.000    0.000    2.500    0.000    4.333 
#    0.000    1.250    0.000    6.000    0.000    0.583 
#    0.000    4.667    0.000    0.000    0.000    0.000 
#
# Total GULP energy -594978.164768 kJ/mol
# GULP energy per Si atom -12395.378433 kJ/mol
# Density = 1.591682 g / cm^3
# Si number density = 15.953134 Si / 1000 Ang^3
#
#
#
# Elastic Constant Matrix: (Units=GPa)
#
#
# Indices 1 2 3 4 5 6 
#
# 1 133.5897 49.6797 71.9099 0.0000 0.0000 0.0000
# 2 49.6797 51.2486 50.5098 0.0000 0.0000 0.0000
# 3 71.9099 50.5098 127.8064 0.0000 0.0000 0.0000
# 4 0.0000 0.0000 0.0000 20.3400 0.0000 0.0000
# 5 0.0000 0.0000 0.0000 0.0000 23.3517 0.0000
# 6 0.0000 0.0000 0.0000 0.0000 0.0000 17.0701
#
#
#
# Elastic Compliance Matrix: (Units=1/GPa)
#
#
# Indices 1 2 3 4 5 6 
#
# 1 0.012709 -0.008636 -0.003738 0.000000 0.000000 0.000000
# 2 -0.008636 0.037831 -0.010092 0.000000 0.000000 0.000000
# 3 -0.003738 -0.010092 0.013916 0.000000 0.000000 0.000000
# 4 0.000000 0.000000 0.000000 0.049164 0.000000 0.000000
# 5 0.000000 0.000000 0.000000 0.000000 0.042824 0.000000
# 6 0.000000 0.000000 0.000000 0.000000 0.000000 0.058582
#
#
# Mechanical properties :
#
#
# Convention : Reuss Voigt Hill
#
# Bulk Modulus (GPa) = 51.21844 72.98263 62.10053
# Shear Modulus (GPa) = 18.76414 21.52204 20.14309
#
# Velocity S-wave (km/s) = 3.43330 3.67697 3.55722
# Velocity P-wave (km/s) = 6.92041 7.99214 7.47550
#
# Compressibility (1/GPa) = 0.01952422
#
# Stress axis : x y z
#
# Youngs Moduli (GPa) = 78.68260 26.43330 71.86139
#
# Poissons Ratio (x) = 0.22829 0.26859
# Poissons Ratio (y) = 0.67954 0.72521
# Poissons Ratio (z) = 0.29409 0.26676
#
# Static dielectric constant tensor:
#      x y z
#    x 3.183210 0.000000 0.000000 
#    y 0.000000 2.856870 0.000000 
#    z 0.000000 0.000000 2.985430 
# 
# 
# High freq. dielectric constant tensor:
#      x y z
#    x 1.612010 0.000000 0.000000 
#    y 0.000000 1.596390 0.000000 
#    z 0.000000 0.000000 1.598700 
# 
# From -- ./inp_files/19558.got.cif
#   From: 2010.03.12/outbox.cif.g09.slc.cpg/sg47_10_cif.got.tgz:19558.got - 2010.04.14 03:12:58.
