data_PCOD8194597
_publ_section_title
;
Structure prediction by ZEFSAII (Michael W. Deem and Ramdas Pophale) SiO2 
 PCOD8194597
Probable space group: P M M M
;
_chemical_formula_sum "Si O2"
_cell_formula_units_Z 52
_cell_length_a 17.533420
_cell_length_b 16.295212
_cell_length_c 10.514069
_cell_angle_alpha 90.000000
_cell_angle_beta 90.000000
_cell_angle_gamma 90.000000
_cell_volume 3003.983023
_symmetry_space_group_name_H-M "P M M M"
_symmetry_group_IT_number 47
_symmetry_cell_setting 'orthorhombic'
loop_
_space_group_symop_operation_xyz
x,y,z
-x,-y,z
x,-y,-z
-x,y,-z
-x,-y,-z
x,y,-z
-x,y,z
x,-y,z
loop_
_atom_site_type_symbol
_atom_site_label
_atom_site_fract_x
_atom_site_fract_y
_atom_site_fract_z
Si Si1 0.587924 0.668209 0.856950
Si Si2 0.716142 0.791360 0.862109
Si Si3 0.226296 0.904597 0.353330
Si Si4 0.683579 0.406237 0.360173
Si Si5 0.913328 0.500000 0.148375
Si Si6 0.917131 0.196767 0.352793
Si Si7 0.825611 0.662588 0.763998
O O1 0.500000 0.684785 0.826406
O O2 0.631669 0.754434 0.848233
O O3 0.621306 0.607874 0.749886
O O4 0.598019 0.630514 0.000000
O O5 0.721953 0.854208 0.744807
O O6 0.779108 0.717973 0.865685
O O7 0.723632 0.836057 0.000000
O O8 0.248671 0.883908 0.500000
O O9 0.139292 0.878787 0.324892
O O10 0.235965 0.000000 0.325007
O O11 0.650278 0.382753 0.500000
O O12 0.707241 0.500000 0.354865
O O13 0.762169 0.356788 0.342558
O O14 0.864375 0.419584 0.183286
O O15 0.000000 0.500000 0.208937
O O16 0.924213 0.500000 0.000000
O O17 0.922147 0.215145 0.500000
O O18 0.892621 0.282126 0.291067
O O19 0.000000 0.171827 0.297938
#
# Coordination Sequence:
#
# PCOD8194597 Si02
#       7
#     8   8   8   8   4   8   8
#     4   9  19  35  53  75 102 131 164 202 248 302
#     4   9  18  32  53  76  97 127 164 202 243 291
#     4   9  18  32  51  75 102 130 160 198 245 298
#     4  10  20  33  49  71  98 132 172 215 258 300
#     4  11  22  32  45  67  94 129 176 223 261 302
#     4   9  17  29  47  70  95 125 163 206 251 299
#     4  10  18  33  48  66  95 133 170 213 256 300
#
# _framework density 17.310351000000001
#
# number of rings (size 3 to 8) (size 9 to 14) (size 15 to 20)
#    0.000    2.538    0.769    1.385    0.000    5.846 
#    0.000    3.077    0.000    6.462    0.000    7.538 
#    0.000    0.000    0.000    0.000    0.000    0.000 
#
# Total GULP energy -644277.119924 kJ/mol
# GULP energy per Si atom -12389.944614 kJ/mol
# Density = 1.727095 g / cm^3
# Si number density = 17.310351 Si / 1000 Ang^3
#
#
#
# Elastic Constant Matrix: (Units=GPa)
#
#
# Indices 1 2 3 4 5 6 
#
# 1 74.2383 10.8672 36.5891 0.0000 0.0000 0.0000
# 2 10.8672 77.5610 42.4609 0.0000 0.0000 0.0000
# 3 36.5891 42.4609 108.2596 0.0000 0.0000 0.0000
# 4 0.0000 0.0000 0.0000 24.8479 0.0000 0.0000
# 5 0.0000 0.0000 0.0000 0.0000 21.1428 0.0000
# 6 0.0000 0.0000 0.0000 0.0000 0.0000 42.4828
#
#
#
# Elastic Compliance Matrix: (Units=1/GPa)
#
#
# Indices 1 2 3 4 5 6 
#
# 1 0.016215 0.000927 -0.005844 0.000000 0.000000 0.000000
# 2 0.000927 0.016471 -0.006774 0.000000 0.000000 0.000000
# 3 -0.005844 -0.006774 0.013869 0.000000 0.000000 0.000000
# 4 0.000000 0.000000 0.000000 0.040245 0.000000 0.000000
# 5 0.000000 0.000000 0.000000 0.000000 0.047297 0.000000
# 6 0.000000 0.000000 0.000000 0.000000 0.000000 0.023539
#
#
# Mechanical properties :
#
#
# Convention : Reuss Voigt Hill
#
# Bulk Modulus (GPa) = 43.15099 48.87705 46.01402
# Shear Modulus (GPa) = 26.49127 29.03749 27.76438
#
# Velocity S-wave (km/s) = 3.91624 4.10013 4.00924
# Velocity P-wave (km/s) = 6.74027 7.12122 6.93336
#
# Compressibility (1/GPa) = 0.02317444
#
# Stress axis : x y z
#
# Youngs Moduli (GPa) = 61.67290 60.71110 72.10380
#
# Poissons Ratio (x) = -0.05630 0.42136
# Poissons Ratio (y) = -0.05719 0.48841
# Poissons Ratio (z) = 0.36041 0.41124
#
# Static dielectric constant tensor:
#      x y z
#    x 3.324840 0.000000 0.000000 
#    y 0.000000 3.059910 0.000000 
#    z 0.000000 0.000000 3.366750 
# 
# 
# High freq. dielectric constant tensor:
#      x y z
#    x 1.663000 0.000000 0.000000 
#    y 0.000000 1.651680 0.000000 
#    z 0.000000 0.000000 1.671820 
# 
# From -- ./inp_files/18563.got.cif
#   From: 2010.03.12/outbox.cif.g09.slc.cpg/sg47_10_cif.got.tgz:18563.got - 2010.04.14 03:12:58.
