data_PCOD8194259
_publ_section_title
;
Structure prediction by ZEFSAII (Michael W. Deem and Ramdas Pophale) SiO2 
 PCOD8194259
Probable space group: P M M M
;
_chemical_formula_sum "Si O2"
_cell_formula_units_Z 32
_cell_length_a 10.342000
_cell_length_b 9.145689
_cell_length_c 19.356208
_cell_angle_alpha 90.000000
_cell_angle_beta 90.000000
_cell_angle_gamma 90.000000
_cell_volume 1830.801430
_symmetry_space_group_name_H-M "P M M M"
_symmetry_group_IT_number 47
_symmetry_cell_setting 'orthorhombic'
loop_
_space_group_symop_operation_xyz
x,y,z
-x,-y,z
x,-y,-z
-x,y,-z
-x,-y,-z
x,y,-z
-x,y,z
x,-y,z
loop_
_atom_site_type_symbol
_atom_site_label
_atom_site_fract_x
_atom_site_fract_y
_atom_site_fract_z
Si Si1 0.500000 0.826423 0.576654
Si Si2 0.650567 0.328472 0.790384
Si Si3 0.346661 0.836078 0.075862
Si Si4 0.000000 0.826444 0.578133
Si Si5 0.252161 0.173701 0.659980
O O1 0.500000 0.759056 0.500000
O O2 0.626499 0.770139 0.615729
O O3 0.500000 0.000000 0.572761
O O4 0.500000 0.285607 0.779104
O O5 0.671784 0.500000 0.785172
O O6 0.701542 0.274853 0.865165
O O7 0.740225 0.249084 0.734363
O O8 0.500000 0.834982 0.073820
O O9 0.297537 0.000000 0.092984
O O10 0.294232 0.787120 0.000000
O O11 0.125285 0.771670 0.619701
O O12 0.000000 0.762108 0.500000
O O13 0.000000 0.000000 0.573462
O O14 0.252924 0.000000 0.670315
#
# Coordination Sequence:
#
# PCOD8194259 Si02
#       5
#     4   8   8   4   8
#     4   9  16  26  45  71  92 115 152 193 235 286
#     4  10  19  29  43  66  98 131 163 200 237 279
#     4   8  14  25  42  65  94 127 161 196 236 283
#     4   9  18  32  51  75  98 119 154 207 253 288
#     4  10  18  30  49  71  95 124 157 197 244 291
#
# _framework density 17.478684999999999
#
# number of rings (size 3 to 8) (size 9 to 14) (size 15 to 20)
#    0.000    2.750    1.250    2.250    0.000    4.500 
#    0.000    3.125    0.000    4.500    0.000    0.875 
#    0.000    7.000    0.000    0.000    0.000    0.000 
#
# Total GULP energy -396689.507457 kJ/mol
# GULP energy per Si atom -12396.547108 kJ/mol
# Density = 1.743890 g / cm^3
# Si number density = 17.478685 Si / 1000 Ang^3
#
#
#
# Elastic Constant Matrix: (Units=GPa)
#
#
# Indices 1 2 3 4 5 6 
#
# 1 95.1521 24.8962 59.8055 0.0000 0.0000 0.0000
# 2 24.8962 50.3599 51.4614 0.0000 0.0000 0.0000
# 3 59.8055 51.4614 172.9416 0.0000 0.0000 0.0000
# 4 0.0000 0.0000 0.0000 5.7855 0.0000 0.0000
# 5 0.0000 0.0000 0.0000 0.0000 21.4197 0.0000
# 6 0.0000 0.0000 0.0000 0.0000 0.0000 9.1027
#
#
#
# Elastic Compliance Matrix: (Units=1/GPa)
#
#
# Indices 1 2 3 4 5 6 
#
# 1 0.013693 -0.002774 -0.003910 0.000000 0.000000 0.000000
# 2 -0.002774 0.029095 -0.007698 0.000000 0.000000 0.000000
# 3 -0.003910 -0.007698 0.009425 0.000000 0.000000 0.000000
# 4 0.000000 0.000000 0.000000 0.172845 0.000000 0.000000
# 5 0.000000 0.000000 0.000000 0.000000 0.046686 0.000000
# 6 0.000000 0.000000 0.000000 0.000000 0.000000 0.109857
#
#
# Mechanical properties :
#
#
# Convention : Reuss Voigt Hill
#
# Bulk Modulus (GPa) = 42.64612 65.64219 54.14416
# Shear Modulus (GPa) = 11.95654 19.41429 15.68541
#
# Velocity S-wave (km/s) = 2.61830 3.33639 2.99892
# Velocity P-wave (km/s) = 5.79591 7.24425 6.56017
#
# Compressibility (1/GPa) = 0.02344879
#
# Stress axis : x y z
#
# Youngs Moduli (GPa) = 73.03220 34.36987 106.09972
#
# Poissons Ratio (x) = 0.09534 0.41481
# Poissons Ratio (y) = 0.20259 0.81680
# Poissons Ratio (z) = 0.28553 0.26459
#
# Static dielectric constant tensor:
#      x y z
#    x 2.961660 0.000000 0.000000 
#    y 0.000000 2.925710 0.000000 
#    z 0.000000 0.000000 3.653660 
# 
# 
# High freq. dielectric constant tensor:
#      x y z
#    x 1.630130 0.000000 0.000000 
#    y 0.000000 1.643420 0.000000 
#    z 0.000000 0.000000 1.696250 
# 
# From -- ./inp_files/3598.got.cif
#   From: 2010.03.12/outbox.cif.g09.slc.cpg/sg47_2_cif.got.tgz:3598.got - 2010.04.14 03:12:58.
