data_PCOD8194785
_publ_section_title
;
Structure prediction by ZEFSAII (Michael W. Deem and Ramdas Pophale) SiO2 
 PCOD8194785
Probable space group: P M M M
;
_chemical_formula_sum "Si O2"
_cell_formula_units_Z 40
_cell_length_a 16.774224
_cell_length_b 8.068224
_cell_length_c 19.535703
_cell_angle_alpha 90.000000
_cell_angle_beta 90.000000
_cell_angle_gamma 90.000000
_cell_volume 2643.926814
_symmetry_space_group_name_H-M "P M M M"
_symmetry_group_IT_number 47
_symmetry_cell_setting 'orthorhombic'
loop_
_space_group_symop_operation_xyz
x,y,z
-x,-y,z
x,-y,-z
-x,y,-z
-x,-y,-z
x,y,-z
-x,y,z
x,-y,z
loop_
_atom_site_type_symbol
_atom_site_label
_atom_site_fract_x
_atom_site_fract_y
_atom_site_fract_z
Si Si1 0.841875 0.686989 0.350450
Si Si2 0.410873 0.500000 0.418818
Si Si3 0.905635 0.688898 0.073829
Si Si4 0.308718 0.813953 0.420395
Si Si5 0.000000 0.189842 0.419314
Si Si6 0.091042 0.810302 0.216314
O O1 0.814519 0.500000 0.364924
O O2 0.773264 0.806887 0.378295
O O3 0.854407 0.710176 0.269225
O O4 0.923136 0.721105 0.389859
O O5 0.500000 0.500000 0.387890
O O6 0.414569 0.500000 0.500000
O O7 0.368112 0.669744 0.393548
O O8 0.878789 0.500000 0.083325
O O9 0.873412 0.790244 0.139356
O O10 0.000000 0.704419 0.071795
O O11 0.872547 0.756018 0.000000
O O12 0.288847 0.784374 0.500000
O O13 0.345042 0.000000 0.409573
O O14 0.000000 0.207476 0.500000
O O15 0.000000 0.000000 0.395084
O O16 0.000000 0.742859 0.219654
O O17 0.093598 0.000000 0.238217
#
# Coordination Sequence:
#
# PCOD8194785 Si02
#       6
#     8   4   8   8   4   8
#     4  12  22  32  46  62  85 118 154 191 229 268
#     4   9  18  34  54  75  95 113 140 178 221 275
#     4   8  14  25  40  56  75 100 134 179 226 267
#     4  10  20  34  51  70  93 119 147 184 228 272
#     4  11  23  35  45  59  80 111 152 194 233 269
#     4  10  19  29  41  57  80 109 146 190 229 264
#
# _framework density 15.129011
#
# number of rings (size 3 to 8) (size 9 to 14) (size 15 to 20)
#    0.000    2.000    2.000    3.900    0.000    4.800 
#    0.000    4.000    0.000    0.000    0.000    0.000 
#    0.000    0.000    0.000    0.000    0.000    2.000 
#
# Total GULP energy -495818.860804 kJ/mol
# GULP energy per Si atom -12395.471520 kJ/mol
# Density = 1.509458 g / cm^3
# Si number density = 15.129011 Si / 1000 Ang^3
#
#
#
# Elastic Constant Matrix: (Units=GPa)
#
#
# Indices 1 2 3 4 5 6 
#
# 1 65.7864 27.4773 21.2560 0.0000 0.0000 0.0000
# 2 27.4773 86.7818 25.9757 0.0000 0.0000 0.0000
# 3 21.2560 25.9757 80.6572 0.0000 0.0000 0.0000
# 4 0.0000 0.0000 0.0000 21.0522 0.0000 0.0000
# 5 0.0000 0.0000 0.0000 0.0000 -1.7851 0.0000
# 6 0.0000 0.0000 0.0000 0.0000 0.0000 16.5410
#
#
#
# Elastic Compliance Matrix: (Units=1/GPa)
#
#
# Indices 1 2 3 4 5 6 
#
# 1 0.018263 -0.004805 -0.003265 0.000000 0.000000 0.000000
# 2 -0.004805 0.014017 -0.003248 0.000000 0.000000 0.000000
# 3 -0.003265 -0.003248 0.014305 0.000000 0.000000 0.000000
# 4 0.000000 0.000000 0.000000 0.047501 0.000000 0.000000
# 5 0.000000 0.000000 0.000000 0.000000 -0.560207 0.000000
# 6 0.000000 0.000000 0.000000 0.000000 0.000000 0.060456
#
#
# Mechanical properties :
#
#
# Convention : Reuss Voigt Hill
#
# Bulk Modulus (GPa) = 41.75784 42.51595 42.13689
# Shear Modulus (GPa) = -13.33166 17.72938 2.19886
#
# Velocity S-wave (km/s) = -2.97172 3.42699 1.20688
# Velocity P-wave (km/s) = 3.98576 6.61984 5.46391
#
# Compressibility (1/GPa) = 0.02394760
#
# Stress axis : x y z
#
# Youngs Moduli (GPa) = 54.75631 71.34352 69.90737
#
# Poissons Ratio (x) = 0.34281 0.22828
# Poissons Ratio (y) = 0.26311 0.22704
# Poissons Ratio (z) = 0.17880 0.23171
#
# Static dielectric constant tensor:
#      x y z
#    x 1.186490 0.000000 0.000000 
#    y 0.000000 3.057650 0.000000 
#    z 0.000000 0.000000 -16.272540 
# 
# 
# High freq. dielectric constant tensor:
#      x y z
#    x 1.516420 0.000000 0.000000 
#    y 0.000000 1.595400 0.000000 
#    z 0.000000 0.000000 1.573590 
# 
# From -- ./inp_files/30715.got.cif
#   From: 2010.03.12/outbox.cif.g09.slc.cpg/sg47_16_cif.got.tgz:30715.got - 2010.04.14 03:12:58.
