data_PCOD8194824
_publ_section_title
;
Structure prediction by ZEFSAII (Michael W. Deem and Ramdas Pophale) SiO2 
 PCOD8194824
Probable space group: P M M M
;
_chemical_formula_sum "Si O2"
_cell_formula_units_Z 52
_cell_length_a 26.135840
_cell_length_b 9.060404
_cell_length_c 13.566158
_cell_angle_alpha 90.000000
_cell_angle_beta 90.000000
_cell_angle_gamma 90.000000
_cell_volume 3212.483434
_symmetry_space_group_name_H-M "P M M M"
_symmetry_group_IT_number 47
_symmetry_cell_setting 'orthorhombic'
loop_
_space_group_symop_operation_xyz
x,y,z
-x,-y,z
x,-y,-z
-x,y,-z
-x,-y,-z
x,y,-z
-x,y,z
x,-y,z
loop_
_atom_site_type_symbol
_atom_site_label
_atom_site_fract_x
_atom_site_fract_y
_atom_site_fract_z
Si Si1 0.500000 0.674220 0.111495
Si Si2 0.748845 0.325285 0.292583
Si Si3 0.844455 0.830015 0.383653
Si Si4 0.056246 0.665476 0.383026
Si Si5 0.703662 0.170800 0.888056
Si Si6 0.656016 0.830000 0.389189
Si Si7 0.595377 0.168805 0.798983
O O1 0.500000 0.500000 0.110067
O O2 0.549874 0.726328 0.169137
O O3 0.500000 0.737592 0.000000
O O4 0.748802 0.500000 0.294053
O O5 0.803271 0.267672 0.327645
O O6 0.738966 0.269677 0.181675
O O7 0.705354 0.268096 0.366724
O O8 0.838199 0.804813 0.500000
O O9 0.900236 0.777588 0.345560
O O10 0.837241 0.000000 0.355020
O O11 0.055641 0.665190 0.500000
O O12 0.068283 0.500000 0.344768
O O13 0.000000 0.716313 0.344358
O O14 0.644024 0.202013 0.867715
O O15 0.715796 0.000000 0.866443
O O16 0.716126 0.214295 0.000000
O O17 0.636823 0.798072 0.500000
O O18 0.609761 0.794019 0.314536
O O19 0.673010 0.000000 0.375295
O O20 0.577361 0.000000 0.810073
#
# Coordination Sequence:
#
# PCOD8194824 Si02
#       7
#     4   8   8   8   8   8   8
#     4  11  23  35  48  69  96 122 147 181 226 271
#     4  11  21  30  44  68  96 123 152 187 227 274
#     4  10  19  29  42  61  88 123 161 198 230 263
#     4   8  14  25  40  58  83 116 152 190 233 278
#     4   9  18  34  54  72  91 117 149 185 226 272
#     4   9  18  34  53  70  91 120 154 190 225 265
#     4   9  18  33  53  74  92 115 149 184 220 265
#
# _framework density 16.186852999999999
#
# number of rings (size 3 to 8) (size 9 to 14) (size 15 to 20)
#    0.000    2.538    0.000    4.385    0.000    7.385 
#    0.000    1.923    0.000    2.308    0.000    0.000 
#    0.000    0.615    0.000    6.462    0.000    3.077 
#
# Total GULP energy -644750.711213 kJ/mol
# GULP energy per Si atom -12399.052139 kJ/mol
# Density = 1.615001 g / cm^3
# Si number density = 16.186853 Si / 1000 Ang^3
#
#
#
# Elastic Constant Matrix: (Units=GPa)
#
#
# Indices 1 2 3 4 5 6 
#
# 1 108.3578 61.1851 48.4734 0.0000 0.0000 0.0000
# 2 61.1851 99.3701 46.5383 0.0000 0.0000 0.0000
# 3 48.4734 46.5383 97.5918 0.0000 0.0000 0.0000
# 4 0.0000 0.0000 0.0000 18.6045 0.0000 0.0000
# 5 0.0000 0.0000 0.0000 0.0000 16.0539 0.0000
# 6 0.0000 0.0000 0.0000 0.0000 0.0000 28.7032
#
#
#
# Elastic Compliance Matrix: (Units=1/GPa)
#
#
# Indices 1 2 3 4 5 6 
#
# 1 0.015267 -0.007531 -0.003992 0.000000 0.000000 0.000000
# 2 -0.007531 0.016672 -0.004210 0.000000 0.000000 0.000000
# 3 -0.003992 -0.004210 0.014237 0.000000 0.000000 0.000000
# 4 0.000000 0.000000 0.000000 0.053751 0.000000 0.000000
# 5 0.000000 0.000000 0.000000 0.000000 0.062290 0.000000
# 6 0.000000 0.000000 0.000000 0.000000 0.000000 0.034839
#
#
# Mechanical properties :
#
#
# Convention : Reuss Voigt Hill
#
# Bulk Modulus (GPa) = 67.97630 68.63484 68.30557
# Shear Modulus (GPa) = 21.42029 22.61384 22.01707
#
# Velocity S-wave (km/s) = 3.64169 3.74177 3.69207
# Velocity P-wave (km/s) = 7.73100 7.82058 7.77592
#
# Compressibility (1/GPa) = 0.01471101
#
# Stress axis : x y z
#
# Youngs Moduli (GPa) = 65.50244 59.98148 70.23973
#
# Poissons Ratio (x) = 0.45170 0.28038
# Poissons Ratio (y) = 0.49328 0.29570
# Poissons Ratio (z) = 0.26147 0.25251
#
# Static dielectric constant tensor:
#      x y z
#    x 3.091280 0.000000 0.000000 
#    y 0.000000 3.064270 0.000000 
#    z 0.000000 0.000000 3.062210 
# 
# 
# High freq. dielectric constant tensor:
#      x y z
#    x 1.615520 0.000000 0.000000 
#    y 0.000000 1.624430 0.000000 
#    z 0.000000 0.000000 1.598740 
# 
# From -- ./inp_files/25462.got.cif
#   From: 2010.03.12/outbox.cif.g09.slc.cpg/sg47_13_cif.got.tgz:25462.got - 2010.04.14 03:12:58.
