data_PCOD8194161
_publ_section_title
;
Structure prediction by ZEFSAII (Michael W. Deem and Ramdas Pophale) SiO2 
 PCOD8194161
Probable space group: P M M M
;
_chemical_formula_sum "Si O2"
_cell_formula_units_Z 52
_cell_length_a 9.022614
_cell_length_b 22.171911
_cell_length_c 14.717770
_cell_angle_alpha 90.000000
_cell_angle_beta 90.000000
_cell_angle_gamma 90.000000
_cell_volume 2944.269204
_symmetry_space_group_name_H-M "P M M M"
_symmetry_group_IT_number 47
_symmetry_cell_setting 'orthorhombic'
loop_
_space_group_symop_operation_xyz
x,y,z
-x,-y,z
x,-y,-z
-x,y,-z
-x,-y,-z
x,y,-z
-x,y,z
x,-y,z
loop_
_atom_site_type_symbol
_atom_site_label
_atom_site_fract_x
_atom_site_fract_y
_atom_site_fract_z
Si Si1 0.324421 0.433530 0.000000
Si Si2 0.324385 0.643944 0.168063
Si Si3 0.175070 0.568874 0.680353
Si Si4 0.676002 0.000000 0.897050
Si Si5 0.323976 0.886968 0.220487
Si Si6 0.324166 0.774609 0.897332
Si Si7 0.174196 0.930501 0.397199
Si Si8 0.336231 0.570806 0.500000
O O1 0.268753 0.397995 0.086938
O O2 0.252900 0.500000 0.000000
O O3 0.500000 0.437368 0.000000
O O4 0.500000 0.639808 0.184338
O O5 0.237264 0.618917 0.253008
O O6 0.272758 0.711688 0.146347
O O7 0.224835 0.500000 0.705174
O O8 0.242409 0.591063 0.586072
O O9 0.000000 0.572568 0.675142
O O10 0.732897 0.941907 0.842045
O O11 0.500000 0.000000 0.902710
O O12 0.740876 0.000000 0.000000
O O13 0.500000 0.887560 0.230574
O O14 0.266427 0.827054 0.169400
O O15 0.256906 0.890076 0.321962
O O16 0.500000 0.776672 0.904256
O O17 0.259709 0.782060 0.000000
O O18 0.218971 0.910180 0.500000
O O19 0.000000 0.922511 0.383589
O O20 0.220764 0.000000 0.383082
O O21 0.356226 0.500000 0.500000
O O22 0.500000 0.601162 0.500000
#
# Coordination Sequence:
#
# PCOD8194161 Si02
#       8
#     4   8   8   4   8   8   8   4
#     4   9  16  26  45  73  99 124 164 217 258 289
#     4  10  18  31  51  73  99 133 175 215 251 296
#     4  10  20  33  50  75 106 135 162 202 259 312
#     4   9  16  26  42  71 106 134 161 199 246 293
#     4  10  18  29  50  78 104 131 167 209 251 295
#     4   9  17  31  51  75 102 135 172 210 252 300
#     4   9  18  33  52  73 100 134 167 204 256 311
#     4   9  17  31  53  79 103 129 165 206 249 304
#
# _framework density 17.661428000000001
#
# number of rings (size 3 to 8) (size 9 to 14) (size 15 to 20)
#    0.000    2.538    1.538    2.077    0.000    4.615 
#    0.000    1.923    1.692    4.615    0.000    0.000 
#    0.000    0.000    0.000    0.000    0.000    0.000 
#
# Total GULP energy -644600.857985 kJ/mol
# GULP energy per Si atom -12396.170346 kJ/mol
# Density = 1.762123 g / cm^3
# Si number density = 17.661428 Si / 1000 Ang^3
#
#
#
# Elastic Constant Matrix: (Units=GPa)
#
#
# Indices 1 2 3 4 5 6 
#
# 1 39.9556 30.7350 43.2663 0.0000 0.0000 0.0000
# 2 30.7350 137.4952 84.3266 0.0000 0.0000 0.0000
# 3 43.2663 84.3266 174.2841 0.0000 0.0000 0.0000
# 4 0.0000 0.0000 0.0000 54.5464 0.0000 0.0000
# 5 0.0000 0.0000 0.0000 0.0000 37.5892 0.0000
# 6 0.0000 0.0000 0.0000 0.0000 0.0000 15.3084
#
#
#
# Elastic Compliance Matrix: (Units=1/GPa)
#
#
# Indices 1 2 3 4 5 6 
#
# 1 0.035434 -0.003592 -0.007059 0.000000 0.000000 0.000000
# 2 -0.003592 0.010706 -0.004288 0.000000 0.000000 0.000000
# 3 -0.007059 -0.004288 0.009565 0.000000 0.000000 0.000000
# 4 0.000000 0.000000 0.000000 0.018333 0.000000 0.000000
# 5 0.000000 0.000000 0.000000 0.000000 0.026603 0.000000
# 6 0.000000 0.000000 0.000000 0.000000 0.000000 0.065324
#
#
# Mechanical properties :
#
#
# Convention : Reuss Voigt Hill
#
# Bulk Modulus (GPa) = 38.71828 74.26564 56.49196
# Shear Modulus (GPa) = 24.45561 34.38260 29.41911
#
# Velocity S-wave (km/s) = 3.72518 4.41700 4.08576
# Velocity P-wave (km/s) = 6.36182 8.25555 7.36976
#
# Compressibility (1/GPa) = 0.02582760
#
# Stress axis : x y z
#
# Youngs Moduli (GPa) = 28.22127 93.40622 104.54725
#
# Poissons Ratio (x) = 0.33547 0.73798
# Poissons Ratio (y) = 0.10136 0.44834
# Poissons Ratio (z) = 0.19921 0.40056
#
# Static dielectric constant tensor:
#      x y z
#    x 2.915520 0.000000 0.000000 
#    y 0.000000 3.316580 0.000000 
#    z 0.000000 0.000000 3.343810 
# 
# 
# High freq. dielectric constant tensor:
#      x y z
#    x 1.648190 0.000000 0.000000 
#    y 0.000000 1.668400 0.000000 
#    z 0.000000 0.000000 1.696900 
# 
# From -- ./inp_files/21523.got.cif
#   From: 2010.03.12/outbox.cif.g09.slc.cpg/sg47_11_cif.got.tgz:21523.got - 2010.04.14 03:12:58.
