data_PCOD8194246
_publ_section_title
;
Structure prediction by ZEFSAII (Michael W. Deem and Ramdas Pophale) SiO2 
 PCOD8194246
Probable space group: P M M M
;
_chemical_formula_sum "Si O2"
_cell_formula_units_Z 64
_cell_length_a 9.032717
_cell_length_b 20.052754
_cell_length_c 20.058782
_cell_angle_alpha 90.000000
_cell_angle_beta 90.000000
_cell_angle_gamma 90.000000
_cell_volume 3633.264273
_symmetry_space_group_name_H-M "P M M M"
_symmetry_group_IT_number 47
_symmetry_cell_setting 'orthorhombic'
loop_
_space_group_symop_operation_xyz
x,y,z
-x,-y,z
x,-y,-z
-x,y,-z
-x,-y,-z
x,y,-z
-x,y,z
x,-y,z
loop_
_atom_site_type_symbol
_atom_site_label
_atom_site_fract_x
_atom_site_fract_y
_atom_site_fract_z
Si Si1 0.171230 0.657602 0.686654
Si Si2 0.668904 0.895508 0.926653
Si Si3 0.330151 0.252557 0.108544
Si Si4 0.828068 0.785079 0.759906
Si Si5 0.326957 0.424816 0.576748
Si Si6 0.170811 0.381220 0.925910
Si Si7 0.330620 0.425013 0.201230
Si Si8 0.826172 0.071601 0.206469
O O1 0.193795 0.738320 0.694336
O O2 0.246398 0.631578 0.619522
O O3 0.237662 0.622396 0.751256
O O4 0.000000 0.639055 0.682686
O O5 0.500000 0.914622 0.910124
O O6 0.687890 0.816211 0.930116
O O7 0.768590 0.926289 0.869147
O O8 0.713676 0.923370 0.000000
O O9 0.500000 0.276622 0.109735
O O10 0.274555 0.246619 0.184080
O O11 0.230186 0.305923 0.070771
O O12 0.777496 0.863181 0.749810
O O13 0.000000 0.782742 0.782401
O O14 0.291046 0.409704 0.500000
O O15 0.500000 0.419240 0.591288
O O16 0.273473 0.500000 0.595057
O O17 0.265201 0.423592 0.873264
O O18 0.000000 0.381475 0.903573
O O19 0.188133 0.412491 0.000000
O O20 0.500000 0.400486 0.199906
O O21 0.320556 0.500000 0.228981
O O22 0.000000 0.071691 0.200998
O O23 0.773249 0.000000 0.238185
#
# Coordination Sequence:
#
# PCOD8194246 Si02
#       8
#     8   8   8   8   8   8   8   8
#     4  11  21  33  54  81 108 136 168 209 252 296
#     4   9  18  30  43  62  88 117 151 194 247 307
#     4  10  18  30  49  69  89 117 156 201 249 304
#     4   9  18  32  49  71  99 127 160 203 251 297
#     4   9  19  36  56  79 111 149 182 209 240 285
#     4  11  23  36  50  68  91 120 156 205 265 319
#     4  11  24  39  54  72  95 126 166 210 253 302
#     4   9  18  32  48  65  89 123 161 201 246 300
#
# _framework density 17.615013000000001
#
# number of rings (size 3 to 8) (size 9 to 14) (size 15 to 20)
#    0.000    2.125    1.250    2.625    0.000    6.500 
#    0.000    3.125    0.000    0.000    0.000    0.000 
#    0.000    0.500    0.000    6.250    0.000    1.000 
#
# Total GULP energy -793131.037441 kJ/mol
# GULP energy per Si atom -12392.672460 kJ/mol
# Density = 1.757492 g / cm^3
# Si number density = 17.615013 Si / 1000 Ang^3
#
#
#
# Elastic Constant Matrix: (Units=GPa)
#
#
# Indices 1 2 3 4 5 6 
#
# 1 50.1650 27.1416 35.6477 0.0000 0.0000 0.0000
# 2 27.1416 112.8597 48.9759 0.0000 0.0000 0.0000
# 3 35.6477 48.9759 76.0150 0.0000 0.0000 0.0000
# 4 0.0000 0.0000 0.0000 8.7847 0.0000 0.0000
# 5 0.0000 0.0000 0.0000 0.0000 26.2756 0.0000
# 6 0.0000 0.0000 0.0000 0.0000 0.0000 16.0215
#
#
#
# Elastic Compliance Matrix: (Units=1/GPa)
#
#
# Indices 1 2 3 4 5 6 
#
# 1 0.030090 -0.001545 -0.013116 0.000000 0.000000 0.000000
# 2 -0.001545 0.012379 -0.007251 0.000000 0.000000 0.000000
# 3 -0.013116 -0.007251 0.023978 0.000000 0.000000 0.000000
# 4 0.000000 0.000000 0.000000 0.113834 0.000000 0.000000
# 5 0.000000 0.000000 0.000000 0.000000 0.038058 0.000000
# 6 0.000000 0.000000 0.000000 0.000000 0.000000 0.062416
#
#
# Mechanical properties :
#
#
# Convention : Reuss Voigt Hill
#
# Bulk Modulus (GPa) = 44.20165 51.39666 47.79916
# Shear Modulus (GPa) = 15.05484 18.70134 16.87809
#
# Velocity S-wave (km/s) = 2.92663 3.26186 3.09878
# Velocity P-wave (km/s) = 6.04714 6.58995 6.32437
#
# Compressibility (1/GPa) = 0.02262359
#
# Stress axis : x y z
#
# Youngs Moduli (GPa) = 33.23356 80.78396 41.70533
#
# Poissons Ratio (x) = 0.12479 0.54699
# Poissons Ratio (y) = 0.05134 0.30241
# Poissons Ratio (z) = 0.43588 0.58577
#
# Static dielectric constant tensor:
#      x y z
#    x 3.319170 0.000000 0.000000 
#    y 0.000000 3.749430 0.000000 
#    z 0.000000 0.000000 2.962460 
# 
# 
# High freq. dielectric constant tensor:
#      x y z
#    x 1.686710 0.000000 0.000000 
#    y 0.000000 1.687550 0.000000 
#    z 0.000000 0.000000 1.636970 
# 
# From -- ./inp_files/30161.got.cif
#   From: 2010.03.12/outbox.cif.g09.slc.cpg/sg47_16_cif.got.tgz:30161.got - 2010.04.14 03:12:58.
