data_PCOD8194364
_publ_section_title
;
Structure prediction by ZEFSAII (Michael W. Deem and Ramdas Pophale) SiO2 
 PCOD8194364
Probable space group: P M M M
;
_chemical_formula_sum "Si O2"
_cell_formula_units_Z 56
_cell_length_a 8.786118
_cell_length_b 19.868640
_cell_length_c 15.407543
_cell_angle_alpha 90.000000
_cell_angle_beta 90.000000
_cell_angle_gamma 90.000000
_cell_volume 2689.667287
_symmetry_space_group_name_H-M "P M M M"
_symmetry_group_IT_number 47
_symmetry_cell_setting 'orthorhombic'
loop_
_space_group_symop_operation_xyz
x,y,z
-x,-y,z
x,-y,-z
-x,y,-z
-x,-y,-z
x,y,-z
-x,y,z
x,-y,z
loop_
_atom_site_type_symbol
_atom_site_label
_atom_site_fract_x
_atom_site_fract_y
_atom_site_fract_z
Si Si1 0.179275 0.794141 0.655829
Si Si2 0.176660 0.927324 0.159326
Si Si3 0.177321 0.422412 0.745909
Si Si4 0.674170 0.337304 0.596967
Si Si5 0.321665 0.926796 0.653425
Si Si6 0.322869 0.201993 0.155351
Si Si7 0.674923 0.347969 0.902577
O O1 0.230384 0.731431 0.598262
O O2 0.233573 0.864006 0.609410
O O3 0.253945 0.785655 0.749874
O O4 0.000000 0.794443 0.665425
O O5 0.273234 0.928945 0.246821
O O6 0.241477 0.862371 0.107518
O O7 0.000000 0.915840 0.181255
O O8 0.198212 0.000000 0.110795
O O9 0.223249 0.500000 0.753165
O O10 0.266127 0.391466 0.665104
O O11 0.218338 0.387175 0.836326
O O12 0.000000 0.412111 0.728564
O O13 0.689244 0.367799 0.500000
O O14 0.500000 0.320573 0.620184
O O15 0.500000 0.912946 0.645955
O O16 0.281534 0.000000 0.610807
O O17 0.500000 0.186182 0.163620
O O18 0.291495 0.268253 0.099136
O O19 0.500000 0.361787 0.876834
O O20 0.709387 0.373637 0.000000
#
# Coordination Sequence:
#
# PCOD8194364 Si02
#       7
#     8   8   8   8   8   8   8
#     4  11  20  31  53  82 116 155 196 246 303 358
#     4   9  16  25  40  67 104 145 192 245 300 356
#     4  11  25  44  67  96 128 160 194 238 295 357
#     4  11  24  42  65  92 122 159 203 247 293 351
#     4   9  16  26  43  70 106 149 198 248 297 351
#     4  10  18  30  52  79 111 151 198 249 298 352
#     4  10  22  40  63  91 123 162 206 250 297 352
#
# _framework density 20.820418
#
# number of rings (size 3 to 8) (size 9 to 14) (size 15 to 20)
#    0.000    1.857    1.429    5.143    0.000    5.429 
#    0.000    2.857    0.000    0.857    0.000    6.000 
#    0.000    0.000    0.000    0.000    0.000    0.000 
#
# Total GULP energy -694082.367556 kJ/mol
# GULP energy per Si atom -12394.327992 kJ/mol
# Density = 2.077303 g / cm^3
# Si number density = 20.820418 Si / 1000 Ang^3
#
#
#
# Elastic Constant Matrix: (Units=GPa)
#
#
# Indices 1 2 3 4 5 6 
#
# 1 66.9702 52.2277 21.3179 0.0000 0.0000 0.0000
# 2 52.2277 137.6643 35.6360 0.0000 0.0000 0.0000
# 3 21.3179 35.6360 72.7823 0.0000 0.0000 0.0000
# 4 0.0000 0.0000 0.0000 4.8785 0.0000 0.0000
# 5 0.0000 0.0000 0.0000 0.0000 5.7979 0.0000
# 6 0.0000 0.0000 0.0000 0.0000 0.0000 38.8020
#
#
#
# Elastic Compliance Matrix: (Units=1/GPa)
#
#
# Indices 1 2 3 4 5 6 
#
# 1 0.021645 -0.007524 -0.002656 0.000000 0.000000 0.000000
# 2 -0.007524 0.010934 -0.003150 0.000000 0.000000 0.000000
# 3 -0.002656 -0.003150 0.016060 0.000000 0.000000 0.000000
# 4 0.000000 0.000000 0.000000 0.204979 0.000000 0.000000
# 5 0.000000 0.000000 0.000000 0.000000 0.172476 0.000000
# 6 0.000000 0.000000 0.000000 0.000000 0.000000 0.025772
#
#
# Mechanical properties :
#
#
# Convention : Reuss Voigt Hill
#
# Bulk Modulus (GPa) = 45.49734 55.08668 50.29201
# Shear Modulus (GPa) = 10.29119 21.11137 15.70128
#
# Velocity S-wave (km/s) = 2.22566 3.18775 2.74912
# Velocity P-wave (km/s) = 5.33896 6.32965 5.85529
#
# Compressibility (1/GPa) = 0.02197930
#
# Stress axis : x y z
#
# Youngs Moduli (GPa) = 46.19907 91.45751 62.26790
#
# Poissons Ratio (x) = 0.68817 0.16537
# Poissons Ratio (y) = 0.34762 0.19612
# Poissons Ratio (z) = 0.12269 0.28806
#
# Static dielectric constant tensor:
#      x y z
#    x 3.815790 0.000000 0.000000 
#    y 0.000000 4.458000 0.000000 
#    z 0.000000 0.000000 3.360370 
# 
# 
# High freq. dielectric constant tensor:
#      x y z
#    x 1.824220 0.000000 0.000000 
#    y 0.000000 1.831530 0.000000 
#    z 0.000000 0.000000 1.775970 
# 
# From -- ./inp_files/26943.got.cif
#   From: 2010.03.12/outbox.cif.g09.slc.cpg/sg47_14_cif.got.tgz:26943.got - 2010.04.14 03:12:58.
