data_PCOD8194070
_publ_section_title
;
Structure prediction by ZEFSAII (Michael W. Deem and Ramdas Pophale) SiO2 
 PCOD8194070
Probable space group: P M M M
;
_chemical_formula_sum "Si O2"
_cell_formula_units_Z 52
_cell_length_a 15.229859
_cell_length_b 23.833492
_cell_length_c 7.875018
_cell_angle_alpha 90.000000
_cell_angle_beta 90.000000
_cell_angle_gamma 90.000000
_cell_volume 2858.479724
_symmetry_space_group_name_H-M "P M M M"
_symmetry_group_IT_number 47
_symmetry_cell_setting 'orthorhombic'
loop_
_space_group_symop_operation_xyz
x,y,z
-x,-y,z
x,-y,-z
-x,y,-z
-x,-y,-z
x,y,-z
-x,y,z
x,-y,z
loop_
_atom_site_type_symbol
_atom_site_label
_atom_site_fract_x
_atom_site_fract_y
_atom_site_fract_z
Si Si1 0.000000 0.066571 0.189512
Si Si2 0.100906 0.566455 0.000000
Si Si3 0.500000 0.063420 0.297883
Si Si4 0.662480 0.135431 0.298597
Si Si5 0.402262 0.628863 0.307150
Si Si6 0.401889 0.749383 0.805789
Si Si7 0.770052 0.566226 0.302067
Si Si8 0.816792 0.062033 0.695307
O O1 0.913430 0.088479 0.284047
O O2 0.000000 0.000000 0.195772
O O3 0.000000 0.090238 0.000000
O O4 0.152243 0.586176 0.172703
O O5 0.096387 0.500000 0.000000
O O6 0.000000 0.590294 0.000000
O O7 0.500000 0.060815 0.500000
O O8 0.583395 0.097418 0.228654
O O9 0.500000 0.000000 0.224438
O O10 0.660961 0.138474 0.500000
O O11 0.661956 0.198677 0.229815
O O12 0.749200 0.105815 0.222970
O O13 0.411710 0.610274 0.500000
O O14 0.500000 0.619527 0.220364
O O15 0.374857 0.694330 0.298799
O O16 0.321941 0.592407 0.231514
O O17 0.500000 0.768719 0.753603
O O18 0.396470 0.731309 0.000000
O O19 0.790407 0.584211 0.500000
O O20 0.758943 0.500000 0.291538
O O21 0.792883 0.055042 0.500000
O O22 0.809753 0.000000 0.781833
#
# Coordination Sequence:
#
# PCOD8194070 Si02
#       8
#     4   4   4   8   8   8   8   8
#     4   9  17  29  45  65  89 117 145 179 228 285
#     4   9  18  32  51  77 109 145 182 220 261 310
#     4   9  16  26  43  67  93 121 152 189 232 281
#     4  10  18  29  47  68  91 121 156 195 236 282
#     4   9  18  32  51  74 101 135 173 211 252 301
#     4  10  20  32  46  66  94 128 167 206 239 280
#     4   9  18  32  51  79 112 143 177 218 263 313
#     4   9  17  29  46  69  92 114 146 188 234 284
#
# _framework density 18.191488
#
# number of rings (size 3 to 8) (size 9 to 14) (size 15 to 20)
#    0.000    2.692    0.769    1.154    1.077    4.615 
#    0.000    3.077    0.000    3.231    2.000    0.000 
#    0.000    0.000    0.000    0.000    0.000    0.000 
#
# Total GULP energy -644313.253100 kJ/mol
# GULP energy per Si atom -12390.639483 kJ/mol
# Density = 1.815008 g / cm^3
# Si number density = 18.191488 Si / 1000 Ang^3
#
#
#
# Elastic Constant Matrix: (Units=GPa)
#
#
# Indices 1 2 3 4 5 6 
#
# 1 151.9154 49.9964 33.1691 0.0000 0.0000 0.0000
# 2 49.9964 58.5148 13.9611 0.0000 0.0000 0.0000
# 3 33.1691 13.9611 50.9093 0.0000 0.0000 0.0000
# 4 0.0000 0.0000 0.0000 11.2073 0.0000 0.0000
# 5 0.0000 0.0000 0.0000 0.0000 17.4796 0.0000
# 6 0.0000 0.0000 0.0000 0.0000 0.0000 6.9136
#
#
#
# Elastic Compliance Matrix: (Units=1/GPa)
#
#
# Indices 1 2 3 4 5 6 
#
# 1 0.010029 -0.007500 -0.004477 0.000000 0.000000 0.000000
# 2 -0.007500 0.023896 -0.001666 0.000000 0.000000 0.000000
# 3 -0.004477 -0.001666 0.023017 0.000000 0.000000 0.000000
# 4 0.000000 0.000000 0.000000 0.089227 0.000000 0.000000
# 5 0.000000 0.000000 0.000000 0.000000 0.057210 0.000000
# 6 0.000000 0.000000 0.000000 0.000000 0.000000 0.144643
#
#
# Mechanical properties :
#
#
# Convention : Reuss Voigt Hill
#
# Bulk Modulus (GPa) = 33.72283 50.62142 42.17213
# Shear Modulus (GPa) = 12.98051 18.06762 15.52406
#
# Velocity S-wave (km/s) = 2.67413 3.15491 2.92442
# Velocity P-wave (km/s) = 5.30213 6.41550 5.88520
#
# Compressibility (1/GPa) = 0.02965350
#
# Stress axis : x y z
#
# Youngs Moduli (GPa) = 99.71487 41.84825 43.44678
#
# Poissons Ratio (x) = 0.31388 0.19451
# Poissons Ratio (y) = 0.74791 0.07239
# Poissons Ratio (z) = 0.44643 0.06973
#
# Static dielectric constant tensor:
#      x y z
#    x 3.637690 0.000000 0.000000 
#    y 0.000000 3.156580 0.000000 
#    z 0.000000 0.000000 3.252390 
# 
# 
# High freq. dielectric constant tensor:
#      x y z
#    x 1.698330 0.000000 0.000000 
#    y 0.000000 1.674510 0.000000 
#    z 0.000000 0.000000 1.693750 
# 
# From -- ./inp_files/7154.got.cif
#   From: 2010.03.12/outbox.cif.g09.slc.cpg/sg47_4_cif.got.tgz:7154.got - 2010.04.14 03:12:58.
