data_PCOD8194119
_publ_section_title
;
Structure prediction by ZEFSAII (Michael W. Deem and Ramdas Pophale) SiO2 
 PCOD8194119
Probable space group: P M M M
;
_chemical_formula_sum "Si O2"
_cell_formula_units_Z 64
_cell_length_a 14.140576
_cell_length_b 30.920144
_cell_length_c 9.422811
_cell_angle_alpha 90.000000
_cell_angle_beta 90.000000
_cell_angle_gamma 90.000000
_cell_volume 4119.922897
_symmetry_space_group_name_H-M "P M M M"
_symmetry_group_IT_number 47
_symmetry_cell_setting 'orthorhombic'
loop_
_space_group_symop_operation_xyz
x,y,z
-x,-y,z
x,-y,-z
-x,y,-z
-x,-y,-z
x,y,-z
-x,y,z
x,-y,z
loop_
_atom_site_type_symbol
_atom_site_label
_atom_site_fract_x
_atom_site_fract_y
_atom_site_fract_z
Si Si1 0.891483 0.871984 0.334363
Si Si2 0.394107 0.331854 0.661336
Si Si3 0.107374 0.549627 0.834657
Si Si4 0.772818 0.788457 0.332210
Si Si5 0.887656 0.952544 0.159736
Si Si6 0.391546 0.754009 0.165349
Si Si7 0.209576 0.620982 0.664274
Si Si8 0.894417 0.706949 0.331519
O O1 0.884388 0.880662 0.500000
O O2 0.829849 0.831069 0.288006
O O3 0.848095 0.914453 0.259043
O O4 0.000000 0.863051 0.289173
O O5 0.379325 0.314406 0.500000
O O6 0.500000 0.350181 0.682730
O O7 0.373285 0.292990 0.767958
O O8 0.321107 0.370722 0.690457
O O9 0.129706 0.500000 0.797992
O O10 0.180760 0.578636 0.749315
O O11 0.000000 0.560949 0.789659
O O12 0.121543 0.558495 0.000000
O O13 0.753154 0.786836 0.500000
O O14 0.673911 0.788608 0.247139
O O15 0.833224 0.747428 0.278272
O O16 0.000000 0.952316 0.166096
O O17 0.851237 0.000000 0.210923
O O18 0.852485 0.943860 0.000000
O O19 0.500000 0.768322 0.187661
O O20 0.364915 0.752179 0.000000
O O21 0.186750 0.612765 0.500000
O O22 0.152101 0.662464 0.721972
O O23 0.897852 0.707897 0.500000
O O24 0.000000 0.710462 0.268018
#
# Coordination Sequence:
#
# PCOD8194119 Si02
#       8
#     8   8   8   8   8   8   8   8
#     4   9  17  27  41  63  89 119 154 189 224 262
#     4   9  17  31  50  70  92 117 146 180 221 268
#     4   9  19  35  51  67  91 122 150 179 221 267
#     4  10  18  30  45  62  88 123 155 180 216 267
#     4   8  14  25  40  57  80 114 154 192 229 267
#     4  10  20  32  46  65  88 114 148 191 231 261
#     4  10  18  29  48  73  93 114 148 186 222 259
#     4   9  16  26  41  63  91 119 146 178 213 251
#
# _framework density 15.534271
#
# number of rings (size 3 to 8) (size 9 to 14) (size 15 to 20)
#    0.000    2.750    1.250    1.875    0.000    4.500 
#    0.000    1.875    0.000    1.500    0.000    2.625 
#    0.000    0.500    0.000    5.500    0.000    4.250 
#
# Total GULP energy -793447.397880 kJ/mol
# GULP energy per Si atom -12397.615592 kJ/mol
# Density = 1.549891 g / cm^3
# Si number density = 15.534271 Si / 1000 Ang^3
#
#
#
# Elastic Constant Matrix: (Units=GPa)
#
#
# Indices 1 2 3 4 5 6 
#
# 1 94.2592 56.0518 43.8330 0.0000 0.0000 0.0000
# 2 56.0518 116.6176 52.6484 0.0000 0.0000 0.0000
# 3 43.8330 52.6484 58.8166 0.0000 0.0000 0.0000
# 4 0.0000 0.0000 0.0000 23.5931 0.0000 0.0000
# 5 0.0000 0.0000 0.0000 0.0000 19.8179 0.0000
# 6 0.0000 0.0000 0.0000 0.0000 0.0000 12.2003
#
#
#
# Elastic Compliance Matrix: (Units=1/GPa)
#
#
# Indices 1 2 3 4 5 6 
#
# 1 0.017384 -0.004207 -0.009190 0.000000 0.000000 0.000000
# 2 -0.004207 0.015408 -0.010657 0.000000 0.000000 0.000000
# 3 -0.009190 -0.010657 0.033391 0.000000 0.000000 0.000000
# 4 0.000000 0.000000 0.000000 0.042385 0.000000 0.000000
# 5 0.000000 0.000000 0.000000 0.000000 0.050459 0.000000
# 6 0.000000 0.000000 0.000000 0.000000 0.000000 0.081965
#
#
# Mechanical properties :
#
#
# Convention : Reuss Voigt Hill
#
# Bulk Modulus (GPa) = 55.32535 63.86221 59.59378
# Shear Modulus (GPa) = 16.94190 18.93294 17.93742
#
# Velocity S-wave (km/s) = 3.30603 3.49490 3.40177
# Velocity P-wave (km/s) = 7.08981 7.58192 7.33999
#
# Compressibility (1/GPa) = 0.01807490
#
# Stress axis : x y z
#
# Youngs Moduli (GPa) = 57.52354 64.89957 29.94844
#
# Poissons Ratio (x) = 0.27301 0.27523
# Poissons Ratio (y) = 0.24198 0.31918
# Poissons Ratio (z) = 0.52864 0.69167
#
# Static dielectric constant tensor:
#      x y z
#    x 2.999130 0.000000 0.000000 
#    y 0.000000 2.971180 0.000000 
#    z 0.000000 0.000000 2.871610 
# 
# 
# High freq. dielectric constant tensor:
#      x y z
#    x 1.580410 0.000000 0.000000 
#    y 0.000000 1.582690 0.000000 
#    z 0.000000 0.000000 1.584770 
# 
# From -- ./inp_files/8287.got.cif
#   From: 2010.03.12/outbox.cif.g09.slc.cpg/sg47_5_cif.got.tgz:8287.got - 2010.04.14 03:12:58.
