data_PCOD8194662
_publ_section_title
;
Structure prediction by ZEFSAII (Michael W. Deem and Ramdas Pophale) SiO2 
 PCOD8194662
Probable space group: P M M M
;
_chemical_formula_sum "Si O2"
_cell_formula_units_Z 64
_cell_length_a 23.461610
_cell_length_b 9.367422
_cell_length_c 19.202214
_cell_angle_alpha 90.000000
_cell_angle_beta 90.000000
_cell_angle_gamma 90.000000
_cell_volume 4220.162773
_symmetry_space_group_name_H-M "P M M M"
_symmetry_group_IT_number 47
_symmetry_cell_setting 'orthorhombic'
loop_
_space_group_symop_operation_xyz
x,y,z
-x,-y,z
x,-y,-z
-x,y,-z
-x,-y,-z
x,y,-z
-x,y,z
x,-y,z
loop_
_atom_site_type_symbol
_atom_site_label
_atom_site_fract_x
_atom_site_fract_y
_atom_site_fract_z
Si Si1 0.747493 0.331325 0.574402
Si Si2 0.164406 0.667917 0.144428
Si Si3 0.065579 0.164162 0.919612
Si Si4 0.381639 0.665184 0.420912
Si Si5 0.563877 0.166070 0.298696
Si Si6 0.266071 0.835627 0.078198
Si Si7 0.229429 0.333589 0.721667
Si Si8 0.330016 0.835132 0.212210
O O1 0.771125 0.268998 0.500000
O O2 0.745666 0.500000 0.567289
O O3 0.683036 0.277450 0.586505
O O4 0.785993 0.287597 0.641691
O O5 0.163191 0.500000 0.129458
O O6 0.102957 0.733898 0.128875
O O7 0.211895 0.737849 0.095253
O O8 0.178078 0.702815 0.225582
O O9 0.000000 0.197565 0.902836
O O10 0.079830 0.000000 0.902847
O O11 0.079091 0.197257 0.000000
O O12 0.403093 0.688518 0.500000
O O13 0.385387 0.500000 0.399886
O O14 0.421930 0.751937 0.369421
O O15 0.500000 0.205926 0.274555
O O16 0.605990 0.208205 0.234711
O O17 0.569424 0.000000 0.316101
O O18 0.318781 0.802272 0.130261
O O19 0.246287 0.000000 0.085343
O O20 0.287034 0.801866 0.000000
O O21 0.244109 0.500000 0.725367
O O22 0.286720 0.253939 0.741749
O O23 0.318030 0.000000 0.228159
#
# Coordination Sequence:
#
# PCOD8194662 Si02
#       8
#     8   8   8   8   8   8   8   8
#     4   8  13  23  41  61  80 105 135 165 198 238
#     4  10  19  27  40  66  94 115 136 168 209 247
#     4   9  18  32  47  61  82 118 158 184 200 227
#     4   9  17  29  45  62  78 101 136 172 200 234
#     4  10  20  31  42  57  79 106 133 165 208 255
#     4   9  17  29  45  62  80 105 136 170 206 245
#     4   9  16  27  43  62  85 109 134 167 206 246
#     4   9  17  29  43  58  77 102 133 166 203 249
#
# _framework density 15.165291
#
# number of rings (size 3 to 8) (size 9 to 14) (size 15 to 20)
#    0.000    2.875    1.250    1.875    0.000    3.500 
#    0.000    1.875    0.000    0.750    0.000    2.625 
#    0.000    0.500    0.000   13.625    0.000    8.750 
#
# Total GULP energy -793106.958383 kJ/mol
# GULP energy per Si atom -12392.296225 kJ/mol
# Density = 1.513077 g / cm^3
# Si number density = 15.165291 Si / 1000 Ang^3
#
#
#
# Elastic Constant Matrix: (Units=GPa)
#
#
# Indices 1 2 3 4 5 6 
#
# 1 83.7167 37.9137 61.2798 0.0000 0.0000 0.0000
# 2 37.9137 45.3248 40.8424 0.0000 0.0000 0.0000
# 3 61.2798 40.8424 134.8465 0.0000 0.0000 0.0000
# 4 0.0000 0.0000 0.0000 19.1603 0.0000 0.0000
# 5 0.0000 0.0000 0.0000 0.0000 22.4689 0.0000
# 6 0.0000 0.0000 0.0000 0.0000 0.0000 16.4397
#
#
#
# Elastic Compliance Matrix: (Units=1/GPa)
#
#
# Indices 1 2 3 4 5 6 
#
# 1 0.022470 -0.013196 -0.006215 0.000000 0.000000 0.000000
# 2 -0.013196 0.038095 -0.005541 0.000000 0.000000 0.000000
# 3 -0.006215 -0.005541 0.011918 0.000000 0.000000 0.000000
# 4 0.000000 0.000000 0.000000 0.052191 0.000000 0.000000
# 5 0.000000 0.000000 0.000000 0.000000 0.044506 0.000000
# 6 0.000000 0.000000 0.000000 0.000000 0.000000 0.060828
#
#
# Mechanical properties :
#
#
# Convention : Reuss Voigt Hill
#
# Bulk Modulus (GPa) = 44.28835 60.44000 52.36418
# Shear Modulus (GPa) = 17.39496 19.87058 18.63277
#
# Velocity S-wave (km/s) = 3.39045 3.62369 3.50901
# Velocity P-wave (km/s) = 6.67788 7.57950 7.14293
#
# Compressibility (1/GPa) = 0.02257930
#
# Stress axis : x y z
#
# Youngs Moduli (GPa) = 44.50300 26.25039 83.90435
#
# Poissons Ratio (x) = 0.34641 0.52143
# Poissons Ratio (y) = 0.58727 0.46493
# Poissons Ratio (z) = 0.27657 0.14546
#
# Static dielectric constant tensor:
#      x y z
#    x 2.742000 0.000000 0.000000 
#    y 0.000000 2.846620 0.000000 
#    z 0.000000 0.000000 3.276920 
# 
# 
# High freq. dielectric constant tensor:
#      x y z
#    x 1.546330 0.000000 0.000000 
#    y 0.000000 1.573940 0.000000 
#    z 0.000000 0.000000 1.585260 
# 
# From -- ./inp_files/12953.got.cif
#   From: 2010.03.12/outbox.cif.g09.slc.cpg/sg47_7_cif.got.tgz:12953.got - 2010.04.14 03:12:58.
