data_PCOD8194742
_publ_section_title
;
Structure prediction by ZEFSAII (Michael W. Deem and Ramdas Pophale) SiO2 
 PCOD8194742
Probable space group: P M M M
;
_chemical_formula_sum "Si O2"
_cell_formula_units_Z 52
_cell_length_a 13.689709
_cell_length_b 26.837629
_cell_length_c 8.988957
_cell_angle_alpha 90.000000
_cell_angle_beta 90.000000
_cell_angle_gamma 90.000000
_cell_volume 3302.536791
_symmetry_space_group_name_H-M "P M M M"
_symmetry_group_IT_number 47
_symmetry_cell_setting 'orthorhombic'
loop_
_space_group_symop_operation_xyz
x,y,z
-x,-y,z
x,-y,-z
-x,y,-z
-x,-y,-z
x,y,-z
-x,y,z
x,-y,z
loop_
_atom_site_type_symbol
_atom_site_label
_atom_site_fract_x
_atom_site_fract_y
_atom_site_fract_z
Si Si1 0.106989 0.253616 0.675156
Si Si2 0.384114 0.892128 0.171974
Si Si3 0.109323 0.555120 0.323352
Si Si4 0.393574 0.000000 0.175499
Si Si5 0.612139 0.706073 0.828526
Si Si6 0.223317 0.350162 0.324006
Si Si7 0.701884 0.201226 0.675970
O O1 0.095984 0.251048 0.500000
O O2 0.144301 0.308338 0.721246
O O3 0.186464 0.212599 0.727417
O O4 0.000000 0.243695 0.748354
O O5 0.500000 0.888920 0.201341
O O6 0.326103 0.853895 0.274170
O O7 0.342418 0.947393 0.218422
O O8 0.361597 0.880358 0.000000
O O9 0.105621 0.558738 0.500000
O O10 0.145445 0.500000 0.273633
O O11 0.183601 0.596946 0.262750
O O12 0.000000 0.564793 0.261239
O O13 0.500000 0.000000 0.251711
O O14 0.408597 0.000000 0.000000
O O15 0.500000 0.690877 0.809172
O O16 0.674490 0.661711 0.755214
O O17 0.629517 0.758932 0.749288
O O18 0.641458 0.712024 0.000000
O O19 0.241564 0.350604 0.500000
O O20 0.690896 0.206394 0.500000
#
# Coordination Sequence:
#
# PCOD8194742 Si02
#       7
#     8   8   8   4   8   8   8
#     4   8  14  25  40  58  81 108 136 164 198 243
#     4   9  16  27  43  61  84 114 143 170 202 243
#     4   8  13  22  40  68  96 116 136 166 206 253
#     4   7  12  24  41  59  78 107 146 174 195 237
#     4  10  20  32  44  58  80 112 145 173 205 248
#     4   9  16  26  44  67  86 107 137 173 209 242
#     4  10  19  28  42  65  87 108 136 171 209 246
#
# _framework density 15.745471999999999
#
# number of rings (size 3 to 8) (size 9 to 14) (size 15 to 20)
#    0.000    3.154    0.000    4.154    0.000    5.231 
#    0.000    0.385    0.000   18.000    0.000    4.846 
#    0.000    4.308    0.000    0.000    0.000    0.000 
#
# Total GULP energy -644323.635953 kJ/mol
# GULP energy per Si atom -12390.839153 kJ/mol
# Density = 1.570963 g / cm^3
# Si number density = 15.745472 Si / 1000 Ang^3
#
#
#
# Elastic Constant Matrix: (Units=GPa)
#
#
# Indices 1 2 3 4 5 6 
#
# 1 93.7886 60.7732 33.6898 0.0000 0.0000 0.0000
# 2 60.7732 141.6172 35.5852 0.0000 0.0000 0.0000
# 3 33.6898 35.5852 47.3231 0.0000 0.0000 0.0000
# 4 0.0000 0.0000 0.0000 16.5722 0.0000 0.0000
# 5 0.0000 0.0000 0.0000 0.0000 3.0005 0.0000
# 6 0.0000 0.0000 0.0000 0.0000 0.0000 21.5329
#
#
#
# Elastic Compliance Matrix: (Units=1/GPa)
#
#
# Indices 1 2 3 4 5 6 
#
# 1 0.016987 -0.005241 -0.008152 0.000000 0.000000 0.000000
# 2 -0.005241 0.010324 -0.004032 0.000000 0.000000 0.000000
# 3 -0.008152 -0.004032 0.029966 0.000000 0.000000 0.000000
# 4 0.000000 0.000000 0.000000 0.060342 0.000000 0.000000
# 5 0.000000 0.000000 0.000000 0.000000 0.333281 0.000000
# 6 0.000000 0.000000 0.000000 0.000000 0.000000 0.046441
#
#
# Mechanical properties :
#
#
# Convention : Reuss Voigt Hill
#
# Bulk Modulus (GPa) = 44.58862 60.31392 52.45127
# Shear Modulus (GPa) = 9.26500 18.39981 13.83241
#
# Velocity S-wave (km/s) = 2.42838 3.42216 2.96717
# Velocity P-wave (km/s) = 6.02018 7.34871 6.71737
#
# Compressibility (1/GPa) = 0.02242725
#
# Stress axis : x y z
#
# Youngs Moduli (GPa) = 58.86948 96.86562 33.37080
#
# Poissons Ratio (x) = 0.50770 0.27203
# Poissons Ratio (y) = 0.30855 0.13454
# Poissons Ratio (z) = 0.47989 0.39053
#
# Static dielectric constant tensor:
#      x y z
#    x 3.044410 0.000000 0.000000 
#    y 0.000000 3.216760 0.000000 
#    z 0.000000 0.000000 2.712990 
# 
# 
# High freq. dielectric constant tensor:
#      x y z
#    x 1.584460 0.000000 0.000000 
#    y 0.000000 1.604260 0.000000 
#    z 0.000000 0.000000 1.575490 
# 
# From -- ./inp_files/8044.got.cif
#   From: 2010.03.12/outbox.cif.g09.slc.cpg/sg47_5_cif.got.tgz:8044.got - 2010.04.14 03:12:58.
