data_PCOD8194806
_publ_section_title
;
Structure prediction by ZEFSAII (Michael W. Deem and Ramdas Pophale) SiO2 
 PCOD8194806
Probable space group: P M M M
;
_chemical_formula_sum "Si O2"
_cell_formula_units_Z 56
_cell_length_a 19.015351
_cell_length_b 9.653295
_cell_length_c 18.990249
_cell_angle_alpha 90.000000
_cell_angle_beta 90.000000
_cell_angle_gamma 90.000000
_cell_volume 3485.865161
_symmetry_space_group_name_H-M "P M M M"
_symmetry_group_IT_number 47
_symmetry_cell_setting 'orthorhombic'
loop_
_space_group_symop_operation_xyz
x,y,z
-x,-y,z
x,-y,-z
-x,y,-z
-x,-y,-z
x,y,-z
-x,y,z
x,-y,z
loop_
_atom_site_type_symbol
_atom_site_label
_atom_site_fract_x
_atom_site_fract_y
_atom_site_fract_z
Si Si1 0.360458 0.340675 0.419774
Si Si2 0.294254 0.837504 0.792098
Si Si3 0.160056 0.838807 0.702399
Si Si4 0.922494 0.835815 0.162611
Si Si5 0.197599 0.659435 0.579626
Si Si6 0.210325 0.834211 0.921561
Si Si7 0.420378 0.161587 0.298805
O O1 0.385249 0.317565 0.500000
O O2 0.372054 0.500000 0.397706
O O3 0.279070 0.299525 0.412195
O O4 0.407504 0.243507 0.370787
O O5 0.235418 0.799029 0.735093
O O6 0.271684 0.777371 0.868994
O O7 0.369146 0.781263 0.763527
O O8 0.298665 0.000000 0.801725
O O9 0.099997 0.795616 0.758020
O O10 0.149882 0.752143 0.631055
O O11 0.155697 0.000000 0.683369
O O12 0.865509 0.779461 0.106335
O O13 0.000000 0.773186 0.146747
O O14 0.924459 0.000000 0.156636
O O15 0.172580 0.687882 0.500000
O O16 0.186357 0.500000 0.599683
O O17 0.209747 0.000000 0.921518
O O18 0.223785 0.775725 0.000000
O O19 0.500000 0.185708 0.273248
O O20 0.405190 0.000000 0.313826
#
# Coordination Sequence:
#
# PCOD8194806 Si02
#       7
#     8   8   8   8   8   8   8
#     4   9  18  31  44  59  82 110 137 171 218 261
#     4   8  14  25  38  55  80 106 138 175 205 238
#     4   9  15  25  43  61  79 109 143 171 205 246
#     4   8  14  23  36  59  89 114 137 168 203 241
#     4   9  17  28  42  61  83 105 134 177 220 249
#     4   8  13  21  36  58  84 116 144 164 197 245
#     4  10  19  29  42  59  81 112 145 176 210 246
#
# _framework density 16.064879000000001
#
# number of rings (size 3 to 8) (size 9 to 14) (size 15 to 20)
#    0.000    3.286    1.429    2.571    0.000    1.429 
#    0.000    4.286    0.000    1.286    0.000    6.000 
#    0.000   14.286    0.000    6.429    0.000    7.143 
#
# Total GULP energy -693938.461166 kJ/mol
# GULP energy per Si atom -12391.758235 kJ/mol
# Density = 1.602831 g / cm^3
# Si number density = 16.064879 Si / 1000 Ang^3
#
#
#
# Elastic Constant Matrix: (Units=GPa)
#
#
# Indices 1 2 3 4 5 6 
#
# 1 75.4236 14.4016 57.3216 0.0000 0.0000 0.0000
# 2 14.4016 27.2791 35.0636 0.0000 0.0000 0.0000
# 3 57.3216 35.0636 118.4669 0.0000 0.0000 0.0000
# 4 0.0000 0.0000 0.0000 2.0265 0.0000 0.0000
# 5 0.0000 0.0000 0.0000 0.0000 19.9757 0.0000
# 6 0.0000 0.0000 0.0000 0.0000 0.0000 10.8487
#
#
#
# Elastic Compliance Matrix: (Units=1/GPa)
#
#
# Indices 1 2 3 4 5 6 
#
# 1 0.021142 0.003208 -0.011179 0.000000 0.000000 0.000000
# 2 0.003208 0.059655 -0.019209 0.000000 0.000000 0.000000
# 3 -0.011179 -0.019209 0.019536 0.000000 0.000000 0.000000
# 4 0.000000 0.000000 0.000000 0.493468 0.000000 0.000000
# 5 0.000000 0.000000 0.000000 0.000000 0.050061 0.000000
# 6 0.000000 0.000000 0.000000 0.000000 0.000000 0.092177
#
#
# Mechanical properties :
#
#
# Convention : Reuss Voigt Hill
#
# Bulk Modulus (GPa) = 21.75217 48.30480 35.02848
# Shear Modulus (GPa) = 6.20561 14.19569 10.20065
#
# Velocity S-wave (km/s) = 1.96754 2.97585 2.52259
# Velocity P-wave (km/s) = 4.32796 6.47622 5.50784
#
# Compressibility (1/GPa) = 0.04597243
#
# Stress axis : x y z
#
# Youngs Moduli (GPa) = 47.29884 16.76311 51.18816
#
# Poissons Ratio (x) = -0.05377 0.57225
# Poissons Ratio (y) = -0.15173 0.98326
# Poissons Ratio (z) = 0.52877 0.32200
#
# Static dielectric constant tensor:
#      x y z
#    x 10.529300 0.000000 0.000000 
#    y 0.000000 2.604960 0.000000 
#    z 0.000000 0.000000 3.406410 
# 
# 
# High freq. dielectric constant tensor:
#      x y z
#    x 1.601280 0.000000 0.000000 
#    y 0.000000 1.569980 0.000000 
#    z 0.000000 0.000000 1.615330 
# 
# From -- ./inp_files/11491.got.cif
#   From: 2010.03.12/outbox.cif.g09.slc.cpg/sg47_6_cif.got.tgz:11491.got - 2010.04.14 03:12:58.
