data_PCOD8194365
_publ_section_title
;
Structure prediction by ZEFSAII (Michael W. Deem and Ramdas Pophale) SiO2 
 PCOD8194365
Probable space group: P M M M
;
_chemical_formula_sum "Si O2"
_cell_formula_units_Z 52
_cell_length_a 22.831801
_cell_length_b 14.193192
_cell_length_c 8.960978
_cell_angle_alpha 90.000000
_cell_angle_beta 90.000000
_cell_angle_gamma 90.000000
_cell_volume 2903.859899
_symmetry_space_group_name_H-M "P M M M"
_symmetry_group_IT_number 47
_symmetry_cell_setting 'orthorhombic'
loop_
_space_group_symop_operation_xyz
x,y,z
-x,-y,z
x,-y,-z
-x,y,-z
-x,-y,-z
x,y,-z
-x,y,z
x,-y,z
loop_
_atom_site_type_symbol
_atom_site_label
_atom_site_fract_x
_atom_site_fract_y
_atom_site_fract_z
Si Si1 0.169256 0.289668 0.174481
Si Si2 0.712374 0.609068 0.826872
Si Si3 0.392518 0.287938 0.676380
Si Si4 0.933898 0.394163 0.675579
Si Si5 0.773169 0.897572 0.822702
Si Si6 0.360095 0.893695 0.174290
Si Si7 0.500000 0.388483 0.828345
O O1 0.221045 0.362959 0.210908
O O2 0.109641 0.320413 0.251082
O O3 0.186309 0.186404 0.239336
O O4 0.157208 0.284482 0.000000
O O5 0.703598 0.500000 0.788407
O O6 0.669903 0.670694 0.725379
O O7 0.698287 0.630461 0.000000
O O8 0.398857 0.291363 0.500000
O O9 0.398951 0.180088 0.732361
O O10 0.442630 0.350505 0.748520
O O11 0.925531 0.390264 0.500000
O O12 0.920621 0.500000 0.733374
O O13 0.000000 0.365542 0.719820
O O14 0.706627 0.883275 0.768939
O O15 0.796600 0.000000 0.767230
O O16 0.772500 0.894531 0.000000
O O17 0.382723 0.000000 0.204941
O O18 0.365317 0.869173 0.000000
O O19 0.500000 0.500000 0.814422
O O20 0.500000 0.356077 0.000000
#
# Coordination Sequence:
#
# PCOD8194365 Si02
#       7
#     8   8   8   8   8   8   4
#     4  10  18  30  52  80 106 131 172 225 266 304
#     4  10  20  34  52  76 108 142 177 219 266 318
#     4  12  24  37  56  83 115 144 174 221 273 323
#     4   9  19  35  51  68  98 141 181 216 262 323
#     4   8  14  27  50  78 106 136 170 211 259 310
#     4   9  17  34  60  83 107 144 184 218 259 317
#     4  11  25  45  66  81 100 141 193 234 266 315
#
# _framework density 17.907201000000001
#
# number of rings (size 3 to 8) (size 9 to 14) (size 15 to 20)
#    0.000    2.231    1.538    3.923    0.000    4.923 
#    0.000    1.154    0.000    3.231    0.000    3.231 
#    0.000    0.000    0.000    0.000    0.000    0.000 
#
# Total GULP energy -644742.102289 kJ/mol
# GULP energy per Si atom -12398.886582 kJ/mol
# Density = 1.786644 g / cm^3
# Si number density = 17.907201 Si / 1000 Ang^3
#
#
#
# Elastic Constant Matrix: (Units=GPa)
#
#
# Indices 1 2 3 4 5 6 
#
# 1 72.8128 37.3312 38.3069 0.0000 0.0000 0.0000
# 2 37.3312 118.3224 47.0382 0.0000 0.0000 0.0000
# 3 38.3069 47.0382 77.7695 0.0000 0.0000 0.0000
# 4 0.0000 0.0000 0.0000 18.6284 0.0000 0.0000
# 5 0.0000 0.0000 0.0000 0.0000 -36.8246 0.0000
# 6 0.0000 0.0000 0.0000 0.0000 0.0000 29.4437
#
#
#
# Elastic Compliance Matrix: (Units=1/GPa)
#
#
# Indices 1 2 3 4 5 6 
#
# 1 0.019338 -0.003047 -0.007682 0.000000 0.000000 0.000000
# 2 -0.003047 0.011607 -0.005520 0.000000 0.000000 0.000000
# 3 -0.007682 -0.005520 0.019981 0.000000 0.000000 0.000000
# 4 0.000000 0.000000 0.000000 0.053681 0.000000 0.000000
# 5 0.000000 0.000000 0.000000 0.000000 -0.027156 0.000000
# 6 0.000000 0.000000 0.000000 0.000000 0.000000 0.033963
#
#
# Mechanical properties :
#
#
# Convention : Reuss Voigt Hill
#
# Bulk Modulus (GPa) = 54.26480 57.13968 55.70224
# Shear Modulus (GPa) = 33.32113 11.99806 22.65960
#
# Velocity S-wave (km/s) = 4.31834 2.59127 3.56109
# Velocity P-wave (km/s) = 7.43191 6.39773 6.93412
#
# Compressibility (1/GPa) = 0.01842815
#
# Stress axis : x y z
#
# Youngs Moduli (GPa) = 51.71241 86.15395 50.04766
#
# Poissons Ratio (x) = 0.26252 0.38447
# Poissons Ratio (y) = 0.15758 0.27624
# Poissons Ratio (z) = 0.39726 0.47553
#
# Static dielectric constant tensor:
#      x y z
#    x 3.234740 0.000000 0.000000 
#    y 0.000000 3.773850 0.000000 
#    z 0.000000 0.000000 3.071680 
# 
# 
# High freq. dielectric constant tensor:
#      x y z
#    x 1.675880 0.000000 0.000000 
#    y 0.000000 1.707420 0.000000 
#    z 0.000000 0.000000 1.669680 
# 
# From -- ./inp_files/7655.got.cif
#   From: 2010.03.12/outbox.cif.g09.slc.cpg/sg47_4_cif.got.tgz:7655.got - 2010.04.14 03:12:58.
