data_PCOD8194168
_publ_section_title
;
Structure prediction by ZEFSAII (Michael W. Deem and Ramdas Pophale) SiO2 
 PCOD8194168
Probable space group: P M M M
;
_chemical_formula_sum "Si O2"
_cell_formula_units_Z 48
_cell_length_a 19.567654
_cell_length_b 20.753486
_cell_length_c 9.466786
_cell_angle_alpha 90.000000
_cell_angle_beta 90.000000
_cell_angle_gamma 90.000000
_cell_volume 3844.433710
_symmetry_space_group_name_H-M "P M M M"
_symmetry_group_IT_number 47
_symmetry_cell_setting 'orthorhombic'
loop_
_space_group_symop_operation_xyz
x,y,z
-x,-y,z
x,-y,-z
-x,y,-z
-x,-y,-z
x,y,-z
-x,y,z
x,-y,z
loop_
_atom_site_type_symbol
_atom_site_label
_atom_site_fract_x
_atom_site_fract_y
_atom_site_fract_z
Si Si1 0.918572 0.118203 0.657969
Si Si2 0.918401 0.000000 0.840857
Si Si3 0.425069 0.576606 0.159533
Si Si4 0.849115 0.385985 0.333629
Si Si5 0.300265 0.574154 0.337567
Si Si6 0.075637 0.740977 0.332632
Si Si7 0.080916 0.500000 0.164997
O O1 0.889678 0.105723 0.500000
O O2 0.889684 0.063372 0.761891
O O3 0.896222 0.188887 0.716624
O O4 0.000000 0.115963 0.652640
O O5 0.000000 0.000000 0.839497
O O6 0.890019 0.000000 0.000000
O O7 0.500000 0.600736 0.212291
O O8 0.423334 0.500000 0.169478
O O9 0.363803 0.605463 0.253356
O O10 0.413074 0.599754 0.000000
O O11 0.863056 0.399610 0.500000
O O12 0.768664 0.387800 0.300408
O O13 0.873724 0.315501 0.284235
O O14 0.889416 0.437377 0.241071
O O15 0.319803 0.580614 0.500000
O O16 0.287567 0.500000 0.295262
O O17 0.069859 0.742995 0.500000
O O18 0.000000 0.727614 0.268939
O O19 0.000000 0.500000 0.183531
O O20 0.101907 0.500000 0.000000
#
# Coordination Sequence:
#
# PCOD8194168 Si02
#       7
#     8   4   8   8   8   8   4
#     4   8  13  22  35  50  66  83 105 134 166 199
#     4   9  15  21  31  49  69  87 105 125 158 203
#     4   8  14  24  37  52  68  87 109 129 156 200
#     4  10  18  30  44  55  67  87 116 147 179 219
#     4   9  16  25  36  53  72  86 106 137 173 209
#     4   8  14  24  39  55  66  82 113 148 178 207
#     4  11  23  33  39  51  68  85 112 151 191 224
#
# _framework density 12.485583
#
# number of rings (size 3 to 8) (size 9 to 14) (size 15 to 20)
#    0.000    3.167    0.833    2.500    0.000    3.333 
#    0.000    2.500    0.000    3.000    0.000    0.000 
#    0.000    0.000    0.000    0.000    0.000    0.000 
#
# Total GULP energy -594838.922660 kJ/mol
# GULP energy per Si atom -12392.477555 kJ/mol
# Density = 1.245717 g / cm^3
# Si number density = 12.485583 Si / 1000 Ang^3
#
#
#
# Elastic Constant Matrix: (Units=GPa)
#
#
# Indices 1 2 3 4 5 6 
#
# 1 76.5945 39.5620 37.9979 0.0000 0.0000 0.0000
# 2 39.5620 93.0778 40.9259 0.0000 0.0000 0.0000
# 3 37.9979 40.9259 59.9196 0.0000 0.0000 0.0000
# 4 0.0000 0.0000 0.0000 5.8743 0.0000 0.0000
# 5 0.0000 0.0000 0.0000 0.0000 16.5170 0.0000
# 6 0.0000 0.0000 0.0000 0.0000 0.0000 1.3140
#
#
#
# Elastic Compliance Matrix: (Units=1/GPa)
#
#
# Indices 1 2 3 4 5 6 
#
# 1 0.020139 -0.004208 -0.009897 0.000000 0.000000 0.000000
# 2 -0.004208 0.016235 -0.008420 0.000000 0.000000 0.000000
# 3 -0.009897 -0.008420 0.028716 0.000000 0.000000 0.000000
# 4 0.000000 0.000000 0.000000 0.170234 0.000000 0.000000
# 5 0.000000 0.000000 0.000000 0.000000 0.060544 0.000000
# 6 0.000000 0.000000 0.000000 0.000000 0.000000 0.761042
#
#
# Mechanical properties :
#
#
# Convention : Reuss Voigt Hill
#
# Bulk Modulus (GPa) = 49.90080 51.84041 50.87060
# Shear Modulus (GPa) = 4.51003 12.14811 8.32907
#
# Velocity S-wave (km/s) = 1.90264 3.12263 2.58562
# Velocity P-wave (km/s) = 6.69927 7.38996 7.05307
#
# Compressibility (1/GPa) = 0.02003976
#
# Stress axis : x y z
#
# Youngs Moduli (GPa) = 49.65436 61.59708 34.82399
#
# Poissons Ratio (x) = 0.25923 0.34465
# Poissons Ratio (y) = 0.20897 0.29321
# Poissons Ratio (z) = 0.49142 0.51863
#
# Static dielectric constant tensor:
#      x y z
#    x 2.512830 0.000000 0.000000 
#    y 0.000000 2.622690 0.000000 
#    z 0.000000 0.000000 2.567050 
# 
# 
# High freq. dielectric constant tensor:
#      x y z
#    x 1.442390 0.000000 0.000000 
#    y 0.000000 1.448310 0.000000 
#    z 0.000000 0.000000 1.467880 
# 
# From -- ./inp_files/11690.got.cif
#   From: 2010.03.12/outbox.cif.g09.slc.cpg/sg47_6_cif.got.tgz:11690.got - 2010.04.14 03:12:58.
