data_PCOD8194343
_publ_section_title
;
Structure prediction by ZEFSAII (Michael W. Deem and Ramdas Pophale) SiO2 
 PCOD8194343
Probable space group: P M M M
;
_chemical_formula_sum "Si O2"
_cell_formula_units_Z 64
_cell_length_a 23.133534
_cell_length_b 8.658800
_cell_length_c 16.565665
_cell_angle_alpha 90.000000
_cell_angle_beta 90.000000
_cell_angle_gamma 90.000000
_cell_volume 3318.245896
_symmetry_space_group_name_H-M "P M M M"
_symmetry_group_IT_number 47
_symmetry_cell_setting 'orthorhombic'
loop_
_space_group_symop_operation_xyz
x,y,z
-x,-y,z
x,-y,-z
-x,y,-z
-x,-y,-z
x,y,-z
-x,y,z
x,-y,z
loop_
_atom_site_type_symbol
_atom_site_label
_atom_site_fract_x
_atom_site_fract_y
_atom_site_fract_z
Si Si1 0.562461 0.330720 0.093661
Si Si2 0.869760 0.817008 0.250621
Si Si3 0.745787 0.680580 0.726750
Si Si4 0.934180 0.183307 0.909890
Si Si5 0.641373 0.176851 0.802635
Si Si6 0.065714 0.816651 0.410309
Si Si7 0.566488 0.682866 0.336316
Si Si8 0.328468 0.175793 0.590043
O O1 0.500000 0.277613 0.129139
O O2 0.577735 0.500000 0.130543
O O3 0.613098 0.207272 0.110628
O O4 0.556723 0.346257 0.000000
O O5 0.803382 0.771183 0.251897
O O6 0.897710 0.750437 0.166829
O O7 0.898741 0.749205 0.333370
O O8 0.876392 0.000000 0.250664
O O9 0.758703 0.500000 0.724649
O O10 0.699252 0.722506 0.795323
O O11 0.719177 0.734788 0.641903
O O12 0.000000 0.239228 0.897993
O O13 0.931091 0.000000 0.908154
O O14 0.912185 0.239180 0.000000
O O15 0.590661 0.235548 0.743537
O O16 0.657178 0.000000 0.788652
O O17 0.088506 0.761229 0.500000
O O18 0.000000 0.760209 0.399680
O O19 0.068873 0.000000 0.408073
O O20 0.500000 0.731407 0.353021
O O21 0.572247 0.500000 0.328673
O O22 0.608411 0.743417 0.407652
O O23 0.304627 0.179614 0.500000
O O24 0.334057 0.000000 0.622013
#
# Coordination Sequence:
#
# PCOD8194343 Si02
#       8
#     8   8   8   8   8   8   8   8
#     4   9  18  33  53  77 105 135 164 196 243 308
#     4  10  18  30  51  77 104 135 173 219 264 304
#     4  11  23  38  54  71  97 135 176 214 254 308
#     4   8  14  26  48  80 112 138 168 210 260 310
#     4  11  21  34  53  74  98 129 168 216 262 302
#     4   8  14  25  44  74 108 137 167 205 251 305
#     4  10  20  33  51  75 102 133 167 202 248 311
#     4  10  21  37  56  76  99 128 165 213 263 306
#
# _framework density 19.287298
#
# number of rings (size 3 to 8) (size 9 to 14) (size 15 to 20)
#    0.000    2.375    0.000    6.375    0.000    6.250 
#    0.000    3.750    0.000    4.125    0.000    1.750 
#    0.000    0.000    0.000    0.000    0.000    0.000 
#
# Total GULP energy -792874.860409 kJ/mol
# GULP energy per Si atom -12388.669694 kJ/mol
# Density = 1.924340 g / cm^3
# Si number density = 19.287298 Si / 1000 Ang^3
#
#
#
# Elastic Constant Matrix: (Units=GPa)
#
#
# Indices 1 2 3 4 5 6 
#
# 1 113.7152 4.9984 65.6332 0.0000 0.0000 0.0000
# 2 4.9984 35.5473 14.5376 0.0000 0.0000 0.0000
# 3 65.6332 14.5376 116.4962 0.0000 0.0000 0.0000
# 4 0.0000 0.0000 0.0000 16.6605 0.0000 0.0000
# 5 0.0000 0.0000 0.0000 0.0000 15.7445 0.0000
# 6 0.0000 0.0000 0.0000 0.0000 0.0000 9.3723
#
#
#
# Elastic Compliance Matrix: (Units=1/GPa)
#
#
# Indices 1 2 3 4 5 6 
#
# 1 0.013083 0.001238 -0.007525 0.000000 0.000000 0.000000
# 2 0.001238 0.029762 -0.004411 0.000000 0.000000 0.000000
# 3 -0.007525 -0.004411 0.013374 0.000000 0.000000 0.000000
# 4 0.000000 0.000000 0.000000 0.060022 0.000000 0.000000
# 5 0.000000 0.000000 0.000000 0.000000 0.063514 0.000000
# 6 0.000000 0.000000 0.000000 0.000000 0.000000 0.106698
#
#
# Mechanical properties :
#
#
# Convention : Reuss Voigt Hill
#
# Bulk Modulus (GPa) = 28.71818 48.45521 38.58670
# Shear Modulus (GPa) = 15.65155 20.39476 18.02315
#
# Velocity S-wave (km/s) = 2.85177 3.25533 3.06021
# Velocity P-wave (km/s) = 5.07597 6.26952 5.70405
#
# Compressibility (1/GPa) = 0.03482115
#
# Stress axis : x y z
#
# Youngs Moduli (GPa) = 76.43583 33.60035 74.77098
#
# Poissons Ratio (x) = -0.04160 0.56267
# Poissons Ratio (y) = -0.09463 0.32985
# Poissons Ratio (z) = 0.57520 0.14823
#
# Static dielectric constant tensor:
#      x y z
#    x 3.538620 0.000000 0.000000 
#    y 0.000000 3.410590 0.000000 
#    z 0.000000 0.000000 3.867540 
# 
# 
# High freq. dielectric constant tensor:
#      x y z
#    x 1.742140 0.000000 0.000000 
#    y 0.000000 1.721590 0.000000 
#    z 0.000000 0.000000 1.755950 
# 
# From -- ./inp_files/28829.got.cif
#   From: 2010.03.12/outbox.cif.g09.slc.cpg/sg47_15_cif.got.tgz:28829.got - 2010.04.14 03:12:58.
