data_PCOD8194946
_publ_section_title
;
Structure prediction by ZEFSAII (Michael W. Deem and Ramdas Pophale) SiO2 
 PCOD8194946
Probable space group: P M M M
;
_chemical_formula_sum "Si O2"
_cell_formula_units_Z 36
_cell_length_a 14.441608
_cell_length_b 15.550420
_cell_length_c 9.402899
_cell_angle_alpha 90.000000
_cell_angle_beta 90.000000
_cell_angle_gamma 90.000000
_cell_volume 2111.637894
_symmetry_space_group_name_H-M "P M M M"
_symmetry_group_IT_number 47
_symmetry_cell_setting 'orthorhombic'
loop_
_space_group_symop_operation_xyz
x,y,z
-x,-y,z
x,-y,-z
-x,y,-z
-x,-y,-z
x,y,-z
-x,y,z
x,-y,z
loop_
_atom_site_type_symbol
_atom_site_label
_atom_site_fract_x
_atom_site_fract_y
_atom_site_fract_z
Si Si1 0.890455 0.000000 0.658438
Si Si2 0.896070 0.162578 0.837010
Si Si3 0.395620 0.405400 0.168883
Si Si4 0.288823 0.242385 0.835237
Si Si5 0.607179 0.902182 0.335828
O O1 0.858323 0.084703 0.741178
O O2 0.846615 0.000000 0.500000
O O3 0.000000 0.000000 0.650126
O O4 0.823008 0.240326 0.815444
O O5 0.000000 0.192767 0.792884
O O6 0.896208 0.130870 0.000000
O O7 0.500000 0.383648 0.218983
O O8 0.366353 0.500000 0.227287
O O9 0.326780 0.332209 0.229692
O O10 0.391018 0.407384 0.000000
O O11 0.333464 0.161298 0.759142
O O12 0.316507 0.235588 0.000000
O O13 0.622428 0.878466 0.500000
O O14 0.500000 0.892329 0.294404
O O15 0.640269 0.000000 0.306588
#
# Coordination Sequence:
#
# PCOD8194946 Si02
#       5
#     4   8   8   8   8
#     4   9  17  29  45  63  82 111 156 199 227 260
#     4   9  18  31  44  61  91 125 152 187 235 274
#     4   8  14  26  45  69  94 115 140 185 240 280
#     4  10  19  29  47  71  90 116 158 196 223 266
#     4   9  19  34  47  62  91 127 153 178 225 281
#
# _framework density 17.048376000000001
#
# number of rings (size 3 to 8) (size 9 to 14) (size 15 to 20)
#    0.000    3.000    0.000    2.333    1.556    4.000 
#    0.000    1.111    0.000    1.333    0.000    7.778 
#    0.000    0.000    0.000    7.556    0.000    8.222 
#
# Total GULP energy -446169.827346 kJ/mol
# GULP energy per Si atom -12393.606315 kJ/mol
# Density = 1.700957 g / cm^3
# Si number density = 17.048376 Si / 1000 Ang^3
#
#
#
# Elastic Constant Matrix: (Units=GPa)
#
#
# Indices 1 2 3 4 5 6 
#
# 1 95.9976 78.8291 29.9751 0.0000 0.0000 0.0000
# 2 78.8291 124.5803 32.8906 0.0000 0.0000 0.0000
# 3 29.9751 32.8906 43.2916 0.0000 0.0000 0.0000
# 4 0.0000 0.0000 0.0000 4.5709 0.0000 0.0000
# 5 0.0000 0.0000 0.0000 0.0000 15.6083 0.0000
# 6 0.0000 0.0000 0.0000 0.0000 0.0000 25.2441
#
#
#
# Elastic Compliance Matrix: (Units=1/GPa)
#
#
# Indices 1 2 3 4 5 6 
#
# 1 0.022888 -0.012882 -0.006060 0.000000 0.000000 0.000000
# 2 -0.012882 0.017292 -0.004218 0.000000 0.000000 0.000000
# 3 -0.006060 -0.004218 0.030499 0.000000 0.000000 0.000000
# 4 0.000000 0.000000 0.000000 0.218773 0.000000 0.000000
# 5 0.000000 0.000000 0.000000 0.000000 0.064068 0.000000
# 6 0.000000 0.000000 0.000000 0.000000 0.000000 0.039613
#
#
# Mechanical properties :
#
#
# Convention : Reuss Voigt Hill
#
# Bulk Modulus (GPa) = 41.05295 60.80655 50.92975
# Shear Modulus (GPa) = 11.17134 17.22965 14.20050
#
# Velocity S-wave (km/s) = 2.56261 3.18249 2.88922
# Velocity P-wave (km/s) = 5.73485 7.01775 6.40848
#
# Compressibility (1/GPa) = 0.02435878
#
# Stress axis : x y z
#
# Youngs Moduli (GPa) = 43.69166 57.83057 32.78745
#
# Poissons Ratio (x) = 0.74500 0.19869
# Poissons Ratio (y) = 0.56285 0.13829
# Poissons Ratio (z) = 0.26477 0.24391
#
# Static dielectric constant tensor:
#      x y z
#    x 3.327060 0.000000 0.000000 
#    y 0.000000 3.319620 0.000000 
#    z 0.000000 0.000000 3.024790 
# 
# 
# High freq. dielectric constant tensor:
#      x y z
#    x 1.661220 0.000000 0.000000 
#    y 0.000000 1.638000 0.000000 
#    z 0.000000 0.000000 1.632140 
# 
# From -- ./inp_files/5496.got.cif
#   From: 2010.03.12/outbox.cif.g09.slc.cpg/sg47_3_cif.got.tgz:5496.got - 2010.04.14 03:12:58.
