data_PCOD8194482
_publ_section_title
;
Structure prediction by ZEFSAII (Michael W. Deem and Ramdas Pophale) SiO2 
 PCOD8194482
Probable space group: P M M M
;
_chemical_formula_sum "Si O2"
_cell_formula_units_Z 52
_cell_length_a 8.991447
_cell_length_b 17.845357
_cell_length_c 15.856736
_cell_angle_alpha 90.000000
_cell_angle_beta 90.000000
_cell_angle_gamma 90.000000
_cell_volume 2544.301798
_symmetry_space_group_name_H-M "P M M M"
_symmetry_group_IT_number 47
_symmetry_cell_setting 'orthorhombic'
loop_
_space_group_symop_operation_xyz
x,y,z
-x,-y,z
x,-y,-z
-x,y,-z
-x,-y,-z
x,y,-z
-x,y,z
x,-y,z
loop_
_atom_site_type_symbol
_atom_site_label
_atom_site_fract_x
_atom_site_fract_y
_atom_site_fract_z
Si Si1 0.676708 0.190757 0.905123
Si Si2 0.323452 0.346958 0.170400
Si Si3 0.328857 0.914196 0.246673
Si Si4 0.323094 0.500000 0.907547
Si Si5 0.824055 0.154353 0.597820
Si Si6 0.824192 0.584797 0.320736
Si Si7 0.337716 0.697783 0.404967
O O1 0.500000 0.187399 0.906974
O O2 0.730464 0.275124 0.882225
O O3 0.736213 0.134325 0.832568
O O4 0.736938 0.171257 0.000000
O O5 0.500000 0.348256 0.176443
O O6 0.259293 0.424358 0.132572
O O7 0.246988 0.349812 0.261484
O O8 0.500000 0.891495 0.263309
O O9 0.240483 0.904943 0.334714
O O10 0.314482 0.000000 0.218140
O O11 0.500000 0.500000 0.905053
O O12 0.258448 0.500000 0.000000
O O13 0.780486 0.134322 0.500000
O O14 0.759756 0.233503 0.630478
O O15 0.000000 0.156590 0.606212
O O16 0.766873 0.500000 0.303308
O O17 0.754676 0.618414 0.406075
O O18 0.000000 0.586591 0.320148
O O19 0.370462 0.717954 0.500000
O O20 0.500000 0.692087 0.358476
#
# Coordination Sequence:
#
# PCOD8194482 Si02
#       7
#     8   8   8   4   8   8   8
#     4   9  18  33  55  83 112 145 190 244 298 348
#     4  10  18  31  53  78 104 138 184 237 288 339
#     4  10  21  36  56  85 119 155 196 242 290 340
#     4   9  16  26  45  75 104 129 166 223 283 332
#     4  10  21  38  61  88 118 152 188 230 286 351
#     4  11  23  36  51  74 109 151 192 236 287 341
#     4  10  21  37  58  82 108 141 184 234 284 338
#
# _framework density 20.437826999999999
#
# number of rings (size 3 to 8) (size 9 to 14) (size 15 to 20)
#    0.000    2.077    0.769    2.769    0.000    7.077 
#    0.000    4.615    0.000    3.692    0.000    1.077 
#    0.000    0.000    0.000    0.000    0.000    0.000 
#
# Total GULP energy -644208.856899 kJ/mol
# GULP energy per Si atom -12388.631863 kJ/mol
# Density = 2.039131 g / cm^3
# Si number density = 20.437827 Si / 1000 Ang^3
#
#
#
# Elastic Constant Matrix: (Units=GPa)
#
#
# Indices 1 2 3 4 5 6 
#
# 1 61.5930 35.6621 24.9925 0.0000 0.0000 0.0000
# 2 35.6621 122.5581 57.8529 0.0000 0.0000 0.0000
# 3 24.9925 57.8529 105.1389 0.0000 0.0000 0.0000
# 4 0.0000 0.0000 0.0000 26.9014 0.0000 0.0000
# 5 0.0000 0.0000 0.0000 0.0000 12.3299 0.0000
# 6 0.0000 0.0000 0.0000 0.0000 0.0000 14.1364
#
#
#
# Elastic Compliance Matrix: (Units=1/GPa)
#
#
# Indices 1 2 3 4 5 6 
#
# 1 0.019857 -0.004795 -0.002081 0.000000 0.000000 0.000000
# 2 -0.004795 0.012180 -0.005562 0.000000 0.000000 0.000000
# 3 -0.002081 -0.005562 0.013067 0.000000 0.000000 0.000000
# 4 0.000000 0.000000 0.000000 0.037173 0.000000 0.000000
# 5 0.000000 0.000000 0.000000 0.000000 0.081103 0.000000
# 6 0.000000 0.000000 0.000000 0.000000 0.000000 0.070740
#
#
# Mechanical properties :
#
#
# Convention : Reuss Voigt Hill
#
# Bulk Modulus (GPa) = 49.44279 58.47835 53.96057
# Shear Modulus (GPa) = 18.81539 22.05904 20.43721
#
# Velocity S-wave (km/s) = 3.03746 3.28887 3.16566
# Velocity P-wave (km/s) = 6.04532 6.56484 6.31043
#
# Compressibility (1/GPa) = 0.02022540
#
# Stress axis : x y z
#
# Youngs Moduli (GPa) = 50.36078 82.09858 76.53016
#
# Poissons Ratio (x) = 0.39369 0.15929
# Poissons Ratio (y) = 0.24150 0.42569
# Poissons Ratio (z) = 0.10482 0.45667
#
# Static dielectric constant tensor:
#      x y z
#    x 3.408600 0.000000 0.000000 
#    y 0.000000 3.932670 0.000000 
#    z 0.000000 0.000000 4.037430 
# 
# 
# High freq. dielectric constant tensor:
#      x y z
#    x 1.764450 0.000000 0.000000 
#    y 0.000000 1.800400 0.000000 
#    z 0.000000 0.000000 1.805760 
# 
# From -- ./inp_files/26745.got.cif
#   From: 2010.03.12/outbox.cif.g09.slc.cpg/sg47_14_cif.got.tgz:26745.got - 2010.04.14 03:12:58.
