data_PCOD8194984
_publ_section_title
;
Structure prediction by ZEFSAII (Michael W. Deem and Ramdas Pophale) SiO2 
 PCOD8194984
Probable space group: P M M M
;
_chemical_formula_sum "Si O2"
_cell_formula_units_Z 48
_cell_length_a 7.984457
_cell_length_b 20.692547
_cell_length_c 23.404411
_cell_angle_alpha 90.000000
_cell_angle_beta 90.000000
_cell_angle_gamma 90.000000
_cell_volume 3866.847571
_symmetry_space_group_name_H-M "P M M M"
_symmetry_group_IT_number 47
_symmetry_cell_setting 'orthorhombic'
loop_
_space_group_symop_operation_xyz
x,y,z
-x,-y,z
x,-y,-z
-x,y,-z
-x,-y,-z
x,y,-z
-x,y,z
x,-y,z
loop_
_atom_site_type_symbol
_atom_site_label
_atom_site_fract_x
_atom_site_fract_y
_atom_site_fract_z
Si Si1 0.812324 0.425220 0.160677
Si Si2 0.500000 0.576576 0.235500
Si Si3 0.302925 0.930749 0.934852
Si Si4 0.185987 0.576784 0.435563
Si Si5 0.500000 0.422700 0.636107
Si Si6 0.690633 0.662983 0.934462
Si Si7 0.809054 0.797494 0.065711
O O1 0.779029 0.500000 0.146377
O O2 0.669641 0.399149 0.204129
O O3 0.802920 0.385883 0.101801
O O4 0.000000 0.415986 0.186721
O O5 0.500000 0.500000 0.238468
O O6 0.500000 0.604783 0.299542
O O7 0.500000 0.924426 0.932262
O O8 0.228265 0.866743 0.903480
O O9 0.247389 0.000000 0.906392
O O10 0.239118 0.932508 0.000000
O O11 0.218573 0.601603 0.500000
O O12 0.192605 0.500000 0.434768
O O13 0.332548 0.604463 0.394902
O O14 0.000000 0.599559 0.414851
O O15 0.500000 0.500000 0.635122
O O16 0.500000 0.640008 0.929795
O O17 0.705918 0.736408 0.909833
O O18 0.754783 0.660909 0.000000
O O19 0.000000 0.778601 0.073934
O O20 0.756354 0.806571 0.000000
#
# Coordination Sequence:
#
# PCOD8194984 Si02
#       7
#     8   4   8   8   4   8   8
#     4  10  20  33  46  56  68  84 102 131 171 213
#     4   9  18  31  41  53  69  84 108 135 161 197
#     4   8  13  21  32  45  63  87 109 124 140 167
#     4   8  13  20  30  47  70  91 110 131 153 177
#     4   9  15  22  35  49  64  87 111 132 153 183
#     4  10  19  30  44  57  68  82 100 127 165 210
#     4   9  16  24  34  50  69  84 101 124 149 183
#
# _framework density 12.413212
#
# number of rings (size 3 to 8) (size 9 to 14) (size 15 to 20)
#    0.000    3.000    0.833    2.250    0.000    5.333 
#    0.000    6.667    0.000    0.000    0.000    0.000 
#    0.000    0.000    0.000    0.000    0.000    0.000 
#
# Total GULP energy -594634.843564 kJ/mol
# GULP energy per Si atom -12388.225908 kJ/mol
# Density = 1.238496 g / cm^3
# Si number density = 12.413212 Si / 1000 Ang^3
#
#
#
# Elastic Constant Matrix: (Units=GPa)
#
#
# Indices 1 2 3 4 5 6 
#
# 1 81.2035 23.4444 35.6442 0.0000 0.0000 0.0000
# 2 23.4444 46.0011 20.8353 0.0000 0.0000 0.0000
# 3 35.6442 20.8353 53.3700 0.0000 0.0000 0.0000
# 4 0.0000 0.0000 0.0000 0.2942 0.0000 0.0000
# 5 0.0000 0.0000 0.0000 0.0000 11.4686 0.0000
# 6 0.0000 0.0000 0.0000 0.0000 0.0000 13.8073
#
#
#
# Elastic Compliance Matrix: (Units=1/GPa)
#
#
# Indices 1 2 3 4 5 6 
#
# 1 0.018182 -0.004575 -0.010357 0.000000 0.000000 0.000000
# 2 -0.004575 0.027560 -0.007703 0.000000 0.000000 0.000000
# 3 -0.010357 -0.007703 0.028662 0.000000 0.000000 0.000000
# 4 0.000000 0.000000 0.000000 3.398664 0.000000 0.000000
# 5 0.000000 0.000000 0.000000 0.000000 0.087195 0.000000
# 6 0.000000 0.000000 0.000000 0.000000 0.000000 0.072425
#
#
# Mechanical properties :
#
#
# Convention : Reuss Voigt Hill
#
# Bulk Modulus (GPa) = 34.32689 37.82472 36.07581
# Shear Modulus (GPa) = 1.35587 11.82407 6.58997
#
# Velocity S-wave (km/s) = 1.04626 3.08967 2.30659
# Velocity P-wave (km/s) = 5.40121 6.57766 6.01825
#
# Compressibility (1/GPa) = 0.02913168
#
# Stress axis : x y z
#
# Youngs Moduli (GPa) = 54.99988 36.28506 34.88997
#
# Poissons Ratio (x) = 0.16602 0.36135
# Poissons Ratio (y) = 0.25165 0.26877
# Poissons Ratio (z) = 0.56963 0.27952
#
# Static dielectric constant tensor:
#      x y z
#    x 2.707800 0.000000 0.000000 
#    y 0.000000 2.499380 0.000000 
#    z 0.000000 0.000000 2.285190 
# 
# 
# High freq. dielectric constant tensor:
#      x y z
#    x 1.490120 0.000000 0.000000 
#    y 0.000000 1.439040 0.000000 
#    z 0.000000 0.000000 1.413840 
# 
# From -- ./inp_files/29835.got.cif
#   From: 2010.03.12/outbox.cif.g09.slc.cpg/sg47_15_cif.got.tgz:29835.got - 2010.04.14 03:12:58.
