data_PCOD8194305
_publ_section_title
;
Structure prediction by ZEFSAII (Michael W. Deem and Ramdas Pophale) SiO2 
 PCOD8194305
Probable space group: P M M M
;
_chemical_formula_sum "Si O2"
_cell_formula_units_Z 52
_cell_length_a 9.221555
_cell_length_b 23.416088
_cell_length_c 14.430636
_cell_angle_alpha 90.000000
_cell_angle_beta 90.000000
_cell_angle_gamma 90.000000
_cell_volume 3116.046820
_symmetry_space_group_name_H-M "P M M M"
_symmetry_group_IT_number 47
_symmetry_cell_setting 'orthorhombic'
loop_
_space_group_symop_operation_xyz
x,y,z
-x,-y,z
x,-y,-z
-x,y,-z
-x,-y,-z
x,y,-z
-x,y,z
x,-y,z
loop_
_atom_site_type_symbol
_atom_site_label
_atom_site_fract_x
_atom_site_fract_y
_atom_site_fract_z
Si Si1 0.171178 0.623305 0.891952
Si Si2 0.168995 0.500000 0.107368
Si Si3 0.328667 0.274725 0.207383
Si Si4 0.671900 0.768683 0.600111
Si Si5 0.833604 0.064297 0.777070
Si Si6 0.669430 0.158558 0.892241
Si Si7 0.331375 0.101523 0.395101
O O1 0.228202 0.560865 0.853956
O O2 0.252452 0.670579 0.833987
O O3 0.000000 0.629476 0.876744
O O4 0.209656 0.630584 0.000000
O O5 0.000000 0.500000 0.125302
O O6 0.203859 0.500000 0.000000
O O7 0.500000 0.283185 0.199360
O O8 0.275187 0.270059 0.314366
O O9 0.279665 0.217988 0.153125
O O10 0.730925 0.745872 0.500000
O O11 0.500000 0.769348 0.597484
O O12 0.723191 0.833442 0.615772
O O13 0.753466 0.106055 0.847608
O O14 0.762423 0.064313 0.675239
O O15 0.000000 0.083463 0.768816
O O16 0.820936 0.000000 0.816399
O O17 0.500000 0.148653 0.874155
O O18 0.707824 0.161374 0.000000
O O19 0.305351 0.079809 0.500000
O O20 0.500000 0.095879 0.368427
#
# Coordination Sequence:
#
# PCOD8194305 Si02
#       7
#     8   4   8   8   8   8   8
#     4   9  17  29  46  69  98 133 169 199 230 275
#     4   7  12  26  45  63  90 131 172 202 227 265
#     4  10  18  30  50  75 101 124 151 195 244 285
#     4   8  14  27  49  73  95 121 152 187 232 284
#     4  11  24  38  51  70  98 129 159 197 247 298
#     4  10  21  37  55  73  94 123 161 204 246 290
#     4   9  17  33  57  78  95 121 159 198 237 289
#
# _framework density 16.687809999999999
#
# number of rings (size 3 to 8) (size 9 to 14) (size 15 to 20)
#    0.000    2.692    1.538    2.769    0.000    4.000 
#    0.000    3.462    0.000    1.846    0.000    0.538 
#    0.000    4.308    0.000    0.000    0.000    0.000 
#
# Total GULP energy -644394.561820 kJ/mol
# GULP energy per Si atom -12392.203112 kJ/mol
# Density = 1.664983 g / cm^3
# Si number density = 16.687810 Si / 1000 Ang^3
#
#
#
# Elastic Constant Matrix: (Units=GPa)
#
#
# Indices 1 2 3 4 5 6 
#
# 1 46.3956 43.4484 40.8933 0.0000 0.0000 0.0000
# 2 43.4484 129.9985 67.8052 0.0000 0.0000 0.0000
# 3 40.8933 67.8052 115.3066 0.0000 0.0000 0.0000
# 4 0.0000 0.0000 0.0000 19.5833 0.0000 0.0000
# 5 0.0000 0.0000 0.0000 0.0000 17.2277 0.0000
# 6 0.0000 0.0000 0.0000 0.0000 0.0000 33.5679
#
#
#
# Elastic Compliance Matrix: (Units=1/GPa)
#
#
# Indices 1 2 3 4 5 6 
#
# 1 0.036080 -0.007767 -0.008228 0.000000 0.000000 0.000000
# 2 -0.007767 0.012768 -0.004753 0.000000 0.000000 0.000000
# 3 -0.008228 -0.004753 0.014386 0.000000 0.000000 0.000000
# 4 0.000000 0.000000 0.000000 0.051064 0.000000 0.000000
# 5 0.000000 0.000000 0.000000 0.000000 0.058046 0.000000
# 6 0.000000 0.000000 0.000000 0.000000 0.000000 0.029790
#
#
# Mechanical properties :
#
#
# Convention : Reuss Voigt Hill
#
# Bulk Modulus (GPa) = 46.00662 66.22160 56.11411
# Shear Modulus (GPa) = 19.93017 23.37939 21.65478
#
# Velocity S-wave (km/s) = 3.45961 3.74704 3.60619
# Velocity P-wave (km/s) = 6.60207 7.64782 7.14411
#
# Compressibility (1/GPa) = 0.02173600
#
# Stress axis : x y z
#
# Youngs Moduli (GPa) = 27.71635 78.32371 69.51270
#
# Poissons Ratio (x) = 0.60833 0.57198
# Poissons Ratio (y) = 0.21527 0.33042
# Poissons Ratio (z) = 0.22806 0.37230
#
# Static dielectric constant tensor:
#      x y z
#    x 2.876770 0.000000 0.000000 
#    y 0.000000 3.218550 0.000000 
#    z 0.000000 0.000000 3.411110 
# 
# 
# High freq. dielectric constant tensor:
#      x y z
#    x 1.617620 0.000000 0.000000 
#    y 0.000000 1.636400 0.000000 
#    z 0.000000 0.000000 1.638990 
# 
# From -- ./inp_files/21746.got.cif
#   From: 2010.03.12/outbox.cif.g09.slc.cpg/sg47_11_cif.got.tgz:21746.got - 2010.04.14 03:12:58.
