data_PCOD8194509
_publ_section_title
;
Structure prediction by ZEFSAII (Michael W. Deem and Ramdas Pophale) SiO2 
 PCOD8194509
Probable space group: P M M M
;
_chemical_formula_sum "Si O2"
_cell_formula_units_Z 48
_cell_length_a 14.475618
_cell_length_b 9.246320
_cell_length_c 20.401659
_cell_angle_alpha 90.000000
_cell_angle_beta 90.000000
_cell_angle_gamma 90.000000
_cell_volume 2730.684454
_symmetry_space_group_name_H-M "P M M M"
_symmetry_group_IT_number 47
_symmetry_cell_setting 'orthorhombic'
loop_
_space_group_symop_operation_xyz
x,y,z
-x,-y,z
x,-y,-z
-x,y,-z
-x,-y,-z
x,y,-z
-x,y,z
x,-y,z
loop_
_atom_site_type_symbol
_atom_site_label
_atom_site_fract_x
_atom_site_fract_y
_atom_site_fract_z
Si Si1 0.105453 0.667189 0.925126
Si Si2 0.222988 0.665974 0.573687
Si Si3 0.395482 0.831796 0.613997
Si Si4 0.107588 0.169317 0.681726
Si Si5 0.400312 0.171437 0.236402
Si Si6 0.790988 0.828875 0.186225
O O1 0.117495 0.500000 0.907116
O O2 0.170638 0.760923 0.879597
O O3 0.000000 0.715545 0.914032
O O4 0.134687 0.695827 0.000000
O O5 0.183030 0.677454 0.500000
O O6 0.230965 0.500000 0.596084
O O7 0.324673 0.736599 0.572592
O O8 0.153627 0.747654 0.621764
O O9 0.500000 0.804436 0.589054
O O10 0.384965 0.780514 0.688950
O O11 0.369452 0.000000 0.606192
O O12 0.151121 0.221650 0.750411
O O13 0.000000 0.207293 0.683400
O O14 0.126011 0.000000 0.671232
O O15 0.500000 0.231409 0.210627
O O16 0.314800 0.227679 0.193079
O O17 0.402704 0.000000 0.234791
O O18 0.796156 0.000000 0.178938
#
# Coordination Sequence:
#
# PCOD8194509 Si02
#       6
#     8   8   8   8   8   8
#     4   9  19  35  52  73 106 145 178 207 246 300
#     4  11  24  38  51  71 103 140 174 214 264 315
#     4   9  17  33  57  79 100 131 171 213 259 312
#     4  10  21  37  56  78 102 129 169 221 269 313
#     4   8  14  27  50  78 105 131 160 201 253 303
#     4  10  18  31  55  83 107 130 164 213 259 299
#
# _framework density 17.578009999999999
#
# number of rings (size 3 to 8) (size 9 to 14) (size 15 to 20)
#    0.000    2.500    1.667    2.500    0.000    4.667 
#    0.000    4.167    0.000    1.000    0.000    3.500 
#    0.000    0.000    0.000    0.000    0.000    0.000 
#
# Total GULP energy -595071.986669 kJ/mol
# GULP energy per Si atom -12397.333056 kJ/mol
# Density = 1.753800 g / cm^3
# Si number density = 17.578010 Si / 1000 Ang^3
#
#
#
# Elastic Constant Matrix: (Units=GPa)
#
#
# Indices 1 2 3 4 5 6 
#
# 1 131.9144 46.3802 61.8308 0.0000 0.0000 0.0000
# 2 46.3802 52.0427 38.2560 0.0000 0.0000 0.0000
# 3 61.8308 38.2560 93.2415 0.0000 0.0000 0.0000
# 4 0.0000 0.0000 0.0000 -45.9973 0.0000 0.0000
# 5 0.0000 0.0000 0.0000 0.0000 27.0947 0.0000
# 6 0.0000 0.0000 0.0000 0.0000 0.0000 18.7753
#
#
#
# Elastic Compliance Matrix: (Units=1/GPa)
#
#
# Indices 1 2 3 4 5 6 
#
# 1 0.012696 -0.007339 -0.005408 0.000000 0.000000 0.000000
# 2 -0.007339 0.031756 -0.008162 0.000000 0.000000 0.000000
# 3 -0.005408 -0.008162 0.017660 0.000000 0.000000 0.000000
# 4 0.000000 0.000000 0.000000 -0.021740 0.000000 0.000000
# 5 0.000000 0.000000 0.000000 0.000000 0.036908 0.000000
# 6 0.000000 0.000000 0.000000 0.000000 0.000000 0.053261
#
#
# Mechanical properties :
#
#
# Convention : Reuss Voigt Hill
#
# Bulk Modulus (GPa) = 49.27839 63.34807 56.31323
# Shear Modulus (GPa) = 27.91391 8.68998 18.30194
#
# Velocity S-wave (km/s) = 3.98930 2.22585 3.23024
# Velocity P-wave (km/s) = 7.02241 6.53623 6.78368
#
# Compressibility (1/GPa) = 0.02029287
#
# Stress axis : x y z
#
# Youngs Moduli (GPa) = 78.76620 31.49044 56.62628
#
# Poissons Ratio (x) = 0.23112 0.30622
# Poissons Ratio (y) = 0.57809 0.46219
# Poissons Ratio (z) = 0.42594 0.25703
#
# Static dielectric constant tensor:
#      x y z
#    x 3.653050 0.000000 0.000000 
#    y 0.000000 3.022270 0.000000 
#    z 0.000000 0.000000 3.104900 
# 
# 
# High freq. dielectric constant tensor:
#      x y z
#    x 1.689740 0.000000 0.000000 
#    y 0.000000 1.657360 0.000000 
#    z 0.000000 0.000000 1.665390 
# 
# From -- ./inp_files/6367.got.cif
#   From: 2010.03.12/outbox.cif.g09.slc.cpg/sg47_4_cif.got.tgz:6367.got - 2010.04.14 03:12:58.
