data_PCOD8194423
_publ_section_title
;
Structure prediction by ZEFSAII (Michael W. Deem and Ramdas Pophale) SiO2 
 PCOD8194423
Probable space group: P M M M
;
_chemical_formula_sum "Si O2"
_cell_formula_units_Z 52
_cell_length_a 16.958518
_cell_length_b 19.119577
_cell_length_c 8.040237
_cell_angle_alpha 90.000000
_cell_angle_beta 90.000000
_cell_angle_gamma 90.000000
_cell_volume 2606.963958
_symmetry_space_group_name_H-M "P M M M"
_symmetry_group_IT_number 47
_symmetry_cell_setting 'orthorhombic'
loop_
_space_group_symop_operation_xyz
x,y,z
-x,-y,z
x,-y,-z
-x,y,-z
-x,-y,-z
x,y,-z
-x,y,z
x,-y,z
loop_
_atom_site_type_symbol
_atom_site_label
_atom_site_fract_x
_atom_site_fract_y
_atom_site_fract_z
Si Si1 0.315264 0.922238 0.193371
Si Si2 0.165480 0.150021 0.306658
Si Si3 0.830630 0.696169 0.811832
Si Si4 0.590404 0.417367 0.000000
Si Si5 0.409998 0.788515 0.194954
Si Si6 0.671523 0.654472 0.313270
Si Si7 0.000000 0.136745 0.681923
Si Si8 0.000000 0.303137 0.317046
O O1 0.234769 0.905550 0.289469
O O2 0.382980 0.867124 0.240984
O O3 0.344025 0.000000 0.244373
O O4 0.295455 0.918051 0.000000
O O5 0.151076 0.168998 0.500000
O O6 0.184555 0.221238 0.210949
O O7 0.083405 0.116245 0.231556
O O8 0.766588 0.653583 0.703473
O O9 0.919818 0.671612 0.772757
O O10 0.811581 0.676974 0.000000
O O11 0.630919 0.391505 0.829944
O O12 0.594885 0.500000 0.000000
O O13 0.500000 0.390382 0.000000
O O14 0.500000 0.781114 0.250484
O O15 0.357818 0.734341 0.297971
O O16 0.399155 0.772557 0.000000
O O17 0.650497 0.626965 0.500000
O O18 0.000000 0.220418 0.674269
O O19 0.000000 0.102084 0.500000
O O20 0.000000 0.336447 0.500000
#
# Coordination Sequence:
#
# PCOD8194423 Si02
#       8
#     8   8   8   4   8   8   4   4
#     4  10  21  35  50  72 105 146 192 244 307 373
#     4  10  18  31  50  73 102 142 190 245 304 360
#     4  11  19  32  54  86 124 162 204 253 306 358
#     4  11  26  48  70  97 134 168 204 252 302 366
#     4  10  20  36  58  83 112 147 194 253 309 364
#     4  12  23  39  65  97 129 166 207 253 307 364
#     4   7  14  27  44  66  97 134 180 235 290 352
#     4   9  17  29  47  82 124 160 198 248 307 361
#
# _framework density 19.946573000000001
#
# number of rings (size 3 to 8) (size 9 to 14) (size 15 to 20)
#    0.000    1.769    3.077    3.462    0.000    2.154 
#    0.000    3.846    0.000    2.308    0.000    3.231 
#    0.000    1.846    0.000    0.000    0.000    0.000 
#
# Total GULP energy -644503.768290 kJ/mol
# GULP energy per Si atom -12394.303236 kJ/mol
# Density = 1.990117 g / cm^3
# Si number density = 19.946573 Si / 1000 Ang^3
#
#
#
# Elastic Constant Matrix: (Units=GPa)
#
#
# Indices 1 2 3 4 5 6 
#
# 1 143.2182 29.9396 36.3425 0.0000 0.0000 0.0000
# 2 29.9396 53.2883 25.2112 0.0000 0.0000 0.0000
# 3 36.3425 25.2112 101.5356 0.0000 0.0000 0.0000
# 4 0.0000 0.0000 0.0000 9.7606 0.0000 0.0000
# 5 0.0000 0.0000 0.0000 0.0000 25.1795 0.0000
# 6 0.0000 0.0000 0.0000 0.0000 0.0000 20.1844
#
#
#
# Elastic Compliance Matrix: (Units=1/GPa)
#
#
# Indices 1 2 3 4 5 6 
#
# 1 0.008271 -0.003678 -0.002047 0.000000 0.000000 0.000000
# 2 -0.003678 0.022900 -0.004369 0.000000 0.000000 0.000000
# 3 -0.002047 -0.004369 0.011666 0.000000 0.000000 0.000000
# 4 0.000000 0.000000 0.000000 0.102453 0.000000 0.000000
# 5 0.000000 0.000000 0.000000 0.000000 0.039715 0.000000
# 6 0.000000 0.000000 0.000000 0.000000 0.000000 0.049543
#
#
# Mechanical properties :
#
#
# Convention : Reuss Voigt Hill
#
# Bulk Modulus (GPa) = 44.15540 53.44762 48.80151
# Shear Modulus (GPa) = 19.06314 24.79481 21.92897
#
# Velocity S-wave (km/s) = 3.09481 3.52953 3.31930
# Velocity P-wave (km/s) = 5.91231 6.59270 6.26175
#
# Compressibility (1/GPa) = 0.02264729
#
# Stress axis : x y z
#
# Youngs Moduli (GPa) = 120.90791 43.66865 85.71659
#
# Poissons Ratio (x) = 0.16063 0.17546
# Poissons Ratio (y) = 0.44475 0.37453
# Poissons Ratio (z) = 0.24750 0.19080
#
# Static dielectric constant tensor:
#      x y z
#    x 3.962270 0.000000 0.000000 
#    y 0.000000 3.183860 0.000000 
#    z 0.000000 0.000000 3.535970 
# 
# 
# High freq. dielectric constant tensor:
#      x y z
#    x 1.800180 0.000000 0.000000 
#    y 0.000000 1.720950 0.000000 
#    z 0.000000 0.000000 1.771440 
# 
# From -- ./inp_files/9619.got.cif
#   From: 2010.03.12/outbox.cif.g09.slc.cpg/sg47_5_cif.got.tgz:9619.got - 2010.04.14 03:12:58.
