data_PCOD8194065
_publ_section_title
;
Structure prediction by ZEFSAII (Michael W. Deem and Ramdas Pophale) SiO2 
 PCOD8194065
Probable space group: P M M M
;
_chemical_formula_sum "Si O2"
_cell_formula_units_Z 36
_cell_length_a 7.967333
_cell_length_b 22.179752
_cell_length_c 11.838113
_cell_angle_alpha 90.000000
_cell_angle_beta 90.000000
_cell_angle_gamma 90.000000
_cell_volume 2091.954027
_symmetry_space_group_name_H-M "P M M M"
_symmetry_group_IT_number 47
_symmetry_cell_setting 'orthorhombic'
loop_
_space_group_symop_operation_xyz
x,y,z
-x,-y,z
x,-y,-z
-x,y,-z
-x,-y,-z
x,y,-z
-x,y,z
x,-y,z
loop_
_atom_site_type_symbol
_atom_site_label
_atom_site_fract_x
_atom_site_fract_y
_atom_site_fract_z
Si Si1 0.000000 0.931675 0.634941
Si Si2 0.300242 0.500000 0.373730
Si Si3 0.315053 0.142989 0.365977
Si Si4 0.699134 0.568028 0.000000
Si Si5 0.193191 0.270800 0.626767
Si Si6 0.301047 0.615256 0.761649
O O1 0.832246 0.899366 0.684029
O O2 0.000000 0.929467 0.500000
O O3 0.000000 0.000000 0.679380
O O4 0.500000 0.500000 0.372545
O O5 0.227751 0.500000 0.500000
O O6 0.232711 0.440773 0.311128
O O7 0.303654 0.140117 0.500000
O O8 0.500000 0.121033 0.324575
O O9 0.292127 0.212363 0.328124
O O10 0.759728 0.604821 0.890136
O O11 0.773913 0.500000 0.000000
O O12 0.500000 0.562367 0.000000
O O13 0.254121 0.289492 0.500000
O O14 0.219791 0.324379 0.714415
O O15 0.000000 0.252257 0.622613
O O16 0.500000 0.620572 0.752980
#
# Coordination Sequence:
#
# PCOD8194065 Si02
#       6
#     4   4   8   4   8   8
#     4   9  16  26  40  62  94 128 163 200 232 270
#     4   9  16  25  40  64  89 109 142 193 238 283
#     4   9  16  27  43  62  88 125 164 199 237 281
#     4   9  16  30  49  67  87 115 151 194 243 297
#     4  10  19  31  45  63  90 121 155 199 249 293
#     4  10  18  29  47  67  86 114 153 195 241 293
#
# _framework density 17.208791000000002
#
# number of rings (size 3 to 8) (size 9 to 14) (size 15 to 20)
#    0.000    2.556    2.222    1.333    0.000    2.667 
#    0.000    3.333    0.000    2.667    0.000    0.000 
#    0.000    0.000    0.000    2.000    0.000   12.889 
#
# Total GULP energy -446270.369580 kJ/mol
# GULP energy per Si atom -12396.399155 kJ/mol
# Density = 1.716962 g / cm^3
# Si number density = 17.208791 Si / 1000 Ang^3
#
#
#
# Elastic Constant Matrix: (Units=GPa)
#
#
# Indices 1 2 3 4 5 6 
#
# 1 85.1781 51.5024 16.8923 0.0000 0.0000 0.0000
# 2 51.5024 125.9852 39.8856 0.0000 0.0000 0.0000
# 3 16.8923 39.8856 84.6142 0.0000 0.0000 0.0000
# 4 0.0000 0.0000 0.0000 3.2573 0.0000 0.0000
# 5 0.0000 0.0000 0.0000 0.0000 9.0955 0.0000
# 6 0.0000 0.0000 0.0000 0.0000 0.0000 25.9334
#
#
#
# Elastic Compliance Matrix: (Units=1/GPa)
#
#
# Indices 1 2 3 4 5 6 
#
# 1 0.015596 -0.006335 -0.000127 0.000000 0.000000 0.000000
# 2 -0.006335 0.011903 -0.004346 0.000000 0.000000 0.000000
# 3 -0.000127 -0.004346 0.013892 0.000000 0.000000 0.000000
# 4 0.000000 0.000000 0.000000 0.307003 0.000000 0.000000
# 5 0.000000 0.000000 0.000000 0.000000 0.109945 0.000000
# 6 0.000000 0.000000 0.000000 0.000000 0.000000 0.038560
#
#
# Mechanical properties :
#
#
# Convention : Reuss Voigt Hill
#
# Bulk Modulus (GPa) = 50.57088 56.92645 53.74867
# Shear Modulus (GPa) = 9.52182 20.15703 14.83943
#
# Velocity S-wave (km/s) = 2.35481 3.42617 2.93971
# Velocity P-wave (km/s) = 6.06992 6.98593 6.54397
#
# Compressibility (1/GPa) = 0.01977422
#
# Stress axis : x y z
#
# Youngs Moduli (GPa) = 64.11925 84.01060 71.98142
#
# Poissons Ratio (x) = 0.53223 0.00916
# Poissons Ratio (y) = 0.40621 0.31285
# Poissons Ratio (z) = 0.00816 0.36513
#
# Static dielectric constant tensor:
#      x y z
#    x 3.186870 0.000000 0.000000 
#    y 0.000000 3.191450 0.000000 
#    z 0.000000 0.000000 2.933590 
# 
# 
# High freq. dielectric constant tensor:
#      x y z
#    x 1.661730 0.000000 0.000000 
#    y 0.000000 1.659930 0.000000 
#    z 0.000000 0.000000 1.608870 
# 
# From -- ./inp_files/15021.got.cif
#   From: 2010.03.12/outbox.cif.g09.slc.cpg/sg47_8_cif.got.tgz:15021.got - 2010.04.14 03:12:58.
