data_PCOD8194110
_publ_section_title
;
Structure prediction by ZEFSAII (Michael W. Deem and Ramdas Pophale) SiO2 
 PCOD8194110
Probable space group: P M M M
;
_chemical_formula_sum "Si O2"
_cell_formula_units_Z 56
_cell_length_a 9.471056
_cell_length_b 18.689962
_cell_length_c 18.683437
_cell_angle_alpha 90.000000
_cell_angle_beta 90.000000
_cell_angle_gamma 90.000000
_cell_volume 3307.223878
_symmetry_space_group_name_H-M "P M M M"
_symmetry_group_IT_number 47
_symmetry_cell_setting 'orthorhombic'
loop_
_space_group_symop_operation_xyz
x,y,z
-x,-y,z
x,-y,-z
-x,y,-z
-x,-y,-z
x,y,-z
-x,y,z
x,-y,z
loop_
_atom_site_type_symbol
_atom_site_label
_atom_site_fract_x
_atom_site_fract_y
_atom_site_fract_z
Si Si1 0.663594 0.347942 0.209117
Si Si2 0.161509 0.580447 0.674566
Si Si3 0.164951 0.285893 0.581446
Si Si4 0.337467 0.080571 0.208063
Si Si5 0.337464 0.790206 0.696525
Si Si6 0.837836 0.697879 0.081338
Si Si7 0.836827 0.863534 0.919228
O O1 0.500000 0.367555 0.200704
O O2 0.737685 0.407878 0.257576
O O3 0.687244 0.270595 0.244351
O O4 0.736145 0.348753 0.131455
O O5 0.183942 0.500000 0.645479
O O6 0.201499 0.635043 0.611068
O O7 0.000000 0.592894 0.699104
O O8 0.217727 0.282644 0.500000
O O9 0.245921 0.225196 0.626112
O O10 0.000000 0.269397 0.587508
O O11 0.500000 0.097566 0.190724
O O12 0.284237 0.135074 0.269394
O O13 0.253751 0.089051 0.134429
O O14 0.316475 0.000000 0.236897
O O15 0.500000 0.794040 0.672725
O O16 0.796341 0.780690 0.088948
O O17 0.000000 0.686182 0.104468
O O18 0.814750 0.672134 0.000000
O O19 0.000000 0.875453 0.900763
O O20 0.804422 0.889159 0.000000
#
# Coordination Sequence:
#
# PCOD8194110 Si02
#       7
#     8   8   8   8   8   8   8
#     4  10  18  29  48  71  95 125 162 203 242 279
#     4   9  18  32  50  73 102 134 160 184 224 279
#     4   9  18  32  52  78 102 125 155 191 230 274
#     4  10  20  33  48  67  94 128 166 207 247 287
#     4   9  18  32  48  69  95 124 160 198 238 284
#     4   9  17  29  46  68  93 123 161 204 247 289
#     4   9  18  31  46  66  94 127 162 202 247 294
#
# _framework density 16.932632000000002
#
# number of rings (size 3 to 8) (size 9 to 14) (size 15 to 20)
#    0.000    2.714    1.429    1.286    0.000    3.143 
#    0.000    4.286    0.000    0.857    0.000   10.000 
#    0.000    0.000    0.000    0.000    0.000    0.000 
#
# Total GULP energy -694433.950782 kJ/mol
# GULP energy per Si atom -12400.606264 kJ/mol
# Density = 1.689409 g / cm^3
# Si number density = 16.932632 Si / 1000 Ang^3
#
#
#
# Elastic Constant Matrix: (Units=GPa)
#
#
# Indices 1 2 3 4 5 6 
#
# 1 67.7266 32.8001 55.6152 0.0000 0.0000 0.0000
# 2 32.8001 77.3211 48.9863 0.0000 0.0000 0.0000
# 3 55.6152 48.9863 117.2704 0.0000 0.0000 0.0000
# 4 0.0000 0.0000 0.0000 19.6097 0.0000 0.0000
# 5 0.0000 0.0000 0.0000 0.0000 24.9351 0.0000
# 6 0.0000 0.0000 0.0000 0.0000 0.0000 21.8247
#
#
#
# Elastic Compliance Matrix: (Units=1/GPa)
#
#
# Indices 1 2 3 4 5 6 
#
# 1 0.025163 -0.004235 -0.010165 0.000000 0.000000 0.000000
# 2 -0.004235 0.018300 -0.005636 0.000000 0.000000 0.000000
# 3 -0.010165 -0.005636 0.015702 0.000000 0.000000 0.000000
# 4 0.000000 0.000000 0.000000 0.050995 0.000000 0.000000
# 5 0.000000 0.000000 0.000000 0.000000 0.040104 0.000000
# 6 0.000000 0.000000 0.000000 0.000000 0.000000 0.045820
#
#
# Mechanical properties :
#
#
# Convention : Reuss Voigt Hill
#
# Bulk Modulus (GPa) = 52.37058 59.68013 56.02536
# Shear Modulus (GPa) = 20.61690 21.60168 21.10929
#
# Velocity S-wave (km/s) = 3.49317 3.57563 3.53464
# Velocity P-wave (km/s) = 6.87500 7.23664 7.05814
#
# Compressibility (1/GPa) = 0.01909469
#
# Stress axis : x y z
#
# Youngs Moduli (GPa) = 39.74092 54.64438 63.68541
#
# Poissons Ratio (x) = 0.23139 0.64734
# Poissons Ratio (y) = 0.16829 0.35894
# Poissons Ratio (z) = 0.40395 0.30798
#
# Static dielectric constant tensor:
#      x y z
#    x 3.145530 0.000000 0.000000 
#    y 0.000000 3.021250 0.000000 
#    z 0.000000 0.000000 3.082560 
# 
# 
# High freq. dielectric constant tensor:
#      x y z
#    x 1.653020 0.000000 0.000000 
#    y 0.000000 1.632470 0.000000 
#    z 0.000000 0.000000 1.641590 
# 
# From -- ./inp_files/9789.got.cif
#   From: 2010.03.12/outbox.cif.g09.slc.cpg/sg47_5_cif.got.tgz:9789.got - 2010.04.14 03:12:58.
