data_PCOD8194299
_publ_section_title
;
Structure prediction by ZEFSAII (Michael W. Deem and Ramdas Pophale) SiO2 
 PCOD8194299
Probable space group: P M M M
;
_chemical_formula_sum "Si O2"
_cell_formula_units_Z 44
_cell_length_a 27.079977
_cell_length_b 9.982761
_cell_length_c 8.989782
_cell_angle_alpha 90.000000
_cell_angle_beta 90.000000
_cell_angle_gamma 90.000000
_cell_volume 2430.234183
_symmetry_space_group_name_H-M "P M M M"
_symmetry_group_IT_number 47
_symmetry_cell_setting 'orthorhombic'
loop_
_space_group_symop_operation_xyz
x,y,z
-x,-y,z
x,-y,-z
-x,y,-z
-x,-y,-z
x,y,-z
-x,y,z
x,-y,z
loop_
_atom_site_type_symbol
_atom_site_label
_atom_site_fract_x
_atom_site_fract_y
_atom_site_fract_z
Si Si1 0.000000 0.845676 0.176460
Si Si2 0.713619 0.344485 0.824971
Si Si3 0.444489 0.000000 0.676454
Si Si4 0.445211 0.500000 0.323461
Si Si5 0.812099 0.658718 0.333206
Si Si6 0.911833 0.654290 0.175802
Si Si7 0.382367 0.251612 0.676457
O O1 0.952990 0.759590 0.231933
O O2 0.000000 0.000000 0.239087
O O3 0.000000 0.851932 0.000000
O O4 0.705032 0.500000 0.782295
O O5 0.764546 0.288832 0.756303
O O6 0.670340 0.254807 0.756122
O O7 0.715831 0.323810 0.000000
O O8 0.413285 0.125471 0.732312
O O9 0.500000 0.000000 0.744473
O O10 0.449091 0.000000 0.500000
O O11 0.500000 0.500000 0.253511
O O12 0.449347 0.500000 0.500000
O O13 0.415316 0.626607 0.266080
O O14 0.811273 0.717932 0.500000
O O15 0.810745 0.500000 0.336720
O O16 0.861574 0.705586 0.250757
O O17 0.925238 0.500000 0.221627
O O18 0.904985 0.661434 0.000000
O O19 0.373606 0.253360 0.500000
#
# Coordination Sequence:
#
# PCOD8194299 Si02
#       7
#     4   8   4   4   8   8   8
#     4   9  17  29  48  73 102 136 170 203 240 288
#     4  10  19  31  49  74 103 131 162 204 253 300
#     4   9  18  32  51  75 101 129 163 204 247 292
#     4   9  16  26  45  73  99 125 161 200 237 284
#     4   9  17  29  48  74 102 129 162 205 252 297
#     4   9  16  28  48  74 101 130 167 207 244 283
#     4  10  18  30  50  74 100 129 163 203 246 292
#
# _framework density 18.105250999999999
#
# number of rings (size 3 to 8) (size 9 to 14) (size 15 to 20)
#    0.000    2.636    0.909    1.909    0.000    6.182 
#    0.000    0.909    2.000    6.545    0.000    0.000 
#    0.000    0.000    0.000    0.000    0.000    0.000 
#
# Total GULP energy -545463.410218 kJ/mol
# GULP energy per Si atom -12396.895687 kJ/mol
# Density = 1.806404 g / cm^3
# Si number density = 18.105251 Si / 1000 Ang^3
#
#
#
# Elastic Constant Matrix: (Units=GPa)
#
#
# Indices 1 2 3 4 5 6 
#
# 1 199.1921 77.1534 52.5020 0.0000 0.0000 0.0000
# 2 77.1534 110.8550 26.4091 0.0000 0.0000 0.0000
# 3 52.5020 26.4091 54.4982 0.0000 0.0000 0.0000
# 4 0.0000 0.0000 0.0000 124.0810 0.0000 0.0000
# 5 0.0000 0.0000 0.0000 0.0000 25.0989 0.0000
# 6 0.0000 0.0000 0.0000 0.0000 0.0000 23.0333
#
#
#
# Elastic Compliance Matrix: (Units=1/GPa)
#
#
# Indices 1 2 3 4 5 6 
#
# 1 0.008241 -0.004346 -0.005833 0.000000 0.000000 0.000000
# 2 -0.004346 0.012490 -0.001866 0.000000 0.000000 0.000000
# 3 -0.005833 -0.001866 0.024873 0.000000 0.000000 0.000000
# 4 0.000000 0.000000 0.000000 0.008059 0.000000 0.000000
# 5 0.000000 0.000000 0.000000 0.000000 0.039842 0.000000
# 6 0.000000 0.000000 0.000000 0.000000 0.000000 0.043415
#
#
# Mechanical properties :
#
#
# Convention : Reuss Voigt Hill
#
# Bulk Modulus (GPa) = 46.48101 75.18606 60.83353
# Shear Modulus (GPa) = 29.72966 48.34137 39.03552
#
# Velocity S-wave (km/s) = 4.05661 5.17283 4.64835
# Velocity P-wave (km/s) = 6.90434 8.79175 7.90458
#
# Compressibility (1/GPa) = 0.02151416
#
# Stress axis : x y z
#
# Youngs Moduli (GPa) = 121.34255 80.06387 40.20449
#
# Poissons Ratio (x) = 0.34796 0.23452
# Poissons Ratio (y) = 0.52736 0.07501
# Poissons Ratio (z) = 0.70782 0.14937
#
# Static dielectric constant tensor:
#      x y z
#    x 3.564500 0.000000 0.000000 
#    y 0.000000 3.211490 0.000000 
#    z 0.000000 0.000000 3.064950 
# 
# 
# High freq. dielectric constant tensor:
#      x y z
#    x 1.719810 0.000000 0.000000 
#    y 0.000000 1.670510 0.000000 
#    z 0.000000 0.000000 1.671400 
# 
# From -- ./inp_files/13704.got.cif
#   From: 2010.03.12/outbox.cif.g09.slc.cpg/sg47_7_cif.got.tgz:13704.got - 2010.04.14 03:12:58.
