data_PCOD8194815
_publ_section_title
;
Structure prediction by ZEFSAII (Michael W. Deem and Ramdas Pophale) SiO2 
 PCOD8194815
Probable space group: P M M M
;
_chemical_formula_sum "Si O2"
_cell_formula_units_Z 48
_cell_length_a 21.477256
_cell_length_b 12.520641
_cell_length_c 11.854764
_cell_angle_alpha 90.000000
_cell_angle_beta 90.000000
_cell_angle_gamma 90.000000
_cell_volume 3187.852875
_symmetry_space_group_name_H-M "P M M M"
_symmetry_group_IT_number 47
_symmetry_cell_setting 'orthorhombic'
loop_
_space_group_symop_operation_xyz
x,y,z
-x,-y,z
x,-y,-z
-x,y,-z
-x,-y,-z
x,y,-z
-x,y,z
x,-y,z
loop_
_atom_site_type_symbol
_atom_site_label
_atom_site_fract_x
_atom_site_fract_y
_atom_site_fract_z
Si Si1 0.928729 0.376998 0.869709
Si Si2 0.778699 0.880573 0.000000
Si Si3 0.633122 0.882620 0.000000
Si Si4 0.152130 0.806118 0.209093
Si Si5 0.500000 0.872773 0.626406
Si Si6 0.621231 0.871969 0.755251
Si Si7 0.745803 0.125540 0.368823
Si Si8 0.928180 0.000000 0.865696
O O1 0.910212 0.500000 0.853573
O O2 0.882681 0.307679 0.792165
O O3 0.000000 0.357926 0.832314
O O4 0.920924 0.342156 0.000000
O O5 0.706290 0.895679 0.000000
O O6 0.798046 0.814345 0.109045
O O7 0.809617 0.000000 0.000000
O O8 0.614137 0.824314 0.117052
O O9 0.601788 0.000000 0.000000
O O10 0.191431 0.817193 0.324363
O O11 0.100391 0.896413 0.193386
O O12 0.500000 0.827778 0.500000
O O13 0.561801 0.829089 0.687068
O O14 0.500000 0.000000 0.626668
O O15 0.684307 0.830984 0.695324
O O16 0.623145 0.000000 0.759619
O O17 0.737970 0.152035 0.500000
O O18 0.753520 0.000000 0.346430
O O19 0.000000 0.000000 0.834627
O O20 0.918123 0.000000 0.000000
#
# Coordination Sequence:
#
# PCOD8194815 Si02
#       8
#     8   4   4   8   4   8   8   4
#     4   9  18  31  46  66  90 113 138 171 215 266
#     4  11  16  24  38  64  89 114 136 171 223 271
#     4   9  16  23  36  54  82 108 135 175 220 263
#     4  12  17  28  45  63  88 113 139 176 217 261
#     4   9  16  25  35  47  71 110 156 191 210 234
#     4   9  16  25  37  54  77 109 145 183 217 251
#     4  10  19  29  42  60  84 114 149 182 215 258
#     4  11  20  26  39  67  91 106 132 172 220 266
#
# _framework density 15.057157
#
# number of rings (size 3 to 8) (size 9 to 14) (size 15 to 20)
#    0.000    2.000    5.000    1.500    0.000    3.667 
#    0.000    1.667    0.000    3.000    0.000    1.167 
#    0.000    0.000    0.000    0.750    0.000    9.583 
#
# Total GULP energy -594986.880097 kJ/mol
# GULP energy per Si atom -12395.560002 kJ/mol
# Density = 1.502289 g / cm^3
# Si number density = 15.057157 Si / 1000 Ang^3
#
#
#
# Elastic Constant Matrix: (Units=GPa)
#
#
# Indices 1 2 3 4 5 6 
#
# 1 105.5900 27.5307 57.3064 0.0000 0.0000 0.0000
# 2 27.5307 43.5127 20.4983 0.0000 0.0000 0.0000
# 3 57.3064 20.4983 112.9238 0.0000 0.0000 0.0000
# 4 0.0000 0.0000 0.0000 10.3280 0.0000 0.0000
# 5 0.0000 0.0000 0.0000 0.0000 -38.7986 0.0000
# 6 0.0000 0.0000 0.0000 0.0000 0.0000 9.2075
#
#
#
# Elastic Compliance Matrix: (Units=1/GPa)
#
#
# Indices 1 2 3 4 5 6 
#
# 1 0.014464 -0.006226 -0.006210 0.000000 0.000000 0.000000
# 2 -0.006226 0.027811 -0.001889 0.000000 0.000000 0.000000
# 3 -0.006210 -0.001889 0.012350 0.000000 0.000000 0.000000
# 4 0.000000 0.000000 0.000000 0.096824 0.000000 0.000000
# 5 0.000000 0.000000 0.000000 0.000000 -0.025774 0.000000
# 6 0.000000 0.000000 0.000000 0.000000 0.000000 0.108608
#
#
# Mechanical properties :
#
#
# Convention : Reuss Voigt Hill
#
# Bulk Modulus (GPa) = 38.49834 52.52191 45.51013
# Shear Modulus (GPa) = 18.41007 6.59347 12.50177
#
# Velocity S-wave (km/s) = 3.50048 2.09487 2.88460
# Velocity P-wave (km/s) = 6.47776 6.38817 6.43312
#
# Compressibility (1/GPa) = 0.02597514
#
# Stress axis : x y z
#
# Youngs Moduli (GPa) = 69.13543 35.95718 80.97240
#
# Poissons Ratio (x) = 0.22387 0.50285
# Poissons Ratio (y) = 0.43045 0.15293
# Poissons Ratio (z) = 0.42934 0.06791
#
# Static dielectric constant tensor:
#      x y z
#    x 2.981280 0.000000 0.000000 
#    y 0.000000 2.405660 0.000000 
#    z 0.000000 0.000000 2.968830 
# 
# 
# High freq. dielectric constant tensor:
#      x y z
#    x 1.589410 0.000000 0.000000 
#    y 0.000000 1.505410 0.000000 
#    z 0.000000 0.000000 1.569820 
# 
# From -- ./inp_files/19121.got.cif
#   From: 2010.03.12/outbox.cif.g09.slc.cpg/sg47_10_cif.got.tgz:19121.got - 2010.04.14 03:12:58.
