data_PCOD8194312
_publ_section_title
;
Structure prediction by ZEFSAII (Michael W. Deem and Ramdas Pophale) SiO2 
 PCOD8194312
Probable space group: P M M M
;
_chemical_formula_sum "Si O2"
_cell_formula_units_Z 44
_cell_length_a 14.243135
_cell_length_b 17.851902
_cell_length_c 9.648818
_cell_angle_alpha 90.000000
_cell_angle_beta 90.000000
_cell_angle_gamma 90.000000
_cell_volume 2453.376491
_symmetry_space_group_name_H-M "P M M M"
_symmetry_group_IT_number 47
_symmetry_cell_setting 'orthorhombic'
loop_
_space_group_symop_operation_xyz
x,y,z
-x,-y,z
x,-y,-z
-x,y,-z
-x,-y,-z
x,y,-z
-x,y,z
x,-y,z
loop_
_atom_site_type_symbol
_atom_site_label
_atom_site_fract_x
_atom_site_fract_y
_atom_site_fract_z
Si Si1 0.896885 0.911058 0.845372
Si Si2 0.605092 0.500000 0.663923
Si Si3 0.603660 0.779533 0.663372
Si Si4 0.272007 0.085238 0.661381
Si Si5 0.726439 0.358738 0.335256
Si Si6 0.892597 0.412917 0.840078
O O1 0.819111 0.881766 0.738966
O O2 0.000000 0.880382 0.802188
O O3 0.898898 0.000000 0.841864
O O4 0.871668 0.883014 0.000000
O O5 0.500000 0.500000 0.728238
O O6 0.597064 0.500000 0.500000
O O7 0.660632 0.573111 0.714128
O O8 0.595286 0.770064 0.500000
O O9 0.500000 0.769765 0.729996
O O10 0.640549 0.862420 0.702008
O O11 0.675115 0.716497 0.717653
O O12 0.248439 0.090179 0.500000
O O13 0.296571 0.000000 0.705594
O O14 0.744039 0.359496 0.500000
O O15 0.826314 0.363607 0.258631
O O16 0.878536 0.500000 0.803968
O O17 0.000000 0.389216 0.810963
O O18 0.866873 0.397706 0.000000
#
# Coordination Sequence:
#
# PCOD8194312 Si02
#       6
#     8   4   8   8   8   8
#     4   8  14  26  45  68  93 121 152 188 235 289
#     4   9  16  26  44  71  96 118 151 193 232 275
#     4   9  18  32  49  70  98 129 159 199 250 293
#     4   9  17  29  47  71  95 123 163 205 243 287
#     4  10  18  30  50  75  98 124 161 202 238 276
#     4   9  18  33  52  73 100 134 164 191 233 287
#
# _framework density 17.934467999999999
#
# number of rings (size 3 to 8) (size 9 to 14) (size 15 to 20)
#    0.000    3.000    0.909    1.636    0.000    3.273 
#    0.000    6.364    0.000    9.818    0.000    2.545 
#    0.000    0.000    0.000    0.000    0.000    0.000 
#
# Total GULP energy -545411.235259 kJ/mol
# GULP energy per Si atom -12395.709892 kJ/mol
# Density = 1.789365 g / cm^3
# Si number density = 17.934468 Si / 1000 Ang^3
#
#
#
# Elastic Constant Matrix: (Units=GPa)
#
#
# Indices 1 2 3 4 5 6 
#
# 1 151.2969 60.7729 53.4047 0.0000 0.0000 0.0000
# 2 60.7729 91.5324 29.1870 0.0000 0.0000 0.0000
# 3 53.4047 29.1870 44.7394 0.0000 0.0000 0.0000
# 4 0.0000 0.0000 0.0000 12.0461 0.0000 0.0000
# 5 0.0000 0.0000 0.0000 0.0000 7.5384 0.0000
# 6 0.0000 0.0000 0.0000 0.0000 0.0000 25.3570
#
#
#
# Elastic Compliance Matrix: (Units=1/GPa)
#
#
# Indices 1 2 3 4 5 6 
#
# 1 0.012776 -0.004570 -0.012269 0.000000 0.000000 0.000000
# 2 -0.004570 0.015430 -0.004610 0.000000 0.000000 0.000000
# 3 -0.012269 -0.004610 0.040005 0.000000 0.000000 0.000000
# 4 0.000000 0.000000 0.000000 0.083014 0.000000 0.000000
# 5 0.000000 0.000000 0.000000 0.000000 0.132655 0.000000
# 6 0.000000 0.000000 0.000000 0.000000 0.000000 0.039437
#
#
# Mechanical properties :
#
#
# Convention : Reuss Voigt Hill
#
# Bulk Modulus (GPa) = 39.50860 63.81086 51.65973
# Shear Modulus (GPa) = 13.34570 18.60190 15.97380
#
# Velocity S-wave (km/s) = 2.73085 3.22408 2.98766
# Velocity P-wave (km/s) = 5.65868 7.03682 6.38504
#
# Compressibility (1/GPa) = 0.02531094
#
# Stress axis : x y z
#
# Youngs Moduli (GPa) = 78.27144 64.80979 24.99713
#
# Poissons Ratio (x) = 0.29621 0.30669
# Poissons Ratio (y) = 0.35774 0.11525
# Poissons Ratio (z) = 0.96030 0.29880
#
# Static dielectric constant tensor:
#      x y z
#    x 3.595600 0.000000 0.000000 
#    y 0.000000 3.204310 0.000000 
#    z 0.000000 0.000000 3.050120 
# 
# 
# High freq. dielectric constant tensor:
#      x y z
#    x 1.702350 0.000000 0.000000 
#    y 0.000000 1.678770 0.000000 
#    z 0.000000 0.000000 1.657190 
# 
# From -- ./inp_files/6209.got.cif
#   From: 2010.03.12/outbox.cif.g09.slc.cpg/sg47_4_cif.got.tgz:6209.got - 2010.04.14 03:12:58.
