data_PCOD8194211
_publ_section_title
;
Structure prediction by ZEFSAII (Michael W. Deem and Ramdas Pophale) SiO2 
 PCOD8194211
Probable space group: P M M M
;
_chemical_formula_sum "Si O2"
_cell_formula_units_Z 48
_cell_length_a 10.087248
_cell_length_b 12.070068
_cell_length_c 22.254912
_cell_angle_alpha 90.000000
_cell_angle_beta 90.000000
_cell_angle_gamma 90.000000
_cell_volume 2709.619421
_symmetry_space_group_name_H-M "P M M M"
_symmetry_group_IT_number 47
_symmetry_cell_setting 'orthorhombic'
loop_
_space_group_symop_operation_xyz
x,y,z
-x,-y,z
x,-y,-z
-x,y,-z
-x,-y,-z
x,y,-z
-x,y,z
x,-y,z
loop_
_atom_site_type_symbol
_atom_site_label
_atom_site_fract_x
_atom_site_fract_y
_atom_site_fract_z
Si Si1 0.646633 0.758226 0.931434
Si Si2 0.158267 0.733651 0.612331
Si Si3 0.256521 0.000000 0.933222
Si Si4 0.849191 0.000000 0.806238
Si Si5 0.845318 0.371853 0.152228
Si Si6 0.157787 0.500000 0.567472
Si Si7 0.157997 0.875014 0.500000
Si Si8 0.155948 0.784422 0.743158
O O1 0.500000 0.723390 0.908370
O O2 0.654320 0.891033 0.925814
O O3 0.760671 0.696068 0.895465
O O4 0.665382 0.721211 0.000000
O O5 0.210305 0.609048 0.601377
O O6 0.211715 0.813492 0.559567
O O7 0.216897 0.773788 0.676345
O O8 0.000000 0.735116 0.612932
O O9 0.151928 0.000000 0.878725
O O10 0.187836 0.000000 0.000000
O O11 0.780658 0.109476 0.777655
O O12 0.000000 0.000000 0.785945
O O13 0.805311 0.500000 0.150455
O O14 0.813079 0.326089 0.218719
O O15 0.000000 0.353988 0.136319
O O16 0.214210 0.500000 0.500000
O O17 0.000000 0.500000 0.565476
O O18 0.000000 0.873545 0.500000
O O19 0.212886 0.000000 0.500000
O O20 0.000000 0.800652 0.737384
#
# Coordination Sequence:
#
# PCOD8194211 Si02
#       8
#     8   8   4   4   8   4   4   8
#     4  10  21  37  57  79 102 130 165 205 252 305
#     4   9  16  24  35  52  76 113 156 199 242 285
#     4  10  19  33  54  77  99 123 157 205 256 302
#     4  10  18  30  47  69  96 126 164 206 249 305
#     4  10  21  36  52  73 102 134 170 210 250 296
#     4   9  14  22  34  50  74 106 154 207 244 280
#     4   9  16  23  31  47  75 108 150 199 242 282
#     4   9  18  29  43  63  90 124 162 202 248 299
#
# _framework density 17.714665
#
# number of rings (size 3 to 8) (size 9 to 14) (size 15 to 20)
#    0.000    2.500    2.500    0.250    2.333    2.167 
#    0.000    3.333    0.000    0.000    0.000    0.000 
#    0.000    0.000    0.000    0.750    0.000    7.333 
#
# Total GULP energy -594895.593135 kJ/mol
# GULP energy per Si atom -12393.658190 kJ/mol
# Density = 1.767435 g / cm^3
# Si number density = 17.714665 Si / 1000 Ang^3
#
#
#
# Elastic Constant Matrix: (Units=GPa)
#
#
# Indices 1 2 3 4 5 6 
#
# 1 31.2273 26.4422 27.6877 0.0000 0.0000 0.0000
# 2 26.4422 147.6498 79.1998 0.0000 0.0000 0.0000
# 3 27.6877 79.1998 156.8584 0.0000 0.0000 0.0000
# 4 0.0000 0.0000 0.0000 30.8541 0.0000 0.0000
# 5 0.0000 0.0000 0.0000 0.0000 1.2955 0.0000
# 6 0.0000 0.0000 0.0000 0.0000 0.0000 10.2178
#
#
#
# Elastic Compliance Matrix: (Units=1/GPa)
#
#
# Indices 1 2 3 4 5 6 
#
# 1 0.040165 -0.004649 -0.004742 0.000000 0.000000 0.000000
# 2 -0.004649 0.009827 -0.004141 0.000000 0.000000 0.000000
# 3 -0.004742 -0.004141 0.009303 0.000000 0.000000 0.000000
# 4 0.000000 0.000000 0.000000 0.032411 0.000000 0.000000
# 5 0.000000 0.000000 0.000000 0.000000 0.771924 0.000000
# 6 0.000000 0.000000 0.000000 0.000000 0.000000 0.097868
#
#
# Mechanical properties :
#
#
# Convention : Reuss Voigt Hill
#
# Bulk Modulus (GPa) = 31.02734 66.93275 48.98005
# Shear Modulus (GPa) = 5.00348 21.96719 13.48533
#
# Velocity S-wave (km/s) = 1.68244 3.52526 2.76207
# Velocity P-wave (km/s) = 4.61814 7.37806 6.15480
#
# Compressibility (1/GPa) = 0.03222964
#
# Stress axis : x y z
#
# Youngs Moduli (GPa) = 24.89750 101.76453 107.49183
#
# Poissons Ratio (x) = 0.47313 0.50974
# Poissons Ratio (y) = 0.11576 0.44511
# Poissons Ratio (z) = 0.11807 0.42140
#
# Static dielectric constant tensor:
#      x y z
#    x 2.608320 0.000000 0.000000 
#    y 0.000000 3.542930 0.000000 
#    z 0.000000 0.000000 3.525440 
# 
# 
# High freq. dielectric constant tensor:
#      x y z
#    x 1.602510 0.000000 0.000000 
#    y 0.000000 1.700520 0.000000 
#    z 0.000000 0.000000 1.696990 
# 
# From -- ./inp_files/30466.got.cif
#   From: 2010.03.12/outbox.cif.g09.slc.cpg/sg47_16_cif.got.tgz:30466.got - 2010.04.14 03:12:58.
