data_PCOD8194945
_publ_section_title
;
Structure prediction by ZEFSAII (Michael W. Deem and Ramdas Pophale) SiO2 
 PCOD8194945
Probable space group: P M M M
;
_chemical_formula_sum "Si O2"
_cell_formula_units_Z 52
_cell_length_a 9.719858
_cell_length_b 24.904391
_cell_length_c 13.798614
_cell_angle_alpha 90.000000
_cell_angle_beta 90.000000
_cell_angle_gamma 90.000000
_cell_volume 3340.191083
_symmetry_space_group_name_H-M "P M M M"
_symmetry_group_IT_number 47
_symmetry_cell_setting 'orthorhombic'
loop_
_space_group_symop_operation_xyz
x,y,z
-x,-y,z
x,-y,-z
-x,y,-z
-x,-y,-z
x,y,-z
-x,y,z
x,-y,z
loop_
_atom_site_type_symbol
_atom_site_label
_atom_site_fract_x
_atom_site_fract_y
_atom_site_fract_z
Si Si1 0.248052 0.871834 0.384707
Si Si2 0.500000 0.939201 0.384281
Si Si3 0.162770 0.655485 0.259694
Si Si4 0.841659 0.500000 0.114223
Si Si5 0.839508 0.242534 0.389730
Si Si6 0.000000 0.059947 0.615866
Si Si7 0.338899 0.397329 0.114225
Si Si8 0.162043 0.440857 0.392373
O O1 0.242974 0.871525 0.500000
O O2 0.376543 0.903893 0.343481
O O3 0.242548 0.809778 0.350942
O O4 0.126326 0.907149 0.341805
O O5 0.500000 0.942497 0.500000
O O6 0.500000 0.000000 0.342459
O O7 0.196476 0.709253 0.318170
O O8 0.261239 0.653316 0.164888
O O9 0.217811 0.605849 0.324110
O O10 0.000000 0.651615 0.233287
O O11 0.752979 0.551486 0.146951
O O12 0.000000 0.500000 0.158541
O O13 0.856960 0.500000 0.000000
O O14 0.796934 0.258062 0.500000
O O15 0.000000 0.228156 0.387476
O O16 0.000000 0.057427 0.500000
O O17 0.000000 0.000000 0.658753
O O18 0.500000 0.403450 0.145727
O O19 0.331584 0.388080 0.000000
O O20 0.226426 0.434919 0.500000
O O21 0.199264 0.500000 0.349226
O O22 0.000000 0.434208 0.401532
#
# Coordination Sequence:
#
# PCOD8194945 Si02
#       8
#     8   4   8   4   8   4   8   8
#     4   9  15  24  36  52  76 109 145 184 223 257
#     4   9  16  24  34  52  78 106 142 188 229 260
#     4  10  19  29  47  70  87 112 152 191 223 261
#     4   9  17  31  53  75  90 107 134 169 209 262
#     4   9  16  28  44  62  87 117 154 194 228 262
#     4   9  14  20  34  54  74 102 142 182 217 254
#     4  10  21  36  50  67  94 121 142 171 222 280
#     4   8  14  25  41  63  89 112 139 179 222 258
#
# _framework density 15.567971999999999
#
# number of rings (size 3 to 8) (size 9 to 14) (size 15 to 20)
#    0.000    2.846    0.769    2.077    1.077    5.538 
#    1.385    0.000    0.000    1.385    0.000    1.077 
#    0.000    0.000    0.000    0.000    0.000    4.615 
#
# Total GULP energy -644248.154319 kJ/mol
# GULP energy per Si atom -12389.387583 kJ/mol
# Density = 1.553254 g / cm^3
# Si number density = 15.567972 Si / 1000 Ang^3
#
#
#
# Elastic Constant Matrix: (Units=GPa)
#
#
# Indices 1 2 3 4 5 6 
#
# 1 106.7399 60.2620 28.5335 0.0000 0.0000 0.0000
# 2 60.2620 132.5948 37.7365 0.0000 0.0000 0.0000
# 3 28.5335 37.7365 33.6550 0.0000 0.0000 0.0000
# 4 0.0000 0.0000 0.0000 8.2952 0.0000 0.0000
# 5 0.0000 0.0000 0.0000 0.0000 16.4489 0.0000
# 6 0.0000 0.0000 0.0000 0.0000 0.0000 25.0334
#
#
#
# Elastic Compliance Matrix: (Units=1/GPa)
#
#
# Indices 1 2 3 4 5 6 
#
# 1 0.013569 -0.004249 -0.006740 0.000000 0.000000 0.000000
# 2 -0.004249 0.012407 -0.010309 0.000000 0.000000 0.000000
# 3 -0.006740 -0.010309 0.046987 0.000000 0.000000 0.000000
# 4 0.000000 0.000000 0.000000 0.120551 0.000000 0.000000
# 5 0.000000 0.000000 0.000000 0.000000 0.060794 0.000000
# 6 0.000000 0.000000 0.000000 0.000000 0.000000 0.039947
#
#
# Mechanical properties :
#
#
# Convention : Reuss Voigt Hill
#
# Bulk Modulus (GPa) = 32.93076 58.45041 45.69058
# Shear Modulus (GPa) = 14.41032 19.71935 17.06484
#
# Velocity S-wave (km/s) = 3.04573 3.56288 3.31441
# Velocity P-wave (km/s) = 5.79374 7.38595 6.63776
#
# Compressibility (1/GPa) = 0.03036675
#
# Stress axis : x y z
#
# Youngs Moduli (GPa) = 73.69755 80.60160 21.28236
#
# Poissons Ratio (x) = 0.34244 0.14345
# Poissons Ratio (y) = 0.31311 0.21941
# Poissons Ratio (z) = 0.49674 0.83094
#
# Static dielectric constant tensor:
#      x y z
#    x 2.957090 0.000000 0.000000 
#    y 0.000000 3.075270 0.000000 
#    z 0.000000 0.000000 2.713190 
# 
# 
# High freq. dielectric constant tensor:
#      x y z
#    x 1.586070 0.000000 0.000000 
#    y 0.000000 1.598210 0.000000 
#    z 0.000000 0.000000 1.545600 
# 
# From -- ./inp_files/21837.got.cif
#   From: 2010.03.12/outbox.cif.g09.slc.cpg/sg47_11_cif.got.tgz:21837.got - 2010.04.14 03:12:58.
