data_PCOD8194916
_publ_section_title
;
Structure prediction by ZEFSAII (Michael W. Deem and Ramdas Pophale) SiO2 
 PCOD8194916
Probable space group: P M M M
;
_chemical_formula_sum "Si O2"
_cell_formula_units_Z 44
_cell_length_a 14.116417
_cell_length_b 9.174747
_cell_length_c 20.966357
_cell_angle_alpha 90.000000
_cell_angle_beta 90.000000
_cell_angle_gamma 90.000000
_cell_volume 2715.448387
_symmetry_space_group_name_H-M "P M M M"
_symmetry_group_IT_number 47
_symmetry_cell_setting 'orthorhombic'
loop_
_space_group_symop_operation_xyz
x,y,z
-x,-y,z
x,-y,-z
-x,y,-z
-x,-y,-z
x,y,-z
-x,y,z
x,-y,z
loop_
_atom_site_type_symbol
_atom_site_label
_atom_site_fract_x
_atom_site_fract_y
_atom_site_fract_z
Si Si1 0.612025 0.336104 0.500000
Si Si2 0.892124 0.328550 0.192326
Si Si3 0.230171 0.326844 0.687008
Si Si4 0.389816 0.829311 0.372998
Si Si5 0.112505 0.164233 0.069689
Si Si6 0.894285 0.327771 0.570344
O O1 0.656524 0.500000 0.500000
O O2 0.500000 0.347058 0.500000
O O3 0.645380 0.249738 0.437532
O O4 0.890358 0.500000 0.185073
O O5 0.826325 0.277077 0.250309
O O6 0.848485 0.263239 0.127100
O O7 0.000000 0.274660 0.204878
O O8 0.246631 0.500000 0.685557
O O9 0.330936 0.243282 0.685083
O O10 0.172079 0.266787 0.626009
O O11 0.500000 0.800107 0.359347
O O12 0.368630 0.000000 0.379105
O O13 0.000000 0.170307 0.069906
O O14 0.148135 0.000000 0.081039
O O15 0.148918 0.219771 0.000000
O O16 0.853600 0.285993 0.500000
O O17 0.900810 0.500000 0.577595
O O18 0.000000 0.262449 0.578309
#
# Coordination Sequence:
#
# PCOD8194916 Si02
#       6
#     4   8   8   8   8   8
#     4   9  17  31  51  69  82 101 134 177 225 276
#     4   9  17  28  42  64  95 125 152 185 222 261
#     4  10  19  29  45  67  89 115 151 188 221 264
#     4  10  21  35  48  64  88 115 143 181 231 280
#     4   8  14  25  41  61  86 118 155 189 218 254
#     4   8  14  25  41  61  84 110 144 184 219 252
#
# _framework density 16.203583999999999
#
# number of rings (size 3 to 8) (size 9 to 14) (size 15 to 20)
#    0.000    3.000    0.000    2.455    1.273    5.455 
#    0.000    1.818    0.000    1.636    0.000    1.273 
#    0.000    0.727    0.000    8.000    0.000    6.182 
#
# Total GULP energy -545356.565575 kJ/mol
# GULP energy per Si atom -12394.467399 kJ/mol
# Density = 1.616670 g / cm^3
# Si number density = 16.203584 Si / 1000 Ang^3
#
#
#
# Elastic Constant Matrix: (Units=GPa)
#
#
# Indices 1 2 3 4 5 6 
#
# 1 57.1868 32.6765 54.6057 0.0000 0.0000 0.0000
# 2 32.6765 53.6917 46.8662 0.0000 0.0000 0.0000
# 3 54.6057 46.8662 140.4143 0.0000 0.0000 0.0000
# 4 0.0000 0.0000 0.0000 24.4164 0.0000 0.0000
# 5 0.0000 0.0000 0.0000 0.0000 12.9358 0.0000
# 6 0.0000 0.0000 0.0000 0.0000 0.0000 16.4916
#
#
#
# Elastic Compliance Matrix: (Units=1/GPa)
#
#
# Indices 1 2 3 4 5 6 
#
# 1 0.032827 -0.012467 -0.008605 0.000000 0.000000 0.000000
# 2 -0.012467 0.031017 -0.005504 0.000000 0.000000 0.000000
# 3 -0.008605 -0.005504 0.012305 0.000000 0.000000 0.000000
# 4 0.000000 0.000000 0.000000 0.040956 0.000000 0.000000
# 5 0.000000 0.000000 0.000000 0.000000 0.077305 0.000000
# 6 0.000000 0.000000 0.000000 0.000000 0.000000 0.060637
#
#
# Mechanical properties :
#
#
# Convention : Reuss Voigt Hill
#
# Bulk Modulus (GPa) = 43.48506 57.73216 50.60861
# Shear Modulus (GPa) = 15.82960 18.57840 17.20400
#
# Velocity S-wave (km/s) = 3.12896 3.38976 3.26197
# Velocity P-wave (km/s) = 6.32051 7.14334 6.74448
#
# Compressibility (1/GPa) = 0.02299641
#
# Stress axis : x y z
#
# Youngs Moduli (GPa) = 30.46298 32.24068 81.26659
#
# Poissons Ratio (x) = 0.40195 0.69928
# Poissons Ratio (y) = 0.37979 0.44730
# Poissons Ratio (z) = 0.26213 0.17746
#
# Static dielectric constant tensor:
#      x y z
#    x 2.947590 0.000000 0.000000 
#    y 0.000000 2.900780 0.000000 
#    z 0.000000 0.000000 3.313110 
# 
# 
# High freq. dielectric constant tensor:
#      x y z
#    x 1.594270 0.000000 0.000000 
#    y 0.000000 1.605100 0.000000 
#    z 0.000000 0.000000 1.615150 
# 
# From -- ./inp_files/6820.got.cif
#   From: 2010.03.12/outbox.cif.g09.slc.cpg/sg47_4_cif.got.tgz:6820.got - 2010.04.14 03:12:58.
