data_PCOD8194149
_publ_section_title
;
Structure prediction by ZEFSAII (Michael W. Deem and Ramdas Pophale) SiO2 
 PCOD8194149
Probable space group: P M M M
;
_chemical_formula_sum "Si O2"
_cell_formula_units_Z 56
_cell_length_a 19.654600
_cell_length_b 15.228900
_cell_length_c 9.557432
_cell_angle_alpha 90.000000
_cell_angle_beta 90.000000
_cell_angle_gamma 90.000000
_cell_volume 2860.710838
_symmetry_space_group_name_H-M "P M M M"
_symmetry_group_IT_number 47
_symmetry_cell_setting 'orthorhombic'
loop_
_space_group_symop_operation_xyz
x,y,z
-x,-y,z
x,-y,-z
-x,y,-z
-x,-y,-z
x,y,-z
-x,y,z
x,-y,z
loop_
_atom_site_type_symbol
_atom_site_label
_atom_site_fract_x
_atom_site_fract_y
_atom_site_fract_z
Si Si1 0.921714 0.256471 0.162687
Si Si2 0.698401 0.856307 0.660152
Si Si3 0.154067 0.599893 0.661930
Si Si4 0.575406 0.854956 0.843210
Si Si5 0.697561 0.351947 0.658382
Si Si6 0.574871 0.646225 0.843012
Si Si7 0.174172 0.098022 0.159209
O O1 0.895238 0.339154 0.249216
O O2 0.882505 0.167887 0.206612
O O3 0.000000 0.240659 0.200055
O O4 0.911308 0.278110 0.000000
O O5 0.698447 0.888061 0.500000
O O6 0.630005 0.892976 0.733768
O O7 0.702243 0.752143 0.672022
O O8 0.762165 0.897401 0.738344
O O9 0.150230 0.629260 0.500000
O O10 0.129500 0.500000 0.681563
O O11 0.231737 0.608721 0.715606
O O12 0.500000 0.888598 0.801043
O O13 0.576775 0.750541 0.839470
O O14 0.593505 0.887443 0.000000
O O15 0.685082 0.382047 0.500000
O O16 0.634760 0.391990 0.746093
O O17 0.500000 0.614297 0.790926
O O18 0.587521 0.611969 0.000000
O O19 0.142729 0.000000 0.169722
O O20 0.197961 0.117842 0.000000
#
# Coordination Sequence:
#
# PCOD8194149 Si02
#       7
#     8   8   8   8   8   8   8
#     4  10  22  40  62  88 116 144 177 223 274 323
#     4  10  18  29  49  76 107 142 182 231 280 324
#     4  10  21  38  59  83 114 151 189 227 270 325
#     4   8  14  25  42  67 101 141 184 228 275 329
#     4   9  17  29  47  73 103 138 182 228 271 317
#     4   8  14  24  40  66  99 136 179 225 273 324
#     4  10  21  37  58  83 111 146 185 222 268 330
#
# _framework density 19.575555000000001
#
# number of rings (size 3 to 8) (size 9 to 14) (size 15 to 20)
#    0.000    2.714    1.429    1.286    0.000    3.143 
#    0.000    5.714    0.000    0.857    0.000    8.000 
#    0.000    0.000    0.000    0.000    0.000    0.000 
#
# Total GULP energy -694267.962398 kJ/mol
# GULP energy per Si atom -12397.642186 kJ/mol
# Density = 1.953100 g / cm^3
# Si number density = 19.575555 Si / 1000 Ang^3
#
#
#
# Elastic Constant Matrix: (Units=GPa)
#
#
# Indices 1 2 3 4 5 6 
#
# 1 152.7973 48.0778 77.5479 0.0000 0.0000 0.0000
# 2 48.0778 68.8805 37.5767 0.0000 0.0000 0.0000
# 3 77.5479 37.5767 97.7718 0.0000 0.0000 0.0000
# 4 0.0000 0.0000 0.0000 15.4011 0.0000 0.0000
# 5 0.0000 0.0000 0.0000 0.0000 31.4751 0.0000
# 6 0.0000 0.0000 0.0000 0.0000 0.0000 -1.4870
#
#
#
# Elastic Compliance Matrix: (Units=1/GPa)
#
#
# Indices 1 2 3 4 5 6 
#
# 1 0.011743 -0.003942 -0.007799 0.000000 0.000000 0.000000
# 2 -0.003942 0.019693 -0.004442 0.000000 0.000000 0.000000
# 3 -0.007799 -0.004442 0.018121 0.000000 0.000000 0.000000
# 4 0.000000 0.000000 0.000000 0.064931 0.000000 0.000000
# 5 0.000000 0.000000 0.000000 0.000000 0.031771 0.000000
# 6 0.000000 0.000000 0.000000 0.000000 0.000000 -0.672496
#
#
# Mechanical properties :
#
#
# Convention : Reuss Voigt Hill
#
# Bulk Modulus (GPa) = 58.17077 71.76160 64.96618
# Shear Modulus (GPa) = -10.24293 19.49431 4.62569
#
# Velocity S-wave (km/s) = -2.28995 3.15913 1.53887
# Velocity P-wave (km/s) = 4.77375 7.07426 6.03465
#
# Compressibility (1/GPa) = 0.01719076
#
# Stress axis : x y z
#
# Youngs Moduli (GPa) = 85.15603 50.78071 55.18480
#
# Poissons Ratio (x) = 0.20017 0.43039
# Poissons Ratio (y) = 0.33568 0.24513
# Poissons Ratio (z) = 0.66414 0.22556
#
# Static dielectric constant tensor:
#      x y z
#    x 3.707550 0.000000 0.000000 
#    y 0.000000 3.337620 0.000000 
#    z 0.000000 0.000000 3.647860 
# 
# 
# High freq. dielectric constant tensor:
#      x y z
#    x 1.762010 0.000000 0.000000 
#    y 0.000000 1.746940 0.000000 
#    z 0.000000 0.000000 1.754570 
# 
# From -- ./inp_files/11202.got.cif
#   From: 2010.03.12/outbox.cif.g09.slc.cpg/sg47_6_cif.got.tgz:11202.got - 2010.04.14 03:12:58.
