data_PCOD8194838
_publ_section_title
;
Structure prediction by ZEFSAII (Michael W. Deem and Ramdas Pophale) SiO2 
 PCOD8194838
Probable space group: P M M M
;
_chemical_formula_sum "Si O2"
_cell_formula_units_Z 56
_cell_length_a 18.806718
_cell_length_b 19.021498
_cell_length_c 9.201648
_cell_angle_alpha 90.000000
_cell_angle_beta 90.000000
_cell_angle_gamma 90.000000
_cell_volume 3291.723471
_symmetry_space_group_name_H-M "P M M M"
_symmetry_group_IT_number 47
_symmetry_cell_setting 'orthorhombic'
loop_
_space_group_symop_operation_xyz
x,y,z
-x,-y,z
x,-y,-z
-x,y,-z
-x,-y,-z
x,y,-z
-x,y,z
x,-y,z
loop_
_atom_site_type_symbol
_atom_site_label
_atom_site_fract_x
_atom_site_fract_y
_atom_site_fract_z
Si Si1 0.850642 0.793337 0.171064
Si Si2 0.918247 0.080741 0.329917
Si Si3 0.209522 0.579233 0.670009
Si Si4 0.584105 0.073703 0.161197
Si Si5 0.079501 0.672384 0.665617
Si Si6 0.282524 0.700248 0.829503
Si Si7 0.579183 0.776371 0.826338
O O1 0.863788 0.869347 0.242912
O O2 0.908941 0.738980 0.230855
O O3 0.772750 0.762449 0.212491
O O4 0.860037 0.801414 0.000000
O O5 0.907389 0.094175 0.500000
O O6 0.000000 0.097297 0.286543
O O7 0.900051 0.000000 0.290596
O O8 0.225597 0.581660 0.500000
O O9 0.215095 0.500000 0.730035
O O10 0.130957 0.608007 0.706443
O O11 0.267090 0.627425 0.749509
O O12 0.500000 0.074529 0.146589
O O13 0.604317 0.147307 0.239441
O O14 0.608116 0.000000 0.241250
O O15 0.617971 0.072407 0.000000
O O16 0.092820 0.697296 0.500000
O O17 0.000000 0.643970 0.687718
O O18 0.361877 0.720604 0.776890
O O19 0.278894 0.685937 0.000000
O O20 0.500000 0.754579 0.770400
O O21 0.577810 0.783321 0.000000
#
# Coordination Sequence:
#
# PCOD8194838 Si02
#       7
#     8   8   8   8   8   8   8
#     4  10  19  29  42  63  93 123 148 179 222 271
#     4   9  18  32  48  64  83 113 157 203 236 260
#     4   9  18  32  49  68  89 115 146 177 213 261
#     4   7   9  14  27  50  79 107 133 163 202 245
#     4   9  17  29  46  67  89 114 145 181 218 255
#     4   9  18  31  46  67  93 118 145 178 219 266
#     4   8  13  23  41  63  86 114 149 186 219 253
#
# _framework density 17.012364999999999
#
# number of rings (size 3 to 8) (size 9 to 14) (size 15 to 20)
#    0.000    3.286    0.000    2.571    0.000    3.714 
#    0.000    2.857    0.000    3.429    0.000    7.000 
#    0.000    0.000    0.000    5.143    0.000    4.000 
#
# Total GULP energy -693771.838547 kJ/mol
# GULP energy per Si atom -12388.782831 kJ/mol
# Density = 1.697364 g / cm^3
# Si number density = 17.012365 Si / 1000 Ang^3
#
#
#
# Elastic Constant Matrix: (Units=GPa)
#
#
# Indices 1 2 3 4 5 6 
#
# 1 97.5063 69.5327 25.7011 0.0000 0.0000 0.0000
# 2 69.5327 148.2619 43.1076 0.0000 0.0000 0.0000
# 3 25.7011 43.1076 37.1135 0.0000 0.0000 0.0000
# 4 0.0000 0.0000 0.0000 24.5472 0.0000 0.0000
# 5 0.0000 0.0000 0.0000 0.0000 13.2819 0.0000
# 6 0.0000 0.0000 0.0000 0.0000 0.0000 19.4584
#
#
#
# Elastic Compliance Matrix: (Units=1/GPa)
#
#
# Indices 1 2 3 4 5 6 
#
# 1 0.015705 -0.006347 -0.003504 0.000000 0.000000 0.000000
# 2 -0.006347 0.012749 -0.010413 0.000000 0.000000 0.000000
# 3 -0.003504 -0.010413 0.041466 0.000000 0.000000 0.000000
# 4 0.000000 0.000000 0.000000 0.040738 0.000000 0.000000
# 5 0.000000 0.000000 0.000000 0.000000 0.075291 0.000000
# 6 0.000000 0.000000 0.000000 0.000000 0.000000 0.051392
#
#
# Mechanical properties :
#
#
# Convention : Reuss Voigt Hill
#
# Bulk Modulus (GPa) = 34.02244 62.17383 48.09814
# Shear Modulus (GPa) = 17.38133 21.09350 19.23741
#
# Velocity S-wave (km/s) = 3.19985 3.52503 3.36637
# Velocity P-wave (km/s) = 5.80467 7.29338 6.59119
#
# Compressibility (1/GPa) = 0.02939236
#
# Stress axis : x y z
#
# Youngs Moduli (GPa) = 63.67284 78.43817 24.11635
#
# Poissons Ratio (x) = 0.49782 0.08451
# Poissons Ratio (y) = 0.40411 0.25112
# Poissons Ratio (z) = 0.22312 0.81676
#
# Static dielectric constant tensor:
#      x y z
#    x 3.103400 0.000000 0.000000 
#    y 0.000000 3.395650 0.000000 
#    z 0.000000 0.000000 2.868020 
# 
# 
# High freq. dielectric constant tensor:
#      x y z
#    x 1.635780 0.000000 0.000000 
#    y 0.000000 1.657950 0.000000 
#    z 0.000000 0.000000 1.619660 
# 
# From -- ./inp_files/11511.got.cif
#   From: 2010.03.12/outbox.cif.g09.slc.cpg/sg47_6_cif.got.tgz:11511.got - 2010.04.14 03:12:58.
