data_PCOD8194836
_publ_section_title
;
Structure prediction by ZEFSAII (Michael W. Deem and Ramdas Pophale) SiO2 
 PCOD8194836
Probable space group: P M M M
;
_chemical_formula_sum "Si O2"
_cell_formula_units_Z 44
_cell_length_a 8.933340
_cell_length_b 21.544689
_cell_length_c 13.941454
_cell_angle_alpha 90.000000
_cell_angle_beta 90.000000
_cell_angle_gamma 90.000000
_cell_volume 2683.256332
_symmetry_space_group_name_H-M "P M M M"
_symmetry_group_IT_number 47
_symmetry_cell_setting 'orthorhombic'
loop_
_space_group_symop_operation_xyz
x,y,z
-x,-y,z
x,-y,-z
-x,y,-z
-x,-y,-z
x,y,-z
-x,y,z
x,-y,z
loop_
_atom_site_type_symbol
_atom_site_label
_atom_site_fract_x
_atom_site_fract_y
_atom_site_fract_z
Si Si1 0.322896 0.637287 0.604971
Si Si2 0.321338 0.568485 0.788130
Si Si3 0.823491 0.124876 0.610014
Si Si4 0.323968 0.761361 0.710188
Si Si5 0.668028 0.000000 0.386245
Si Si6 0.677835 0.688476 0.894046
O O1 0.251870 0.624351 0.500000
O O2 0.500000 0.632356 0.599523
O O3 0.263281 0.586926 0.681541
O O4 0.279281 0.706360 0.638000
O O5 0.500000 0.568219 0.788753
O O6 0.259112 0.500000 0.814854
O O7 0.261779 0.620187 0.862897
O O8 0.773090 0.137981 0.500000
O O9 0.767582 0.178636 0.679867
O O10 0.000000 0.118943 0.617021
O O11 0.753220 0.061204 0.649999
O O12 0.500000 0.776034 0.705650
O O13 0.273699 0.741140 0.817852
O O14 0.500000 0.000000 0.344496
O O15 0.666896 0.000000 0.500000
O O16 0.500000 0.685244 0.895139
O O17 0.741244 0.704522 0.000000
#
# Coordination Sequence:
#
# PCOD8194836 Si02
#       6
#     8   8   8   8   4   8
#     4   8  13  20  30  46  70 101 137 175 210 246
#     4   8  13  19  27  44  72 105 138 169 208 261
#     4  10  19  29  42  63  92 120 143 171 206 239
#     4   9  16  26  41  59  79 108 146 180 210 252
#     4   9  17  29  45  65  90 121 152 173 191 228
#     4   8  14  24  37  54  76 102 136 180 224 261
#
# _framework density 16.397984999999998
#
# number of rings (size 3 to 8) (size 9 to 14) (size 15 to 20)
#    0.000    3.364    0.000    3.545    0.000    3.636 
#    0.000    3.636    0.000    0.545    0.000    0.636 
#    0.000   16.727    0.000   46.545    0.000   40.727 
#
# Total GULP energy -545220.603721 kJ/mol
# GULP energy per Si atom -12391.377357 kJ/mol
# Density = 1.636066 g / cm^3
# Si number density = 16.397985 Si / 1000 Ang^3
#
#
#
# Elastic Constant Matrix: (Units=GPa)
#
#
# Indices 1 2 3 4 5 6 
#
# 1 33.7856 31.9331 17.2329 0.0000 0.0000 0.0000
# 2 31.9331 126.0406 50.7133 0.0000 0.0000 0.0000
# 3 17.2329 50.7133 113.0696 0.0000 0.0000 0.0000
# 4 0.0000 0.0000 0.0000 16.2808 0.0000 0.0000
# 5 0.0000 0.0000 0.0000 0.0000 7.9807 0.0000
# 6 0.0000 0.0000 0.0000 0.0000 0.0000 -1.0159
#
#
#
# Elastic Compliance Matrix: (Units=1/GPa)
#
#
# Indices 1 2 3 4 5 6 
#
# 1 0.039235 -0.009193 -0.001856 0.000000 0.000000 0.000000
# 2 -0.009193 0.011835 -0.003907 0.000000 0.000000 0.000000
# 3 -0.001856 -0.003907 0.010879 0.000000 0.000000 0.000000
# 4 0.000000 0.000000 0.000000 0.061422 0.000000 0.000000
# 5 0.000000 0.000000 0.000000 0.000000 0.125302 0.000000
# 6 0.000000 0.000000 0.000000 0.000000 0.000000 -0.984367
#
#
# Mechanical properties :
#
#
# Convention : Reuss Voigt Hill
#
# Bulk Modulus (GPa) = 31.21540 52.51716 41.86628
# Shear Modulus (GPa) = -7.19319 16.18356 4.49518
#
# Velocity S-wave (km/s) = -2.09670 3.14494 1.65748
# Velocity P-wave (km/s) = 3.63537 6.72931 5.40831
#
# Compressibility (1/GPa) = 0.03203547
#
# Stress axis : x y z
#
# Youngs Moduli (GPa) = 25.48777 84.49387 91.91666
#
# Poissons Ratio (x) = 0.77678 0.17063
# Poissons Ratio (y) = 0.23432 0.35913
# Poissons Ratio (z) = 0.04732 0.33012
#
# Static dielectric constant tensor:
#      x y z
#    x 2.593300 0.000000 0.000000 
#    y 0.000000 3.162460 0.000000 
#    z 0.000000 0.000000 3.437430 
# 
# 
# High freq. dielectric constant tensor:
#      x y z
#    x 1.578750 0.000000 0.000000 
#    y 0.000000 1.630050 0.000000 
#    z 0.000000 0.000000 1.614860 
# 
# From -- ./inp_files/6797.got.cif
#   From: 2010.03.12/outbox.cif.g09.slc.cpg/sg47_4_cif.got.tgz:6797.got - 2010.04.14 03:12:58.
