data_PCOD8194495
_publ_section_title
;
Structure prediction by ZEFSAII (Michael W. Deem and Ramdas Pophale) SiO2 
 PCOD8194495
Probable space group: P M M M
;
_chemical_formula_sum "Si O2"
_cell_formula_units_Z 40
_cell_length_a 8.894952
_cell_length_b 11.934863
_cell_length_c 20.579638
_cell_angle_alpha 90.000000
_cell_angle_beta 90.000000
_cell_angle_gamma 90.000000
_cell_volume 2184.735060
_symmetry_space_group_name_H-M "P M M M"
_symmetry_group_IT_number 47
_symmetry_cell_setting 'orthorhombic'
loop_
_space_group_symop_operation_xyz
x,y,z
-x,-y,z
x,-y,-z
-x,y,-z
-x,-y,-z
x,y,-z
-x,y,z
x,-y,z
loop_
_atom_site_type_symbol
_atom_site_label
_atom_site_fract_x
_atom_site_fract_y
_atom_site_fract_z
Si Si1 0.177260 0.000000 0.122687
Si Si2 0.320905 0.227438 0.690732
Si Si3 0.673857 0.220090 0.073455
Si Si4 0.678466 0.374883 0.572120
Si Si5 0.178533 0.000000 0.729062
Si Si6 0.678180 0.624852 0.188397
O O1 0.234162 0.892161 0.084740
O O2 0.237057 0.000000 0.196659
O O3 0.000000 0.000000 0.121544
O O4 0.500000 0.212487 0.691723
O O5 0.261403 0.287859 0.625442
O O6 0.243098 0.107454 0.692353
O O7 0.263783 0.301427 0.751402
O O8 0.500000 0.192648 0.087335
O O9 0.731896 0.317422 0.121478
O O10 0.698973 0.262513 0.000000
O O11 0.731464 0.337044 0.500000
O O12 0.500000 0.378166 0.575436
O O13 0.739745 0.500000 0.587368
O O14 0.000000 0.000000 0.725096
O O15 0.500000 0.616053 0.191015
O O16 0.748219 0.500000 0.192070
#
# Coordination Sequence:
#
# PCOD8194495 Si02
#       6
#     4   8   8   8   4   8
#     4  11  22  36  53  71  95 129 169 212 255 297
#     4  10  18  31  54  78 100 131 169 205 243 292
#     4  10  20  33  51  75 102 130 161 202 250 297
#     4   8  14  26  48  81 114 135 157 199 250 293
#     4  11  23  36  51  72 100 132 167 212 260 295
#     4   9  17  29  48  75 102 127 160 201 243 291
#
# _framework density 18.308857
#
# number of rings (size 3 to 8) (size 9 to 14) (size 15 to 20)
#    0.000    2.400    2.000    2.100    0.000    5.200 
#    0.000    2.500    0.000    7.800    0.000    2.800 
#    0.000    0.000    0.000    0.000    0.000    0.000 
#
# Total GULP energy -495973.180940 kJ/mol
# GULP energy per Si atom -12399.329523 kJ/mol
# Density = 1.826718 g / cm^3
# Si number density = 18.308857 Si / 1000 Ang^3
#
#
#
# Elastic Constant Matrix: (Units=GPa)
#
#
# Indices 1 2 3 4 5 6 
#
# 1 26.9669 24.8524 24.3634 0.0000 0.0000 0.0000
# 2 24.8524 162.2748 86.6458 0.0000 0.0000 0.0000
# 3 24.3634 86.6458 160.3238 0.0000 0.0000 0.0000
# 4 0.0000 0.0000 0.0000 50.6478 0.0000 0.0000
# 5 0.0000 0.0000 0.0000 0.0000 12.8269 0.0000
# 6 0.0000 0.0000 0.0000 0.0000 0.0000 -7.1846
#
#
#
# Elastic Compliance Matrix: (Units=1/GPa)
#
#
# Indices 1 2 3 4 5 6 
#
# 1 0.045286 -0.004584 -0.004405 0.000000 0.000000 0.000000
# 2 -0.004584 0.009126 -0.004235 0.000000 0.000000 0.000000
# 3 -0.004405 -0.004235 0.009196 0.000000 0.000000 0.000000
# 4 0.000000 0.000000 0.000000 0.019744 0.000000 0.000000
# 5 0.000000 0.000000 0.000000 0.000000 0.077961 0.000000
# 6 0.000000 0.000000 0.000000 0.000000 0.000000 -0.139186
#
#
# Mechanical properties :
#
#
# Convention : Reuss Voigt Hill
#
# Bulk Modulus (GPa) = 26.91056 69.03209 47.97132
# Shear Modulus (GPa) = 82.01898 25.50493 53.76196
#
# Velocity S-wave (km/s) = 6.70035 3.73639 5.42473
# Velocity P-wave (km/s) = 8.63653 7.51001 8.09289
#
# Compressibility (1/GPa) = 0.03716013
#
# Stress axis : x y z
#
# Youngs Moduli (GPa) = 22.08182 109.57841 108.74602
#
# Poissons Ratio (x) = 0.50228 0.47898
# Poissons Ratio (y) = 0.10122 0.46059
# Poissons Ratio (z) = 0.09726 0.46411
#
# Static dielectric constant tensor:
#      x y z
#    x 2.876410 0.000000 0.000000 
#    y 0.000000 3.547250 0.000000 
#    z 0.000000 0.000000 3.672110 
# 
# 
# High freq. dielectric constant tensor:
#      x y z
#    x 1.659470 0.000000 0.000000 
#    y 0.000000 1.713430 0.000000 
#    z 0.000000 0.000000 1.719690 
# 
# From -- ./inp_files/15117.got.cif
#   From: 2010.03.12/outbox.cif.g09.slc.cpg/sg47_8_cif.got.tgz:15117.got - 2010.04.14 03:12:58.
