data_PCOD8194309
_publ_section_title
;
Structure prediction by ZEFSAII (Michael W. Deem and Ramdas Pophale) SiO2 
 PCOD8194309
Probable space group: P M M M
;
_chemical_formula_sum "Si O2"
_cell_formula_units_Z 56
_cell_length_a 20.307399
_cell_length_b 15.440204
_cell_length_c 9.089929
_cell_angle_alpha 90.000000
_cell_angle_beta 90.000000
_cell_angle_gamma 90.000000
_cell_volume 2850.150722
_symmetry_space_group_name_H-M "P M M M"
_symmetry_group_IT_number 47
_symmetry_cell_setting 'orthorhombic'
loop_
_space_group_symop_operation_xyz
x,y,z
-x,-y,z
x,-y,-z
-x,y,-z
-x,-y,-z
x,y,-z
-x,y,z
x,-y,z
loop_
_atom_site_type_symbol
_atom_site_label
_atom_site_fract_x
_atom_site_fract_y
_atom_site_fract_z
Si Si1 0.752221 0.848521 0.168143
Si Si2 0.928520 0.734880 0.671695
Si Si3 0.324509 0.402545 0.829702
Si Si4 0.574405 0.276599 0.670782
Si Si5 0.789073 0.677895 0.674116
Si Si6 0.630668 0.094513 0.667757
Si Si7 0.896547 0.904777 0.167332
O O1 0.754747 0.766415 0.276073
O O2 0.692490 0.907043 0.222775
O O3 0.817959 0.904220 0.182366
O O4 0.740980 0.817855 0.000000
O O5 0.918827 0.747275 0.500000
O O6 0.866203 0.677901 0.728717
O O7 0.930071 0.830990 0.736789
O O8 0.000000 0.690792 0.707529
O O9 0.351162 0.500000 0.806683
O O10 0.376309 0.335271 0.763517
O O11 0.252544 0.397583 0.752209
O O12 0.315293 0.380342 0.000000
O O13 0.588487 0.294909 0.500000
O O14 0.500000 0.302179 0.713012
O O15 0.582845 0.174476 0.707836
O O16 0.783846 0.666367 0.500000
O O17 0.655400 0.104959 0.500000
O O18 0.595332 0.000000 0.687073
O O19 0.920968 0.000000 0.218498
O O20 0.917877 0.887573 0.000000
#
# Coordination Sequence:
#
# PCOD8194309 Si02
#       7
#     8   8   8   8   8   8   8
#     4  10  18  30  50  75 106 145 188 235 287 335
#     4   9  19  34  51  74 105 142 183 228 280 336
#     4  11  24  41  63  91 119 148 184 230 287 346
#     4  10  22  40  61  86 119 158 196 235 281 334
#     4  10  19  34  58  84 111 144 184 230 281 336
#     4  10  20  33  52  80 114 153 196 238 280 329
#     4   9  18  30  43  65 100 141 186 234 281 331
#
# _framework density 19.648084000000001
#
# number of rings (size 3 to 8) (size 9 to 14) (size 15 to 20)
#    0.000    2.143    1.429    1.714    0.000    4.857 
#    0.000    4.286    0.000    0.429    0.000    5.000 
#    0.000    0.000    0.000    0.000    0.000    0.000 
#
# Total GULP energy -694061.055712 kJ/mol
# GULP energy per Si atom -12393.947423 kJ/mol
# Density = 1.960336 g / cm^3
# Si number density = 19.648084 Si / 1000 Ang^3
#
#
#
# Elastic Constant Matrix: (Units=GPa)
#
#
# Indices 1 2 3 4 5 6 
#
# 1 119.2719 45.1651 51.0558 0.0000 0.0000 0.0000
# 2 45.1651 92.8519 35.4945 0.0000 0.0000 0.0000
# 3 51.0558 35.4945 72.6152 0.0000 0.0000 0.0000
# 4 0.0000 0.0000 0.0000 25.0776 0.0000 0.0000
# 5 0.0000 0.0000 0.0000 0.0000 17.0562 0.0000
# 6 0.0000 0.0000 0.0000 0.0000 0.0000 9.4239
#
#
#
# Elastic Compliance Matrix: (Units=1/GPa)
#
#
# Indices 1 2 3 4 5 6 
#
# 1 0.012826 -0.003433 -0.007340 0.000000 0.000000 0.000000
# 2 -0.003433 0.014164 -0.004509 0.000000 0.000000 0.000000
# 3 -0.007340 -0.004509 0.021136 0.000000 0.000000 0.000000
# 4 0.000000 0.000000 0.000000 0.039876 0.000000 0.000000
# 5 0.000000 0.000000 0.000000 0.000000 0.058630 0.000000
# 6 0.000000 0.000000 0.000000 0.000000 0.000000 0.106113
#
#
# Mechanical properties :
#
#
# Convention : Reuss Voigt Hill
#
# Bulk Modulus (GPa) = 56.94437 60.90777 58.92607
# Shear Modulus (GPa) = 17.29127 20.51312 18.90219
#
# Velocity S-wave (km/s) = 2.96978 3.23465 3.10504
# Velocity P-wave (km/s) = 6.38784 6.70949 6.55064
#
# Compressibility (1/GPa) = 0.01756100
#
# Stress axis : x y z
#
# Youngs Moduli (GPa) = 77.96536 70.60373 47.31221
#
# Poissons Ratio (x) = 0.24239 0.34727
# Poissons Ratio (y) = 0.26766 0.21335
# Poissons Ratio (z) = 0.57227 0.31838
#
# Static dielectric constant tensor:
#      x y z
#    x 3.769410 0.000000 0.000000 
#    y 0.000000 3.444410 0.000000 
#    z 0.000000 0.000000 3.540710 
# 
# 
# High freq. dielectric constant tensor:
#      x y z
#    x 1.765760 0.000000 0.000000 
#    y 0.000000 1.744630 0.000000 
#    z 0.000000 0.000000 1.762120 
# 
# From -- ./inp_files/11255.got.cif
#   From: 2010.03.12/outbox.cif.g09.slc.cpg/sg47_6_cif.got.tgz:11255.got - 2010.04.14 03:12:58.
