data_PCOD8194254
_publ_section_title
;
Structure prediction by ZEFSAII (Michael W. Deem and Ramdas Pophale) SiO2 
 PCOD8194254
Probable space group: P M M M
;
_chemical_formula_sum "Si O2"
_cell_formula_units_Z 52
_cell_length_a 25.179436
_cell_length_b 14.540006
_cell_length_c 7.801704
_cell_angle_alpha 90.000000
_cell_angle_beta 90.000000
_cell_angle_gamma 90.000000
_cell_volume 2856.275224
_symmetry_space_group_name_H-M "P M M M"
_symmetry_group_IT_number 47
_symmetry_cell_setting 'orthorhombic'
loop_
_space_group_symop_operation_xyz
x,y,z
-x,-y,z
x,-y,-z
-x,y,-z
-x,-y,-z
x,y,-z
-x,y,z
x,-y,z
loop_
_atom_site_type_symbol
_atom_site_label
_atom_site_fract_x
_atom_site_fract_y
_atom_site_fract_z
Si Si1 0.219880 0.601792 0.698073
Si Si2 0.260012 0.787704 0.201089
Si Si3 0.364634 0.108027 0.802225
Si Si4 0.158663 0.103440 0.204551
Si Si5 0.941277 0.214962 0.204582
Si Si6 0.441007 0.108698 0.500000
Si Si7 0.103676 0.400503 0.195436
O O1 0.205275 0.605268 0.500000
O O2 0.242403 0.500000 0.747236
O O3 0.262567 0.680468 0.744384
O O4 0.166171 0.623039 0.801151
O O5 0.312799 0.838450 0.265490
O O6 0.207745 0.837112 0.279532
O O7 0.257526 0.797145 0.000000
O O8 0.411620 0.139977 0.674979
O O9 0.352733 0.000000 0.785235
O O10 0.379469 0.132676 0.000000
O O11 0.102978 0.144546 0.274622
O O12 0.163926 0.000000 0.274584
O O13 0.159265 0.104685 0.000000
O O14 0.929189 0.317094 0.280597
O O15 0.000000 0.183926 0.266014
O O16 0.938079 0.218279 0.000000
O O17 0.500000 0.152630 0.500000
O O18 0.445216 0.000000 0.500000
O O19 0.092784 0.500000 0.286530
O O20 0.085845 0.408606 0.000000
#
# Coordination Sequence:
#
# PCOD8194254 Si02
#       7
#     8   8   8   8   8   4   8
#     4  10  20  31  45  67  93 120 150 189 240 297
#     4  10  18  30  49  70  94 126 160 197 243 290
#     4   9  18  31  48  74 106 139 177 217 252 289
#     4   9  16  26  41  62  88 117 149 189 240 291
#     4   9  16  25  38  60  86 110 144 189 236 288
#     4   9  18  32  50  74 107 147 184 214 248 289
#     4   9  16  28  45  62  82 109 143 186 237 293
#
# _framework density 18.205528000000001
#
# number of rings (size 3 to 8) (size 9 to 14) (size 15 to 20)
#    0.000    2.692    1.538    0.923    1.077    3.692 
#    0.000    4.615    0.000    0.462    0.000    2.154 
#    0.000    2.462    0.000    3.385    0.000    0.154 
#
# Total GULP energy -644441.075721 kJ/mol
# GULP energy per Si atom -12393.097610 kJ/mol
# Density = 1.816409 g / cm^3
# Si number density = 18.205528 Si / 1000 Ang^3
#
#
#
# Elastic Constant Matrix: (Units=GPa)
#
#
# Indices 1 2 3 4 5 6 
#
# 1 137.9166 63.2391 34.3921 0.0000 0.0000 0.0000
# 2 63.2391 109.9071 11.0699 0.0000 0.0000 0.0000
# 3 34.3921 11.0699 33.5470 0.0000 0.0000 0.0000
# 4 0.0000 0.0000 0.0000 10.7326 0.0000 0.0000
# 5 0.0000 0.0000 0.0000 0.0000 2.5332 0.0000
# 6 0.0000 0.0000 0.0000 0.0000 0.0000 15.7558
#
#
#
# Elastic Compliance Matrix: (Units=1/GPa)
#
#
# Indices 1 2 3 4 5 6 
#
# 1 0.012934 -0.006316 -0.011175 0.000000 0.000000 0.000000
# 2 -0.006316 0.012496 0.002352 0.000000 0.000000 0.000000
# 3 -0.011175 0.002352 0.040490 0.000000 0.000000 0.000000
# 4 0.000000 0.000000 0.000000 0.093174 0.000000 0.000000
# 5 0.000000 0.000000 0.000000 0.000000 0.394760 0.000000
# 6 0.000000 0.000000 0.000000 0.000000 0.000000 0.063469
#
#
# Mechanical properties :
#
#
# Convention : Reuss Voigt Hill
#
# Bulk Modulus (GPa) = 28.05829 55.41921 41.73875
# Shear Modulus (GPa) = 7.58171 17.31563 12.44867
#
# Velocity S-wave (km/s) = 2.04293 3.08737 2.61777
# Velocity P-wave (km/s) = 4.58368 6.57389 5.66684
#
# Compressibility (1/GPa) = 0.03564009
#
# Stress axis : x y z
#
# Youngs Moduli (GPa) = 77.31704 80.02540 24.69772
#
# Poissons Ratio (x) = 0.50547 0.27600
# Poissons Ratio (y) = 0.48836 -0.05809
# Poissons Ratio (z) = 0.86404 -0.18822
#
# Static dielectric constant tensor:
#      x y z
#    x 3.356980 0.000000 0.000000 
#    y 0.000000 3.689650 0.000000 
#    z 0.000000 0.000000 3.077130 
# 
# 
# High freq. dielectric constant tensor:
#      x y z
#    x 1.670750 0.000000 0.000000 
#    y 0.000000 1.700040 0.000000 
#    z 0.000000 0.000000 1.684390 
# 
# From -- ./inp_files/7102.got.cif
#   From: 2010.03.12/outbox.cif.g09.slc.cpg/sg47_4_cif.got.tgz:7102.got - 2010.04.14 03:12:58.
