data_PCOD8194142
_publ_section_title
;
Structure prediction by ZEFSAII (Michael W. Deem and Ramdas Pophale) SiO2 
 PCOD8194142
Probable space group: P M M M
;
_chemical_formula_sum "Si O2"
_cell_formula_units_Z 52
_cell_length_a 8.888420
_cell_length_b 23.583909
_cell_length_c 14.393538
_cell_angle_alpha 90.000000
_cell_angle_beta 90.000000
_cell_angle_gamma 90.000000
_cell_volume 3017.226525
_symmetry_space_group_name_H-M "P M M M"
_symmetry_group_IT_number 47
_symmetry_cell_setting 'orthorhombic'
loop_
_space_group_symop_operation_xyz
x,y,z
-x,-y,z
x,-y,-z
-x,y,-z
-x,-y,-z
x,y,-z
-x,y,z
x,-y,z
loop_
_atom_site_type_symbol
_atom_site_label
_atom_site_fract_x
_atom_site_fract_y
_atom_site_fract_z
Si Si1 0.820148 0.378675 0.604479
Si Si2 0.825107 0.268879 0.707121
Si Si3 0.165072 0.500000 0.610425
Si Si4 0.828563 0.220356 0.897536
Si Si5 0.322279 0.836851 0.606306
Si Si6 0.827566 0.936004 0.282142
Si Si7 0.324622 0.897035 0.895073
O O1 0.765247 0.364834 0.500000
O O2 0.759515 0.328792 0.671038
O O3 0.753626 0.440312 0.638520
O O4 0.000000 0.382724 0.606911
O O5 0.798333 0.267271 0.818373
O O6 0.741735 0.217274 0.658756
O O7 0.000000 0.263712 0.681183
O O8 0.148294 0.500000 0.500000
O O9 0.000000 0.500000 0.656676
O O10 0.717151 0.168450 0.879707
O O11 0.000000 0.197767 0.889838
O O12 0.799799 0.247106 0.000000
O O13 0.267703 0.835346 0.500000
O O14 0.500000 0.835467 0.614359
O O15 0.265930 0.894823 0.652009
O O16 0.767526 0.935242 0.176531
O O17 0.000000 0.916017 0.282674
O O18 0.811053 0.000000 0.320090
O O19 0.500000 0.904446 0.874583
O O20 0.284524 0.916261 0.000000
#
# Coordination Sequence:
#
# PCOD8194142 Si02
#       7
#     8   8   4   8   8   8   8
#     4   8  13  21  36  62  94 126 161 201 243 286
#     4  10  18  29  49  74  97 125 161 201 244 289
#     4   7  10  18  32  54  90 128 158 197 245 283
#     4   9  17  29  46  69  97 127 158 194 239 290
#     4  11  24  39  54  73  98 127 158 197 247 297
#     4  11  24  40  57  76  97 125 162 201 241 288
#     4  10  20  34  54  78 102 128 157 193 240 292
#
# _framework density 17.234370999999999
#
# number of rings (size 3 to 8) (size 9 to 14) (size 15 to 20)
#    0.000    2.385    1.538    2.769    0.000    4.615 
#    0.000    3.077    0.000    0.000    0.000    1.077 
#    0.000    7.385    0.000    0.000    0.000    8.846 
#
# Total GULP energy -644490.073035 kJ/mol
# GULP energy per Si atom -12394.039866 kJ/mol
# Density = 1.719514 g / cm^3
# Si number density = 17.234371 Si / 1000 Ang^3
#
#
#
# Elastic Constant Matrix: (Units=GPa)
#
#
# Indices 1 2 3 4 5 6 
#
# 1 37.0197 20.9822 25.0958 0.0000 0.0000 0.0000
# 2 20.9822 123.0426 59.7125 0.0000 0.0000 0.0000
# 3 25.0958 59.7125 107.4069 0.0000 0.0000 0.0000
# 4 0.0000 0.0000 0.0000 23.4873 0.0000 0.0000
# 5 0.0000 0.0000 0.0000 0.0000 20.7442 0.0000
# 6 0.0000 0.0000 0.0000 0.0000 0.0000 -1.5194
#
#
#
# Elastic Compliance Matrix: (Units=1/GPa)
#
#
# Indices 1 2 3 4 5 6 
#
# 1 0.032673 -0.002557 -0.006213 0.000000 0.000000 0.000000
# 2 -0.002557 0.011330 -0.005702 0.000000 0.000000 0.000000
# 3 -0.006213 -0.005702 0.013932 0.000000 0.000000 0.000000
# 4 0.000000 0.000000 0.000000 0.042576 0.000000 0.000000
# 5 0.000000 0.000000 0.000000 0.000000 0.048206 0.000000
# 6 0.000000 0.000000 0.000000 0.000000 0.000000 -0.658135
#
#
# Mechanical properties :
#
#
# Convention : Reuss Voigt Hill
#
# Bulk Modulus (GPa) = 34.49082 53.22781 43.85931
# Shear Modulus (GPa) = -10.61998 19.32098 4.35050
#
# Velocity S-wave (km/s) = -2.48505 3.35187 1.59053
# Velocity P-wave (km/s) = 3.43836 6.77730 5.37374
#
# Compressibility (1/GPa) = 0.02899323
#
# Stress axis : x y z
#
# Youngs Moduli (GPa) = 30.60595 88.25931 71.77806
#
# Poissons Ratio (x) = 0.22565 0.44594
# Poissons Ratio (y) = 0.07825 0.40925
# Poissons Ratio (z) = 0.19015 0.50322
#
# Static dielectric constant tensor:
#      x y z
#    x 3.041770 0.000000 0.000000 
#    y 0.000000 3.387730 0.000000 
#    z 0.000000 0.000000 3.391130 
# 
# 
# High freq. dielectric constant tensor:
#      x y z
#    x 1.645410 0.000000 0.000000 
#    y 0.000000 1.654770 0.000000 
#    z 0.000000 0.000000 1.658800 
# 
# From -- ./inp_files/21751.got.cif
#   From: 2010.03.12/outbox.cif.g09.slc.cpg/sg47_11_cif.got.tgz:21751.got - 2010.04.14 03:12:58.
