data_PCOD8194997
_publ_section_title
;
Structure prediction by ZEFSAII (Michael W. Deem and Ramdas Pophale) SiO2 
 PCOD8194997
Probable space group: P M M M
;
_chemical_formula_sum "Si O2"
_cell_formula_units_Z 40
_cell_length_a 23.222903
_cell_length_b 8.177681
_cell_length_c 13.871267
_cell_angle_alpha 90.000000
_cell_angle_beta 90.000000
_cell_angle_gamma 90.000000
_cell_volume 2634.285278
_symmetry_space_group_name_H-M "P M M M"
_symmetry_group_IT_number 47
_symmetry_cell_setting 'orthorhombic'
loop_
_space_group_symop_operation_xyz
x,y,z
-x,-y,z
x,-y,-z
-x,y,-z
-x,-y,-z
x,y,-z
-x,y,z
x,-y,z
loop_
_atom_site_type_symbol
_atom_site_label
_atom_site_fract_x
_atom_site_fract_y
_atom_site_fract_z
Si Si1 0.067149 0.184793 0.771242
Si Si2 0.381593 0.690991 0.390700
Si Si3 0.931708 0.500000 0.892057
Si Si4 0.855968 0.312755 0.611144
Si Si5 0.736496 0.814542 0.387096
Si Si6 0.500000 0.808164 0.609489
O O1 0.089589 0.331047 0.841294
O O2 0.100463 0.199820 0.670422
O O3 0.000000 0.209617 0.750020
O O4 0.078059 0.000000 0.813458
O O5 0.384776 0.759430 0.500000
O O6 0.374306 0.500000 0.387998
O O7 0.324718 0.765119 0.338406
O O8 0.441531 0.743252 0.338469
O O9 0.000000 0.500000 0.895410
O O10 0.906092 0.500000 0.000000
O O11 0.859404 0.255817 0.500000
O O12 0.874698 0.500000 0.623310
O O13 0.790544 0.291223 0.650715
O O14 0.729472 0.781334 0.500000
O O15 0.750877 0.000000 0.361821
O O16 0.500000 0.739696 0.500000
O O17 0.500000 0.000000 0.613758
#
# Coordination Sequence:
#
# PCOD8194997 Si02
#       6
#     8   8   4   8   8   4
#     4  10  20  33  49  69  91 114 142 175 212 255
#     4   9  15  22  31  43  60  83 115 156 201 244
#     4   9  18  34  53  71  91 111 134 169 213 258
#     4  10  19  30  44  61  84 115 147 178 213 251
#     4   9  16  25  36  50  69  95 129 167 204 242
#     4   9  15  21  29  41  57  79 109 151 203 246
#
# _framework density 15.184385000000001
#
# number of rings (size 3 to 8) (size 9 to 14) (size 15 to 20)
#    0.000    2.600    1.000    2.100    0.000    8.000 
#    0.000    4.000    0.000    0.000    0.000    0.000 
#    0.000    0.000    0.000    0.000    0.000    0.000 
#
# Total GULP energy -495647.097515 kJ/mol
# GULP energy per Si atom -12391.177438 kJ/mol
# Density = 1.514983 g / cm^3
# Si number density = 15.184385 Si / 1000 Ang^3
#
#
#
# Elastic Constant Matrix: (Units=GPa)
#
#
# Indices 1 2 3 4 5 6 
#
# 1 79.3130 34.4540 27.6845 0.0000 0.0000 0.0000
# 2 34.4540 81.9168 25.2363 0.0000 0.0000 0.0000
# 3 27.6845 25.2363 39.8229 0.0000 0.0000 0.0000
# 4 0.0000 0.0000 0.0000 10.7631 0.0000 0.0000
# 5 0.0000 0.0000 0.0000 0.0000 0.7533 0.0000
# 6 0.0000 0.0000 0.0000 0.0000 0.0000 28.2806
#
#
#
# Elastic Compliance Matrix: (Units=1/GPa)
#
#
# Indices 1 2 3 4 5 6 
#
# 1 0.017944 -0.004603 -0.009558 0.000000 0.000000 0.000000
# 2 -0.004603 0.016350 -0.007161 0.000000 0.000000 0.000000
# 3 -0.009558 -0.007161 0.036294 0.000000 0.000000 0.000000
# 4 0.000000 0.000000 0.000000 0.092910 0.000000 0.000000
# 5 0.000000 0.000000 0.000000 0.000000 1.327453 0.000000
# 6 0.000000 0.000000 0.000000 0.000000 0.000000 0.035360
#
#
# Mechanical properties :
#
#
# Convention : Reuss Voigt Hill
#
# Bulk Modulus (GPa) = 35.78571 41.75581 38.77076
# Shear Modulus (GPa) = 3.16803 15.53793 9.35298
#
# Velocity S-wave (km/s) = 1.44600 3.20235 2.48455
# Velocity P-wave (km/s) = 5.13872 6.42124 5.81544
#
# Compressibility (1/GPa) = 0.02794411
#
# Stress axis : x y z
#
# Youngs Moduli (GPa) = 55.72956 61.16368 27.55304
#
# Poissons Ratio (x) = 0.28152 0.26334
# Poissons Ratio (y) = 0.25651 0.19731
# Poissons Ratio (z) = 0.53264 0.43801
#
# Static dielectric constant tensor:
#      x y z
#    x 3.207450 0.000000 0.000000 
#    y 0.000000 3.020510 0.000000 
#    z 0.000000 0.000000 2.370100 
# 
# 
# High freq. dielectric constant tensor:
#      x y z
#    x 1.592520 0.000000 0.000000 
#    y 0.000000 1.602110 0.000000 
#    z 0.000000 0.000000 1.485330 
# 
# From -- ./inp_files/24847.got.cif
#   From: 2010.03.12/outbox.cif.g09.slc.cpg/sg47_13_cif.got.tgz:24847.got - 2010.04.14 03:12:58.
