data_PCOD8194697
_publ_section_title
;
Structure prediction by ZEFSAII (Michael W. Deem and Ramdas Pophale) SiO2 
 PCOD8194697
Probable space group: P M M M
;
_chemical_formula_sum "Si O2"
_cell_formula_units_Z 52
_cell_length_a 8.037472
_cell_length_b 27.641960
_cell_length_c 13.745083
_cell_angle_alpha 90.000000
_cell_angle_beta 90.000000
_cell_angle_gamma 90.000000
_cell_volume 3053.765426
_symmetry_space_group_name_H-M "P M M M"
_symmetry_group_IT_number 47
_symmetry_cell_setting 'orthorhombic'
loop_
_space_group_symop_operation_xyz
x,y,z
-x,-y,z
x,-y,-z
-x,y,-z
-x,-y,-z
x,y,-z
-x,y,z
x,-y,z
loop_
_atom_site_type_symbol
_atom_site_label
_atom_site_fract_x
_atom_site_fract_y
_atom_site_fract_z
Si Si1 0.500000 0.942829 0.611405
Si Si2 0.689595 0.795516 0.390986
Si Si3 0.808938 0.256458 0.218183
Si Si4 0.804130 0.835871 0.893304
Si Si5 0.689804 0.347015 0.889499
Si Si6 0.190957 0.889371 0.296423
Si Si7 0.189398 0.552166 0.884837
O O1 0.500000 0.923889 0.500000
O O2 0.671065 0.926062 0.662913
O O3 0.500000 0.000000 0.615445
O O4 0.738454 0.780004 0.500000
O O5 0.500000 0.813960 0.385759
O O6 0.714812 0.748960 0.321489
O O7 0.805948 0.839370 0.356136
O O8 0.735198 0.216171 0.143717
O O9 0.791341 0.310154 0.176713
O O10 0.000000 0.245409 0.238391
O O11 0.760261 0.878136 0.816198
O O12 0.000000 0.831682 0.903652
O O13 0.725838 0.847423 0.000000
O O14 0.500000 0.331133 0.886473
O O15 0.708076 0.401497 0.846330
O O16 0.759623 0.344852 0.000000
O O17 0.000000 0.909853 0.304466
O O18 0.256726 0.500000 0.844343
O O19 0.000000 0.559098 0.851562
O O20 0.203756 0.550459 0.000000
#
# Coordination Sequence:
#
# PCOD8194697 Si02
#       7
#     4   8   8   8   8   8   8
#     4  11  24  40  57  79 107 135 166 210 258 299
#     4  10  19  32  51  73  99 129 159 195 238 285
#     4  10  19  29  44  67  95 127 162 197 234 283
#     4   8  15  29  50  75 101 131 167 203 239 284
#     4  10  19  28  39  58  88 124 157 194 241 288
#     4  10  20  35  57  81 105 135 169 204 244 295
#     4   8  14  25  40  56  75 106 151 196 236 283
#
# _framework density 17.028158999999999
#
# number of rings (size 3 to 8) (size 9 to 14) (size 15 to 20)
#    0.000    2.538    0.769    3.692    0.000    4.308 
#    0.000    2.692    0.000    0.923    0.000    2.154 
#    0.000    0.615    0.000    6.462    0.000    3.077 
#
# Total GULP energy -644406.257809 kJ/mol
# GULP energy per Si atom -12392.428035 kJ/mol
# Density = 1.698940 g / cm^3
# Si number density = 17.028159 Si / 1000 Ang^3
#
#
#
# Elastic Constant Matrix: (Units=GPa)
#
#
# Indices 1 2 3 4 5 6 
#
# 1 64.4704 26.9489 32.7311 0.0000 0.0000 0.0000
# 2 26.9489 80.4191 42.1319 0.0000 0.0000 0.0000
# 3 32.7311 42.1319 122.8433 0.0000 0.0000 0.0000
# 4 0.0000 0.0000 0.0000 17.5786 0.0000 0.0000
# 5 0.0000 0.0000 0.0000 0.0000 19.3033 0.0000
# 6 0.0000 0.0000 0.0000 0.0000 0.0000 24.6800
#
#
#
# Elastic Compliance Matrix: (Units=1/GPa)
#
#
# Indices 1 2 3 4 5 6 
#
# 1 0.019230 -0.004583 -0.003552 0.000000 0.000000 0.000000
# 2 -0.004583 0.016251 -0.004352 0.000000 0.000000 0.000000
# 3 -0.003552 -0.004352 0.010580 0.000000 0.000000 0.000000
# 4 0.000000 0.000000 0.000000 0.056887 0.000000 0.000000
# 5 0.000000 0.000000 0.000000 0.000000 0.051805 0.000000
# 6 0.000000 0.000000 0.000000 0.000000 0.000000 0.040519
#
#
# Mechanical properties :
#
#
# Convention : Reuss Voigt Hill
#
# Bulk Modulus (GPa) = 47.42590 52.37297 49.89943
# Shear Modulus (GPa) = 21.99980 23.37379 22.68680
#
# Velocity S-wave (km/s) = 3.59829 3.70896 3.65404
# Velocity P-wave (km/s) = 6.72127 7.01179 6.86807
#
# Compressibility (1/GPa) = 0.02108553
#
# Stress axis : x y z
#
# Youngs Moduli (GPa) = 52.00192 61.53469 94.52155
#
# Poissons Ratio (x) = 0.28203 0.33573
# Poissons Ratio (y) = 0.23834 0.41140
# Poissons Ratio (z) = 0.18470 0.26783
#
# Static dielectric constant tensor:
#      x y z
#    x 3.149520 0.000000 0.000000 
#    y 0.000000 5.253080 0.000000 
#    z 0.000000 0.000000 3.279470 
# 
# 
# High freq. dielectric constant tensor:
#      x y z
#    x 1.656950 0.000000 0.000000 
#    y 0.000000 1.637970 0.000000 
#    z 0.000000 0.000000 1.628290 
# 
# From -- ./inp_files/21976.got.cif
#   From: 2010.03.12/outbox.cif.g09.slc.cpg/sg47_11_cif.got.tgz:21976.got - 2010.04.14 03:12:58.
