data_PCOD8194877
_publ_section_title
;
Structure prediction by ZEFSAII (Michael W. Deem and Ramdas Pophale) SiO2 
 PCOD8194877
Probable space group: P M M M
;
_chemical_formula_sum "Si O2"
_cell_formula_units_Z 36
_cell_length_a 7.893348
_cell_length_b 14.014738
_cell_length_c 22.121982
_cell_angle_alpha 90.000000
_cell_angle_beta 90.000000
_cell_angle_gamma 90.000000
_cell_volume 2447.204531
_symmetry_space_group_name_H-M "P M M M"
_symmetry_group_IT_number 47
_symmetry_cell_setting 'orthorhombic'
loop_
_space_group_symop_operation_xyz
x,y,z
-x,-y,z
x,-y,-z
-x,y,-z
-x,-y,-z
x,y,-z
-x,y,z
x,-y,z
loop_
_atom_site_type_symbol
_atom_site_label
_atom_site_fract_x
_atom_site_fract_y
_atom_site_fract_z
Si Si1 0.195923 0.108517 0.125806
Si Si2 0.000000 0.113251 0.668124
Si Si3 0.688196 0.606783 0.571683
Si Si4 0.000000 0.266043 0.428149
Si Si5 0.301142 0.107460 0.000000
Si Si6 0.312480 0.113010 0.748667
O O1 0.289363 0.156304 0.183498
O O2 0.000000 0.113431 0.141111
O O3 0.261203 0.000000 0.119200
O O4 0.236742 0.160223 0.061492
O O5 0.000000 0.162369 0.602568
O O6 0.832714 0.149970 0.703529
O O7 0.000000 0.000000 0.657840
O O8 0.696630 0.603556 0.500000
O O9 0.500000 0.641564 0.592375
O O10 0.722347 0.500000 0.596836
O O11 0.833707 0.677491 0.595261
O O12 0.000000 0.251020 0.500000
O O13 0.500000 0.107556 0.000000
O O14 0.225082 0.000000 0.000000
O O15 0.500000 0.141321 0.724558
O O16 0.290883 0.000000 0.753696
#
# Coordination Sequence:
#
# PCOD8194877 Si02
#       6
#     8   4   8   4   4   8
#     4   9  14  21  32  46  64  84 110 149 197 243
#     4  10  20  32  41  53  74 101 140 181 208 233
#     4   8  14  26  45  68  90 106 119 141 181 238
#     4  10  19  29  44  63  82 105 131 162 202 245
#     4   9  15  19  25  43  67  87 107 136 187 249
#     4   9  16  27  41  51  62  88 127 169 207 237
#
# _framework density 14.710661999999999
#
# number of rings (size 3 to 8) (size 9 to 14) (size 15 to 20)
#    0.000    3.000    1.111    2.000    0.000    6.444 
#    0.000    0.000    0.000    0.000    0.000    6.222 
#    0.000    0.000    0.000    0.000    0.000    0.000 
#
# Total GULP energy -445989.593359 kJ/mol
# GULP energy per Si atom -12388.599816 kJ/mol
# Density = 1.467718 g / cm^3
# Si number density = 14.710662 Si / 1000 Ang^3
#
#
#
# Elastic Constant Matrix: (Units=GPa)
#
#
# Indices 1 2 3 4 5 6 
#
# 1 110.2373 26.0669 39.0539 0.0000 0.0000 0.0000
# 2 26.0669 30.7808 25.7509 0.0000 0.0000 0.0000
# 3 39.0539 25.7509 67.7275 0.0000 0.0000 0.0000
# 4 0.0000 0.0000 0.0000 1.6056 0.0000 0.0000
# 5 0.0000 0.0000 0.0000 0.0000 13.7730 0.0000
# 6 0.0000 0.0000 0.0000 0.0000 0.0000 7.0753
#
#
#
# Elastic Compliance Matrix: (Units=1/GPa)
#
#
# Indices 1 2 3 4 5 6 
#
# 1 0.012237 -0.006540 -0.004569 0.000000 0.000000 0.000000
# 2 -0.006540 0.051137 -0.015672 0.000000 0.000000 0.000000
# 3 -0.004569 -0.015672 0.023359 0.000000 0.000000 0.000000
# 4 0.000000 0.000000 0.000000 0.622837 0.000000 0.000000
# 5 0.000000 0.000000 0.000000 0.000000 0.072606 0.000000
# 6 0.000000 0.000000 0.000000 0.000000 0.000000 0.141337
#
#
# Mechanical properties :
#
#
# Convention : Reuss Voigt Hill
#
# Bulk Modulus (GPa) = 30.14792 43.38769 36.76780
# Shear Modulus (GPa) = 5.06006 12.34904 8.70455
#
# Velocity S-wave (km/s) = 1.85666 2.90049 2.43516
# Velocity P-wave (km/s) = 5.01345 6.38555 5.74064
#
# Compressibility (1/GPa) = 0.03316979
#
# Stress axis : x y z
#
# Youngs Moduli (GPa) = 81.72198 19.55532 42.81077
#
# Poissons Ratio (x) = 0.12789 0.19562
# Poissons Ratio (y) = 0.53445 0.67092
# Poissons Ratio (z) = 0.37343 0.30647
#
# Static dielectric constant tensor:
#      x y z
#    x 3.115400 0.000000 0.000000 
#    y 0.000000 2.267160 0.000000 
#    z 0.000000 0.000000 2.825100 
# 
# 
# High freq. dielectric constant tensor:
#      x y z
#    x 1.586620 0.000000 0.000000 
#    y 0.000000 1.472570 0.000000 
#    z 0.000000 0.000000 1.552860 
# 
# From -- ./inp_files/29294.got.cif
#   From: 2010.03.12/outbox.cif.g09.slc.cpg/sg47_15_cif.got.tgz:29294.got - 2010.04.14 03:12:58.
