data_PCOD8194805
_publ_section_title
;
Structure prediction by ZEFSAII (Michael W. Deem and Ramdas Pophale) SiO2 
 PCOD8194805
Probable space group: P M M M
;
_chemical_formula_sum "Si O2"
_cell_formula_units_Z 64
_cell_length_a 15.034172
_cell_length_b 9.449080
_cell_length_c 30.132111
_cell_angle_alpha 90.000000
_cell_angle_beta 90.000000
_cell_angle_gamma 90.000000
_cell_volume 4280.540388
_symmetry_space_group_name_H-M "P M M M"
_symmetry_group_IT_number 47
_symmetry_cell_setting 'orthorhombic'
loop_
_space_group_symop_operation_xyz
x,y,z
-x,-y,z
x,-y,-z
-x,y,-z
-x,-y,-z
x,y,-z
-x,y,z
x,-y,z
loop_
_atom_site_type_symbol
_atom_site_label
_atom_site_fract_x
_atom_site_fract_y
_atom_site_fract_z
Si Si1 0.401295 0.840584 0.807838
Si Si2 0.402892 0.841477 0.702435
Si Si3 0.232961 0.332945 0.193456
Si Si4 0.105525 0.658382 0.950901
Si Si5 0.239738 0.663256 0.703489
Si Si6 0.105400 0.164096 0.131893
Si Si7 0.105694 0.159503 0.451272
Si Si8 0.898696 0.665230 0.630866
O O1 0.500000 0.796091 0.825381
O O2 0.402185 0.837189 0.755205
O O3 0.326253 0.731111 0.825029
O O4 0.378599 0.000000 0.824273
O O5 0.500000 0.789344 0.685532
O O6 0.325679 0.742256 0.683639
O O7 0.384926 0.000000 0.685479
O O8 0.230521 0.500000 0.183227
O O9 0.220894 0.299802 0.245440
O O10 0.150903 0.253573 0.170733
O O11 0.139101 0.500000 0.938368
O O12 0.139622 0.772022 0.915015
O O13 0.000000 0.658819 0.951675
O O14 0.141282 0.700602 0.000000
O O15 0.261316 0.500000 0.697676
O O16 0.154598 0.709964 0.674887
O O17 0.000000 0.182172 0.137458
O O18 0.133569 0.000000 0.134241
O O19 0.140380 0.209273 0.500000
O O20 0.143494 0.258800 0.412297
O O21 0.000000 0.167664 0.451181
O O22 0.137841 0.000000 0.441995
O O23 0.891837 0.500000 0.621441
O O24 0.000000 0.712990 0.639288
#
# Coordination Sequence:
#
# PCOD8194805 Si02
#       8
#     8   8   8   8   8   8   8   8
#     4   8  14  26  43  60  79 103 130 165 210 252
#     4   8  14  25  41  59  77  99 128 163 204 245
#     4  10  19  29  42  59  81 111 144 176 207 240
#     4   8  14  26  44  63  81 102 130 166 209 253
#     4   9  18  29  40  57  80 108 140 171 202 234
#     4  10  20  31  42  58  82 112 145 178 208 241
#     4   8  14  25  40  57  76  97 124 161 203 242
#     4   9  17  28  40  55  78 107 138 169 198 232
#
# _framework density 14.951382000000001
#
# number of rings (size 3 to 8) (size 9 to 14) (size 15 to 20)
#    0.000    3.250    0.000    2.250    0.000    3.250 
#    0.000    6.250    0.000    1.500    0.000    0.000 
#    0.000    1.000    0.000   10.750    0.000    7.250 
#
# Total GULP energy -793115.410339 kJ/mol
# GULP energy per Si atom -12392.428287 kJ/mol
# Density = 1.491735 g / cm^3
# Si number density = 14.951382 Si / 1000 Ang^3
#
#
#
# Elastic Constant Matrix: (Units=GPa)
#
#
# Indices 1 2 3 4 5 6 
#
# 1 68.5538 47.8884 40.9570 0.0000 0.0000 0.0000
# 2 47.8884 85.7853 49.6885 0.0000 0.0000 0.0000
# 3 40.9570 49.6885 73.3536 0.0000 0.0000 0.0000
# 4 0.0000 0.0000 0.0000 22.5151 0.0000 0.0000
# 5 0.0000 0.0000 0.0000 0.0000 1.5936 0.0000
# 6 0.0000 0.0000 0.0000 0.0000 0.0000 24.8759
#
#
#
# Elastic Compliance Matrix: (Units=1/GPa)
#
#
# Indices 1 2 3 4 5 6 
#
# 1 0.026385 -0.010197 -0.007825 0.000000 0.000000 0.000000
# 2 -0.010197 0.023124 -0.009971 0.000000 0.000000 0.000000
# 3 -0.007825 -0.009971 0.024756 0.000000 0.000000 0.000000
# 4 0.000000 0.000000 0.000000 0.044415 0.000000 0.000000
# 5 0.000000 0.000000 0.000000 0.000000 0.627503 0.000000
# 6 0.000000 0.000000 0.000000 0.000000 0.000000 0.040200
#
#
# Mechanical properties :
#
#
# Convention : Reuss Voigt Hill
#
# Bulk Modulus (GPa) = 54.70391 56.08450 55.39421
# Shear Modulus (GPa) = 5.89302 15.74082 10.81692
#
# Velocity S-wave (km/s) = 1.98746 3.24821 2.69266
# Velocity P-wave (km/s) = 6.47564 7.18752 6.84085
#
# Compressibility (1/GPa) = 0.01828023
#
# Stress axis : x y z
#
# Youngs Moduli (GPa) = 37.90031 43.24434 40.39461
#
# Poissons Ratio (x) = 0.44095 0.31609
# Poissons Ratio (y) = 0.38646 0.40277
# Poissons Ratio (z) = 0.29657 0.43118
#
# Static dielectric constant tensor:
#      x y z
#    x 2.887270 0.000000 0.000000 
#    y 0.000000 3.025690 0.000000 
#    z 0.000000 0.000000 2.906410 
# 
# 
# High freq. dielectric constant tensor:
#      x y z
#    x 1.544750 0.000000 0.000000 
#    y 0.000000 1.578630 0.000000 
#    z 0.000000 0.000000 1.545240 
# 
# From -- ./inp_files/34441.got.cif
#   From: 2010.03.12/outbox.cif.g09.slc.cpg/sg47_18_cif.got.tgz:34441.got - 2010.04.14 03:12:58.
