data_PCOD8194320
_publ_section_title
;
Structure prediction by ZEFSAII (Michael W. Deem and Ramdas Pophale) SiO2 
 PCOD8194320
Probable space group: P M M M
;
_chemical_formula_sum "Si O2"
_cell_formula_units_Z 56
_cell_length_a 18.994654
_cell_length_b 18.734891
_cell_length_c 9.127243
_cell_angle_alpha 90.000000
_cell_angle_beta 90.000000
_cell_angle_gamma 90.000000
_cell_volume 3248.045997
_symmetry_space_group_name_H-M "P M M M"
_symmetry_group_IT_number 47
_symmetry_cell_setting 'orthorhombic'
loop_
_space_group_symop_operation_xyz
x,y,z
-x,-y,z
x,-y,-z
-x,y,-z
-x,-y,-z
x,y,-z
-x,y,z
x,-y,z
loop_
_atom_site_type_symbol
_atom_site_label
_atom_site_fract_x
_atom_site_fract_y
_atom_site_fract_z
Si Si1 0.294819 0.709170 0.832036
Si Si2 0.789603 0.148680 0.830866
Si Si3 0.336281 0.082233 0.331211
Si Si4 0.920462 0.357165 0.330323
Si Si5 0.920489 0.807050 0.329902
Si Si6 0.792067 0.579918 0.827223
Si Si7 0.419848 0.800662 0.826887
O O1 0.237612 0.770872 0.809079
O O2 0.264719 0.636349 0.758993
O O3 0.369977 0.736053 0.767424
O O4 0.307962 0.691724 0.000000
O O5 0.738726 0.094606 0.746022
O O6 0.867894 0.144004 0.764454
O O7 0.791467 0.126116 0.000000
O O8 0.330261 0.105806 0.500000
O O9 0.398293 0.126575 0.253469
O O10 0.357447 0.000000 0.316384
O O11 0.901398 0.365434 0.500000
O O12 0.912466 0.275086 0.281770
O O13 0.868948 0.407062 0.238469
O O14 0.000000 0.383140 0.300132
O O15 0.901636 0.815831 0.500000
O O16 0.000000 0.833269 0.299060
O O17 0.766739 0.500000 0.788058
O O18 0.798953 0.591209 0.000000
O O19 0.500000 0.780956 0.789777
O O20 0.407634 0.812655 0.000000
#
# Coordination Sequence:
#
# PCOD8194320 Si02
#       7
#     8   8   8   8   8   8   8
#     4   8  15  29  46  67  93 121 157 198 242 287
#     4  10  18  30  51  73  95 127 166 207 245 284
#     4  10  21  35  51  74 105 136 161 190 232 284
#     4   9  18  31  45  63  91 126 162 203 249 295
#     4   9  17  29  46  69  96 126 162 206 254 298
#     4  10  19  30  45  65  92 127 166 209 252 292
#     4   9  18  33  54  77 100 128 161 199 240 283
#
# _framework density 17.241135
#
# number of rings (size 3 to 8) (size 9 to 14) (size 15 to 20)
#    0.000    2.714    1.429    2.571    0.000    2.857 
#    0.000    4.286    0.000    0.857    0.000    6.000 
#    0.000    0.000    0.000    5.000    0.000    6.286 
#
# Total GULP energy -694194.079818 kJ/mol
# GULP energy per Si atom -12396.322854 kJ/mol
# Density = 1.720189 g / cm^3
# Si number density = 17.241135 Si / 1000 Ang^3
#
#
#
# Elastic Constant Matrix: (Units=GPa)
#
#
# Indices 1 2 3 4 5 6 
#
# 1 125.5912 44.9007 43.1592 0.0000 0.0000 0.0000
# 2 44.9007 70.0455 26.1095 0.0000 0.0000 0.0000
# 3 43.1592 26.1095 57.6100 0.0000 0.0000 0.0000
# 4 0.0000 0.0000 0.0000 19.9422 0.0000 0.0000
# 5 0.0000 0.0000 0.0000 0.0000 23.9588 0.0000
# 6 0.0000 0.0000 0.0000 0.0000 0.0000 18.8689
#
#
#
# Elastic Compliance Matrix: (Units=1/GPa)
#
#
# Indices 1 2 3 4 5 6 
#
# 1 0.012161 -0.005294 -0.006712 0.000000 0.000000 0.000000
# 2 -0.005294 0.019483 -0.004864 0.000000 0.000000 0.000000
# 3 -0.006712 -0.004864 0.024590 0.000000 0.000000 0.000000
# 4 0.000000 0.000000 0.000000 0.050145 0.000000 0.000000
# 5 0.000000 0.000000 0.000000 0.000000 0.041738 0.000000
# 6 0.000000 0.000000 0.000000 0.000000 0.000000 0.052997
#
#
# Mechanical properties :
#
#
# Convention : Reuss Voigt Hill
#
# Bulk Modulus (GPa) = 44.45221 53.50949 48.98085
# Shear Modulus (GPa) = 20.63107 21.82581 21.22844
#
# Velocity S-wave (km/s) = 3.46297 3.56183 3.51275
# Velocity P-wave (km/s) = 6.46747 6.92956 6.70250
#
# Compressibility (1/GPa) = 0.02249607
#
# Stress axis : x y z
#
# Youngs Moduli (GPa) = 82.22706 51.32682 40.66613
#
# Poissons Ratio (x) = 0.27172 0.27293
# Poissons Ratio (y) = 0.43531 0.19779
# Poissons Ratio (z) = 0.55187 0.24965
#
# Static dielectric constant tensor:
#      x y z
#    x 3.266830 0.000000 0.000000 
#    y 0.000000 3.114710 0.000000 
#    z 0.000000 0.000000 3.088120 
# 
# 
# High freq. dielectric constant tensor:
#      x y z
#    x 1.662900 0.000000 0.000000 
#    y 0.000000 1.641830 0.000000 
#    z 0.000000 0.000000 1.653670 
# 
# From -- ./inp_files/11527.got.cif
#   From: 2010.03.12/outbox.cif.g09.slc.cpg/sg47_6_cif.got.tgz:11527.got - 2010.04.14 03:12:58.
