data_PCOD8194064
_publ_section_title
;
Structure prediction by ZEFSAII (Michael W. Deem and Ramdas Pophale) SiO2 
 PCOD8194064
Probable space group: P M M M
;
_chemical_formula_sum "Si O2"
_cell_formula_units_Z 36
_cell_length_a 9.467851
_cell_length_b 11.807267
_cell_length_c 20.440514
_cell_angle_alpha 90.000000
_cell_angle_beta 90.000000
_cell_angle_gamma 90.000000
_cell_volume 2285.033709
_symmetry_space_group_name_H-M "P M M M"
_symmetry_group_IT_number 47
_symmetry_cell_setting 'orthorhombic'
loop_
_space_group_symop_operation_xyz
x,y,z
-x,-y,z
x,-y,-z
-x,y,-z
-x,-y,-z
x,y,-z
-x,y,z
x,-y,z
loop_
_atom_site_type_symbol
_atom_site_label
_atom_site_fract_x
_atom_site_fract_y
_atom_site_fract_z
Si Si1 0.666955 0.000000 0.926486
Si Si2 0.155928 0.633967 0.381780
Si Si3 0.667666 0.373878 0.000000
Si Si4 0.667500 0.760763 0.873595
Si Si5 0.658178 0.364638 0.500000
Si Si6 0.166032 0.369813 0.234437
O O1 0.714961 0.109930 0.885825
O O2 0.500000 0.000000 0.934730
O O3 0.732613 0.000000 0.000000
O O4 0.146727 0.500000 0.388645
O O5 0.264213 0.683267 0.435268
O O6 0.206128 0.664438 0.308642
O O7 0.000000 0.684978 0.395232
O O8 0.721823 0.310496 0.064347
O O9 0.731117 0.500000 0.000000
O O10 0.500000 0.375385 0.000000
O O11 0.500000 0.749354 0.863533
O O12 0.745238 0.714690 0.810033
O O13 0.657581 0.500000 0.500000
O O14 0.500000 0.316231 0.500000
O O15 0.209379 0.500000 0.220179
O O16 0.000000 0.353529 0.222028
#
# Coordination Sequence:
#
# PCOD8194064 Si02
#       6
#     4   8   4   8   4   8
#     4   9  16  30  49  67  85 110 145 184 227 269
#     4   8  14  25  39  53  76 115 152 174 202 253
#     4   9  16  25  40  64  87 107 138 177 214 258
#     4  10  18  29  47  66  85 111 146 186 223 264
#     4   9  15  21  33  57  85 110 141 182 215 239
#     4   9  18  31  44  61  89 121 149 180 221 266
#
# _framework density 15.754690999999999
#
# number of rings (size 3 to 8) (size 9 to 14) (size 15 to 20)
#    0.000    3.000    1.111    2.333    0.000    3.556 
#    0.000    3.333    0.000    2.667    0.000    0.000 
#    0.000    0.889    0.000   10.000    0.000    7.556 
#
# Total GULP energy -446238.583052 kJ/mol
# GULP energy per Si atom -12395.516196 kJ/mol
# Density = 1.571883 g / cm^3
# Si number density = 15.754691 Si / 1000 Ang^3
#
#
#
# Elastic Constant Matrix: (Units=GPa)
#
#
# Indices 1 2 3 4 5 6 
#
# 1 64.7778 33.3500 65.4573 0.0000 0.0000 0.0000
# 2 33.3500 89.9270 56.8993 0.0000 0.0000 0.0000
# 3 65.4573 56.8993 144.8948 0.0000 0.0000 0.0000
# 4 0.0000 0.0000 0.0000 3.5217 0.0000 0.0000
# 5 0.0000 0.0000 0.0000 0.0000 23.3077 0.0000
# 6 0.0000 0.0000 0.0000 0.0000 0.0000 12.8961
#
#
#
# Elastic Compliance Matrix: (Units=1/GPa)
#
#
# Indices 1 2 3 4 5 6 
#
# 1 0.029119 -0.003294 -0.011861 0.000000 0.000000 0.000000
# 2 -0.003294 0.015169 -0.004469 0.000000 0.000000 0.000000
# 3 -0.011861 -0.004469 0.014015 0.000000 0.000000 0.000000
# 4 0.000000 0.000000 0.000000 0.283956 0.000000 0.000000
# 5 0.000000 0.000000 0.000000 0.000000 0.042904 0.000000
# 6 0.000000 0.000000 0.000000 0.000000 0.000000 0.077543
#
#
# Mechanical properties :
#
#
# Convention : Reuss Voigt Hill
#
# Bulk Modulus (GPa) = 52.47963 67.89031 60.18497
# Shear Modulus (GPa) = 9.83660 17.53797 13.68729
#
# Velocity S-wave (km/s) = 2.50143 3.34007 2.95070
# Velocity P-wave (km/s) = 6.45954 7.61974 7.06350
#
# Compressibility (1/GPa) = 0.01905501
#
# Stress axis : x y z
#
# Youngs Moduli (GPa) = 34.34206 65.92278 71.35344
#
# Poissons Ratio (x) = 0.21715 0.84633
# Poissons Ratio (y) = 0.11312 0.31886
# Poissons Ratio (z) = 0.40733 0.29459
#
# Static dielectric constant tensor:
#      x y z
#    x 2.878590 0.000000 0.000000 
#    y 0.000000 2.780960 0.000000 
#    z 0.000000 0.000000 3.153930 
# 
# 
# High freq. dielectric constant tensor:
#      x y z
#    x 1.584820 0.000000 0.000000 
#    y 0.000000 1.559570 0.000000 
#    z 0.000000 0.000000 1.614700 
# 
# From -- ./inp_files/15209.got.cif
#   From: 2010.03.12/outbox.cif.g09.slc.cpg/sg47_8_cif.got.tgz:15209.got - 2010.04.14 03:12:58.
