data_PCOD8194050
_publ_section_title
;
Structure prediction by ZEFSAII (Michael W. Deem and Ramdas Pophale) SiO2 
 PCOD8194050
Probable space group: P M M M
;
_chemical_formula_sum "Si O2"
_cell_formula_units_Z 64
_cell_length_a 18.300221
_cell_length_b 14.568281
_cell_length_c 14.791365
_cell_angle_alpha 90.000000
_cell_angle_beta 90.000000
_cell_angle_gamma 90.000000
_cell_volume 3943.418761
_symmetry_space_group_name_H-M "P M M M"
_symmetry_group_IT_number 47
_symmetry_cell_setting 'orthorhombic'
loop_
_space_group_symop_operation_xyz
x,y,z
-x,-y,z
x,-y,-z
-x,y,-z
-x,-y,-z
x,y,-z
-x,y,z
x,-y,z
loop_
_atom_site_type_symbol
_atom_site_label
_atom_site_fract_x
_atom_site_fract_y
_atom_site_fract_z
Si Si1 0.417504 0.600619 0.837072
Si Si2 0.784792 0.892830 0.603721
Si Si3 0.832463 0.602087 0.395092
Si Si4 0.415805 0.201774 0.100998
Si Si5 0.080061 0.225906 0.393315
Si Si6 0.648789 0.108527 0.730462
Si Si7 0.326995 0.397856 0.658942
Si Si8 0.579883 0.236800 0.597724
O O1 0.500000 0.605409 0.797274
O O2 0.406596 0.500000 0.885063
O O3 0.404754 0.687516 0.902097
O O4 0.358753 0.611161 0.758615
O O5 0.764222 0.861195 0.500000
O O6 0.859818 0.847464 0.638569
O O7 0.723643 0.865473 0.677658
O O8 0.798240 0.000000 0.604287
O O9 0.811831 0.617404 0.500000
O O10 0.863388 0.500000 0.378501
O O11 0.894528 0.672621 0.362947
O O12 0.759613 0.620068 0.337090
O O13 0.500000 0.177896 0.127114
O O14 0.358728 0.151653 0.168961
O O15 0.398503 0.165839 0.000000
O O16 0.072671 0.220973 0.500000
O O17 0.000000 0.205568 0.349942
O O18 0.586655 0.157275 0.671902
O O19 0.636523 0.000000 0.735336
O O20 0.342103 0.500000 0.618797
O O21 0.362854 0.319657 0.598615
O O22 0.587485 0.188681 0.500000
O O23 0.500000 0.280855 0.611216
#
# Coordination Sequence:
#
# PCOD8194050 Si02
#       8
#     8   8   8   8   8   8   8   8
#     4   9  17  30  49  71  94 121 153 191 239 292
#     4   9  18  32  50  71  93 121 157 193 233 283
#     4   9  17  27  39  58  86 123 163 194 221 260
#     4  10  21  36  53  73  95 121 157 199 246 296
#     4   9  17  28  43  65  93 124 156 190 226 266
#     4  11  22  36  52  67  89 122 159 201 245 284
#     4  10  18  29  46  66  91 124 160 198 237 279
#     4  11  22  32  44  64  90 122 160 200 240 281
#
# _framework density 16.229572000000001
#
# number of rings (size 3 to 8) (size 9 to 14) (size 15 to 20)
#    0.000    2.250    1.250    2.250    0.000    5.250 
#    0.000    5.625    0.000    0.000    0.000    0.000 
#    0.000    0.500    0.000    2.750    0.000    7.125 
#
# Total GULP energy -792969.842353 kJ/mol
# GULP energy per Si atom -12390.153787 kJ/mol
# Density = 1.619263 g / cm^3
# Si number density = 16.229572 Si / 1000 Ang^3
#
#
#
# Elastic Constant Matrix: (Units=GPa)
#
#
# Indices 1 2 3 4 5 6 
#
# 1 89.4228 37.9034 37.5737 0.0000 0.0000 0.0000
# 2 37.9034 82.7204 33.1224 0.0000 0.0000 0.0000
# 3 37.5737 33.1224 75.5122 0.0000 0.0000 0.0000
# 4 0.0000 0.0000 0.0000 13.5642 0.0000 0.0000
# 5 0.0000 0.0000 0.0000 0.0000 9.8826 0.0000
# 6 0.0000 0.0000 0.0000 0.0000 0.0000 20.5174
#
#
#
# Elastic Compliance Matrix: (Units=1/GPa)
#
#
# Indices 1 2 3 4 5 6 
#
# 1 0.015626 -0.004909 -0.005622 0.000000 0.000000 0.000000
# 2 -0.004909 0.016207 -0.004666 0.000000 0.000000 0.000000
# 3 -0.005622 -0.004666 0.018087 0.000000 0.000000 0.000000
# 4 0.000000 0.000000 0.000000 0.073724 0.000000 0.000000
# 5 0.000000 0.000000 0.000000 0.000000 0.101188 0.000000
# 6 0.000000 0.000000 0.000000 0.000000 0.000000 0.048739
#
#
# Mechanical properties :
#
#
# Convention : Reuss Voigt Hill
#
# Bulk Modulus (GPa) = 51.21528 51.65048 51.43288
# Shear Modulus (GPa) = 16.10446 18.06321 17.08383
#
# Velocity S-wave (km/s) = 3.15348 3.33976 3.24796
# Velocity P-wave (km/s) = 6.69959 6.83857 6.76944
#
# Compressibility (1/GPa) = 0.01952542
#
# Stress axis : x y z
#
# Youngs Moduli (GPa) = 63.99690 61.70318 55.28801
#
# Poissons Ratio (x) = 0.30289 0.31083
# Poissons Ratio (y) = 0.31415 0.25799
# Poissons Ratio (z) = 0.35979 0.28792
#
# Static dielectric constant tensor:
#      x y z
#    x 3.168320 0.000000 0.000000 
#    y 0.000000 3.284540 0.000000 
#    z 0.000000 0.000000 2.773780 
# 
# 
# High freq. dielectric constant tensor:
#      x y z
#    x 1.606200 0.000000 0.000000 
#    y 0.000000 1.640340 0.000000 
#    z 0.000000 0.000000 1.579940 
# 
# From -- ./inp_files/24122.got.cif
#   From: 2010.03.12/outbox.cif.g09.slc.cpg/sg47_13_cif.got.tgz:24122.got - 2010.04.14 03:12:58.
