data_PCOD8194948
_publ_section_title
;
Structure prediction by ZEFSAII (Michael W. Deem and Ramdas Pophale) SiO2 
 PCOD8194948
Probable space group: P M M M
;
_chemical_formula_sum "Si O2"
_cell_formula_units_Z 44
_cell_length_a 13.638738
_cell_length_b 8.781939
_cell_length_c 21.168414
_cell_angle_alpha 90.000000
_cell_angle_beta 90.000000
_cell_angle_gamma 90.000000
_cell_volume 2535.437582
_symmetry_space_group_name_H-M "P M M M"
_symmetry_group_IT_number 47
_symmetry_cell_setting 'orthorhombic'
loop_
_space_group_symop_operation_xyz
x,y,z
-x,-y,z
x,-y,-z
-x,y,-z
-x,-y,-z
x,y,-z
-x,y,z
x,-y,z
loop_
_atom_site_type_symbol
_atom_site_label
_atom_site_fract_x
_atom_site_fract_y
_atom_site_fract_z
Si Si1 0.700247 0.179091 0.689821
Si Si2 0.106428 0.179489 0.752054
Si Si3 0.612550 0.322922 0.810048
Si Si4 0.112314 0.680262 0.000000
Si Si5 0.386470 0.324406 0.571302
Si Si6 0.211705 0.820387 0.878669
O O1 0.812116 0.234801 0.701922
O O2 0.628392 0.261769 0.738928
O O3 0.675017 0.219257 0.618106
O O4 0.689802 0.000000 0.701603
O O5 0.139498 0.227099 0.822041
O O6 0.000000 0.254268 0.737234
O O7 0.096959 0.000000 0.748437
O O8 0.500000 0.294898 0.829021
O O9 0.639760 0.500000 0.811247
O O10 0.678923 0.235487 0.861311
O O11 0.171214 0.738831 0.060026
O O12 0.112861 0.500000 0.000000
O O13 0.000000 0.741814 0.000000
O O14 0.351079 0.290508 0.500000
O O15 0.500000 0.282474 0.578245
O O16 0.368863 0.500000 0.588547
O O17 0.214792 0.000000 0.890116
#
# Coordination Sequence:
#
# PCOD8194948 Si02
#       6
#     8   8   8   4   8   8
#     4  10  19  29  47  75 100 125 161 204 245 286
#     4   8  15  29  48  70  96 124 155 194 240 286
#     4  10  20  34  52  73 101 136 167 198 243 299
#     4  11  23  37  54  77 106 137 167 202 246 299
#     4   9  18  32  48  66  92 128 164 196 239 296
#     4  10  20  34  54  78 101 128 166 211 252 290
#
# _framework density 17.354006999999999
#
# number of rings (size 3 to 8) (size 9 to 14) (size 15 to 20)
#    0.000    2.455    0.000    4.636    0.000    5.818 
#    0.000    1.364    0.000   14.182    0.000    3.818 
#    0.000    0.000    0.000    0.000    0.000    0.000 
#
# Total GULP energy -545529.648385 kJ/mol
# GULP energy per Si atom -12398.401100 kJ/mol
# Density = 1.731451 g / cm^3
# Si number density = 17.354007 Si / 1000 Ang^3
#
#
#
# Elastic Constant Matrix: (Units=GPa)
#
#
# Indices 1 2 3 4 5 6 
#
# 1 113.5891 36.4297 53.8630 0.0000 0.0000 0.0000
# 2 36.4297 58.5707 30.2761 0.0000 0.0000 0.0000
# 3 53.8630 30.2761 106.5348 0.0000 0.0000 0.0000
# 4 0.0000 0.0000 0.0000 31.8298 0.0000 0.0000
# 5 0.0000 0.0000 0.0000 0.0000 20.6061 0.0000
# 6 0.0000 0.0000 0.0000 0.0000 0.0000 21.3278
#
#
#
# Elastic Compliance Matrix: (Units=1/GPa)
#
#
# Indices 1 2 3 4 5 6 
#
# 1 0.012915 -0.005460 -0.004978 0.000000 0.000000 0.000000
# 2 -0.005460 0.022321 -0.003583 0.000000 0.000000 0.000000
# 3 -0.004978 -0.003583 0.012922 0.000000 0.000000 0.000000
# 4 0.000000 0.000000 0.000000 0.031417 0.000000 0.000000
# 5 0.000000 0.000000 0.000000 0.000000 0.048529 0.000000
# 6 0.000000 0.000000 0.000000 0.000000 0.000000 0.046887
#
#
# Mechanical properties :
#
#
# Convention : Reuss Voigt Hill
#
# Bulk Modulus (GPa) = 49.71081 57.75912 53.73496
# Shear Modulus (GPa) = 23.83907 25.29447 24.56677
#
# Velocity S-wave (km/s) = 3.71036 3.82194 3.76656
# Velocity P-wave (km/s) = 6.86025 7.26852 7.06733
#
# Compressibility (1/GPa) = 0.02011635
#
# Stress axis : x y z
#
# Youngs Moduli (GPa) = 77.42734 44.80009 77.38828
#
# Poissons Ratio (x) = 0.24460 0.38526
# Poissons Ratio (y) = 0.42273 0.27729
# Poissons Ratio (z) = 0.38545 0.16052
#
# Static dielectric constant tensor:
#      x y z
#    x 3.491830 0.000000 0.000000 
#    y 0.000000 3.152800 0.000000 
#    z 0.000000 0.000000 3.131250 
# 
# 
# High freq. dielectric constant tensor:
#      x y z
#    x 1.671270 0.000000 0.000000 
#    y 0.000000 1.666610 0.000000 
#    z 0.000000 0.000000 1.659920 
# 
# From -- ./inp_files/30771.got.cif
#   From: 2010.03.12/outbox.cif.g09.slc.cpg/sg47_16_cif.got.tgz:30771.got - 2010.04.14 03:12:58.
