data_PCOD8194585
_publ_section_title
;
Structure prediction by ZEFSAII (Michael W. Deem and Ramdas Pophale) SiO2 
 PCOD8194585
Probable space group: P M M M
;
_chemical_formula_sum "Si O2"
_cell_formula_units_Z 52
_cell_length_a 9.034877
_cell_length_b 26.690779
_cell_length_c 12.280020
_cell_angle_alpha 90.000000
_cell_angle_beta 90.000000
_cell_angle_gamma 90.000000
_cell_volume 2961.301100
_symmetry_space_group_name_H-M "P M M M"
_symmetry_group_IT_number 47
_symmetry_cell_setting 'orthorhombic'
loop_
_space_group_symop_operation_xyz
x,y,z
-x,-y,z
x,-y,-z
-x,y,-z
-x,-y,-z
x,y,-z
-x,y,z
x,-y,z
loop_
_atom_site_type_symbol
_atom_site_label
_atom_site_fract_x
_atom_site_fract_y
_atom_site_fract_z
Si Si1 0.176027 0.443672 0.500000
Si Si2 0.331949 0.556878 0.872881
Si Si3 0.826415 0.918424 0.728157
Si Si4 0.825663 0.620507 0.296687
Si Si5 0.325654 0.000000 0.872698
Si Si6 0.158363 0.943913 0.500000
Si Si7 0.831117 0.817233 0.624691
Si Si8 0.327754 0.284002 0.625470
O O1 0.241732 0.500000 0.500000
O O2 0.234793 0.414330 0.394399
O O3 0.000000 0.445823 0.500000
O O4 0.500000 0.567046 0.834587
O O5 0.286447 0.500000 0.844413
O O6 0.219972 0.594620 0.815419
O O7 0.316735 0.566722 0.000000
O O8 0.740846 0.948483 0.822398
O O9 0.754507 0.934091 0.611835
O O10 0.804866 0.858260 0.721571
O O11 0.000000 0.932880 0.737345
O O12 0.754216 0.675270 0.301094
O O13 0.000000 0.627000 0.302394
O O14 0.500000 0.000000 0.852526
O O15 0.286036 0.000000 0.000000
O O16 0.000000 0.912361 0.500000
O O17 0.108995 0.000000 0.500000
O O18 0.793823 0.837047 0.500000
O O19 0.727601 0.771148 0.656855
O O20 0.000000 0.798640 0.627465
O O21 0.290494 0.295353 0.500000
O O22 0.500000 0.286762 0.650639
#
# Coordination Sequence:
#
# PCOD8194585 Si02
#       8
#     4   8   8   8   4   4   8   8
#     4   9  18  30  44  69 104 138 171 211 263 314
#     4   9  19  36  55  75 102 135 170 211 262 318
#     4  10  18  32  56  81 105 135 172 213 257 310
#     4  11  20  32  52  75 104 139 177 221 264 309
#     4  11  25  40  51  70 106 149 186 219 256 301
#     4   9  14  24  47  78 107 129 154 197 251 302
#     4   9  17  30  52  80 108 135 166 208 263 317
#     4  10  20  33  49  72 107 145 179 212 252 312
#
# _framework density 17.559849
#
# number of rings (size 3 to 8) (size 9 to 14) (size 15 to 20)
#    0.000    2.231    2.308    2.077    0.000    3.077 
#    0.000    1.538    0.000    2.769    0.000    4.308 
#    0.000    0.000    0.000    0.000    0.000    0.000 
#
# Total GULP energy -644435.011425 kJ/mol
# GULP energy per Si atom -12392.980989 kJ/mol
# Density = 1.751988 g / cm^3
# Si number density = 17.559849 Si / 1000 Ang^3
#
#
#
# Elastic Constant Matrix: (Units=GPa)
#
#
# Indices 1 2 3 4 5 6 
#
# 1 74.9295 52.7659 40.0641 0.0000 0.0000 0.0000
# 2 52.7659 118.3220 51.2074 0.0000 0.0000 0.0000
# 3 40.0641 51.2074 82.7093 0.0000 0.0000 0.0000
# 4 0.0000 0.0000 0.0000 22.5020 0.0000 0.0000
# 5 0.0000 0.0000 0.0000 0.0000 25.4490 0.0000
# 6 0.0000 0.0000 0.0000 0.0000 0.0000 28.1051
#
#
#
# Elastic Compliance Matrix: (Units=1/GPa)
#
#
# Indices 1 2 3 4 5 6 
#
# 1 0.021507 -0.006943 -0.006120 0.000000 0.000000 0.000000
# 2 -0.006943 0.013786 -0.005172 0.000000 0.000000 0.000000
# 3 -0.006120 -0.005172 0.018257 0.000000 0.000000 0.000000
# 4 0.000000 0.000000 0.000000 0.044441 0.000000 0.000000
# 5 0.000000 0.000000 0.000000 0.000000 0.039294 0.000000
# 6 0.000000 0.000000 0.000000 0.000000 0.000000 0.035581
#
#
# Mechanical properties :
#
#
# Convention : Reuss Voigt Hill
#
# Bulk Modulus (GPa) = 58.54392 62.67062 60.60727
# Shear Modulus (GPa) = 23.25272 24.00611 23.62942
#
# Velocity S-wave (km/s) = 3.64290 3.70145 3.67229
# Velocity P-wave (km/s) = 7.14887 7.35084 7.25056
#
# Compressibility (1/GPa) = 0.01708119
#
# Stress axis : x y z
#
# Youngs Moduli (GPa) = 46.49640 72.53684 54.77310
#
# Poissons Ratio (x) = 0.50360 0.33519
# Poissons Ratio (y) = 0.32281 0.28330
# Poissons Ratio (z) = 0.28454 0.37518
#
# Static dielectric constant tensor:
#      x y z
#    x 3.056290 0.000000 0.000000 
#    y 0.000000 3.314750 0.000000 
#    z 0.000000 0.000000 3.094720 
# 
# 
# High freq. dielectric constant tensor:
#      x y z
#    x 1.663650 0.000000 0.000000 
#    y 0.000000 1.688310 0.000000 
#    z 0.000000 0.000000 1.648780 
# 
# From -- ./inp_files/15704.got.cif
#   From: 2010.03.12/outbox.cif.g09.slc.cpg/sg47_8_cif.got.tgz:15704.got - 2010.04.14 03:12:58.
