data_PCOD8194054
_publ_section_title
;
Structure prediction by ZEFSAII (Michael W. Deem and Ramdas Pophale) SiO2 
 PCOD8194054
Probable space group: P M M M
;
_chemical_formula_sum "Si O2"
_cell_formula_units_Z 52
_cell_length_a 29.879626
_cell_length_b 9.368604
_cell_length_c 12.641813
_cell_angle_alpha 90.000000
_cell_angle_beta 90.000000
_cell_angle_gamma 90.000000
_cell_volume 3538.827563
_symmetry_space_group_name_H-M "P M M M"
_symmetry_group_IT_number 47
_symmetry_cell_setting 'orthorhombic'
loop_
_space_group_symop_operation_xyz
x,y,z
-x,-y,z
x,-y,-z
-x,y,-z
-x,-y,-z
x,y,-z
-x,y,z
x,-y,z
loop_
_atom_site_type_symbol
_atom_site_label
_atom_site_fract_x
_atom_site_fract_y
_atom_site_fract_z
Si Si1 0.550839 0.665597 0.877905
Si Si2 0.132412 0.161076 0.626304
Si Si3 0.698090 0.163736 0.377543
Si Si4 0.398055 0.832937 0.294858
Si Si5 0.950449 0.660236 0.625769
Si Si6 0.783217 0.338667 0.625915
Si Si7 0.550646 0.830107 0.500000
O O1 0.500000 0.710371 0.849841
O O2 0.558082 0.500000 0.852905
O O3 0.585635 0.756133 0.810423
O O4 0.560798 0.698326 0.000000
O O5 0.132513 0.161400 0.500000
O O6 0.086857 0.232164 0.671060
O O7 0.174362 0.251272 0.670252
O O8 0.135483 0.000000 0.669830
O O9 0.686816 0.194511 0.500000
O O10 0.654404 0.198756 0.308988
O O11 0.737848 0.263371 0.334568
O O12 0.713180 0.000000 0.363581
O O13 0.424813 0.770796 0.395749
O O14 0.407371 0.000000 0.282677
O O15 0.948686 0.660894 0.500000
O O16 0.940227 0.500000 0.666473
O O17 0.000000 0.708988 0.663904
O O18 0.784466 0.337976 0.500000
O O19 0.784932 0.500000 0.669886
O O20 0.500000 0.773527 0.500000
O O21 0.553227 0.000000 0.500000
#
# Coordination Sequence:
#
# PCOD8194054 Si02
#       7
#     8   8   8   8   8   8   4
#     4   9  19  35  50  63  83 110 136 164 199 233
#     4   9  15  21  29  41  56  76 104 139 180 222
#     4   9  16  27  40  55  78 102 123 148 186 231
#     4  10  18  29  46  67  86 107 133 162 194 233
#     4   8  13  20  28  37  51  72  98 132 176 223
#     4   9  16  24  34  47  63  86 117 148 178 216
#     4   9  16  26  41  63  89 111 129 153 190 233
#
# _framework density 14.694132
#
# number of rings (size 3 to 8) (size 9 to 14) (size 15 to 20)
#    0.000    3.000    0.769    2.308    0.000    5.846 
#    0.000    2.692    0.000    1.385    0.000    0.000 
#    0.000    0.000    0.000    0.000    0.000    0.000 
#
# Total GULP energy -644643.753913 kJ/mol
# GULP energy per Si atom -12396.995268 kJ/mol
# Density = 1.466069 g / cm^3
# Si number density = 14.694132 Si / 1000 Ang^3
#
#
#
# Elastic Constant Matrix: (Units=GPa)
#
#
# Indices 1 2 3 4 5 6 
#
# 1 129.8136 76.1736 32.9004 0.0000 0.0000 0.0000
# 2 76.1736 98.0287 26.2297 0.0000 0.0000 0.0000
# 3 32.9004 26.2297 34.5179 0.0000 0.0000 0.0000
# 4 0.0000 0.0000 0.0000 13.3042 0.0000 0.0000
# 5 0.0000 0.0000 0.0000 0.0000 6.4945 0.0000
# 6 0.0000 0.0000 0.0000 0.0000 0.0000 30.4404
#
#
#
# Elastic Compliance Matrix: (Units=1/GPa)
#
#
# Indices 1 2 3 4 5 6 
#
# 1 0.015403 -0.010093 -0.007012 0.000000 0.000000 0.000000
# 2 -0.010093 0.019418 -0.005136 0.000000 0.000000 0.000000
# 3 -0.007012 -0.005136 0.039556 0.000000 0.000000 0.000000
# 4 0.000000 0.000000 0.000000 0.075164 0.000000 0.000000
# 5 0.000000 0.000000 0.000000 0.000000 0.153976 0.000000
# 6 0.000000 0.000000 0.000000 0.000000 0.000000 0.032851
#
#
# Mechanical properties :
#
#
# Convention : Reuss Voigt Hill
#
# Bulk Modulus (GPa) = 33.44854 59.21862 46.33358
# Shear Modulus (GPa) = 12.79384 18.51825 15.65605
#
# Velocity S-wave (km/s) = 2.95392 3.55385 3.26768
# Velocity P-wave (km/s) = 5.86914 7.56493 6.77034
#
# Compressibility (1/GPa) = 0.02989667
#
# Stress axis : x y z
#
# Youngs Moduli (GPa) = 64.92381 51.49928 25.28061
#
# Poissons Ratio (x) = 0.51976 0.17726
# Poissons Ratio (y) = 0.65525 0.12983
# Poissons Ratio (z) = 0.45522 0.26448
#
# Static dielectric constant tensor:
#      x y z
#    x 3.037660 0.000000 0.000000 
#    y 0.000000 2.891570 0.000000 
#    z 0.000000 0.000000 2.267010 
# 
# 
# High freq. dielectric constant tensor:
#      x y z
#    x 1.575190 0.000000 0.000000 
#    y 0.000000 1.563470 0.000000 
#    z 0.000000 0.000000 1.482510 
# 
# From -- ./inp_files/15657.got.cif
#   From: 2010.03.12/outbox.cif.g09.slc.cpg/sg47_8_cif.got.tgz:15657.got - 2010.04.14 03:12:58.
