data_PCOD8194627
_publ_section_title
;
Structure prediction by ZEFSAII (Michael W. Deem and Ramdas Pophale) SiO2 
 PCOD8194627
Probable space group: P M M M
;
_chemical_formula_sum "Si O2"
_cell_formula_units_Z 52
_cell_length_a 14.943617
_cell_length_b 20.015347
_cell_length_c 9.255010
_cell_angle_alpha 90.000000
_cell_angle_beta 90.000000
_cell_angle_gamma 90.000000
_cell_volume 2768.189037
_symmetry_space_group_name_H-M "P M M M"
_symmetry_group_IT_number 47
_symmetry_cell_setting 'orthorhombic'
loop_
_space_group_symop_operation_xyz
x,y,z
-x,-y,z
x,-y,-z
-x,y,-z
-x,-y,-z
x,y,-z
-x,y,z
x,-y,z
loop_
_atom_site_type_symbol
_atom_site_label
_atom_site_fract_x
_atom_site_fract_y
_atom_site_fract_z
Si Si1 0.896538 0.923007 0.664600
Si Si2 0.500000 0.426101 0.650579
Si Si3 0.789432 0.814248 0.827903
Si Si4 0.100449 0.701182 0.333601
Si Si5 0.400924 0.223452 0.830008
Si Si6 0.847120 0.422647 0.833793
Si Si7 0.351730 0.370730 0.164199
O O1 0.878539 0.899515 0.500000
O O2 0.837494 0.880970 0.775077
O O3 0.000000 0.912421 0.703703
O O4 0.869579 0.000000 0.683193
O O5 0.500000 0.500000 0.596492
O O6 0.500000 0.382945 0.500000
O O7 0.588403 0.418065 0.742133
O O8 0.832790 0.748859 0.755013
O O9 0.683660 0.823093 0.785072
O O10 0.800173 0.805488 0.000000
O O11 0.132553 0.697366 0.500000
O O12 0.095052 0.626380 0.266771
O O13 0.000000 0.731236 0.325221
O O14 0.500000 0.204813 0.762628
O O15 0.369013 0.296143 0.778514
O O16 0.412169 0.221247 0.000000
O O17 0.855943 0.500000 0.783033
O O18 0.747774 0.395625 0.815065
O O19 0.878603 0.416598 0.000000
O O20 0.382936 0.376334 0.000000
#
# Coordination Sequence:
#
# PCOD8194627 Si02
#       7
#     8   4   8   8   8   8   8
#     4   9  19  37  60  87 122 160 190 217 261 325
#     4  11  23  33  43  69 105 133 166 221 284 339
#     4  11  21  35  59  88 116 145 184 234 277 317
#     4  11  24  39  55  77 108 147 187 226 276 342
#     4   9  17  32  55  80 106 138 178 224 273 325
#     4  10  21  37  56  77 101 132 178 237 293 340
#     4  10  18  34  56  73  94 132 179 223 276 341
#
# _framework density 18.784844
#
# number of rings (size 3 to 8) (size 9 to 14) (size 15 to 20)
#    0.000    1.923    2.308    2.538    0.000    6.154 
#    0.000    2.308    0.000    0.462    0.000    3.231 
#    0.000    0.000    0.000    0.000    0.000    0.000 
#
# Total GULP energy -644321.067686 kJ/mol
# GULP energy per Si atom -12390.789763 kJ/mol
# Density = 1.874209 g / cm^3
# Si number density = 18.784844 Si / 1000 Ang^3
#
#
#
# Elastic Constant Matrix: (Units=GPa)
#
#
# Indices 1 2 3 4 5 6 
#
# 1 115.3405 44.7326 49.2967 0.0000 0.0000 0.0000
# 2 44.7326 85.2995 36.3956 0.0000 0.0000 0.0000
# 3 49.2967 36.3956 81.2772 0.0000 0.0000 0.0000
# 4 0.0000 0.0000 0.0000 27.7729 0.0000 0.0000
# 5 0.0000 0.0000 0.0000 0.0000 112.8646 0.0000
# 6 0.0000 0.0000 0.0000 0.0000 0.0000 43.3837
#
#
#
# Elastic Compliance Matrix: (Units=1/GPa)
#
#
# Indices 1 2 3 4 5 6 
#
# 1 0.012820 -0.004210 -0.005891 0.000000 0.000000 0.000000
# 2 -0.004210 0.015875 -0.004555 0.000000 0.000000 0.000000
# 3 -0.005891 -0.004555 0.017916 0.000000 0.000000 0.000000
# 4 0.000000 0.000000 0.000000 0.036006 0.000000 0.000000
# 5 0.000000 0.000000 0.000000 0.000000 0.008860 0.000000
# 6 0.000000 0.000000 0.000000 0.000000 0.000000 0.023050
#
#
# Mechanical properties :
#
#
# Convention : Reuss Voigt Hill
#
# Bulk Modulus (GPa) = 57.80431 60.30744 59.05588
# Shear Modulus (GPa) = 33.42105 46.90373 40.16239
#
# Velocity S-wave (km/s) = 4.22257 5.00231 4.62889
# Velocity P-wave (km/s) = 7.39000 8.09557 7.75081
#
# Compressibility (1/GPa) = 0.01729975
#
# Stress axis : x y z
#
# Youngs Moduli (GPa) = 78.00076 62.99320 55.81500
#
# Poissons Ratio (x) = 0.26519 0.32879
# Poissons Ratio (y) = 0.32837 0.25425
# Poissons Ratio (z) = 0.45949 0.28695
#
# Static dielectric constant tensor:
#      x y z
#    x -0.890800 0.000000 0.000000 
#    y 0.000000 3.313520 0.000000 
#    z 0.000000 0.000000 3.347130 
# 
# 
# High freq. dielectric constant tensor:
#      x y z
#    x 1.738260 0.000000 0.000000 
#    y 0.000000 1.709190 0.000000 
#    z 0.000000 0.000000 1.719350 
# 
# From -- ./inp_files/7020.got.cif
#   From: 2010.03.12/outbox.cif.g09.slc.cpg/sg47_4_cif.got.tgz:7020.got - 2010.04.14 03:12:58.
