data_PCOD8194315
_publ_section_title
;
Structure prediction by ZEFSAII (Michael W. Deem and Ramdas Pophale) SiO2 
 PCOD8194315
Probable space group: P M M M
;
_chemical_formula_sum "Si O2"
_cell_formula_units_Z 64
_cell_length_a 15.284546
_cell_length_b 24.865140
_cell_length_c 9.177005
_cell_angle_alpha 90.000000
_cell_angle_beta 90.000000
_cell_angle_gamma 90.000000
_cell_volume 3487.742556
_symmetry_space_group_name_H-M "P M M M"
_symmetry_group_IT_number 47
_symmetry_cell_setting 'orthorhombic'
loop_
_space_group_symop_operation_xyz
x,y,z
-x,-y,z
x,-y,-z
-x,y,-z
-x,-y,-z
x,y,-z
-x,y,z
x,-y,z
loop_
_atom_site_type_symbol
_atom_site_label
_atom_site_fract_x
_atom_site_fract_y
_atom_site_fract_z
Si Si1 0.127847 0.716289 0.335777
Si Si2 0.744897 0.438716 0.668478
Si Si3 0.716506 0.854172 0.170545
Si Si4 0.595959 0.359922 0.326691
Si Si5 0.676213 0.251954 0.664033
Si Si6 0.599057 0.062377 0.330995
Si Si7 0.902434 0.390989 0.167279
Si Si8 0.905216 0.821516 0.166270
O O1 0.092406 0.710010 0.500000
O O2 0.231852 0.717775 0.334457
O O3 0.095532 0.667188 0.240209
O O4 0.088871 0.770427 0.269671
O O5 0.762457 0.424305 0.500000
O O6 0.713762 0.500000 0.686773
O O7 0.668894 0.400719 0.736156
O O8 0.835166 0.430571 0.753708
O O9 0.673909 0.799612 0.232163
O O10 0.669744 0.905363 0.238791
O O11 0.820796 0.857861 0.208872
O O12 0.699384 0.855059 0.000000
O O13 0.600478 0.362646 0.500000
O O14 0.500000 0.377735 0.270264
O O15 0.610285 0.297830 0.277690
O O16 0.652710 0.232657 0.500000
O O17 0.615323 0.074365 0.500000
O O18 0.500000 0.079251 0.288230
O O19 0.613539 0.000000 0.296012
O O20 0.000000 0.415910 0.179393
O O21 0.873887 0.384495 0.000000
O O22 0.000000 0.852092 0.182304
O O23 0.892003 0.801960 0.000000
#
# Coordination Sequence:
#
# PCOD8194315 Si02
#       8
#     8   8   8   8   8   8   8   8
#     4  10  18  30  50  76 105 135 173 218 258 301
#     4  10  21  38  58  79 102 128 166 218 267 310
#     4  10  20  32  51  81 112 142 179 222 264 307
#     4   9  17  32  55  81 106 133 167 207 256 314
#     4   9  17  31  50  74 108 144 174 206 252 310
#     4   9  19  37  59  80 104 139 182 224 269 322
#     4  11  23  36  52  74 101 135 172 209 256 317
#     4   9  18  32  48  71 109 151 184 213 253 308
#
# _framework density 18.349979000000001
#
# number of rings (size 3 to 8) (size 9 to 14) (size 15 to 20)
#    0.000    2.375    1.250    1.875    0.000    5.500 
#    0.000    4.375    0.000    1.500    0.000    3.500 
#    0.000    0.000    0.000    0.000    0.000    0.000 
#
# Total GULP energy -793350.383331 kJ/mol
# GULP energy per Si atom -12396.099740 kJ/mol
# Density = 1.830821 g / cm^3
# Si number density = 18.349979 Si / 1000 Ang^3
#
#
#
# Elastic Constant Matrix: (Units=GPa)
#
#
# Indices 1 2 3 4 5 6 
#
# 1 124.2304 61.2040 48.3319 0.0000 0.0000 0.0000
# 2 61.2040 84.7918 45.2131 0.0000 0.0000 0.0000
# 3 48.3319 45.2131 83.5697 0.0000 0.0000 0.0000
# 4 0.0000 0.0000 0.0000 16.0459 0.0000 0.0000
# 5 0.0000 0.0000 0.0000 0.0000 22.2821 0.0000
# 6 0.0000 0.0000 0.0000 0.0000 0.0000 11.8451
#
#
#
# Elastic Compliance Matrix: (Units=1/GPa)
#
#
# Indices 1 2 3 4 5 6 
#
# 1 0.013174 -0.007655 -0.003478 0.000000 0.000000 0.000000
# 2 -0.007655 0.021023 -0.006947 0.000000 0.000000 0.000000
# 3 -0.003478 -0.006947 0.017736 0.000000 0.000000 0.000000
# 4 0.000000 0.000000 0.000000 0.062321 0.000000 0.000000
# 5 0.000000 0.000000 0.000000 0.000000 0.044879 0.000000
# 6 0.000000 0.000000 0.000000 0.000000 0.000000 0.084423
#
#
# Mechanical properties :
#
#
# Convention : Reuss Voigt Hill
#
# Bulk Modulus (GPa) = 63.39471 66.89888 65.14680
# Shear Modulus (GPa) = 17.54555 19.22415 18.38485
#
# Velocity S-wave (km/s) = 3.09554 3.24024 3.16871
# Velocity P-wave (km/s) = 6.88470 7.10881 6.99765
#
# Compressibility (1/GPa) = 0.01577419
#
# Stress axis : x y z
#
# Youngs Moduli (GPa) = 75.90902 47.56664 56.38326
#
# Poissons Ratio (x) = 0.36410 0.19608
# Poissons Ratio (y) = 0.58106 0.39170
# Poissons Ratio (z) = 0.26398 0.33045
#
# Static dielectric constant tensor:
#      x y z
#    x 3.644960 0.000000 0.000000 
#    y 0.000000 3.131940 0.000000 
#    z 0.000000 0.000000 3.298000 
# 
# 
# High freq. dielectric constant tensor:
#      x y z
#    x 1.722510 0.000000 0.000000 
#    y 0.000000 1.686790 0.000000 
#    z 0.000000 0.000000 1.699180 
# 
# From -- ./inp_files/7848.got.cif
#   From: 2010.03.12/outbox.cif.g09.slc.cpg/sg47_4_cif.got.tgz:7848.got - 2010.04.14 03:12:58.
