data_PCOD8194892
_publ_section_title
;
Structure prediction by ZEFSAII (Michael W. Deem and Ramdas Pophale) SiO2 
 PCOD8194892
Probable space group: P M M M
;
_chemical_formula_sum "Si O2"
_cell_formula_units_Z 52
_cell_length_a 13.575542
_cell_length_b 9.374140
_cell_length_c 26.229082
_cell_angle_alpha 90.000000
_cell_angle_beta 90.000000
_cell_angle_gamma 90.000000
_cell_volume 3337.887567
_symmetry_space_group_name_H-M "P M M M"
_symmetry_group_IT_number 47
_symmetry_cell_setting 'orthorhombic'
loop_
_space_group_symop_operation_xyz
x,y,z
-x,-y,z
x,-y,-z
-x,y,-z
-x,-y,-z
x,y,-z
-x,y,z
x,-y,z
loop_
_atom_site_type_symbol
_atom_site_label
_atom_site_fract_x
_atom_site_fract_y
_atom_site_fract_z
Si Si1 0.889793 0.336437 0.737269
Si Si2 0.382901 0.838783 0.000000
Si Si3 0.614761 0.665442 0.097292
Si Si4 0.200349 0.167416 0.647571
Si Si5 0.113756 0.335780 0.558558
Si Si6 0.390217 0.836615 0.707477
Si Si7 0.300738 0.665705 0.203764
O O1 0.875883 0.500000 0.719421
O O2 0.873090 0.236731 0.688556
O O3 0.813090 0.299508 0.782463
O O4 0.000000 0.310018 0.758331
O O5 0.344443 0.757544 0.949848
O O6 0.500000 0.835918 0.000000
O O7 0.342087 0.000000 0.000000
O O8 0.500000 0.695404 0.108176
O O9 0.632236 0.500000 0.084267
O O10 0.677449 0.715529 0.146292
O O11 0.182595 0.235061 0.592383
O O12 0.312948 0.202814 0.663101
O O13 0.178956 0.000000 0.645182
O O14 0.139839 0.304283 0.500000
O O15 0.135233 0.500000 0.571967
O O16 0.000000 0.299787 0.569464
O O17 0.500000 0.807029 0.686356
O O18 0.373442 0.745255 0.757970
O O19 0.376164 0.000000 0.723870
O O20 0.325427 0.500000 0.209319
#
# Coordination Sequence:
#
# PCOD8194892 Si02
#       7
#     8   4   8   8   8   8   8
#     4   9  17  29  44  62  87 117 143 168 204 250
#     4   9  17  27  39  57  80 107 138 168 201 247
#     4   9  16  26  40  58  82 109 135 168 209 246
#     4  10  19  29  44  66  88 111 141 175 208 244
#     4   9  18  32  48  65  86 112 139 168 208 256
#     4   9  18  31  44  60  86 117 144 171 206 247
#     4   9  17  28  43  64  86 110 143 177 207 244
#
# _framework density 15.578715000000001
#
# number of rings (size 3 to 8) (size 9 to 14) (size 15 to 20)
#    0.000    2.846    0.000    2.077    0.000    5.846 
#    0.000    2.308    0.000    0.462    0.000    3.769 
#    0.000    4.308    0.000    0.000    0.000    0.000 
#
# Total GULP energy -644769.274016 kJ/mol
# GULP energy per Si atom -12399.409116 kJ/mol
# Density = 1.554326 g / cm^3
# Si number density = 15.578715 Si / 1000 Ang^3
#
#
#
# Elastic Constant Matrix: (Units=GPa)
#
#
# Indices 1 2 3 4 5 6 
#
# 1 85.0792 37.7798 52.9512 0.0000 0.0000 0.0000
# 2 37.7798 72.7413 61.6923 0.0000 0.0000 0.0000
# 3 52.9512 61.6923 124.7468 0.0000 0.0000 0.0000
# 4 0.0000 0.0000 0.0000 17.2375 0.0000 0.0000
# 5 0.0000 0.0000 0.0000 0.0000 21.2159 0.0000
# 6 0.0000 0.0000 0.0000 0.0000 0.0000 18.9758
#
#
#
# Elastic Compliance Matrix: (Units=1/GPa)
#
#
# Indices 1 2 3 4 5 6 
#
# 1 0.016829 -0.004620 -0.004859 0.000000 0.000000 0.000000
# 2 -0.004620 0.024947 -0.010376 0.000000 0.000000 0.000000
# 3 -0.004859 -0.010376 0.015210 0.000000 0.000000 0.000000
# 4 0.000000 0.000000 0.000000 0.058013 0.000000 0.000000
# 5 0.000000 0.000000 0.000000 0.000000 0.047135 0.000000
# 6 0.000000 0.000000 0.000000 0.000000 0.000000 0.052699
#
#
# Mechanical properties :
#
#
# Convention : Reuss Voigt Hill
#
# Bulk Modulus (GPa) = 57.88223 65.26821 61.57522
# Shear Modulus (GPa) = 19.20853 20.16212 19.68532
#
# Velocity S-wave (km/s) = 3.51522 3.60141 3.55858
# Velocity P-wave (km/s) = 7.32878 7.69937 7.51636
#
# Compressibility (1/GPa) = 0.01727646
#
# Stress axis : x y z
#
# Youngs Moduli (GPa) = 59.42052 40.08502 65.74562
#
# Poissons Ratio (x) = 0.18519 0.31944
# Poissons Ratio (y) = 0.27451 0.68220
# Poissons Ratio (z) = 0.28871 0.41593
#
# Static dielectric constant tensor:
#      x y z
#    x 2.934940 0.000000 0.000000 
#    y 0.000000 3.033020 0.000000 
#    z 0.000000 0.000000 2.930470 
# 
# 
# High freq. dielectric constant tensor:
#      x y z
#    x 1.577250 0.000000 0.000000 
#    y 0.000000 1.602730 0.000000 
#    z 0.000000 0.000000 1.587460 
# 
# From -- ./inp_files/7998.got.cif
#   From: 2010.03.12/outbox.cif.g09.slc.cpg/sg47_4_cif.got.tgz:7998.got - 2010.04.14 03:12:58.
