data_PCOD8194496
_publ_section_title
;
Structure prediction by ZEFSAII (Michael W. Deem and Ramdas Pophale) SiO2 
 PCOD8194496
Probable space group: P M M M
;
_chemical_formula_sum "Si O2"
_cell_formula_units_Z 64
_cell_length_a 25.613344
_cell_length_b 14.316152
_cell_length_c 9.675834
_cell_angle_alpha 90.000000
_cell_angle_beta 90.000000
_cell_angle_gamma 90.000000
_cell_volume 3547.978603
_symmetry_space_group_name_H-M "P M M M"
_symmetry_group_IT_number 47
_symmetry_cell_setting 'orthorhombic'
loop_
_space_group_symop_operation_xyz
x,y,z
-x,-y,z
x,-y,-z
-x,y,-z
-x,-y,-z
x,y,-z
-x,y,z
x,-y,z
loop_
_atom_site_type_symbol
_atom_site_label
_atom_site_fract_x
_atom_site_fract_y
_atom_site_fract_z
Si Si1 0.848227 0.395554 0.663705
Si Si2 0.902172 0.106182 0.158201
Si Si3 0.440470 0.730003 0.660961
Si Si4 0.058742 0.732762 0.340880
Si Si5 0.749305 0.725324 0.664288
Si Si6 0.780548 0.893627 0.159370
Si Si7 0.438010 0.897353 0.845866
Si Si8 0.652611 0.396905 0.336968
O O1 0.847517 0.403429 0.500000
O O2 0.845446 0.500000 0.727798
O O3 0.901411 0.345915 0.715150
O O4 0.798981 0.335075 0.713824
O O5 0.935876 0.172005 0.256137
O O6 0.841422 0.118258 0.192543
O O7 0.919706 0.000000 0.186146
O O8 0.913382 0.133537 0.000000
O O9 0.436372 0.753274 0.500000
O O10 0.500000 0.705877 0.703804
O O11 0.417575 0.820480 0.738971
O O12 0.404347 0.642900 0.702833
O O13 0.071401 0.756287 0.500000
O O14 0.000000 0.693905 0.323706
O O15 0.749396 0.742373 0.500000
O O16 0.748664 0.824993 0.740528
O O17 0.698268 0.670308 0.717104
O O18 0.763007 0.000000 0.190033
O O19 0.769016 0.868520 0.000000
O O20 0.500000 0.899471 0.842310
O O21 0.416545 0.000000 0.803590
O O22 0.418525 0.871744 0.000000
O O23 0.658378 0.405318 0.500000
O O24 0.657912 0.500000 0.270157
#
# Coordination Sequence:
#
# PCOD8194496 Si02
#       8
#     8   8   8   8   8   8   8   8
#     4   9  17  30  49  72  95 122 159 200 243 290
#     4   9  18  33  52  72  96 130 167 198 236 292
#     4   9  17  29  47  72 100 131 166 202 243 290
#     4  10  20  32  47  72 103 130 161 205 249 285
#     4  10  18  31  54  78  97 123 162 204 242 284
#     4   9  18  33  53  76 102 131 160 194 242 296
#     4   8  14  26  45  68  94 126 163 200 239 285
#     4   9  18  32  50  74 102 129 161 205 250 289
#
# _framework density 18.038440000000001
#
# number of rings (size 3 to 8) (size 9 to 14) (size 15 to 20)
#    0.000    2.875    1.250    1.500    0.000    3.250 
#    0.000    7.500    0.000    7.500    0.000    2.625 
#    0.000    0.000    0.000    0.000    0.000    0.000 
#
# Total GULP energy -793416.311868 kJ/mol
# GULP energy per Si atom -12397.129873 kJ/mol
# Density = 1.799738 g / cm^3
# Si number density = 18.038440 Si / 1000 Ang^3
#
#
#
# Elastic Constant Matrix: (Units=GPa)
#
#
# Indices 1 2 3 4 5 6 
#
# 1 95.3745 58.7338 29.2807 0.0000 0.0000 0.0000
# 2 58.7338 136.5249 48.1035 0.0000 0.0000 0.0000
# 3 29.2807 48.1035 45.2905 0.0000 0.0000 0.0000
# 4 0.0000 0.0000 0.0000 6.7162 0.0000 0.0000
# 5 0.0000 0.0000 0.0000 0.0000 13.6958 0.0000
# 6 0.0000 0.0000 0.0000 0.0000 0.0000 25.6226
#
#
#
# Elastic Compliance Matrix: (Units=1/GPa)
#
#
# Indices 1 2 3 4 5 6 
#
# 1 0.014814 -0.004792 -0.004488 0.000000 0.000000 0.000000
# 2 -0.004792 0.013255 -0.010980 0.000000 0.000000 0.000000
# 3 -0.004488 -0.010980 0.036643 0.000000 0.000000 0.000000
# 4 0.000000 0.000000 0.000000 0.148893 0.000000 0.000000
# 5 0.000000 0.000000 0.000000 0.000000 0.073015 0.000000
# 6 0.000000 0.000000 0.000000 0.000000 0.000000 0.039028
#
#
# Mechanical properties :
#
#
# Convention : Reuss Voigt Hill
#
# Bulk Modulus (GPa) = 41.33554 61.04732 51.19143
# Shear Modulus (GPa) = 13.36069 18.61172 15.98621
#
# Velocity S-wave (km/s) = 2.72449 3.21562 2.98019
# Velocity P-wave (km/s) = 5.73255 6.90676 6.34687
#
# Compressibility (1/GPa) = 0.02419226
#
# Stress axis : x y z
#
# Youngs Moduli (GPa) = 67.50566 75.44394 27.29004
#
# Poissons Ratio (x) = 0.36150 0.12247
# Poissons Ratio (y) = 0.32346 0.29965
# Poissons Ratio (z) = 0.30296 0.82840
#
# Static dielectric constant tensor:
#      x y z
#    x 3.252720 0.000000 0.000000 
#    y 0.000000 3.564410 0.000000 
#    z 0.000000 0.000000 3.068530 
# 
# 
# High freq. dielectric constant tensor:
#      x y z
#    x 1.689340 0.000000 0.000000 
#    y 0.000000 1.702600 0.000000 
#    z 0.000000 0.000000 1.664420 
# 
# From -- ./inp_files/12658.got.cif
#   From: 2010.03.12/outbox.cif.g09.slc.cpg/sg47_7_cif.got.tgz:12658.got - 2010.04.14 03:12:58.
