data_PCOD8194804
_publ_section_title
;
Structure prediction by ZEFSAII (Michael W. Deem and Ramdas Pophale) SiO2 
 PCOD8194804
Probable space group: P M M M
;
_chemical_formula_sum "Si O2"
_cell_formula_units_Z 64
_cell_length_a 23.358203
_cell_length_b 18.942867
_cell_length_c 9.644200
_cell_angle_alpha 90.000000
_cell_angle_beta 90.000000
_cell_angle_gamma 90.000000
_cell_volume 4267.282028
_symmetry_space_group_name_H-M "P M M M"
_symmetry_group_IT_number 47
_symmetry_cell_setting 'orthorhombic'
loop_
_space_group_symop_operation_xyz
x,y,z
-x,-y,z
x,-y,-z
-x,y,-z
-x,-y,-z
x,y,-z
-x,y,z
x,-y,z
loop_
_atom_site_type_symbol
_atom_site_label
_atom_site_fract_x
_atom_site_fract_y
_atom_site_fract_z
Si Si1 0.771061 0.422262 0.835113
Si Si2 0.566382 0.419625 0.339960
Si Si3 0.747809 0.079810 0.339100
Si Si4 0.880172 0.919378 0.657757
Si Si5 0.722159 0.795156 0.160921
Si Si6 0.167745 0.711114 0.164123
Si Si7 0.935138 0.196722 0.838021
Si Si8 0.656812 0.344226 0.160761
O O1 0.781374 0.500000 0.770449
O O2 0.820154 0.368309 0.779096
O O3 0.709242 0.393325 0.789348
O O4 0.773249 0.425935 0.000000
O O5 0.582339 0.408255 0.500000
O O6 0.500000 0.403607 0.314278
O O7 0.580655 0.500000 0.295500
O O8 0.601459 0.364167 0.248836
O O9 0.738557 0.097063 0.500000
O O10 0.814226 0.088253 0.297868
O O11 0.709891 0.134035 0.248749
O O12 0.727575 0.000000 0.306362
O O13 0.888465 0.893501 0.500000
O O14 0.920641 0.874435 0.757264
O O15 0.900045 0.000000 0.672714
O O16 0.782323 0.763331 0.215634
O O17 0.672135 0.737959 0.186266
O O18 0.725694 0.815926 0.000000
O O19 0.106111 0.739660 0.214056
O O20 0.171695 0.707787 0.000000
O O21 0.000000 0.220085 0.806916
O O22 0.925364 0.181473 0.000000
O O23 0.643232 0.357624 0.000000
#
# Coordination Sequence:
#
# PCOD8194804 Si02
#       8
#     8   8   8   8   8   8   8   8
#     4   8  13  22  39  61  82 105 132 165 207 251
#     4   9  18  31  44  60  88 126 160 184 209 245
#     4   9  17  28  42  61  84 109 138 170 205 251
#     4   9  18  31  44  58  78 104 133 166 204 246
#     4   9  16  27  43  62  84 110 140 173 211 255
#     4   8  14  25  38  54  78 103 129 163 205 250
#     4  10  19  29  42  58  76 102 136 171 206 249
#     4   9  17  27  42  66  90 111 144 184 214 247
#
# _framework density 14.997837000000001
#
# number of rings (size 3 to 8) (size 9 to 14) (size 15 to 20)
#    0.000    3.125    1.250    3.000    0.000    2.500 
#    0.000    3.125    0.000    0.375    0.000    2.625 
#    0.000    0.500    0.000    6.625    0.000    5.250 
#
# Total GULP energy -793257.426973 kJ/mol
# GULP energy per Si atom -12394.647296 kJ/mol
# Density = 1.496370 g / cm^3
# Si number density = 14.997837 Si / 1000 Ang^3
#
#
#
# Elastic Constant Matrix: (Units=GPa)
#
#
# Indices 1 2 3 4 5 6 
#
# 1 69.7469 46.7540 36.9471 0.0000 0.0000 0.0000
# 2 46.7540 112.6467 45.5700 0.0000 0.0000 0.0000
# 3 36.9471 45.5700 47.5931 0.0000 0.0000 0.0000
# 4 0.0000 0.0000 0.0000 20.3488 0.0000 0.0000
# 5 0.0000 0.0000 0.0000 0.0000 19.4986 0.0000
# 6 0.0000 0.0000 0.0000 0.0000 0.0000 23.3756
#
#
#
# Elastic Compliance Matrix: (Units=1/GPa)
#
#
# Indices 1 2 3 4 5 6 
#
# 1 0.025518 -0.004207 -0.015782 0.000000 0.000000 0.000000
# 2 -0.004207 0.015183 -0.011272 0.000000 0.000000 0.000000
# 3 -0.015782 -0.011272 0.044056 0.000000 0.000000 0.000000
# 4 0.000000 0.000000 0.000000 0.049143 0.000000 0.000000
# 5 0.000000 0.000000 0.000000 0.000000 0.051286 0.000000
# 6 0.000000 0.000000 0.000000 0.000000 0.000000 0.042780
#
#
# Mechanical properties :
#
#
# Convention : Reuss Voigt Hill
#
# Bulk Modulus (GPa) = 44.97275 54.28100 49.62688
# Shear Modulus (GPa) = 16.78426 19.35899 18.07162
#
# Velocity S-wave (km/s) = 3.34894 3.59665 3.47500
# Velocity P-wave (km/s) = 6.70859 7.31567 7.01869
#
# Compressibility (1/GPa) = 0.02223569
#
# Stress axis : x y z
#
# Youngs Moduli (GPa) = 39.18876 65.86143 22.69837
#
# Poissons Ratio (x) = 0.27706 0.35822
# Poissons Ratio (y) = 0.16486 0.25586
# Poissons Ratio (z) = 0.61846 0.74240
#
# Static dielectric constant tensor:
#      x y z
#    x 2.694000 0.000000 0.000000 
#    y 0.000000 3.067050 0.000000 
#    z 0.000000 0.000000 2.643320 
# 
# 
# High freq. dielectric constant tensor:
#      x y z
#    x 1.543940 0.000000 0.000000 
#    y 0.000000 1.573510 0.000000 
#    z 0.000000 0.000000 1.553550 
# 
# From -- ./inp_files/12852.got.cif
#   From: 2010.03.12/outbox.cif.g09.slc.cpg/sg47_7_cif.got.tgz:12852.got - 2010.04.14 03:12:58.
