data_PCOD8194075
_publ_section_title
;
Structure prediction by ZEFSAII (Michael W. Deem and Ramdas Pophale) SiO2 
 PCOD8194075
Probable space group: P M M M
;
_chemical_formula_sum "Si O2"
_cell_formula_units_Z 64
_cell_length_a 14.339747
_cell_length_b 17.670140
_cell_length_c 14.498092
_cell_angle_alpha 90.000000
_cell_angle_beta 90.000000
_cell_angle_gamma 90.000000
_cell_volume 3673.603928
_symmetry_space_group_name_H-M "P M M M"
_symmetry_group_IT_number 47
_symmetry_cell_setting 'orthorhombic'
loop_
_space_group_symop_operation_xyz
x,y,z
-x,-y,z
x,-y,-z
-x,y,-z
-x,-y,-z
x,y,-z
-x,y,z
x,-y,z
loop_
_atom_site_type_symbol
_atom_site_label
_atom_site_fract_x
_atom_site_fract_y
_atom_site_fract_z
Si Si1 0.109512 0.727931 0.395489
Si Si2 0.698239 0.361540 0.106698
Si Si3 0.396601 0.206579 0.107797
Si Si4 0.600897 0.415016 0.273737
Si Si5 0.100964 0.675737 0.105775
Si Si6 0.104481 0.176267 0.226546
Si Si7 0.232108 0.586672 0.393042
Si Si8 0.754165 0.088023 0.106637
O O1 0.137100 0.751247 0.500000
O O2 0.144161 0.794276 0.325969
O O3 0.149131 0.644811 0.369749
O O4 0.000000 0.718021 0.383088
O O5 0.667197 0.277329 0.138282
O O6 0.637236 0.417611 0.168235
O O7 0.808345 0.374769 0.130726
O O8 0.676737 0.378514 0.000000
O O9 0.500000 0.207261 0.154806
O O10 0.341194 0.130642 0.134539
O O11 0.411814 0.211132 0.000000
O O12 0.500000 0.373078 0.280498
O O13 0.586868 0.500000 0.307412
O O14 0.677959 0.378452 0.340523
O O15 0.103270 0.752474 0.160578
O O16 0.000000 0.634116 0.122688
O O17 0.111728 0.699857 0.000000
O O18 0.166234 0.111381 0.179494
O O19 0.000000 0.143186 0.238667
O O20 0.256571 0.587147 0.500000
O O21 0.206798 0.500000 0.361585
O O22 0.734363 0.000000 0.118798
O O23 0.782851 0.106817 0.000000
#
# Coordination Sequence:
#
# PCOD8194075 Si02
#       8
#     8   8   8   8   8   8   8   8
#     4   9  18  32  51  75  99 125 159 197 238 286
#     4  10  18  30  48  68  93 125 163 203 237 275
#     4   9  17  29  45  66  91 123 162 198 234 276
#     4  10  21  34  47  66  93 126 163 201 242 285
#     4   9  16  26  44  69  93 119 154 191 229 279
#     4  10  18  29  47  68  94 128 160 192 234 281
#     4   9  18  32  50  73  99 125 154 193 244 296
#     4  10  20  32  46  69 100 129 158 195 240 289
#
# _framework density 17.421583999999999
#
# number of rings (size 3 to 8) (size 9 to 14) (size 15 to 20)
#    0.000    2.500    1.250    1.500    0.000    2.750 
#    0.000    5.000    0.000    1.500    0.000    3.500 
#    0.000    0.000    0.000    4.375    0.000    0.500 
#
# Total GULP energy -792957.179094 kJ/mol
# GULP energy per Si atom -12389.955923 kJ/mol
# Density = 1.738193 g / cm^3
# Si number density = 17.421584 Si / 1000 Ang^3
#
#
#
# Elastic Constant Matrix: (Units=GPa)
#
#
# Indices 1 2 3 4 5 6 
#
# 1 100.8115 24.1462 31.6102 0.0000 0.0000 0.0000
# 2 24.1462 42.5974 24.9835 0.0000 0.0000 0.0000
# 3 31.6102 24.9835 55.4639 0.0000 0.0000 0.0000
# 4 0.0000 0.0000 0.0000 22.0512 0.0000 0.0000
# 5 0.0000 0.0000 0.0000 0.0000 20.0564 0.0000
# 6 0.0000 0.0000 0.0000 0.0000 0.0000 18.1900
#
#
#
# Elastic Compliance Matrix: (Units=1/GPa)
#
#
# Indices 1 2 3 4 5 6 
#
# 1 0.012553 -0.003968 -0.005367 0.000000 0.000000 0.000000
# 2 -0.003968 0.033159 -0.012675 0.000000 0.000000 0.000000
# 3 -0.005367 -0.012675 0.026798 0.000000 0.000000 0.000000
# 4 0.000000 0.000000 0.000000 0.045349 0.000000 0.000000
# 5 0.000000 0.000000 0.000000 0.000000 0.049859 0.000000
# 6 0.000000 0.000000 0.000000 0.000000 0.000000 0.054975
#
#
# Mechanical properties :
#
#
# Convention : Reuss Voigt Hill
#
# Bulk Modulus (GPa) = 35.09982 40.03918 37.56950
# Shear Modulus (GPa) = 18.10230 19.93505 19.01868
#
# Velocity S-wave (km/s) = 3.22696 3.38638 3.30763
# Velocity P-wave (km/s) = 5.83742 6.19052 6.01656
#
# Compressibility (1/GPa) = 0.02849018
#
# Stress axis : x y z
#
# Youngs Moduli (GPa) = 79.66439 30.15818 37.31665
#
# Poissons Ratio (x) = 0.11966 0.20027
# Poissons Ratio (y) = 0.31609 0.47298
# Poissons Ratio (z) = 0.42754 0.38225
#
# Static dielectric constant tensor:
#      x y z
#    x 3.746840 0.000000 0.000000 
#    y 0.000000 2.969680 0.000000 
#    z 0.000000 0.000000 3.337070 
# 
# 
# High freq. dielectric constant tensor:
#      x y z
#    x 1.683540 0.000000 0.000000 
#    y 0.000000 1.632200 0.000000 
#    z 0.000000 0.000000 1.660620 
# 
# From -- ./inp_files/24112.got.cif
#   From: 2010.03.12/outbox.cif.g09.slc.cpg/sg47_13_cif.got.tgz:24112.got - 2010.04.14 03:12:58.
