data_PCOD8194470
_publ_section_title
;
Structure prediction by ZEFSAII (Michael W. Deem and Ramdas Pophale) SiO2 
 PCOD8194470
Probable space group: P M M M
;
_chemical_formula_sum "Si O2"
_cell_formula_units_Z 56
_cell_length_a 9.038079
_cell_length_b 15.435080
_cell_length_c 20.406315
_cell_angle_alpha 90.000000
_cell_angle_beta 90.000000
_cell_angle_gamma 90.000000
_cell_volume 2846.751802
_symmetry_space_group_name_H-M "P M M M"
_symmetry_group_IT_number 47
_symmetry_cell_setting 'orthorhombic'
loop_
_space_group_symop_operation_xyz
x,y,z
-x,-y,z
x,-y,-z
-x,y,-z
-x,-y,-z
x,y,-z
-x,y,z
x,-y,z
loop_
_atom_site_type_symbol
_atom_site_label
_atom_site_fract_x
_atom_site_fract_y
_atom_site_fract_z
Si Si1 0.328898 0.404342 0.627088
Si Si2 0.829678 0.645108 0.752538
Si Si3 0.171407 0.903140 0.677265
Si Si4 0.326207 0.233624 0.929139
Si Si5 0.171798 0.759825 0.426246
Si Si6 0.168220 0.595208 0.102681
Si Si7 0.675677 0.818544 0.789438
O O1 0.500000 0.382270 0.640085
O O2 0.313420 0.500000 0.593880
O O3 0.241083 0.411115 0.695263
O O4 0.260492 0.329625 0.581825
O O5 0.814932 0.592021 0.819137
O O6 0.737076 0.733069 0.755287
O O7 0.000000 0.667566 0.736389
O O8 0.229874 0.834296 0.623345
O O9 0.257878 0.896632 0.746750
O O10 0.000000 0.886951 0.692006
O O11 0.198410 0.000000 0.649741
O O12 0.500000 0.240655 0.922964
O O13 0.268717 0.331787 0.929215
O O14 0.268428 0.178712 0.866138
O O15 0.281600 0.191223 0.000000
O O16 0.197463 0.793943 0.500000
O O17 0.000000 0.740317 0.413161
O O18 0.214063 0.500000 0.076185
O O19 0.000000 0.616459 0.082993
O O20 0.500000 0.821295 0.785961
#
# Coordination Sequence:
#
# PCOD8194470 Si02
#       7
#     8   8   8   8   8   8   8
#     4  11  23  36  53  80 114 153 195 238 284 330
#     4  10  18  31  52  76 105 143 187 234 284 332
#     4  10  21  38  62  91 119 147 181 225 280 341
#     4   9  19  34  50  71 102 142 185 227 274 329
#     4  10  22  40  61  85 115 153 192 230 276 332
#     4   9  18  30  44  67 100 137 180 231 282 331
#     4  10  19  33  56  83 111 144 183 228 279 332
#
# _framework density 19.671543
#
# number of rings (size 3 to 8) (size 9 to 14) (size 15 to 20)
#    0.000    2.143    1.429    1.714    0.000    4.857 
#    0.000    4.286    0.000    0.429    0.000    5.000 
#    0.000    0.000    0.000    0.000    0.000    0.000 
#
# Total GULP energy -694057.150958 kJ/mol
# GULP energy per Si atom -12393.877696 kJ/mol
# Density = 1.962677 g / cm^3
# Si number density = 19.671543 Si / 1000 Ang^3
#
#
#
# Elastic Constant Matrix: (Units=GPa)
#
#
# Indices 1 2 3 4 5 6 
#
# 1 50.4575 28.8236 38.2485 0.0000 0.0000 0.0000
# 2 28.8236 93.1161 47.7735 0.0000 0.0000 0.0000
# 3 38.2485 47.7735 130.2532 0.0000 0.0000 0.0000
# 4 0.0000 0.0000 0.0000 8.2437 0.0000 0.0000
# 5 0.0000 0.0000 0.0000 0.0000 24.2244 0.0000
# 6 0.0000 0.0000 0.0000 0.0000 0.0000 20.3798
#
#
#
# Elastic Compliance Matrix: (Units=1/GPa)
#
#
# Indices 1 2 3 4 5 6 
#
# 1 0.027525 -0.005387 -0.006107 0.000000 0.000000 0.000000
# 2 -0.005387 0.014283 -0.003657 0.000000 0.000000 0.000000
# 3 -0.006107 -0.003657 0.010812 0.000000 0.000000 0.000000
# 4 0.000000 0.000000 0.000000 0.121304 0.000000 0.000000
# 5 0.000000 0.000000 0.000000 0.000000 0.041281 0.000000
# 6 0.000000 0.000000 0.000000 0.000000 0.000000 0.049068
#
#
# Mechanical properties :
#
#
# Convention : Reuss Voigt Hill
#
# Bulk Modulus (GPa) = 44.80571 55.94645 50.37608
# Shear Modulus (GPa) = 16.55551 21.16832 18.86191
#
# Velocity S-wave (km/s) = 2.90418 3.28394 3.09988
# Velocity P-wave (km/s) = 5.83712 6.54836 6.20294
#
# Compressibility (1/GPa) = 0.02231858
#
# Stress axis : x y z
#
# Youngs Moduli (GPa) = 36.33031 70.01374 92.49161
#
# Poissons Ratio (x) = 0.37717 0.56483
# Poissons Ratio (y) = 0.19572 0.33821
# Poissons Ratio (z) = 0.22186 0.25602
#
# Static dielectric constant tensor:
#      x y z
#    x 3.532620 0.000000 0.000000 
#    y 0.000000 3.414100 0.000000 
#    z 0.000000 0.000000 3.860810 
# 
# 
# High freq. dielectric constant tensor:
#      x y z
#    x 1.760560 0.000000 0.000000 
#    y 0.000000 1.742700 0.000000 
#    z 0.000000 0.000000 1.772600 
# 
# From -- ./inp_files/7264.got.cif
#   From: 2010.03.12/outbox.cif.g09.slc.cpg/sg47_4_cif.got.tgz:7264.got - 2010.04.14 03:12:58.
