data_PCOD8194155
_publ_section_title
;
Structure prediction by ZEFSAII (Michael W. Deem and Ramdas Pophale) SiO2 
 PCOD8194155
Probable space group: P M M M
;
_chemical_formula_sum "Si O2"
_cell_formula_units_Z 52
_cell_length_a 20.664187
_cell_length_b 14.400276
_cell_length_c 9.490289
_cell_angle_alpha 90.000000
_cell_angle_beta 90.000000
_cell_angle_gamma 90.000000
_cell_volume 2824.025261
_symmetry_space_group_name_H-M "P M M M"
_symmetry_group_IT_number 47
_symmetry_cell_setting 'orthorhombic'
loop_
_space_group_symop_operation_xyz
x,y,z
-x,-y,z
x,-y,-z
-x,y,-z
-x,-y,-z
x,y,-z
-x,y,z
x,-y,z
loop_
_atom_site_type_symbol
_atom_site_label
_atom_site_fract_x
_atom_site_fract_y
_atom_site_fract_z
Si Si1 0.881111 0.607006 0.662441
Si Si2 0.263954 0.601798 0.667155
Si Si3 0.816709 0.897608 0.832835
Si Si4 0.500000 0.394097 0.666826
Si Si5 0.071586 0.234707 0.162472
Si Si6 0.621164 0.270887 0.332603
Si Si7 0.670632 0.107987 0.164555
O O1 0.889220 0.634846 0.500000
O O2 0.899225 0.500000 0.685194
O O3 0.808173 0.627885 0.716032
O O4 0.929072 0.668151 0.755373
O O5 0.266134 0.596569 0.500000
O O6 0.282984 0.500000 0.727010
O O7 0.314349 0.677538 0.721789
O O8 0.872802 0.831232 0.771133
O O9 0.744297 0.865961 0.790023
O O10 0.829727 0.000000 0.770539
O O11 0.821766 0.901596 0.000000
O O12 0.500000 0.500000 0.729058
O O13 0.500000 0.402395 0.500000
O O14 0.437950 0.335583 0.717743
O O15 0.000000 0.189496 0.179497
O O16 0.086827 0.255113 0.000000
O O17 0.619280 0.254270 0.500000
O O18 0.620924 0.171087 0.254834
O O19 0.656517 0.000000 0.198029
O O20 0.659644 0.128031 0.000000
#
# Coordination Sequence:
#
# PCOD8194155 Si02
#       7
#     8   8   8   4   8   8   8
#     4   9  18  32  48  65  87 119 158 195 232 277
#     4   8  14  26  46  71  94 116 149 194 238 278
#     4   8  15  30  51  72  94 121 153 190 234 285
#     4   9  18  32  50  75 106 136 163 189 226 281
#     4  10  20  31  45  68  94 119 150 190 235 280
#     4  10  18  29  50  76  99 126 159 195 233 272
#     4   9  18  33  52  72  95 125 159 195 238 283
#
# _framework density 18.413432
#
# number of rings (size 3 to 8) (size 9 to 14) (size 15 to 20)
#    0.000    3.000    0.000    3.231    0.000    3.385 
#    0.000    3.846    0.000    6.923    0.000    1.077 
#    0.000    0.000    0.000    0.000    0.000    0.000 
#
# Total GULP energy -644499.099912 kJ/mol
# GULP energy per Si atom -12394.213460 kJ/mol
# Density = 1.837152 g / cm^3
# Si number density = 18.413432 Si / 1000 Ang^3
#
#
#
# Elastic Constant Matrix: (Units=GPa)
#
#
# Indices 1 2 3 4 5 6 
#
# 1 80.9582 61.1372 26.1751 0.0000 0.0000 0.0000
# 2 61.1372 118.4450 40.7353 0.0000 0.0000 0.0000
# 3 26.1751 40.7353 34.4451 0.0000 0.0000 0.0000
# 4 0.0000 0.0000 0.0000 26.7037 0.0000 0.0000
# 5 0.0000 0.0000 0.0000 0.0000 17.9538 0.0000
# 6 0.0000 0.0000 0.0000 0.0000 0.0000 25.3394
#
#
#
# Elastic Compliance Matrix: (Units=1/GPa)
#
#
# Indices 1 2 3 4 5 6 
#
# 1 0.020788 -0.008929 -0.005238 0.000000 0.000000 0.000000
# 2 -0.008929 0.018066 -0.014580 0.000000 0.000000 0.000000
# 3 -0.005238 -0.014580 0.050254 0.000000 0.000000 0.000000
# 4 0.000000 0.000000 0.000000 0.037448 0.000000 0.000000
# 5 0.000000 0.000000 0.000000 0.000000 0.055699 0.000000
# 6 0.000000 0.000000 0.000000 0.000000 0.000000 0.039464
#
#
# Mechanical properties :
#
#
# Convention : Reuss Voigt Hill
#
# Bulk Modulus (GPa) = 31.63015 54.43816 43.03416
# Shear Modulus (GPa) = 17.25626 21.05275 19.15450
#
# Velocity S-wave (km/s) = 3.06462 3.38499 3.22878
# Velocity P-wave (km/s) = 5.45322 6.70120 6.10916
#
# Compressibility (1/GPa) = 0.03161540
#
# Stress axis : x y z
#
# Youngs Moduli (GPa) = 48.10398 55.35360 19.89891
#
# Poissons Ratio (x) = 0.49424 0.10423
# Poissons Ratio (y) = 0.42951 0.29012
# Poissons Ratio (z) = 0.25196 0.80704
#
# Static dielectric constant tensor:
#      x y z
#    x 3.480130 0.000000 0.000000 
#    y 0.000000 3.523070 0.000000 
#    z 0.000000 0.000000 2.873970 
# 
# 
# High freq. dielectric constant tensor:
#      x y z
#    x 1.711590 0.000000 0.000000 
#    y 0.000000 1.718930 0.000000 
#    z 0.000000 0.000000 1.665310 
# 
# From -- ./inp_files/11078.got.cif
#   From: 2010.03.12/outbox.cif.g09.slc.cpg/sg47_6_cif.got.tgz:11078.got - 2010.04.14 03:12:58.
