data_PCOD8194048
_publ_section_title
;
Structure prediction by ZEFSAII (Michael W. Deem and Ramdas Pophale) SiO2 
 PCOD8194048
Probable space group: P M M M
;
_chemical_formula_sum "Si O2"
_cell_formula_units_Z 52
_cell_length_a 18.310265
_cell_length_b 18.652984
_cell_length_c 9.122611
_cell_angle_alpha 90.000000
_cell_angle_beta 90.000000
_cell_angle_gamma 90.000000
_cell_volume 3115.746414
_symmetry_space_group_name_H-M "P M M M"
_symmetry_group_IT_number 47
_symmetry_cell_setting 'orthorhombic'
loop_
_space_group_symop_operation_xyz
x,y,z
-x,-y,z
x,-y,-z
-x,y,-z
-x,-y,-z
x,y,-z
-x,y,z
x,-y,z
loop_
_atom_site_type_symbol
_atom_site_label
_atom_site_fract_x
_atom_site_fract_y
_atom_site_fract_z
Si Si1 0.661493 0.078579 0.827720
Si Si2 0.292904 0.705533 0.334889
Si Si3 0.214403 0.142430 0.661481
Si Si4 0.583751 0.778960 0.826962
Si Si5 0.917838 0.500000 0.826532
Si Si6 0.837881 0.643672 0.174242
Si Si7 0.916733 0.229299 0.329505
O O1 0.744282 0.089571 0.771375
O O2 0.607954 0.141482 0.770914
O O3 0.632974 0.000000 0.775630
O O4 0.665703 0.081207 0.000000
O O5 0.307251 0.677518 0.500000
O O6 0.251561 0.780243 0.336627
O O7 0.370179 0.716706 0.252585
O O8 0.242407 0.649128 0.247408
O O9 0.219277 0.107949 0.500000
O O10 0.130280 0.157385 0.707232
O O11 0.500000 0.768032 0.783052
O O12 0.596380 0.772216 0.000000
O O13 0.873598 0.430577 0.773049
O O14 0.000000 0.500000 0.759424
O O15 0.923904 0.500000 0.000000
O O16 0.892347 0.705546 0.227299
O O17 0.828783 0.648621 0.000000
O O18 0.904388 0.250877 0.500000
O O19 0.000000 0.210126 0.295329
#
# Coordination Sequence:
#
# PCOD8194048 Si02
#       7
#     8   8   8   8   4   8   8
#     4   9  17  28  42  61  86 116 146 176 214 260
#     4   9  17  30  46  64  88 117 150 186 222 259
#     4   8  15  27  42  59  79 107 143 182 220 259
#     4   9  17  29  46  69  94 117 144 180 220 263
#     4   9  18  30  43  65  98 129 154 183 219 258
#     4  10  18  29  46  66  90 121 155 185 215 258
#     4   9  17  29  44  63  87 112 142 185 232 269
#
# _framework density 16.689419000000001
#
# number of rings (size 3 to 8) (size 9 to 14) (size 15 to 20)
#    0.000    3.000    0.000    2.308    0.000    5.538 
#    0.000    3.077    0.000    3.231    0.000    8.077 
#    0.000    4.308    0.000    0.000    0.000    0.000 
#
# Total GULP energy -644491.681816 kJ/mol
# GULP energy per Si atom -12394.070804 kJ/mol
# Density = 1.665143 g / cm^3
# Si number density = 16.689419 Si / 1000 Ang^3
#
#
#
# Elastic Constant Matrix: (Units=GPa)
#
#
# Indices 1 2 3 4 5 6 
#
# 1 141.6409 44.3786 40.3035 0.0000 0.0000 0.0000
# 2 44.3786 50.1083 24.1446 0.0000 0.0000 0.0000
# 3 40.3035 24.1446 49.0285 0.0000 0.0000 0.0000
# 4 0.0000 0.0000 0.0000 13.5125 0.0000 0.0000
# 5 0.0000 0.0000 0.0000 0.0000 24.9240 0.0000
# 6 0.0000 0.0000 0.0000 0.0000 0.0000 20.4152
#
#
#
# Elastic Compliance Matrix: (Units=1/GPa)
#
#
# Indices 1 2 3 4 5 6 
#
# 1 0.010780 -0.006919 -0.005454 0.000000 0.000000 0.000000
# 2 -0.006919 0.030607 -0.009385 0.000000 0.000000 0.000000
# 3 -0.005454 -0.009385 0.029501 0.000000 0.000000 0.000000
# 4 0.000000 0.000000 0.000000 0.074005 0.000000 0.000000
# 5 0.000000 0.000000 0.000000 0.000000 0.040122 0.000000
# 6 0.000000 0.000000 0.000000 0.000000 0.000000 0.048983
#
#
# Mechanical properties :
#
#
# Convention : Reuss Voigt Hill
#
# Bulk Modulus (GPa) = 36.53365 50.93677 43.73521
# Shear Modulus (GPa) = 17.44353 20.56707 19.00530
#
# Velocity S-wave (km/s) = 3.23644 3.51428 3.37822
# Velocity P-wave (km/s) = 5.99198 6.85956 6.44040
#
# Compressibility (1/GPa) = 0.02737202
#
# Stress axis : x y z
#
# Youngs Moduli (GPa) = 92.76434 32.67236 33.89669
#
# Poissons Ratio (x) = 0.22607 0.18488
# Poissons Ratio (y) = 0.64186 0.31811
# Poissons Ratio (z) = 0.50595 0.30662
#
# Static dielectric constant tensor:
#      x y z
#    x 3.349550 0.000000 0.000000 
#    y 0.000000 3.039110 0.000000 
#    z 0.000000 0.000000 3.140740 
# 
# 
# High freq. dielectric constant tensor:
#      x y z
#    x 1.642250 0.000000 0.000000 
#    y 0.000000 1.606410 0.000000 
#    z 0.000000 0.000000 1.638710 
# 
# From -- ./inp_files/9504.got.cif
#   From: 2010.03.12/outbox.cif.g09.slc.cpg/sg47_5_cif.got.tgz:9504.got - 2010.04.14 03:12:58.
