data_PCOD8194915
_publ_section_title
;
Structure prediction by ZEFSAII (Michael W. Deem and Ramdas Pophale) SiO2 
 PCOD8194915
Probable space group: P M M M
;
_chemical_formula_sum "Si O2"
_cell_formula_units_Z 52
_cell_length_a 7.970203
_cell_length_b 13.886376
_cell_length_c 28.118510
_cell_angle_alpha 90.000000
_cell_angle_beta 90.000000
_cell_angle_gamma 90.000000
_cell_volume 3112.078958
_symmetry_space_group_name_H-M "P M M M"
_symmetry_group_IT_number 47
_symmetry_cell_setting 'orthorhombic'
loop_
_space_group_symop_operation_xyz
x,y,z
-x,-y,z
x,-y,-z
-x,y,-z
-x,-y,-z
x,y,-z
-x,y,z
x,-y,z
loop_
_atom_site_type_symbol
_atom_site_label
_atom_site_fract_x
_atom_site_fract_y
_atom_site_fract_z
Si Si1 0.000000 0.613672 0.052831
Si Si2 0.802568 0.890936 0.446848
Si Si3 0.300749 0.605274 0.691777
Si Si4 0.807077 0.892784 0.736863
Si Si5 0.692292 0.793493 0.354580
Si Si6 0.695098 0.613303 0.119154
Si Si7 0.693266 0.293502 0.784438
O O1 0.174200 0.645633 0.078233
O O2 0.000000 0.500000 0.049355
O O3 0.000000 0.659550 0.000000
O O4 0.751797 0.857438 0.500000
O O5 0.714273 0.821890 0.409246
O O6 0.000000 0.884569 0.439901
O O7 0.740944 0.000000 0.438476
O O8 0.500000 0.597844 0.695102
O O9 0.223946 0.500000 0.680020
O O10 0.247953 0.682296 0.651212
O O11 0.224960 0.643825 0.741819
O O12 0.791457 0.862376 0.681502
O O13 0.718218 0.819716 0.773481
O O14 0.000000 0.894034 0.750742
O O15 0.729918 0.000000 0.743204
O O16 0.500000 0.802221 0.339000
O O17 0.500000 0.638298 0.105417
O O18 0.710061 0.500000 0.130353
O O19 0.763497 0.673060 0.164728
O O20 0.500000 0.318706 0.785858
#
# Coordination Sequence:
#
# PCOD8194915 Si02
#       7
#     4   8   8   8   8   8   8
#     4   9  18  30  44  66  95 129 167 201 235 276
#     4   9  18  32  48  64  83 109 139 172 216 269
#     4   8  14  26  43  62  86 114 143 176 213 256
#     4  10  20  31  43  61  89 124 152 176 215 270
#     4  10  19  29  45  67  87 111 143 179 218 258
#     4   9  17  29  46  68  95 127 160 196 238 280
#     4   9  17  28  45  67  88 116 153 191 228 264
#
# _framework density 16.709088000000001
#
# number of rings (size 3 to 8) (size 9 to 14) (size 15 to 20)
#    0.000    2.846    0.000    3.231    1.077    5.846 
#    0.000    2.308    0.000    8.769    0.000    3.231 
#    0.000    1.231    0.000    3.385    0.000    0.154 
#
# Total GULP energy -644385.326817 kJ/mol
# GULP energy per Si atom -12392.025516 kJ/mol
# Density = 1.667106 g / cm^3
# Si number density = 16.709088 Si / 1000 Ang^3
#
#
#
# Elastic Constant Matrix: (Units=GPa)
#
#
# Indices 1 2 3 4 5 6 
#
# 1 42.6791 15.6577 29.6366 0.0000 0.0000 0.0000
# 2 15.6577 111.4737 56.2893 0.0000 0.0000 0.0000
# 3 29.6366 56.2893 123.6430 0.0000 0.0000 0.0000
# 4 0.0000 0.0000 0.0000 21.3672 0.0000 0.0000
# 5 0.0000 0.0000 0.0000 0.0000 23.9107 0.0000
# 6 0.0000 0.0000 0.0000 0.0000 0.0000 8.3414
#
#
#
# Elastic Compliance Matrix: (Units=1/GPa)
#
#
# Indices 1 2 3 4 5 6 
#
# 1 0.028153 -0.000710 -0.006425 0.000000 0.000000 0.000000
# 2 -0.000710 0.011666 -0.005141 0.000000 0.000000 0.000000
# 3 -0.006425 -0.005141 0.011968 0.000000 0.000000 0.000000
# 4 0.000000 0.000000 0.000000 0.046801 0.000000 0.000000
# 5 0.000000 0.000000 0.000000 0.000000 0.041822 0.000000
# 6 0.000000 0.000000 0.000000 0.000000 0.000000 0.119883
#
#
# Mechanical properties :
#
#
# Convention : Reuss Voigt Hill
#
# Bulk Modulus (GPa) = 36.71679 53.44033 45.07856
# Shear Modulus (GPa) = 17.01121 22.47135 19.74128
#
# Velocity S-wave (km/s) = 3.19420 3.67121 3.44098
# Velocity P-wave (km/s) = 5.96873 7.07267 6.54402
#
# Compressibility (1/GPa) = 0.02723549
#
# Stress axis : x y z
#
# Youngs Moduli (GPa) = 35.52079 85.71588 83.55440
#
# Poissons Ratio (x) = 0.06087 0.53681
# Poissons Ratio (y) = 0.02522 0.42955
# Poissons Ratio (z) = 0.22821 0.44067
#
# Static dielectric constant tensor:
#      x y z
#    x 3.037540 0.000000 0.000000 
#    y 0.000000 3.234230 0.000000 
#    z 0.000000 0.000000 3.197220 
# 
# 
# High freq. dielectric constant tensor:
#      x y z
#    x 1.639180 0.000000 0.000000 
#    y 0.000000 1.624840 0.000000 
#    z 0.000000 0.000000 1.622870 
# 
# From -- ./inp_files/33256.got.cif
#   From: 2010.03.12/outbox.cif.g09.slc.cpg/sg47_17_cif.got.tgz:33256.got - 2010.04.14 03:12:58.
