data_PCOD8194502
_publ_section_title
;
Structure prediction by ZEFSAII (Michael W. Deem and Ramdas Pophale) SiO2 
 PCOD8194502
Probable space group: P M M M
;
_chemical_formula_sum "Si O2"
_cell_formula_units_Z 56
_cell_length_a 15.944040
_cell_length_b 10.026004
_cell_length_c 18.597248
_cell_angle_alpha 90.000000
_cell_angle_beta 90.000000
_cell_angle_gamma 90.000000
_cell_volume 2972.863243
_symmetry_space_group_name_H-M "P M M M"
_symmetry_group_IT_number 47
_symmetry_cell_setting 'orthorhombic'
loop_
_space_group_symop_operation_xyz
x,y,z
-x,-y,z
x,-y,-z
-x,y,-z
-x,-y,-z
x,y,-z
-x,y,z
x,-y,z
loop_
_atom_site_type_symbol
_atom_site_label
_atom_site_fract_x
_atom_site_fract_y
_atom_site_fract_z
Si Si1 0.099916 0.000000 0.415349
Si Si2 0.847521 0.744057 0.671844
Si Si3 0.592373 0.343977 0.156184
Si Si4 0.758618 0.340898 0.081025
Si Si5 0.906909 0.654576 0.183744
Si Si6 0.332369 0.343097 0.307883
Si Si7 0.904666 0.500000 0.415232
Si Si8 0.598784 0.854465 0.579891
O O1 0.139650 0.123477 0.373674
O O2 0.124971 0.000000 0.500000
O O3 0.000000 0.000000 0.407751
O O4 0.908162 0.735142 0.740974
O O5 0.755982 0.727916 0.706830
O O6 0.859464 0.629367 0.613892
O O7 0.500000 0.283145 0.136033
O O8 0.589759 0.500000 0.140525
O O9 0.669370 0.282765 0.109789
O O10 0.608473 0.316449 0.239878
O O11 0.757201 0.500000 0.084234
O O12 0.837099 0.288704 0.128547
O O13 0.771649 0.289145 0.000000
O O14 0.887206 0.500000 0.201669
O O15 0.000000 0.670184 0.149330
O O16 0.321756 0.500000 0.322956
O O17 0.372244 0.272628 0.376030
O O18 0.898230 0.500000 0.500000
O O19 0.000000 0.500000 0.388289
O O20 0.636281 0.837946 0.500000
O O21 0.500000 0.852844 0.576705
O O22 0.628492 0.000000 0.610901
#
# Coordination Sequence:
#
# PCOD8194502 Si02
#       8
#     4   8   8   8   8   8   4   8
#     4  11  26  44  58  78 112 150 191 242 294 342
#     4  12  22  38  57  81 109 147 190 233 284 338
#     4   9  17  30  49  74 107 146 185 225 276 331
#     4   9  17  29  46  74 114 150 183 225 274 331
#     4  10  18  31  54  80 109 146 187 229 279 338
#     4  11  21  35  54  80 110 141 183 237 282 333
#     4  11  22  36  56  80 106 142 189 232 276 334
#     4   9  20  38  56  75 104 143 183 226 281 340
#
# _framework density 18.837059
#
# number of rings (size 3 to 8) (size 9 to 14) (size 15 to 20)
#    0.000    1.857    2.857    2.571    1.000    4.000 
#    0.000    3.571    0.000    0.000    0.000    0.500 
#    0.000    1.714    0.000    4.429    0.000    4.143 
#
# Total GULP energy -694084.286886 kJ/mol
# GULP energy per Si atom -12394.362266 kJ/mol
# Density = 1.879419 g / cm^3
# Si number density = 18.837059 Si / 1000 Ang^3
#
#
#
# Elastic Constant Matrix: (Units=GPa)
#
#
# Indices 1 2 3 4 5 6 
#
# 1 122.4567 26.2643 54.4053 0.0000 0.0000 0.0000
# 2 26.2643 77.5964 42.3457 0.0000 0.0000 0.0000
# 3 54.4053 42.3457 112.9215 0.0000 0.0000 0.0000
# 4 0.0000 0.0000 0.0000 9.1500 0.0000 0.0000
# 5 0.0000 0.0000 0.0000 0.0000 24.4459 0.0000
# 6 0.0000 0.0000 0.0000 0.0000 0.0000 19.3176
#
#
#
# Elastic Compliance Matrix: (Units=1/GPa)
#
#
# Indices 1 2 3 4 5 6 
#
# 1 0.010451 -0.000993 -0.004663 0.000000 0.000000 0.000000
# 2 -0.000993 0.016297 -0.005633 0.000000 0.000000 0.000000
# 3 -0.004663 -0.005633 0.013215 0.000000 0.000000 0.000000
# 4 0.000000 0.000000 0.000000 0.109290 0.000000 0.000000
# 5 0.000000 0.000000 0.000000 0.000000 0.040907 0.000000
# 6 0.000000 0.000000 0.000000 0.000000 0.000000 0.051766
#
#
# Mechanical properties :
#
#
# Convention : Reuss Voigt Hill
#
# Bulk Modulus (GPa) = 57.52019 62.11168 59.81594
# Shear Modulus (GPa) = 18.49810 23.24665 20.87238
#
# Velocity S-wave (km/s) = 3.13710 3.51677 3.33235
# Velocity P-wave (km/s) = 6.61240 7.03811 6.82857
#
# Compressibility (1/GPa) = 0.01738520
#
# Stress axis : x y z
#
# Youngs Moduli (GPa) = 95.68748 61.35968 75.67303
#
# Poissons Ratio (x) = 0.06091 0.35285
# Poissons Ratio (y) = 0.09499 0.42629
# Poissons Ratio (z) = 0.44618 0.34565
#
# Static dielectric constant tensor:
#      x y z
#    x 3.829550 0.000000 0.000000 
#    y 0.000000 -2.773460 0.000000 
#    z 0.000000 0.000000 3.565970 
# 
# 
# High freq. dielectric constant tensor:
#      x y z
#    x 1.749440 0.000000 0.000000 
#    y 0.000000 1.681820 0.000000 
#    z 0.000000 0.000000 1.728840 
# 
# From -- ./inp_files/31017.got.cif
#   From: 2010.03.12/outbox.cif.g09.slc.cpg/sg47_16_cif.got.tgz:31017.got - 2010.04.14 03:12:58.
