data_PCOD8194857
_publ_section_title
;
Structure prediction by ZEFSAII (Michael W. Deem and Ramdas Pophale) SiO2 
 PCOD8194857
Probable space group: P M M M
;
_chemical_formula_sum "Si O2"
_cell_formula_units_Z 52
_cell_length_a 13.960580
_cell_length_b 7.991794
_cell_length_c 27.931449
_cell_angle_alpha 90.000000
_cell_angle_beta 90.000000
_cell_angle_gamma 90.000000
_cell_volume 3116.313985
_symmetry_space_group_name_H-M "P M M M"
_symmetry_group_IT_number 47
_symmetry_cell_setting 'orthorhombic'
loop_
_space_group_symop_operation_xyz
x,y,z
-x,-y,z
x,-y,-z
-x,y,-z
-x,-y,-z
x,y,-z
-x,y,z
x,-y,z
loop_
_atom_site_type_symbol
_atom_site_label
_atom_site_fract_x
_atom_site_fract_y
_atom_site_fract_z
Si Si1 0.608275 0.697129 0.553656
Si Si2 0.887974 0.308076 0.118427
Si Si3 0.294062 0.806575 0.645944
Si Si4 0.103615 0.806426 0.309841
Si Si5 0.203824 0.695994 0.781077
Si Si6 0.604196 0.693669 0.736056
Si Si7 0.113193 0.000000 0.053247
O O1 0.639635 0.748902 0.500000
O O2 0.500000 0.759277 0.563285
O O3 0.613997 0.500000 0.560096
O O4 0.680408 0.783273 0.590518
O O5 0.868322 0.500000 0.100939
O O6 0.825375 0.264408 0.164852
O O7 0.000000 0.286681 0.130772
O O8 0.854070 0.172086 0.079203
O O9 0.188116 0.729695 0.656795
O O10 0.371089 0.716833 0.679952
O O11 0.294434 0.000000 0.659950
O O12 0.128529 0.783569 0.253971
O O13 0.000000 0.720462 0.320505
O O14 0.093775 0.000000 0.321420
O O15 0.200317 0.500000 0.770133
O O16 0.311067 0.767821 0.769827
O O17 0.500000 0.778414 0.746725
O O18 0.594452 0.500000 0.747188
O O19 0.000000 0.000000 0.049795
O O20 0.158423 0.000000 0.000000
#
# Coordination Sequence:
#
# PCOD8194857 Si02
#       7
#     8   8   8   8   8   8   4
#     4   9  18  32  48  64  82 106 136 169 208 257
#     4   9  17  28  43  64  90 119 151 190 229 265
#     4  10  19  29  43  64  87 110 138 174 213 251
#     4   9  18  30  43  60  84 115 146 174 206 250
#     4   9  17  28  42  63  88 113 146 183 216 253
#     4   9  17  29  44  61  86 120 148 170 205 258
#     4   9  18  30  44  64  89 121 157 187 225 276
#
# _framework density 16.686378999999999
#
# number of rings (size 3 to 8) (size 9 to 14) (size 15 to 20)
#    0.000    2.846    0.000    1.846    1.077    4.615 
#    0.000    2.308    0.000    0.462    0.000    3.231 
#    0.000    1.231    0.000    6.000    0.000    0.154 
#
# Total GULP energy -644400.554425 kJ/mol
# GULP energy per Si atom -12392.318354 kJ/mol
# Density = 1.664840 g / cm^3
# Si number density = 16.686379 Si / 1000 Ang^3
#
#
#
# Elastic Constant Matrix: (Units=GPa)
#
#
# Indices 1 2 3 4 5 6 
#
# 1 117.9952 21.9861 55.3015 0.0000 0.0000 0.0000
# 2 21.9861 41.8315 32.0155 0.0000 0.0000 0.0000
# 3 55.3015 32.0155 115.7325 0.0000 0.0000 0.0000
# 4 0.0000 0.0000 0.0000 24.1745 0.0000 0.0000
# 5 0.0000 0.0000 0.0000 0.0000 19.0209 0.0000
# 6 0.0000 0.0000 0.0000 0.0000 0.0000 13.6987
#
#
#
# Elastic Compliance Matrix: (Units=1/GPa)
#
#
# Indices 1 2 3 4 5 6 
#
# 1 0.011085 -0.002248 -0.004675 0.000000 0.000000 0.000000
# 2 -0.002248 0.030782 -0.007441 0.000000 0.000000 0.000000
# 3 -0.004675 -0.007441 0.012933 0.000000 0.000000 0.000000
# 4 0.000000 0.000000 0.000000 0.041366 0.000000 0.000000
# 5 0.000000 0.000000 0.000000 0.000000 0.052574 0.000000
# 6 0.000000 0.000000 0.000000 0.000000 0.000000 0.072999
#
#
# Mechanical properties :
#
#
# Convention : Reuss Voigt Hill
#
# Bulk Modulus (GPa) = 38.35597 54.90727 46.63162
# Shear Modulus (GPa) = 19.29331 22.46259 20.87795
#
# Velocity S-wave (km/s) = 3.40403 3.67299 3.54106
# Velocity P-wave (km/s) = 6.20372 7.13896 6.68771
#
# Compressibility (1/GPa) = 0.02607156
#
# Stress axis : x y z
#
# Youngs Moduli (GPa) = 90.21355 32.48648 77.32227
#
# Poissons Ratio (x) = 0.07304 0.36147
# Poissons Ratio (y) = 0.20282 0.57536
# Poissons Ratio (z) = 0.42173 0.24173
#
# Static dielectric constant tensor:
#      x y z
#    x 3.510850 0.000000 0.000000 
#    y 0.000000 3.078800 0.000000 
#    z 0.000000 0.000000 3.043190 
# 
# 
# High freq. dielectric constant tensor:
#      x y z
#    x 1.629380 0.000000 0.000000 
#    y 0.000000 1.640390 0.000000 
#    z 0.000000 0.000000 1.617280 
# 
# From -- ./inp_files/22013.got.cif
#   From: 2010.03.12/outbox.cif.g09.slc.cpg/sg47_12_cif.got.tgz:22013.got - 2010.04.14 03:12:58.
