data_PCOD8194619
_publ_section_title
;
Structure prediction by ZEFSAII (Michael W. Deem and Ramdas Pophale) SiO2 
 PCOD8194619
Probable space group: P M M M
;
_chemical_formula_sum "Si O2"
_cell_formula_units_Z 48
_cell_length_a 19.099273
_cell_length_b 8.762550
_cell_length_c 15.160813
_cell_angle_alpha 90.000000
_cell_angle_beta 90.000000
_cell_angle_gamma 90.000000
_cell_volume 2537.288415
_symmetry_space_group_name_H-M "P M M M"
_symmetry_group_IT_number 47
_symmetry_cell_setting 'orthorhombic'
loop_
_space_group_symop_operation_xyz
x,y,z
-x,-y,z
x,-y,-z
-x,y,-z
-x,-y,-z
x,y,-z
-x,y,z
x,-y,z
loop_
_atom_site_type_symbol
_atom_site_label
_atom_site_fract_x
_atom_site_fract_y
_atom_site_fract_z
Si Si1 0.185719 0.823878 0.600898
Si Si2 0.578532 0.181419 0.000000
Si Si3 0.669312 0.320113 0.652483
Si Si4 0.078062 0.818596 0.253263
Si Si5 0.673131 0.181269 0.160362
Si Si6 0.417303 0.824915 0.500000
Si Si7 0.824920 0.181554 0.901741
O O1 0.162266 0.802615 0.500000
O O2 0.253679 0.725772 0.621037
O O3 0.121986 0.764961 0.661505
O O4 0.203506 0.000000 0.622551
O O5 0.618608 0.239336 0.913094
O O6 0.500000 0.248395 0.000000
O O7 0.577664 0.000000 0.000000
O O8 0.663709 0.500000 0.652986
O O9 0.651028 0.256447 0.748358
O O10 0.611689 0.254678 0.586928
O O11 0.115206 0.757262 0.164241
O O12 0.000000 0.748629 0.258710
O O13 0.074148 0.000000 0.250920
O O14 0.750046 0.239455 0.132867
O O15 0.671740 0.000000 0.170728
O O16 0.500000 0.808899 0.500000
O O17 0.392514 0.000000 0.500000
O O18 0.824397 0.000000 0.904066
O O19 0.839399 0.246116 0.000000
#
# Coordination Sequence:
#
# PCOD8194619 Si02
#       7
#     8   4   8   8   8   4   8
#     4  10  19  33  56  80 106 145 191 235 278 333
#     4   9  18  32  55  87 114 140 185 240 283 326
#     4  12  24  37  58  88 119 151 187 231 282 340
#     4   9  17  28  45  76 114 145 180 233 291 339
#     4  10  18  33  57  81 110 149 193 238 282 334
#     4  11  25  45  67  89 114 147 188 233 281 334
#     4   9  15  25  46  75 104 141 185 234 286 332
#
# _framework density 18.917833000000002
#
# number of rings (size 3 to 8) (size 9 to 14) (size 15 to 20)
#    0.000    2.000    3.333    1.750    0.000    2.000 
#    0.000    5.417    0.000    1.000    0.000    1.167 
#    0.000    1.333    0.000    0.000    0.000    0.000 
#
# Total GULP energy -595241.357223 kJ/mol
# GULP energy per Si atom -12400.861609 kJ/mol
# Density = 1.887477 g / cm^3
# Si number density = 18.917833 Si / 1000 Ang^3
#
#
#
# Elastic Constant Matrix: (Units=GPa)
#
#
# Indices 1 2 3 4 5 6 
#
# 1 131.5759 27.8503 71.1129 0.0000 0.0000 0.0000
# 2 27.8503 52.7187 38.6506 0.0000 0.0000 0.0000
# 3 71.1129 38.6506 184.5725 0.0000 0.0000 0.0000
# 4 0.0000 0.0000 0.0000 -0.7069 0.0000 0.0000
# 5 0.0000 0.0000 0.0000 0.0000 38.6926 0.0000
# 6 0.0000 0.0000 0.0000 0.0000 0.0000 2.4372
#
#
#
# Elastic Compliance Matrix: (Units=1/GPa)
#
#
# Indices 1 2 3 4 5 6 
#
# 1 0.009959 -0.002892 -0.003231 0.000000 0.000000 0.000000
# 2 -0.002892 0.023249 -0.003754 0.000000 0.000000 0.000000
# 3 -0.003231 -0.003754 0.007449 0.000000 0.000000 0.000000
# 4 0.000000 0.000000 0.000000 -1.414637 0.000000 0.000000
# 5 0.000000 0.000000 0.000000 0.000000 0.025845 0.000000
# 6 0.000000 0.000000 0.000000 0.000000 0.000000 0.410309
#
#
# Mechanical properties :
#
#
# Convention : Reuss Voigt Hill
#
# Bulk Modulus (GPa) = 47.84340 71.56609 59.70475
# Shear Modulus (GPa) = -5.48784 23.50147 9.00681
#
# Velocity S-wave (km/s) = -1.70505 3.52844 2.18434
# Velocity P-wave (km/s) = 4.63344 7.38322 6.16363
#
# Compressibility (1/GPa) = 0.02090152
#
# Stress axis : x y z
#
# Youngs Moduli (GPa) = 100.41404 43.01308 134.24501
#
# Poissons Ratio (x) = 0.12439 0.43379
# Poissons Ratio (y) = 0.29039 0.50398
# Poissons Ratio (z) = 0.32447 0.16148
#
# Static dielectric constant tensor:
#      x y z
#    x 3.626980 0.000000 0.000000 
#    y 0.000000 2.980580 0.000000 
#    z 0.000000 0.000000 3.804950 
# 
# 
# High freq. dielectric constant tensor:
#      x y z
#    x 1.735680 0.000000 0.000000 
#    y 0.000000 1.682470 0.000000 
#    z 0.000000 0.000000 1.756860 
# 
# From -- ./inp_files/24433.got.cif
#   From: 2010.03.12/outbox.cif.g09.slc.cpg/sg47_13_cif.got.tgz:24433.got - 2010.04.14 03:12:58.
