data_PCOD8194546
_publ_section_title
;
Structure prediction by ZEFSAII (Michael W. Deem and Ramdas Pophale) SiO2 
 PCOD8194546
Probable space group: P M M M
;
_chemical_formula_sum "Si O2"
_cell_formula_units_Z 52
_cell_length_a 19.821336
_cell_length_b 14.965343
_cell_length_c 8.847921
_cell_angle_alpha 90.000000
_cell_angle_beta 90.000000
_cell_angle_gamma 90.000000
_cell_volume 2624.586164
_symmetry_space_group_name_H-M "P M M M"
_symmetry_group_IT_number 47
_symmetry_cell_setting 'orthorhombic'
loop_
_space_group_symop_operation_xyz
x,y,z
-x,-y,z
x,-y,-z
-x,y,-z
-x,-y,-z
x,y,-z
-x,y,z
x,-y,z
loop_
_atom_site_type_symbol
_atom_site_label
_atom_site_fract_x
_atom_site_fract_y
_atom_site_fract_z
Si Si1 0.727987 0.602052 0.321925
Si Si2 0.687010 0.221386 0.821917
Si Si3 0.000000 0.400398 0.837651
Si Si4 0.421955 0.897825 0.673306
Si Si5 0.922509 0.149831 0.830123
Si Si6 0.863610 0.658706 0.827351
Si Si7 0.797984 0.099109 0.328050
O O1 0.719492 0.611127 0.500000
O O2 0.709357 0.500000 0.271143
O O3 0.681341 0.677385 0.243308
O O4 0.804282 0.624357 0.277169
O O5 0.619834 0.168131 0.779013
O O6 0.753127 0.169548 0.764532
O O7 0.693615 0.229990 0.000000
O O8 0.931649 0.379603 0.748792
O O9 0.000000 0.500000 0.888542
O O10 0.000000 0.343739 0.000000
O O11 0.398842 0.885070 0.500000
O O12 0.500000 0.872675 0.692004
O O13 0.409586 0.000000 0.723639
O O14 0.875218 0.236580 0.825247
O O15 0.876027 0.086634 0.727036
O O16 0.000000 0.161916 0.768645
O O17 0.926649 0.111834 0.000000
O O18 0.852403 0.624162 0.000000
O O19 0.798246 0.132762 0.500000
O O20 0.765069 0.000000 0.315005
#
# Coordination Sequence:
#
# PCOD8194546 Si02
#       7
#     8   8   4   8   8   8   8
#     4  11  24  40  58  82 113 150 194 243 294 349
#     4  12  24  38  61  91 123 158 196 242 294 344
#     4   9  16  26  45  73 102 133 172 222 284 356
#     4   9  19  38  65  97 133 170 202 232 275 336
#     4  10  20  35  55  79 108 144 189 241 299 361
#     4  10  18  32  53  77 103 136 181 233 292 354
#     4  11  24  40  58  81 111 150 197 246 297 355
#
# _framework density 19.812647999999999
#
# number of rings (size 3 to 8) (size 9 to 14) (size 15 to 20)
#    0.000    1.615    2.308    3.692    0.000    6.154 
#    0.000    2.692    0.000    1.846    0.000    3.231 
#    0.000    0.000    0.000    0.000    0.000    0.000 
#
# Total GULP energy -644266.663895 kJ/mol
# GULP energy per Si atom -12389.743536 kJ/mol
# Density = 1.976755 g / cm^3
# Si number density = 19.812648 Si / 1000 Ang^3
#
#
#
# Elastic Constant Matrix: (Units=GPa)
#
#
# Indices 1 2 3 4 5 6 
#
# 1 91.0710 41.5551 35.8174 0.0000 0.0000 0.0000
# 2 41.5551 119.5764 51.6535 0.0000 0.0000 0.0000
# 3 35.8174 51.6535 101.6433 0.0000 0.0000 0.0000
# 4 0.0000 0.0000 0.0000 15.4921 0.0000 0.0000
# 5 0.0000 0.0000 0.0000 0.0000 31.5158 0.0000
# 6 0.0000 0.0000 0.0000 0.0000 0.0000 18.1980
#
#
#
# Elastic Compliance Matrix: (Units=1/GPa)
#
#
# Indices 1 2 3 4 5 6 
#
# 1 0.013773 -0.003446 -0.003102 0.000000 0.000000 0.000000
# 2 -0.003446 0.011577 -0.004669 0.000000 0.000000 0.000000
# 3 -0.003102 -0.004669 0.013304 0.000000 0.000000 0.000000
# 4 0.000000 0.000000 0.000000 0.064549 0.000000 0.000000
# 5 0.000000 0.000000 0.000000 0.000000 0.031730 0.000000
# 6 0.000000 0.000000 0.000000 0.000000 0.000000 0.054951
#
#
# Mechanical properties :
#
#
# Convention : Reuss Voigt Hill
#
# Bulk Modulus (GPa) = 61.65314 63.37141 62.51228
# Shear Modulus (GPa) = 22.96464 25.25883 24.11173
#
# Velocity S-wave (km/s) = 3.40823 3.57443 3.49232
# Velocity P-wave (km/s) = 6.83182 7.00643 6.91968
#
# Compressibility (1/GPa) = 0.01621977
#
# Stress axis : x y z
#
# Youngs Moduli (GPa) = 72.60584 86.37503 75.16471
#
# Poissons Ratio (x) = 0.29769 0.23316
# Poissons Ratio (y) = 0.25023 0.35094
# Poissons Ratio (z) = 0.22522 0.40328
#
# Static dielectric constant tensor:
#      x y z
#    x 3.490130 0.000000 0.000000 
#    y 0.000000 3.770150 0.000000 
#    z 0.000000 0.000000 3.464860 
# 
# 
# High freq. dielectric constant tensor:
#      x y z
#    x 1.759490 0.000000 0.000000 
#    y 0.000000 1.777680 0.000000 
#    z 0.000000 0.000000 1.754780 
# 
# From -- ./inp_files/10980.got.cif
#   From: 2010.03.12/outbox.cif.g09.slc.cpg/sg47_6_cif.got.tgz:10980.got - 2010.04.14 03:12:58.
