data_PCOD8194030
_publ_section_title
;
Structure prediction by ZEFSAII (Michael W. Deem and Ramdas Pophale) SiO2 
 PCOD8194030
Probable space group: P M M M
;
_chemical_formula_sum "Si O2"
_cell_formula_units_Z 64
_cell_length_a 14.189103
_cell_length_b 9.388913
_cell_length_c 30.728920
_cell_angle_alpha 90.000000
_cell_angle_beta 90.000000
_cell_angle_gamma 90.000000
_cell_volume 4093.714516
_symmetry_space_group_name_H-M "P M M M"
_symmetry_group_IT_number 47
_symmetry_cell_setting 'orthorhombic'
loop_
_space_group_symop_operation_xyz
x,y,z
-x,-y,z
x,-y,-z
-x,y,-z
-x,-y,-z
x,y,-z
-x,y,z
x,-y,z
loop_
_atom_site_type_symbol
_atom_site_label
_atom_site_fract_x
_atom_site_fract_y
_atom_site_fract_z
Si Si1 0.898141 0.831282 0.251786
Si Si2 0.702118 0.169100 0.217930
Si Si3 0.276961 0.331825 0.619200
Si Si4 0.390664 0.838224 0.449806
Si Si5 0.107292 0.835577 0.350517
Si Si6 0.608865 0.833851 0.871007
Si Si7 0.609201 0.336008 0.704974
Si Si8 0.388009 0.660530 0.952273
O O1 0.810903 0.778791 0.222306
O O2 0.881999 0.779752 0.301069
O O3 0.000000 0.772338 0.234566
O O4 0.902706 0.000000 0.251896
O O5 0.666810 0.219203 0.170774
O O6 0.637664 0.240286 0.254269
O O7 0.692220 0.000000 0.223610
O O8 0.266779 0.500000 0.614589
O O9 0.331320 0.273666 0.577580
O O10 0.173741 0.261206 0.619635
O O11 0.332791 0.287607 0.662743
O O12 0.363554 0.816891 0.500000
O O13 0.500000 0.804967 0.442280
O O14 0.367762 0.000000 0.435292
O O15 0.000000 0.816465 0.366537
O O16 0.138481 0.000000 0.354288
O O17 0.500000 0.792559 0.863503
O O18 0.652388 0.758638 0.913742
O O19 0.621278 0.000000 0.878671
O O20 0.500000 0.310668 0.694449
O O21 0.629789 0.500000 0.716637
O O22 0.500000 0.667829 0.951743
O O23 0.353300 0.500000 0.943976
O O24 0.352136 0.712855 0.000000
#
# Coordination Sequence:
#
# PCOD8194030 Si02
#       8
#     8   8   8   8   8   8   8   8
#     4   8  14  26  45  66  86 111 147 190 228 260
#     4  10  18  29  45  63  86 116 152 188 219 260
#     4  11  21  32  49  73 100 126 153 188 232 278
#     4   9  19  36  56  76  97 123 157 194 229 269
#     4   9  17  31  51  72  93 120 157 196 231 270
#     4   9  17  26  36  56  85 114 143 176 218 263
#     4  10  21  33  42  59  91 126 155 182 214 256
#     4   8  14  25  40  56  74 102 143 183 215 254
#
# _framework density 15.633723
#
# number of rings (size 3 to 8) (size 9 to 14) (size 15 to 20)
#    0.000    2.750    1.250    2.625    0.000    3.250 
#    0.000    3.125    0.000    0.750    0.000    2.625 
#    0.000    0.500    0.000    6.250    0.000    1.250 
#
# Total GULP energy -793395.604808 kJ/mol
# GULP energy per Si atom -12396.806325 kJ/mol
# Density = 1.559814 g / cm^3
# Si number density = 15.633723 Si / 1000 Ang^3
#
#
#
# Elastic Constant Matrix: (Units=GPa)
#
#
# Indices 1 2 3 4 5 6 
#
# 1 81.5996 37.9693 47.3878 0.0000 0.0000 0.0000
# 2 37.9693 57.2930 48.4657 0.0000 0.0000 0.0000
# 3 47.3878 48.4657 100.7292 0.0000 0.0000 0.0000
# 4 0.0000 0.0000 0.0000 26.4210 0.0000 0.0000
# 5 0.0000 0.0000 0.0000 0.0000 9.3216 0.0000
# 6 0.0000 0.0000 0.0000 0.0000 0.0000 16.3593
#
#
#
# Elastic Compliance Matrix: (Units=1/GPa)
#
#
# Indices 1 2 3 4 5 6 
#
# 1 0.019035 -0.008499 -0.004866 0.000000 0.000000 0.000000
# 2 -0.008499 0.033229 -0.011990 0.000000 0.000000 0.000000
# 3 -0.004866 -0.011990 0.017986 0.000000 0.000000 0.000000
# 4 0.000000 0.000000 0.000000 0.037849 0.000000 0.000000
# 5 0.000000 0.000000 0.000000 0.000000 0.107278 0.000000
# 6 0.000000 0.000000 0.000000 0.000000 0.000000 0.061127
#
#
# Mechanical properties :
#
#
# Convention : Reuss Voigt Hill
#
# Bulk Modulus (GPa) = 51.17503 56.36306 53.76904
# Shear Modulus (GPa) = 14.98231 17.47365 16.22798
#
# Velocity S-wave (km/s) = 3.09905 3.34681 3.22531
# Velocity P-wave (km/s) = 6.75354 7.14600 6.95254
#
# Compressibility (1/GPa) = 0.01954078
#
# Stress axis : x y z
#
# Youngs Moduli (GPa) = 52.53352 30.09409 55.60001
#
# Poissons Ratio (x) = 0.25577 0.27054
# Poissons Ratio (y) = 0.44648 0.66663
# Poissons Ratio (z) = 0.25562 0.36082
#
# Static dielectric constant tensor:
#      x y z
#    x 3.083070 0.000000 0.000000 
#    y 0.000000 2.873100 0.000000 
#    z 0.000000 0.000000 3.022230 
# 
# 
# High freq. dielectric constant tensor:
#      x y z
#    x 1.583450 0.000000 0.000000 
#    y 0.000000 1.589940 0.000000 
#    z 0.000000 0.000000 1.587910 
# 
# From -- ./inp_files/22149.got.cif
#   From: 2010.03.12/outbox.cif.g09.slc.cpg/sg47_12_cif.got.tgz:22149.got - 2010.04.14 03:12:58.
