data_PCOD8194648
_publ_section_title
;
Structure prediction by ZEFSAII (Michael W. Deem and Ramdas Pophale) SiO2 
 PCOD8194648
Probable space group: P M M M
;
_chemical_formula_sum "Si O2"
_cell_formula_units_Z 60
_cell_length_a 14.865163
_cell_length_b 11.410055
_cell_length_c 23.530458
_cell_angle_alpha 90.000000
_cell_angle_beta 90.000000
_cell_angle_gamma 90.000000
_cell_volume 3991.055746
_symmetry_space_group_name_H-M "P M M M"
_symmetry_group_IT_number 47
_symmetry_cell_setting 'orthorhombic'
loop_
_space_group_symop_operation_xyz
x,y,z
-x,-y,z
x,-y,-z
-x,y,-z
-x,-y,-z
x,y,-z
-x,y,z
x,-y,z
loop_
_atom_site_type_symbol
_atom_site_label
_atom_site_fract_x
_atom_site_fract_y
_atom_site_fract_z
Si Si1 0.100405 0.860901 0.843167
Si Si2 0.601100 0.860500 0.563302
Si Si3 0.396147 0.253614 0.111556
Si Si4 0.232826 0.862096 0.937730
Si Si5 0.396949 0.133503 0.771191
Si Si6 0.900528 0.139558 0.284300
Si Si7 0.719443 0.860763 0.334960
Si Si8 0.394112 0.500000 0.063887
O O1 0.169445 0.805149 0.888866
O O2 0.122773 0.815880 0.779465
O O3 0.000000 0.821349 0.860350
O O4 0.107968 0.000000 0.843987
O O5 0.627796 0.817282 0.500000
O O6 0.500000 0.817160 0.578495
O O7 0.673480 0.807893 0.608113
O O8 0.602572 0.000000 0.565534
O O9 0.500000 0.233436 0.094601
O O10 0.336762 0.169222 0.072509
O O11 0.379361 0.221480 0.177077
O O12 0.363976 0.386477 0.099771
O O13 0.222301 0.000000 0.936211
O O14 0.203633 0.814968 0.000000
O O15 0.500000 0.136747 0.751268
O O16 0.337497 0.180232 0.719355
O O17 0.370092 0.000000 0.788865
O O18 0.822630 0.184659 0.327458
O O19 0.000000 0.185475 0.303150
O O20 0.901738 0.000000 0.283779
O O21 0.717540 0.000000 0.338630
O O22 0.500000 0.500000 0.057378
O O23 0.351651 0.500000 0.000000
#
# Coordination Sequence:
#
# PCOD8194648 Si02
#       8
#     8   8   8   8   8   8   8   4
#     4   8  14  25  38  51  71  97 121 146 178 219
#     4   8  13  20  29  42  62  91 127 158 177 199
#     4  10  19  30  42  55  73  96 123 155 186 220
#     4  10  19  27  37  56  78  97 117 143 182 230
#     4   9  16  24  36  56  78  96 113 139 184 235
#     4   8  13  20  30  43  58  81 114 147 176 207
#     4   9  14  20  32  48  69  95 119 144 175 214
#     4   9  18  32  46  54  63  91 134 166 183 208
#
# _framework density 15.033617
#
# number of rings (size 3 to 8) (size 9 to 14) (size 15 to 20)
#    0.000    3.133    0.000    3.200    0.000    5.600 
#    0.000    2.000    0.000    0.400    0.000    3.267 
#    0.000    1.600    0.000    0.600    0.000   12.467 
#
# Total GULP energy -743434.561316 kJ/mol
# GULP energy per Si atom -12390.576022 kJ/mol
# Density = 1.499940 g / cm^3
# Si number density = 15.033617 Si / 1000 Ang^3
#
#
#
# Elastic Constant Matrix: (Units=GPa)
#
#
# Indices 1 2 3 4 5 6 
#
# 1 107.3930 11.5155 73.4477 0.0000 0.0000 0.0000
# 2 11.5155 9.7225 19.2031 0.0000 0.0000 0.0000
# 3 73.4477 19.2031 112.1409 0.0000 0.0000 0.0000
# 4 0.0000 0.0000 0.0000 5.1014 0.0000 0.0000
# 5 0.0000 0.0000 0.0000 0.0000 22.9925 0.0000
# 6 0.0000 0.0000 0.0000 0.0000 0.0000 3.9576
#
#
#
# Elastic Compliance Matrix: (Units=1/GPa)
#
#
# Indices 1 2 3 4 5 6 
#
# 1 0.016917 0.002792 -0.011558 0.000000 0.000000 0.000000
# 2 0.002792 0.155881 -0.028522 0.000000 0.000000 0.000000
# 3 -0.011558 -0.028522 0.021371 0.000000 0.000000 0.000000
# 4 0.000000 0.000000 0.000000 0.196024 0.000000 0.000000
# 5 0.000000 0.000000 0.000000 0.000000 0.043492 0.000000
# 6 0.000000 0.000000 0.000000 0.000000 0.000000 0.252676
#
#
# Mechanical properties :
#
#
# Convention : Reuss Voigt Hill
#
# Bulk Modulus (GPa) = 8.36165 48.62099 28.49132
# Shear Modulus (GPa) = 6.24374 14.74965 10.49669
#
# Velocity S-wave (km/s) = 2.04015 3.13567 2.64524
# Velocity P-wave (km/s) = 3.33521 6.74697 5.32190
#
# Compressibility (1/GPa) = 0.11959362
#
# Stress axis : x y z
#
# Youngs Moduli (GPa) = 59.11255 6.41514 46.79162
#
# Poissons Ratio (x) = -0.01791 0.54081
# Poissons Ratio (y) = -0.16501 1.33457
# Poissons Ratio (z) = 0.68322 0.18297
#
# Static dielectric constant tensor:
#      x y z
#    x 3.169890 0.000000 0.000000 
#    y 0.000000 2.354060 0.000000 
#    z 0.000000 0.000000 3.130170 
# 
# 
# High freq. dielectric constant tensor:
#      x y z
#    x 1.580870 0.000000 0.000000 
#    y 0.000000 1.492360 0.000000 
#    z 0.000000 0.000000 1.574160 
# 
# From -- ./inp_files/32859.got.cif
#   From: 2010.03.12/outbox.cif.g09.slc.cpg/sg47_17_cif.got.tgz:32859.got - 2010.04.14 03:12:58.
