data_PCOD8194166
_publ_section_title
;
Structure prediction by ZEFSAII (Michael W. Deem and Ramdas Pophale) SiO2 
 PCOD8194166
Probable space group: P M M M
;
_chemical_formula_sum "Si O2"
_cell_formula_units_Z 52
_cell_length_a 7.626732
_cell_length_b 30.286675
_cell_length_c 11.955333
_cell_angle_alpha 90.000000
_cell_angle_beta 90.000000
_cell_angle_gamma 90.000000
_cell_volume 2761.542684
_symmetry_space_group_name_H-M "P M M M"
_symmetry_group_IT_number 47
_symmetry_cell_setting 'orthorhombic'
loop_
_space_group_symop_operation_xyz
x,y,z
-x,-y,z
x,-y,-z
-x,y,-z
-x,-y,-z
x,y,-z
-x,y,z
x,-y,z
loop_
_atom_site_type_symbol
_atom_site_label
_atom_site_fract_x
_atom_site_fract_y
_atom_site_fract_z
Si Si1 0.696406 0.253138 0.000000
Si Si2 0.205021 0.156876 0.000000
Si Si3 0.791468 0.048505 0.373880
Si Si4 0.500000 0.451093 0.867916
Si Si5 0.196868 0.293958 0.223474
Si Si6 0.790217 0.217145 0.372703
Si Si7 0.206795 0.131328 0.757714
Si Si8 0.204782 0.384577 0.131192
O O1 0.803868 0.267954 0.107464
O O2 0.500000 0.273179 0.000000
O O3 0.681409 0.200721 0.000000
O O4 0.255727 0.129660 0.111171
O O5 0.000000 0.169346 0.000000
O O6 0.727078 0.057264 0.500000
O O7 0.710905 0.087047 0.296317
O O8 0.000000 0.049608 0.369356
O O9 0.725518 0.000000 0.333632
O O10 0.500000 0.500000 0.813285
O O11 0.677003 0.425843 0.830086
O O12 0.500000 0.455522 0.000000
O O13 0.287755 0.262515 0.317161
O O14 0.277650 0.342721 0.203219
O O15 0.000000 0.302167 0.262439
O O16 0.723313 0.214201 0.500000
O O17 0.716935 0.175019 0.303774
O O18 0.000000 0.218089 0.366372
O O19 0.000000 0.131493 0.739516
O O20 0.000000 0.395125 0.154546
O O21 0.232778 0.373662 0.000000
#
# Coordination Sequence:
#
# PCOD8194166 Si02
#       8
#     4   4   8   4   8   8   8   8
#     4  12  22  28  44  67  87 120 159 192 227 271
#     4  10  18  30  43  60  84 114 149 189 230 270
#     4   8  13  21  33  52  81 113 143 180 228 279
#     4   9  18  30  44  64  95 129 161 199 239 281
#     4  10  18  30  46  66  94 122 153 194 232 271
#     4   9  16  25  41  64  87 115 152 189 225 274
#     4   9  15  23  38  57  81 114 151 183 221 273
#     4   9  17  27  43  65  90 123 160 195 238 288
#
# _framework density 18.830055000000002
#
# number of rings (size 3 to 8) (size 9 to 14) (size 15 to 20)
#    0.000    2.692    2.308    1.615    1.077    2.154 
#    0.000    1.923    0.000    2.769    0.000    0.000 
#    0.000    2.462    0.000    7.692    0.000    1.692 
#
# Total GULP energy -644320.092617 kJ/mol
# GULP energy per Si atom -12390.771012 kJ/mol
# Density = 1.878720 g / cm^3
# Si number density = 18.830055 Si / 1000 Ang^3
#
#
#
# Elastic Constant Matrix: (Units=GPa)
#
#
# Indices 1 2 3 4 5 6 
#
# 1 39.6968 29.6180 9.4576 0.0000 0.0000 0.0000
# 2 29.6180 185.6068 73.6693 0.0000 0.0000 0.0000
# 3 9.4576 73.6693 116.7233 0.0000 0.0000 0.0000
# 4 0.0000 0.0000 0.0000 9.8664 0.0000 0.0000
# 5 0.0000 0.0000 0.0000 0.0000 -1.1827 0.0000
# 6 0.0000 0.0000 0.0000 0.0000 0.0000 -0.9684
#
#
#
# Elastic Compliance Matrix: (Units=1/GPa)
#
#
# Indices 1 2 3 4 5 6 
#
# 1 0.028645 -0.004870 0.000752 0.000000 0.000000 0.000000
# 2 -0.004870 0.008016 -0.004665 0.000000 0.000000 0.000000
# 3 0.000752 -0.004665 0.011451 0.000000 0.000000 0.000000
# 4 0.000000 0.000000 0.000000 0.101354 0.000000 0.000000
# 5 0.000000 0.000000 0.000000 0.000000 -0.845512 0.000000
# 6 0.000000 0.000000 0.000000 0.000000 0.000000 -1.032663
#
#
# Mechanical properties :
#
#
# Convention : Reuss Voigt Hill
#
# Bulk Modulus (GPa) = 32.73576 63.05742 47.89659
# Shear Modulus (GPa) = -2.93951 16.82854 6.94451
#
# Velocity S-wave (km/s) = -1.25079 2.99274 1.92250
# Velocity P-wave (km/s) = 3.91620 6.74554 5.51538
#
# Compressibility (1/GPa) = 0.03054763
#
# Stress axis : x y z
#
# Youngs Moduli (GPa) = 34.91023 124.74503 87.33220
#
# Poissons Ratio (x) = 0.60746 -0.06572
# Poissons Ratio (y) = 0.17000 0.40740
# Poissons Ratio (z) = -0.02627 0.58192
#
# Static dielectric constant tensor:
#      x y z
#    x 3.030790 0.000000 0.000000 
#    y 0.000000 3.772400 0.000000 
#    z 0.000000 0.000000 3.361070 
# 
# 
# High freq. dielectric constant tensor:
#      x y z
#    x 1.703390 0.000000 0.000000 
#    y 0.000000 1.726730 0.000000 
#    z 0.000000 0.000000 1.697290 
# 
# From -- ./inp_files/15581.got.cif
#   From: 2010.03.12/outbox.cif.g09.slc.cpg/sg47_8_cif.got.tgz:15581.got - 2010.04.14 03:12:58.
