data_PCOD8194304
_publ_section_title
;
Structure prediction by ZEFSAII (Michael W. Deem and Ramdas Pophale) SiO2 
 PCOD8194304
Probable space group: P M M M
;
_chemical_formula_sum "Si O2"
_cell_formula_units_Z 48
_cell_length_a 10.153439
_cell_length_b 8.956854
_cell_length_c 29.192332
_cell_angle_alpha 90.000000
_cell_angle_beta 90.000000
_cell_angle_gamma 90.000000
_cell_volume 2654.834475
_symmetry_space_group_name_H-M "P M M M"
_symmetry_group_IT_number 47
_symmetry_cell_setting 'orthorhombic'
loop_
_space_group_symop_operation_xyz
x,y,z
-x,-y,z
x,-y,-z
-x,y,-z
-x,-y,-z
x,y,-z
-x,y,z
x,-y,z
loop_
_atom_site_type_symbol
_atom_site_label
_atom_site_fract_x
_atom_site_fract_y
_atom_site_fract_z
Si Si1 0.000000 0.322773 0.051647
Si Si2 0.656263 0.667782 0.288168
Si Si3 0.500000 0.322725 0.050854
Si Si4 0.347570 0.175991 0.803681
Si Si5 0.651431 0.175453 0.619787
Si Si6 0.251810 0.677247 0.892389
Si Si7 0.850515 0.328312 0.553650
O O1 0.125343 0.266468 0.079905
O O2 0.000000 0.500000 0.048032
O O3 0.000000 0.255897 0.000000
O O4 0.500000 0.667389 0.288133
O O5 0.713014 0.500000 0.286485
O O6 0.706653 0.758026 0.243989
O O7 0.706240 0.747386 0.334193
O O8 0.500000 0.500000 0.047696
O O9 0.373475 0.264916 0.077720
O O10 0.500000 0.253449 0.000000
O O11 0.500000 0.221803 0.811886
O O12 0.256710 0.245009 0.843153
O O13 0.330200 0.000000 0.802380
O O14 0.500000 0.222589 0.609296
O O15 0.744603 0.224383 0.578395
O O16 0.661511 0.000000 0.626922
O O17 0.253101 0.500000 0.885118
O O18 0.832023 0.301873 0.500000
O O19 0.822384 0.500000 0.566411
O O20 0.000000 0.285451 0.568063
#
# Coordination Sequence:
#
# PCOD8194304 Si02
#       7
#     4   8   4   8   8   8   8
#     4   9  18  32  51  75 101 129 163 205 250 295
#     4   9  17  30  51  77 104 135 172 212 257 309
#     4   9  16  26  45  73  99 123 159 205 244 285
#     4  10  19  31  49  74 104 133 164 206 256 304
#     4  10  20  33  51  79 113 144 176 217 267 320
#     4  10  18  30  50  74  99 128 164 204 248 298
#     4   9  19  36  56  77 104 142 187 230 270 313
#
# _framework density 18.080223
#
# number of rings (size 3 to 8) (size 9 to 14) (size 15 to 20)
#    0.000    2.500    0.833    2.500    0.000    6.667 
#    0.000    2.917    1.833    3.000    0.000    0.000 
#    0.000    0.000    0.000    0.000    0.000    0.000 
#
# Total GULP energy -595207.474330 kJ/mol
# GULP energy per Si atom -12400.155715 kJ/mol
# Density = 1.803907 g / cm^3
# Si number density = 18.080223 Si / 1000 Ang^3
#
#
#
# Elastic Constant Matrix: (Units=GPa)
#
#
# Indices 1 2 3 4 5 6 
#
# 1 98.9509 33.0337 58.1031 0.0000 0.0000 0.0000
# 2 33.0337 72.5871 46.8946 0.0000 0.0000 0.0000
# 3 58.1031 46.8946 125.5676 0.0000 0.0000 0.0000
# 4 0.0000 0.0000 0.0000 10.6762 0.0000 0.0000
# 5 0.0000 0.0000 0.0000 0.0000 -61.3349 0.0000
# 6 0.0000 0.0000 0.0000 0.0000 0.0000 16.6269
#
#
#
# Elastic Compliance Matrix: (Units=1/GPa)
#
#
# Indices 1 2 3 4 5 6 
#
# 1 0.014341 -0.002951 -0.005533 0.000000 0.000000 0.000000
# 2 -0.002951 0.018765 -0.005642 0.000000 0.000000 0.000000
# 3 -0.005533 -0.005642 0.012631 0.000000 0.000000 0.000000
# 4 0.000000 0.000000 0.000000 0.093666 0.000000 0.000000
# 5 0.000000 0.000000 0.000000 0.000000 -0.016304 0.000000
# 6 0.000000 0.000000 0.000000 0.000000 0.000000 0.060144
#
#
# Mechanical properties :
#
#
# Convention : Reuss Voigt Hill
#
# Bulk Modulus (GPa) = 57.19967 63.68538 60.44253
# Shear Modulus (GPa) = 23.00712 3.79860 13.40286
#
# Velocity S-wave (km/s) = 3.57108 1.45104 2.72564
# Velocity P-wave (km/s) = 6.97917 6.17314 6.58849
#
# Compressibility (1/GPa) = 0.01748262
#
# Stress axis : x y z
#
# Youngs Moduli (GPa) = 69.73255 53.29114 79.16735
#
# Poissons Ratio (x) = 0.15728 0.43807
# Poissons Ratio (y) = 0.20581 0.44668
# Poissons Ratio (z) = 0.38586 0.30068
#
# Static dielectric constant tensor:
#      x y z
#    x 3.171890 0.000000 0.000000 
#    y 0.000000 3.156580 0.000000 
#    z 0.000000 0.000000 3.459720 
# 
# 
# High freq. dielectric constant tensor:
#      x y z
#    x 1.673490 0.000000 0.000000 
#    y 0.000000 1.685460 0.000000 
#    z 0.000000 0.000000 1.713360 
# 
# From -- ./inp_files/13856.got.cif
#   From: 2010.03.12/outbox.cif.g09.slc.cpg/sg47_7_cif.got.tgz:13856.got - 2010.04.14 03:12:58.
