data_PCOD8194953
_publ_section_title
;
Structure prediction by ZEFSAII (Michael W. Deem and Ramdas Pophale) SiO2 
 PCOD8194953
Probable space group: P M M M
;
_chemical_formula_sum "Si O2"
_cell_formula_units_Z 44
_cell_length_a 14.972225
_cell_length_b 9.552635
_cell_length_c 17.015735
_cell_angle_alpha 90.000000
_cell_angle_beta 90.000000
_cell_angle_gamma 90.000000
_cell_volume 2433.661895
_symmetry_space_group_name_H-M "P M M M"
_symmetry_group_IT_number 47
_symmetry_cell_setting 'orthorhombic'
loop_
_space_group_symop_operation_xyz
x,y,z
-x,-y,z
x,-y,-z
-x,y,-z
-x,-y,-z
x,y,-z
-x,y,z
x,-y,z
loop_
_atom_site_type_symbol
_atom_site_label
_atom_site_fract_x
_atom_site_fract_y
_atom_site_fract_z
Si Si1 0.598715 0.156959 0.312845
Si Si2 0.099300 0.665580 0.000000
Si Si3 0.761882 0.337426 0.872296
Si Si4 0.401839 0.156784 0.126322
Si Si5 0.236125 0.335948 0.689370
Si Si6 0.104472 0.841531 0.590029
O O1 0.500000 0.200117 0.344389
O O2 0.597616 0.160216 0.219662
O O3 0.672773 0.265834 0.343506
O O4 0.622488 0.000000 0.342230
O O5 0.152244 0.714050 0.078216
O O6 0.089963 0.500000 0.000000
O O7 0.000000 0.733572 0.000000
O O8 0.743368 0.500000 0.886289
O O9 0.674562 0.258968 0.905972
O O10 0.779198 0.303772 0.781213
O O11 0.500000 0.204496 0.095641
O O12 0.381359 0.000000 0.096435
O O13 0.241496 0.500000 0.672035
O O14 0.153026 0.270498 0.644345
O O15 0.132093 0.815500 0.500000
O O16 0.000000 0.817063 0.601379
O O17 0.130221 0.000000 0.614806
#
# Coordination Sequence:
#
# PCOD8194953 Si02
#       6
#     8   4   8   8   8   8
#     4   8  14  26  45  68  95 130 168 198 227 274
#     4   9  18  34  52  65  86 126 169 205 240 279
#     4   9  18  31  48  71  95 124 164 202 236 278
#     4   8  14  26  45  68  94 124 155 190 237 287
#     4  10  19  29  47  77 105 126 154 198 248 291
#     4   9  19  36  55  73  95 126 162 196 234 287
#
# _framework density 18.079750000000001
#
# number of rings (size 3 to 8) (size 9 to 14) (size 15 to 20)
#    0.000    3.182    0.000    2.182    0.000    2.909 
#    0.000    7.273    0.000    4.364    0.000    3.818 
#    0.000    0.000    0.000    0.000    0.000    0.000 
#
# Total GULP energy -545367.159132 kJ/mol
# GULP energy per Si atom -12394.708162 kJ/mol
# Density = 1.803860 g / cm^3
# Si number density = 18.079750 Si / 1000 Ang^3
#
#
#
# Elastic Constant Matrix: (Units=GPa)
#
#
# Indices 1 2 3 4 5 6 
#
# 1 147.3410 74.9957 49.3088 0.0000 0.0000 0.0000
# 2 74.9957 96.6573 42.2908 0.0000 0.0000 0.0000
# 3 49.3088 42.2908 53.1091 0.0000 0.0000 0.0000
# 4 0.0000 0.0000 0.0000 13.5067 0.0000 0.0000
# 5 0.0000 0.0000 0.0000 0.0000 -6.5347 0.0000
# 6 0.0000 0.0000 0.0000 0.0000 0.0000 34.3173
#
#
#
# Elastic Compliance Matrix: (Units=1/GPa)
#
#
# Indices 1 2 3 4 5 6 
#
# 1 0.012302 -0.006979 -0.005864 0.000000 0.000000 0.000000
# 2 -0.006979 0.019837 -0.009317 0.000000 0.000000 0.000000
# 3 -0.005864 -0.009317 0.031692 0.000000 0.000000 0.000000
# 4 0.000000 0.000000 0.000000 0.074037 0.000000 0.000000
# 5 0.000000 0.000000 0.000000 0.000000 -0.153029 0.000000
# 6 0.000000 0.000000 0.000000 0.000000 0.000000 0.029140
#
#
# Mechanical properties :
#
#
# Convention : Reuss Voigt Hill
#
# Bulk Modulus (GPa) = 51.25100 70.03311 60.64206
# Shear Modulus (GPa) = 77.15686 16.95867 47.05777
#
# Velocity S-wave (km/s) = 6.53976 3.06599 5.10729
# Velocity P-wave (km/s) = 9.24302 7.16613 8.27003
#
# Compressibility (1/GPa) = 0.01951181
#
# Stress axis : x y z
#
# Youngs Moduli (GPa) = 81.28923 50.41026 31.55332
#
# Poissons Ratio (x) = 0.35182 0.18503
# Poissons Ratio (y) = 0.56733 0.29397
# Poissons Ratio (z) = 0.47668 0.46965
#
# Static dielectric constant tensor:
#      x y z
#    x 3.683590 0.000000 0.000000 
#    y 0.000000 3.314300 0.000000 
#    z 0.000000 0.000000 3.046550 
# 
# 
# High freq. dielectric constant tensor:
#      x y z
#    x 1.707750 0.000000 0.000000 
#    y 0.000000 1.688320 0.000000 
#    z 0.000000 0.000000 1.671310 
# 
# From -- ./inp_files/20905.got.cif
#   From: 2010.03.12/outbox.cif.g09.slc.cpg/sg47_11_cif.got.tgz:20905.got - 2010.04.14 03:12:58.
