data_PCOD8194324
_publ_section_title
;
Structure prediction by ZEFSAII (Michael W. Deem and Ramdas Pophale) SiO2 
 PCOD8194324
Probable space group: P M M M
;
_chemical_formula_sum "Si O2"
_cell_formula_units_Z 52
_cell_length_a 9.042101
_cell_length_b 14.174249
_cell_length_c 21.164012
_cell_angle_alpha 90.000000
_cell_angle_beta 90.000000
_cell_angle_gamma 90.000000
_cell_volume 2712.485409
_symmetry_space_group_name_H-M "P M M M"
_symmetry_group_IT_number 47
_symmetry_cell_setting 'orthorhombic'
loop_
_space_group_symop_operation_xyz
x,y,z
-x,-y,z
x,-y,-z
-x,y,-z
-x,-y,-z
x,y,-z
-x,y,z
x,-y,z
loop_
_atom_site_type_symbol
_atom_site_label
_atom_site_fract_x
_atom_site_fract_y
_atom_site_fract_z
Si Si1 0.166351 0.111655 0.742423
Si Si2 0.333601 0.610738 0.827378
Si Si3 0.324805 0.396390 0.313629
Si Si4 0.324646 0.794268 0.372583
Si Si5 0.170504 0.731226 0.070956
Si Si6 0.674247 0.107657 0.867991
Si Si7 0.324421 0.107588 0.500000
O O1 0.249930 0.142755 0.680097
O O2 0.255529 0.148425 0.803319
O O3 0.000000 0.152688 0.743747
O O4 0.164063 0.000000 0.742945
O O5 0.500000 0.651795 0.835173
O O6 0.335170 0.500000 0.838676
O O7 0.270869 0.632592 0.756843
O O8 0.228003 0.654908 0.879549
O O9 0.500000 0.404658 0.310626
O O10 0.260544 0.500000 0.333427
O O11 0.276356 0.315711 0.363637
O O12 0.500000 0.805178 0.366303
O O13 0.267255 0.833856 0.439493
O O14 0.260866 0.829114 0.075899
O O15 0.000000 0.752393 0.085185
O O16 0.192911 0.691922 0.000000
O O17 0.500000 0.118487 0.863199
O O18 0.720963 0.000000 0.880819
O O19 0.500000 0.103211 0.500000
O O20 0.261506 0.000000 0.500000
#
# Coordination Sequence:
#
# PCOD8194324 Si02
#       7
#     8   8   8   8   8   8   4
#     4  10  20  33  51  77 106 132 163 211 267 316
#     4   9  18  34  56  79 102 131 171 222 275 321
#     4   8  15  29  50  76 101 124 160 214 267 308
#     4  10  18  30  51  74 100 140 181 214 255 307
#     4  11  24  38  52  74 106 142 176 214 263 316
#     4  10  21  37  57  79 102 132 173 219 265 316
#     4   9  18  30  44  70 108 143 179 223 262 299
#
# _framework density 19.17061
#
# number of rings (size 3 to 8) (size 9 to 14) (size 15 to 20)
#    0.000    2.385    0.000    3.692    0.000    5.846 
#    0.000    3.846    0.000    5.077    0.000    0.000 
#    0.000    1.231    0.000    0.000    0.000    0.000 
#
# Total GULP energy -644685.890605 kJ/mol
# GULP energy per Si atom -12397.805589 kJ/mol
# Density = 1.912698 g / cm^3
# Si number density = 19.170610 Si / 1000 Ang^3
#
#
#
# Elastic Constant Matrix: (Units=GPa)
#
#
# Indices 1 2 3 4 5 6 
#
# 1 58.5567 22.2310 31.8135 0.0000 0.0000 0.0000
# 2 22.2310 88.5660 62.0080 0.0000 0.0000 0.0000
# 3 31.8135 62.0080 114.7896 0.0000 0.0000 0.0000
# 4 0.0000 0.0000 0.0000 27.9644 0.0000 0.0000
# 5 0.0000 0.0000 0.0000 0.0000 8.2467 0.0000
# 6 0.0000 0.0000 0.0000 0.0000 0.0000 20.1261
#
#
#
# Elastic Compliance Matrix: (Units=1/GPa)
#
#
# Indices 1 2 3 4 5 6 
#
# 1 0.020293 -0.001859 -0.004620 0.000000 0.000000 0.000000
# 2 -0.001859 0.018329 -0.009386 0.000000 0.000000 0.000000
# 3 -0.004620 -0.009386 0.015062 0.000000 0.000000 0.000000
# 4 0.000000 0.000000 0.000000 0.035760 0.000000 0.000000
# 5 0.000000 0.000000 0.000000 0.000000 0.121261 0.000000
# 6 0.000000 0.000000 0.000000 0.000000 0.000000 0.049687
#
#
# Mechanical properties :
#
#
# Convention : Reuss Voigt Hill
#
# Bulk Modulus (GPa) = 45.54887 54.89082 50.21985
# Shear Modulus (GPa) = 16.69782 20.99141 18.84462
#
# Velocity S-wave (km/s) = 2.95449 3.31264 3.13868
# Velocity P-wave (km/s) = 5.95399 6.58228 6.27600
#
# Compressibility (1/GPa) = 0.02195444
#
# Stress axis : x y z
#
# Youngs Moduli (GPa) = 49.27737 54.55814 66.39183
#
# Poissons Ratio (x) = 0.10144 0.30672
# Poissons Ratio (y) = 0.09162 0.62314
# Poissons Ratio (z) = 0.22765 0.51207
#
# Static dielectric constant tensor:
#      x y z
#    x 3.336200 0.000000 0.000000 
#    y 0.000000 3.780430 0.000000 
#    z 0.000000 0.000000 3.522450 
# 
# 
# High freq. dielectric constant tensor:
#      x y z
#    x 1.721470 0.000000 0.000000 
#    y 0.000000 1.755870 0.000000 
#    z 0.000000 0.000000 1.735920 
# 
# From -- ./inp_files/7065.got.cif
#   From: 2010.03.12/outbox.cif.g09.slc.cpg/sg47_4_cif.got.tgz:7065.got - 2010.04.14 03:12:58.
