data_PCOD8194755
_publ_section_title
;
Structure prediction by ZEFSAII (Michael W. Deem and Ramdas Pophale) SiO2 
 PCOD8194755
Probable space group: P M M M
;
_chemical_formula_sum "Si O2"
_cell_formula_units_Z 48
_cell_length_a 19.202470
_cell_length_b 9.507275
_cell_length_c 15.387564
_cell_angle_alpha 90.000000
_cell_angle_beta 90.000000
_cell_angle_gamma 90.000000
_cell_volume 2809.202354
_symmetry_space_group_name_H-M "P M M M"
_symmetry_group_IT_number 47
_symmetry_cell_setting 'orthorhombic'
loop_
_space_group_symop_operation_xyz
x,y,z
-x,-y,z
x,-y,-z
-x,y,-z
-x,-y,-z
x,y,-z
-x,y,z
x,-y,z
loop_
_atom_site_type_symbol
_atom_site_label
_atom_site_fract_x
_atom_site_fract_y
_atom_site_fract_z
Si Si1 0.176989 0.163397 0.245562
Si Si2 0.176800 0.657448 0.595382
Si Si3 0.342217 0.658227 0.403742
Si Si4 0.418837 0.660241 0.100176
Si Si5 0.077812 0.832902 0.903759
Si Si6 0.660189 0.835383 0.241274
O O1 0.147492 0.238269 0.331795
O O2 0.134273 0.226463 0.164101
O O3 0.258008 0.193999 0.230199
O O4 0.162103 0.000000 0.258539
O O5 0.149722 0.704905 0.500000
O O6 0.150757 0.500000 0.615979
O O7 0.259605 0.661639 0.595539
O O8 0.369530 0.703930 0.500000
O O9 0.368415 0.500000 0.382562
O O10 0.369777 0.764303 0.329576
O O11 0.500000 0.683439 0.118073
O O12 0.397769 0.500000 0.123338
O O13 0.376235 0.769055 0.157923
O O14 0.401170 0.692172 0.000000
O O15 0.000000 0.784069 0.876896
O O16 0.081408 0.000000 0.905353
O O17 0.096053 0.774784 0.000000
O O18 0.643170 0.000000 0.245788
#
# Coordination Sequence:
#
# PCOD8194755 Si02
#       6
#     8   8   8   8   8   8
#     4   9  17  27  42  68  95 116 144 184 225 262
#     4   8  14  25  41  61  86 117 150 181 216 261
#     4   8  14  26  44  64  88 121 157 187 215 255
#     4   9  19  36  54  68  85 116 157 192 219 257
#     4   8  14  26  44  63  84 115 153 187 219 259
#     4  10  19  28  43  71 101 122 141 178 233 279
#
# _framework density 17.086701000000001
#
# number of rings (size 3 to 8) (size 9 to 14) (size 15 to 20)
#    0.000    3.333    0.000    2.500    0.000    2.667 
#    0.000    5.833    0.000    2.000    0.000    8.167 
#    0.000    0.000    0.000    0.000    0.000    0.000 
#
# Total GULP energy -594890.920417 kJ/mol
# GULP energy per Si atom -12393.560842 kJ/mol
# Density = 1.704781 g / cm^3
# Si number density = 17.086701 Si / 1000 Ang^3
#
#
#
# Elastic Constant Matrix: (Units=GPa)
#
#
# Indices 1 2 3 4 5 6 
#
# 1 40.2984 36.7246 53.8114 0.0000 0.0000 0.0000
# 2 36.7246 85.2337 78.9624 0.0000 0.0000 0.0000
# 3 53.8114 78.9624 158.8417 0.0000 0.0000 0.0000
# 4 0.0000 0.0000 0.0000 33.0265 0.0000 0.0000
# 5 0.0000 0.0000 0.0000 0.0000 2.5879 0.0000
# 6 0.0000 0.0000 0.0000 0.0000 0.0000 12.0849
#
#
#
# Elastic Compliance Matrix: (Units=1/GPa)
#
#
# Indices 1 2 3 4 5 6 
#
# 1 0.050239 -0.010898 -0.011602 0.000000 0.000000 0.000000
# 2 -0.010898 0.024112 -0.008295 0.000000 0.000000 0.000000
# 3 -0.011602 -0.008295 0.014349 0.000000 0.000000 0.000000
# 4 0.000000 0.000000 0.000000 0.030279 0.000000 0.000000
# 5 0.000000 0.000000 0.000000 0.000000 0.386419 0.000000
# 6 0.000000 0.000000 0.000000 0.000000 0.000000 0.082748
#
#
# Mechanical properties :
#
#
# Convention : Reuss Voigt Hill
#
# Bulk Modulus (GPa) = 36.88494 69.26340 53.07417
# Shear Modulus (GPa) = 7.58986 17.19821 12.39404
#
# Velocity S-wave (km/s) = 2.10988 3.17602 2.69618
# Velocity P-wave (km/s) = 5.25065 7.35350 6.38918
#
# Compressibility (1/GPa) = 0.02711133
#
# Stress axis : x y z
#
# Youngs Moduli (GPa) = 19.90487 41.47242 69.68900
#
# Poissons Ratio (x) = 0.45196 0.80854
# Poissons Ratio (y) = 0.21692 0.57805
# Poissons Ratio (z) = 0.23094 0.34400
#
# Static dielectric constant tensor:
#      x y z
#    x 2.879800 0.000000 0.000000 
#    y 0.000000 3.091500 0.000000 
#    z 0.000000 0.000000 3.636190 
# 
# 
# High freq. dielectric constant tensor:
#      x y z
#    x 1.617850 0.000000 0.000000 
#    y 0.000000 1.641620 0.000000 
#    z 0.000000 0.000000 1.674610 
# 
# From -- ./inp_files/6376.got.cif
#   From: 2010.03.12/outbox.cif.g09.slc.cpg/sg47_4_cif.got.tgz:6376.got - 2010.04.14 03:12:58.
