data_PCOD8194943
_publ_section_title
;
Structure prediction by ZEFSAII (Michael W. Deem and Ramdas Pophale) SiO2 
 PCOD8194943
Probable space group: P M M M
;
_chemical_formula_sum "Si O2"
_cell_formula_units_Z 64
_cell_length_a 28.375549
_cell_length_b 13.729427
_cell_length_c 9.164354
_cell_angle_alpha 90.000000
_cell_angle_beta 90.000000
_cell_angle_gamma 90.000000
_cell_volume 3570.249293
_symmetry_space_group_name_H-M "P M M M"
_symmetry_group_IT_number 47
_symmetry_cell_setting 'orthorhombic'
loop_
_space_group_symop_operation_xyz
x,y,z
-x,-y,z
x,-y,-z
-x,y,-z
-x,-y,-z
x,y,-z
-x,y,z
x,-y,z
loop_
_atom_site_type_symbol
_atom_site_label
_atom_site_fract_x
_atom_site_fract_y
_atom_site_fract_z
Si Si1 0.222389 0.796480 0.829517
Si Si2 0.945963 0.812945 0.825970
Si Si3 0.306285 0.890292 0.667161
Si Si4 0.636918 0.703812 0.330261
Si Si5 0.553853 0.388747 0.829934
Si Si6 0.279092 0.390426 0.832469
Si Si7 0.138761 0.890012 0.667432
Si Si8 0.944193 0.602441 0.162356
O O1 0.262200 0.869385 0.770854
O O2 0.237007 0.684692 0.796186
O O3 0.173570 0.816120 0.748518
O O4 0.215402 0.816111 0.000000
O O5 0.912418 0.888467 0.744038
O O6 0.929502 0.705217 0.765560
O O7 0.000000 0.836189 0.783825
O O8 0.939558 0.819617 0.000000
O O9 0.289283 0.876960 0.500000
O O10 0.348753 0.815880 0.701944
O O11 0.324518 0.000000 0.695737
O O12 0.633179 0.681734 0.500000
O O13 0.586345 0.685362 0.258878
O O14 0.675448 0.630598 0.265001
O O15 0.500000 0.364067 0.790669
O O16 0.565466 0.500000 0.786129
O O17 0.563298 0.373267 0.000000
O O18 0.260994 0.500000 0.800878
O O19 0.294930 0.377994 0.000000
O O20 0.134016 0.857873 0.500000
O O21 0.158259 0.000000 0.679873
O O22 0.928640 0.500000 0.243043
O O23 0.000000 0.605541 0.149824
O O24 0.922639 0.599283 0.000000
#
# Coordination Sequence:
#
# PCOD8194943 Si02
#       8
#     8   8   8   8   8   8   8   8
#     4  10  20  34  54  78  99 122 159 203 239 275
#     4   9  18  33  54  79 102 124 156 198 237 273
#     4   9  18  33  51  71  99 132 161 194 243 299
#     4  10  19  29  46  74 102 129 166 209 248 288
#     4   9  18  32  48  66  93 132 172 207 249 301
#     4   9  18  33  52  74 103 136 163 190 234 294
#     4  11  24  39  53  69  94 130 164 194 238 294
#     4   7  10  20  42  71  98 120 143 175 217 263
#
# _framework density 17.925919
#
# number of rings (size 3 to 8) (size 9 to 14) (size 15 to 20)
#    0.000    2.750    0.000    3.375    0.000    6.500 
#    0.000    2.500    0.000    4.500    0.000    4.375 
#    0.000    0.000    0.000    0.000    0.000    0.000 
#
# Total GULP energy -793207.813593 kJ/mol
# GULP energy per Si atom -12393.872087 kJ/mol
# Density = 1.788512 g / cm^3
# Si number density = 17.925919 Si / 1000 Ang^3
#
#
#
# Elastic Constant Matrix: (Units=GPa)
#
#
# Indices 1 2 3 4 5 6 
#
# 1 107.5671 50.2655 59.5279 0.0000 0.0000 0.0000
# 2 50.2655 105.8933 44.4061 0.0000 0.0000 0.0000
# 3 59.5279 44.4061 82.4299 0.0000 0.0000 0.0000
# 4 0.0000 0.0000 0.0000 22.7458 0.0000 0.0000
# 5 0.0000 0.0000 0.0000 0.0000 19.8169 0.0000
# 6 0.0000 0.0000 0.0000 0.0000 0.0000 23.8980
#
#
#
# Elastic Compliance Matrix: (Units=1/GPa)
#
#
# Indices 1 2 3 4 5 6 
#
# 1 0.016518 -0.003667 -0.009954 0.000000 0.000000 0.000000
# 2 -0.003667 0.013013 -0.004362 0.000000 0.000000 0.000000
# 3 -0.009954 -0.004362 0.021670 0.000000 0.000000 0.000000
# 4 0.000000 0.000000 0.000000 0.043964 0.000000 0.000000
# 5 0.000000 0.000000 0.000000 0.000000 0.050462 0.000000
# 6 0.000000 0.000000 0.000000 0.000000 0.000000 0.041844
#
#
# Mechanical properties :
#
#
# Convention : Reuss Voigt Hill
#
# Bulk Modulus (GPa) = 65.63504 67.14324 66.38914
# Shear Modulus (GPa) = 21.88027 22.73821 22.30924
#
# Velocity S-wave (km/s) = 3.49749 3.56540 3.53161
# Velocity P-wave (km/s) = 7.28038 7.38151 7.33112
#
# Compressibility (1/GPa) = 0.01523576
#
# Stress axis : x y z
#
# Youngs Moduli (GPa) = 60.53857 76.84355 46.14744
#
# Poissons Ratio (x) = 0.28178 0.45933
# Poissons Ratio (y) = 0.22199 0.20131
# Poissons Ratio (z) = 0.60257 0.33522
#
# Static dielectric constant tensor:
#      x y z
#    x 3.085760 0.000000 0.000000 
#    y 0.000000 3.594480 0.000000 
#    z 0.000000 0.000000 3.196180 
# 
# 
# High freq. dielectric constant tensor:
#      x y z
#    x 1.671350 0.000000 0.000000 
#    y 0.000000 1.699520 0.000000 
#    z 0.000000 0.000000 1.680230 
# 
# From -- ./inp_files/12786.got.cif
#   From: 2010.03.12/outbox.cif.g09.slc.cpg/sg47_7_cif.got.tgz:12786.got - 2010.04.14 03:12:58.
