data_PCOD8194225
_publ_section_title
;
Structure prediction by ZEFSAII (Michael W. Deem and Ramdas Pophale) SiO2 
 PCOD8194225
Probable space group: P M M M
;
_chemical_formula_sum "Si O2"
_cell_formula_units_Z 64
_cell_length_a 8.808871
_cell_length_b 25.336695
_cell_length_c 15.072567
_cell_angle_alpha 90.000000
_cell_angle_beta 90.000000
_cell_angle_gamma 90.000000
_cell_volume 3364.011228
_symmetry_space_group_name_H-M "P M M M"
_symmetry_group_IT_number 47
_symmetry_cell_setting 'orthorhombic'
loop_
_space_group_symop_operation_xyz
x,y,z
-x,-y,z
x,-y,-z
-x,y,-z
-x,-y,-z
x,y,-z
-x,y,z
x,-y,z
loop_
_atom_site_type_symbol
_atom_site_label
_atom_site_fract_x
_atom_site_fract_y
_atom_site_fract_z
Si Si1 0.178280 0.168719 0.834670
Si Si2 0.674325 0.264829 0.901530
Si Si3 0.179503 0.651227 0.223645
Si Si4 0.676519 0.683115 0.400817
Si Si5 0.825716 0.100998 0.595676
Si Si6 0.675911 0.800232 0.344496
Si Si7 0.820311 0.943075 0.779292
Si Si8 0.180478 0.441170 0.099340
O O1 0.266090 0.204304 0.906327
O O2 0.215483 0.194329 0.740092
O O3 0.237001 0.107346 0.836750
O O4 0.000000 0.171348 0.853696
O O5 0.500000 0.265364 0.872037
O O6 0.766469 0.296895 0.828164
O O7 0.695726 0.289130 0.000000
O O8 0.236334 0.650116 0.325088
O O9 0.245543 0.600247 0.171155
O O10 0.000000 0.650835 0.224140
O O11 0.729558 0.665613 0.500000
O O12 0.500000 0.671151 0.388269
O O13 0.710348 0.745049 0.391755
O O14 0.810252 0.071820 0.500000
O O15 0.721006 0.152957 0.589179
O O16 0.771446 0.063621 0.676102
O O17 0.000000 0.118195 0.612954
O O18 0.500000 0.804490 0.316246
O O19 0.000000 0.944797 0.786290
O O20 0.753939 0.000000 0.812460
O O21 0.237284 0.500000 0.124868
O O22 0.000000 0.439511 0.099973
O O23 0.238245 0.426512 0.000000
#
# Coordination Sequence:
#
# PCOD8194225 Si02
#       8
#     8   8   8   8   8   8   8   8
#     4  10  19  32  52  76 100 128 166 211 258 307
#     4  11  23  37  54  78 110 146 175 204 256 323
#     4  11  21  33  55  85 114 143 179 224 269 310
#     4  10  21  35  50  70 103 149 191 223 263 315
#     4   9  17  27  41  64  92 122 161 210 258 305
#     4  10  18  30  48  67  93 132 173 210 257 311
#     4   8  15  28  46  68  93 122 158 204 260 315
#     4   8  15  30  53  82 115 147 178 215 263 318
#
# _framework density 19.024906999999999
#
# number of rings (size 3 to 8) (size 9 to 14) (size 15 to 20)
#    0.000    2.375    1.250    3.375    0.000    3.250 
#    0.000    1.250    0.000   11.625    0.000   13.125 
#    0.000    0.000    0.000    0.000    0.000    0.000 
#
# Total GULP energy -793050.603305 kJ/mol
# GULP energy per Si atom -12391.415677 kJ/mol
# Density = 1.898160 g / cm^3
# Si number density = 19.024907 Si / 1000 Ang^3
#
#
#
# Elastic Constant Matrix: (Units=GPa)
#
#
# Indices 1 2 3 4 5 6 
#
# 1 41.6405 24.8708 26.3654 0.0000 0.0000 0.0000
# 2 24.8708 119.5868 51.7248 0.0000 0.0000 0.0000
# 3 26.3654 51.7248 98.2225 0.0000 0.0000 0.0000
# 4 0.0000 0.0000 0.0000 21.5697 0.0000 0.0000
# 5 0.0000 0.0000 0.0000 0.0000 22.0600 0.0000
# 6 0.0000 0.0000 0.0000 0.0000 0.0000 7.5142
#
#
#
# Elastic Compliance Matrix: (Units=1/GPa)
#
#
# Indices 1 2 3 4 5 6 
#
# 1 0.030070 -0.003577 -0.006188 0.000000 0.000000 0.000000
# 2 -0.003577 0.011254 -0.004966 0.000000 0.000000 0.000000
# 3 -0.006188 -0.004966 0.014457 0.000000 0.000000 0.000000
# 4 0.000000 0.000000 0.000000 0.046361 0.000000 0.000000
# 5 0.000000 0.000000 0.000000 0.000000 0.045331 0.000000
# 6 0.000000 0.000000 0.000000 0.000000 0.000000 0.133081
#
#
# Mechanical properties :
#
#
# Convention : Reuss Voigt Hill
#
# Bulk Modulus (GPa) = 37.99614 51.70798 44.85206
# Shear Modulus (GPa) = 15.68433 20.66136 18.17285
#
# Velocity S-wave (km/s) = 2.87437 3.29905 3.09401
# Velocity P-wave (km/s) = 5.57056 6.46141 6.03245
#
# Compressibility (1/GPa) = 0.02631847
#
# Stress axis : x y z
#
# Youngs Moduli (GPa) = 33.25629 88.85577 69.16990
#
# Poissons Ratio (x) = 0.31787 0.42799
# Poissons Ratio (y) = 0.11897 0.34352
# Poissons Ratio (z) = 0.20577 0.44129
#
# Static dielectric constant tensor:
#      x y z
#    x 3.266450 0.000000 0.000000 
#    y 0.000000 3.745100 0.000000 
#    z 0.000000 0.000000 3.535080 
# 
# 
# High freq. dielectric constant tensor:
#      x y z
#    x 1.714190 0.000000 0.000000 
#    y 0.000000 1.724200 0.000000 
#    z 0.000000 0.000000 1.730800 
# 
# From -- ./inp_files/21953.got.cif
#   From: 2010.03.12/outbox.cif.g09.slc.cpg/sg47_11_cif.got.tgz:21953.got - 2010.04.14 03:12:58.
