data_PCOD8194980
_publ_section_title
;
Structure prediction by ZEFSAII (Michael W. Deem and Ramdas Pophale) SiO2 
 PCOD8194980
Probable space group: P M M M
;
_chemical_formula_sum "Si O2"
_cell_formula_units_Z 52
_cell_length_a 12.529076
_cell_length_b 30.064726
_cell_length_c 9.080409
_cell_angle_alpha 90.000000
_cell_angle_beta 90.000000
_cell_angle_gamma 90.000000
_cell_volume 3420.437855
_symmetry_space_group_name_H-M "P M M M"
_symmetry_group_IT_number 47
_symmetry_cell_setting 'orthorhombic'
loop_
_space_group_symop_operation_xyz
x,y,z
-x,-y,z
x,-y,-z
-x,y,-z
-x,-y,-z
x,y,-z
-x,y,z
x,-y,z
loop_
_atom_site_type_symbol
_atom_site_label
_atom_site_fract_x
_atom_site_fract_y
_atom_site_fract_z
Si Si1 0.627462 0.133904 0.334640
Si Si2 0.373114 0.951090 0.834440
Si Si3 0.876185 0.551101 0.331320
Si Si4 0.624255 0.691330 0.673101
Si Si5 0.500000 0.549673 0.825257
Si Si6 0.626820 0.219958 0.834364
Si Si7 0.298020 0.394362 0.174500
O O1 0.670640 0.138709 0.500000
O O2 0.500000 0.133775 0.332104
O O3 0.673489 0.087768 0.268766
O O4 0.672267 0.175188 0.240163
O O5 0.500000 0.948838 0.834055
O O6 0.336125 0.000000 0.777412
O O7 0.331000 0.943318 0.000000
O O8 0.843260 0.560582 0.500000
O O9 0.851984 0.500000 0.290920
O O10 0.811589 0.582567 0.221566
O O11 0.000000 0.561792 0.307378
O O12 0.645326 0.691859 0.500000
O O13 0.500000 0.683315 0.710283
O O14 0.664816 0.737869 0.739660
O O15 0.694155 0.653254 0.748437
O O16 0.500000 0.500000 0.757975
O O17 0.395435 0.575155 0.768537
O O18 0.500000 0.547395 0.000000
O O19 0.500000 0.217908 0.836789
O O20 0.672171 0.223651 0.000000
O O21 0.300738 0.387742 0.000000
#
# Coordination Sequence:
#
# PCOD8194980 Si02
#       7
#     8   8   8   8   4   8   8
#     4   9  15  21  29  42  59  79 107 143 185 231
#     4   8  13  20  28  37  51  73 102 138 182 230
#     4   9  19  36  54  70  90 115 142 173 208 244
#     4  10  19  30  43  59  82 108 135 164 199 243
#     4   9  18  30  43  63  91 117 137 163 200 239
#     4   9  16  25  37  50  66  90 121 154 190 232
#     4  11  20  31  48  68  92 116 141 171 205 246
#
# _framework density 15.202731
#
# number of rings (size 3 to 8) (size 9 to 14) (size 15 to 20)
#    0.000    2.692    0.769    3.231    0.000    5.846 
#    0.000    2.308    0.000    1.846    0.000    0.000 
#    0.000    0.000    0.000    0.000    0.000    0.000 
#
# Total GULP energy -644704.048214 kJ/mol
# GULP energy per Si atom -12398.154773 kJ/mol
# Density = 1.516813 g / cm^3
# Si number density = 15.202731 Si / 1000 Ang^3
#
#
#
# Elastic Constant Matrix: (Units=GPa)
#
#
# Indices 1 2 3 4 5 6 
#
# 1 30.3555 27.1748 21.0306 0.0000 0.0000 0.0000
# 2 27.1748 141.4915 66.1696 0.0000 0.0000 0.0000
# 3 21.0306 66.1696 101.7340 0.0000 0.0000 0.0000
# 4 0.0000 0.0000 0.0000 31.6481 0.0000 0.0000
# 5 0.0000 0.0000 0.0000 0.0000 13.7805 0.0000
# 6 0.0000 0.0000 0.0000 0.0000 0.0000 6.9974
#
#
#
# Elastic Compliance Matrix: (Units=1/GPa)
#
#
# Indices 1 2 3 4 5 6 
#
# 1 0.041394 -0.005674 -0.004866 0.000000 0.000000 0.000000
# 2 -0.005674 0.010935 -0.005939 0.000000 0.000000 0.000000
# 3 -0.004866 -0.005939 0.014699 0.000000 0.000000 0.000000
# 4 0.000000 0.000000 0.000000 0.031597 0.000000 0.000000
# 5 0.000000 0.000000 0.000000 0.000000 0.072566 0.000000
# 6 0.000000 0.000000 0.000000 0.000000 0.000000 0.142911
#
#
# Mechanical properties :
#
#
# Convention : Reuss Voigt Hill
#
# Bulk Modulus (GPa) = 29.35331 55.81456 42.58393
# Shear Modulus (GPa) = 13.95019 21.09894 17.52456
#
# Velocity S-wave (km/s) = 3.03249 3.72941 3.39886
# Velocity P-wave (km/s) = 5.62238 7.43894 6.59352
#
# Compressibility (1/GPa) = 0.03406771
#
# Stress axis : x y z
#
# Youngs Moduli (GPa) = 24.15796 91.45015 68.03394
#
# Poissons Ratio (x) = 0.51892 0.33108
# Poissons Ratio (y) = 0.13708 0.40407
# Poissons Ratio (z) = 0.11756 0.54315
#
# Static dielectric constant tensor:
#      x y z
#    x 2.314920 0.000000 0.000000 
#    y 0.000000 3.155780 0.000000 
#    z 0.000000 0.000000 2.990320 
# 
# 
# High freq. dielectric constant tensor:
#      x y z
#    x 1.499000 0.000000 0.000000 
#    y 0.000000 1.597800 0.000000 
#    z 0.000000 0.000000 1.591380 
# 
# From -- ./inp_files/4755.got.cif
#   From: 2010.03.12/outbox.cif.g09.slc.cpg/sg47_3_cif.got.tgz:4755.got - 2010.04.14 03:12:58.
