data_PCOD8194290
_publ_section_title
;
Structure prediction by ZEFSAII (Michael W. Deem and Ramdas Pophale) SiO2 
 PCOD8194290
Probable space group: P M M M
;
_chemical_formula_sum "Si O2"
_cell_formula_units_Z 64
_cell_length_a 19.616107
_cell_length_b 20.871481
_cell_length_c 9.011668
_cell_angle_alpha 90.000000
_cell_angle_beta 90.000000
_cell_angle_gamma 90.000000
_cell_volume 3689.531921
_symmetry_space_group_name_H-M "P M M M"
_symmetry_group_IT_number 47
_symmetry_cell_setting 'orthorhombic'
loop_
_space_group_symop_operation_xyz
x,y,z
-x,-y,z
x,-y,-z
-x,y,-z
-x,-y,-z
x,y,-z
-x,y,z
x,-y,z
loop_
_atom_site_type_symbol
_atom_site_label
_atom_site_fract_x
_atom_site_fract_y
_atom_site_fract_z
Si Si1 0.074661 0.631003 0.675361
Si Si2 0.924452 0.762859 0.830058
Si Si3 0.575303 0.750506 0.668799
Si Si4 0.577082 0.881817 0.826519
Si Si5 0.216330 0.816162 0.827169
Si Si6 0.285027 0.695302 0.672560
Si Si7 0.210927 0.570003 0.323592
Si Si8 0.295035 0.072169 0.670390
O O1 0.074794 0.634568 0.500000
O O2 0.092066 0.701665 0.731000
O O3 0.133275 0.582763 0.730662
O O4 0.000000 0.608261 0.733522
O O5 0.865511 0.815167 0.799663
O O6 0.000000 0.791201 0.792601
O O7 0.921506 0.740078 0.000000
O O8 0.579993 0.776534 0.500000
O O9 0.500000 0.720826 0.698944
O O10 0.589806 0.808728 0.779263
O O11 0.633085 0.696987 0.695912
O O12 0.500000 0.903277 0.787620
O O13 0.629301 0.926765 0.739526
O O14 0.591656 0.887775 0.000000
O O15 0.250210 0.752948 0.759884
O O16 0.243904 0.880414 0.753021
O O17 0.234653 0.818329 0.000000
O O18 0.265107 0.702596 0.500000
O O19 0.259905 0.626652 0.736143
O O20 0.214239 0.568959 0.500000
O O21 0.233298 0.500000 0.261184
O O22 0.299745 0.093568 0.500000
O O23 0.266677 0.000000 0.686133
#
# Coordination Sequence:
#
# PCOD8194290 Si02
#       8
#     8   8   8   8   8   8   8   8
#     4   9  16  26  43  68  96 128 167 206 244 294
#     4   9  18  32  50  74 103 131 160 200 252 306
#     4   9  17  29  47  71  98 130 168 209 254 303
#     4  10  20  33  51  77 107 137 170 208 248 293
#     4  11  21  33  54  79 101 129 166 211 255 298
#     4  10  18  30  50  72  97 131 169 212 256 302
#     4   9  17  28  43  67  99 134 171 211 255 299
#     4  11  24  39  54  74 103 139 174 207 248 300
#
# _framework density 17.346374000000001
#
# number of rings (size 3 to 8) (size 9 to 14) (size 15 to 20)
#    0.000    2.250    2.500    1.125    0.000    2.750 
#    0.000    2.500    0.000    2.250    0.000    7.000 
#    0.000    0.000    0.000    4.250    0.000    4.500 
#
# Total GULP energy -793262.443185 kJ/mol
# GULP energy per Si atom -12394.725675 kJ/mol
# Density = 1.730689 g / cm^3
# Si number density = 17.346374 Si / 1000 Ang^3
#
#
#
# Elastic Constant Matrix: (Units=GPa)
#
#
# Indices 1 2 3 4 5 6 
#
# 1 112.8118 64.3612 33.6006 0.0000 0.0000 0.0000
# 2 64.3612 108.8898 34.5229 0.0000 0.0000 0.0000
# 3 33.6006 34.5229 55.3067 0.0000 0.0000 0.0000
# 4 0.0000 0.0000 0.0000 -0.9545 0.0000 0.0000
# 5 0.0000 0.0000 0.0000 0.0000 21.0372 0.0000
# 6 0.0000 0.0000 0.0000 0.0000 0.0000 24.2358
#
#
#
# Elastic Compliance Matrix: (Units=1/GPa)
#
#
# Indices 1 2 3 4 5 6 
#
# 1 0.014115 -0.007012 -0.004199 0.000000 0.000000 0.000000
# 2 -0.007012 0.014933 -0.005061 0.000000 0.000000 0.000000
# 3 -0.004199 -0.005061 0.023791 0.000000 0.000000 0.000000
# 4 0.000000 0.000000 0.000000 -1.047724 0.000000 0.000000
# 5 0.000000 0.000000 0.000000 0.000000 0.047535 0.000000
# 6 0.000000 0.000000 0.000000 0.000000 0.000000 0.041261
#
#
# Mechanical properties :
#
#
# Convention : Reuss Voigt Hill
#
# Bulk Modulus (GPa) = 49.27165 60.21975 54.74570
# Shear Modulus (GPa) = -5.76848 18.49862 6.36507
#
# Velocity S-wave (km/s) = -1.82556 3.26916 1.91764
# Velocity P-wave (km/s) = 4.90129 7.00295 6.04417
#
# Compressibility (1/GPa) = 0.02029564
#
# Stress axis : x y z
#
# Youngs Moduli (GPa) = 70.84510 66.96695 42.03270
#
# Poissons Ratio (x) = 0.46957 0.17648
# Poissons Ratio (y) = 0.49676 0.21273
# Poissons Ratio (z) = 0.29745 0.33893
#
# Static dielectric constant tensor:
#      x y z
#    x 3.661080 0.000000 0.000000 
#    y 0.000000 3.106040 0.000000 
#    z 0.000000 0.000000 3.185580 
# 
# 
# High freq. dielectric constant tensor:
#      x y z
#    x 1.680650 0.000000 0.000000 
#    y 0.000000 1.638590 0.000000 
#    z 0.000000 0.000000 1.661250 
# 
# From -- ./inp_files/11872.got.cif
#   From: 2010.03.12/outbox.cif.g09.slc.cpg/sg47_6_cif.got.tgz:11872.got - 2010.04.14 03:12:58.
