data_PCOD8194527
_publ_section_title
;
Structure prediction by ZEFSAII (Michael W. Deem and Ramdas Pophale) SiO2 
 PCOD8194527
Probable space group: P M M M
;
_chemical_formula_sum "Si O2"
_cell_formula_units_Z 52
_cell_length_a 14.941676
_cell_length_b 21.494239
_cell_length_c 7.635352
_cell_angle_alpha 90.000000
_cell_angle_beta 90.000000
_cell_angle_gamma 90.000000
_cell_volume 2452.169305
_symmetry_space_group_name_H-M "P M M M"
_symmetry_group_IT_number 47
_symmetry_cell_setting 'orthorhombic'
loop_
_space_group_symop_operation_xyz
x,y,z
-x,-y,z
x,-y,-z
-x,y,-z
-x,-y,-z
x,y,-z
-x,y,z
x,-y,z
loop_
_atom_site_type_symbol
_atom_site_label
_atom_site_fract_x
_atom_site_fract_y
_atom_site_fract_z
Si Si1 0.395471 0.926521 0.500000
Si Si2 0.315579 0.625121 0.695264
Si Si3 0.900298 0.805350 0.207258
Si Si4 0.597521 0.740995 0.798915
Si Si5 0.133598 0.330537 0.804530
Si Si6 0.400442 0.500000 0.290665
Si Si7 0.000000 0.430422 0.791228
Si Si8 0.714382 0.857590 0.207215
O O1 0.500000 0.902782 0.500000
O O2 0.340616 0.906088 0.674133
O O3 0.395942 0.000000 0.500000
O O4 0.280283 0.612057 0.500000
O O5 0.392749 0.677339 0.689579
O O6 0.237930 0.654733 0.811435
O O7 0.350075 0.561068 0.780540
O O8 0.886367 0.735927 0.289404
O O9 0.819828 0.852333 0.265402
O O10 0.000000 0.830121 0.262900
O O11 0.892215 0.800163 0.000000
O O12 0.500000 0.769885 0.755573
O O13 0.673119 0.790447 0.749625
O O14 0.605029 0.722223 0.000000
O O15 0.084417 0.390324 0.719421
O O16 0.095959 0.323836 0.000000
O O17 0.500000 0.500000 0.212489
O O18 0.404706 0.500000 0.500000
O O19 0.000000 0.500000 0.707780
O O20 0.000000 0.437855 0.000000
O O21 0.703673 0.874976 0.000000
#
# Coordination Sequence:
#
# PCOD8194527 Si02
#       8
#     4   8   8   8   8   4   4   8
#     4  11  26  46  69  99 135 174 216 253 292 363
#     4  11  22  34  51  72 102 143 188 242 303 367
#     4   9  16  31  58  88 119 159 202 249 308 371
#     4  10  20  34  54  82 113 145 186 241 302 356
#     4  10  18  32  52  75 106 140 182 239 298 356
#     4   9  20  38  51  62  89 138 198 245 295 371
#     4   9  18  30  49  75  99 137 189 238 292 355
#     4  10  21  39  64  95 133 169 209 261 312 363
#
# _framework density 21.205714
#
# number of rings (size 3 to 8) (size 9 to 14) (size 15 to 20)
#    0.000    2.077    2.308    1.385    2.154    2.154 
#    0.000    2.692    0.000    4.154    0.000    2.154 
#    0.000    0.000    0.000    0.000    0.000    0.000 
#
# Total GULP energy -644266.940890 kJ/mol
# GULP energy per Si atom -12389.748863 kJ/mol
# Density = 2.115745 g / cm^3
# Si number density = 21.205714 Si / 1000 Ang^3
#
#
#
# Elastic Constant Matrix: (Units=GPa)
#
#
# Indices 1 2 3 4 5 6 
#
# 1 168.3891 45.8930 24.5775 0.0000 0.0000 0.0000
# 2 45.8930 89.3411 25.1875 0.0000 0.0000 0.0000
# 3 24.5775 25.1875 49.1597 0.0000 0.0000 0.0000
# 4 0.0000 0.0000 0.0000 19.3911 0.0000 0.0000
# 5 0.0000 0.0000 0.0000 0.0000 6.6699 0.0000
# 6 0.0000 0.0000 0.0000 0.0000 0.0000 33.1147
#
#
#
# Elastic Compliance Matrix: (Units=1/GPa)
#
#
# Indices 1 2 3 4 5 6 
#
# 1 0.007062 -0.003077 -0.001954 0.000000 0.000000 0.000000
# 2 -0.003077 0.014423 -0.005852 0.000000 0.000000 0.000000
# 3 -0.001954 -0.005852 0.024317 0.000000 0.000000 0.000000
# 4 0.000000 0.000000 0.000000 0.051570 0.000000 0.000000
# 5 0.000000 0.000000 0.000000 0.000000 0.149928 0.000000
# 6 0.000000 0.000000 0.000000 0.000000 0.000000 0.030198
#
#
# Mechanical properties :
#
#
# Convention : Reuss Voigt Hill
#
# Bulk Modulus (GPa) = 41.60246 55.35621 48.47934
# Shear Modulus (GPa) = 16.27193 25.91725 21.09459
#
# Velocity S-wave (km/s) = 2.77309 3.49977 3.15740
# Velocity P-wave (km/s) = 5.46941 6.51860 6.01692
#
# Compressibility (1/GPa) = 0.02403704
#
# Stress axis : x y z
#
# Youngs Moduli (GPa) = 141.59368 69.33222 41.12321
#
# Poissons Ratio (x) = 0.21333 0.08037
# Poissons Ratio (y) = 0.43566 0.24064
# Poissons Ratio (z) = 0.27674 0.40571
#
# Static dielectric constant tensor:
#      x y z
#    x 4.119150 0.000000 0.000000 
#    y 0.000000 3.570390 0.000000 
#    z 0.000000 0.000000 3.502100 
# 
# 
# High freq. dielectric constant tensor:
#      x y z
#    x 1.847370 0.000000 0.000000 
#    y 0.000000 1.796440 0.000000 
#    z 0.000000 0.000000 1.802710 
# 
# From -- ./inp_files/7114.got.cif
#   From: 2010.03.12/outbox.cif.g09.slc.cpg/sg47_4_cif.got.tgz:7114.got - 2010.04.14 03:12:58.
