data_PCOD8194049
_publ_section_title
;
Structure prediction by ZEFSAII (Michael W. Deem and Ramdas Pophale) SiO2 
 PCOD8194049
Probable space group: P M M M
;
_chemical_formula_sum "Si O2"
_cell_formula_units_Z 44
_cell_length_a 22.996888
_cell_length_b 13.811632
_cell_length_c 7.931668
_cell_angle_alpha 90.000000
_cell_angle_beta 90.000000
_cell_angle_gamma 90.000000
_cell_volume 2519.292513
_symmetry_space_group_name_H-M "P M M M"
_symmetry_group_IT_number 47
_symmetry_cell_setting 'orthorhombic'
loop_
_space_group_symop_operation_xyz
x,y,z
-x,-y,z
x,-y,-z
-x,y,-z
-x,-y,-z
x,y,-z
-x,y,z
x,-y,z
loop_
_atom_site_type_symbol
_atom_site_label
_atom_site_fract_x
_atom_site_fract_y
_atom_site_fract_z
Si Si1 0.176276 0.106152 0.303051
Si Si2 0.357198 0.612040 0.810702
Si Si3 0.564752 0.385363 0.500000
Si Si4 0.135115 0.392048 0.196729
Si Si5 0.244629 0.710492 0.306698
Si Si6 0.935530 0.209844 0.801105
O O1 0.187106 0.103088 0.500000
O O2 0.219489 0.188334 0.228365
O O3 0.108894 0.131073 0.271143
O O4 0.189839 0.000000 0.224021
O O5 0.340989 0.500000 0.775103
O O6 0.402890 0.649493 0.670621
O O7 0.299490 0.676762 0.801428
O O8 0.383369 0.623722 0.000000
O O9 0.560534 0.500000 0.500000
O O10 0.500000 0.340001 0.500000
O O11 0.113908 0.500000 0.242282
O O12 0.194058 0.369434 0.297265
O O13 0.084552 0.317931 0.251569
O O14 0.149523 0.381338 0.000000
O O15 0.264264 0.721996 0.500000
O O16 0.000000 0.191837 0.725967
O O17 0.936722 0.199012 0.000000
#
# Coordination Sequence:
#
# PCOD8194049 Si02
#       6
#     8   8   4   8   8   8
#     4   9  19  34  49  65  86 114 148 190 241 292
#     4  10  19  30  47  72 102 136 170 202 236 275
#     4   9  18  32  48  70 103 141 178 207 229 261
#     4   9  17  28  42  61  85 114 148 187 232 282
#     4  10  18  29  46  66  91 120 152 194 241 289
#     4   9  18  31  45  62  84 111 146 187 232 286
#
# _framework density 17.465219999999999
#
# number of rings (size 3 to 8) (size 9 to 14) (size 15 to 20)
#    0.000    2.636    0.909    1.091    0.000    5.091 
#    0.000    5.455    0.000    0.000    0.000    5.091 
#    0.000    1.455    0.000    1.636    0.000    0.182 
#
# Total GULP energy -545402.361771 kJ/mol
# GULP energy per Si atom -12395.508222 kJ/mol
# Density = 1.742547 g / cm^3
# Si number density = 17.465220 Si / 1000 Ang^3
#
#
#
# Elastic Constant Matrix: (Units=GPa)
#
#
# Indices 1 2 3 4 5 6 
#
# 1 106.9855 38.6531 33.9332 0.0000 0.0000 0.0000
# 2 38.6531 96.7849 17.7149 0.0000 0.0000 0.0000
# 3 33.9332 17.7149 63.4869 0.0000 0.0000 0.0000
# 4 0.0000 0.0000 0.0000 15.6155 0.0000 0.0000
# 5 0.0000 0.0000 0.0000 0.0000 21.3549 0.0000
# 6 0.0000 0.0000 0.0000 0.0000 0.0000 16.0288
#
#
#
# Elastic Compliance Matrix: (Units=1/GPa)
#
#
# Indices 1 2 3 4 5 6 
#
# 1 0.012567 -0.003993 -0.005603 0.000000 0.000000 0.000000
# 2 -0.003993 0.012157 -0.001258 0.000000 0.000000 0.000000
# 3 -0.005603 -0.001258 0.019097 0.000000 0.000000 0.000000
# 4 0.000000 0.000000 0.000000 0.064039 0.000000 0.000000
# 5 0.000000 0.000000 0.000000 0.000000 0.046828 0.000000
# 6 0.000000 0.000000 0.000000 0.000000 0.000000 0.062388
#
#
# Mechanical properties :
#
#
# Convention : Reuss Voigt Hill
#
# Bulk Modulus (GPa) = 45.22169 49.76218 47.49194
# Shear Modulus (GPa) = 20.31248 22.39691 21.35470
#
# Velocity S-wave (km/s) = 3.41401 3.58491 3.50050
# Velocity P-wave (km/s) = 6.44122 6.75940 6.60222
#
# Compressibility (1/GPa) = 0.02211328
#
# Stress axis : x y z
#
# Youngs Moduli (GPa) = 79.57453 82.25545 52.36478
#
# Poissons Ratio (x) = 0.32848 0.29338
# Poissons Ratio (y) = 0.31777 0.06587
# Poissons Ratio (z) = 0.44582 0.10347
#
# Static dielectric constant tensor:
#      x y z
#    x 3.211850 0.000000 0.000000 
#    y 0.000000 3.402930 0.000000 
#    z 0.000000 0.000000 3.216840 
# 
# 
# High freq. dielectric constant tensor:
#      x y z
#    x 1.649010 0.000000 0.000000 
#    y 0.000000 1.652810 0.000000 
#    z 0.000000 0.000000 1.675530 
# 
# From -- ./inp_files/10872.got.cif
#   From: 2010.03.12/outbox.cif.g09.slc.cpg/sg47_6_cif.got.tgz:10872.got - 2010.04.14 03:12:58.
