data_PCOD8194256
_publ_section_title
;
Structure prediction by ZEFSAII (Michael W. Deem and Ramdas Pophale) SiO2 
 PCOD8194256
Probable space group: P M M M
;
_chemical_formula_sum "Si O2"
_cell_formula_units_Z 44
_cell_length_a 9.957708
_cell_length_b 10.747361
_cell_length_c 24.021061
_cell_angle_alpha 90.000000
_cell_angle_beta 90.000000
_cell_angle_gamma 90.000000
_cell_volume 2570.711912
_symmetry_space_group_name_H-M "P M M M"
_symmetry_group_IT_number 47
_symmetry_cell_setting 'orthorhombic'
loop_
_space_group_symop_operation_xyz
x,y,z
-x,-y,z
x,-y,-z
-x,y,-z
-x,-y,-z
x,y,-z
-x,y,z
x,-y,z
loop_
_atom_site_type_symbol
_atom_site_label
_atom_site_fract_x
_atom_site_fract_y
_atom_site_fract_z
Si Si1 0.340877 0.138673 0.437569
Si Si2 0.849354 0.643485 0.253892
Si Si3 0.159237 0.500000 0.062517
Si Si4 0.657700 0.356657 0.355583
Si Si5 0.156159 0.266685 0.866661
Si Si6 0.354081 0.143564 0.060464
O O1 0.284474 0.158719 0.500000
O O2 0.500000 0.142200 0.438852
O O3 0.290035 0.255094 0.400494
O O4 0.294966 0.000000 0.415887
O O5 0.843129 0.500000 0.236663
O O6 0.740001 0.675721 0.300311
O O7 0.814349 0.720367 0.198772
O O8 0.000000 0.676181 0.275455
O O9 0.209793 0.617335 0.097473
O O10 0.000000 0.500000 0.060230
O O11 0.219564 0.500000 0.000000
O O12 0.500000 0.339955 0.343056
O O13 0.686636 0.500000 0.375289
O O14 0.245137 0.155997 0.890492
O O15 0.000000 0.240372 0.877143
O O16 0.500000 0.203048 0.076360
O O17 0.376100 0.000000 0.052745
O O18 0.305469 0.198077 0.000000
#
# Coordination Sequence:
#
# PCOD8194256 Si02
#       6
#     8   8   4   8   8   8
#     4   8  14  26  45  69  97 127 156 190 238 290
#     4   9  17  31  48  66  93 127 157 185 227 279
#     4   9  16  26  43  69  95 113 136 181 236 280
#     4   9  17  28  45  71  97 121 158 202 235 269
#     4  10  18  30  49  71  91 116 153 193 230 275
#     4   9  19  35  50  64  88 121 152 186 234 287
#
# _framework density 17.115881999999999
#
# number of rings (size 3 to 8) (size 9 to 14) (size 15 to 20)
#    0.000    3.000    0.909    1.636    0.000    2.545 
#    0.000    4.091    0.000    6.000    0.000    3.818 
#    0.000    0.000    0.000    0.000    0.000    0.000 
#
# Total GULP energy -545088.839686 kJ/mol
# GULP energy per Si atom -12388.382720 kJ/mol
# Density = 1.707693 g / cm^3
# Si number density = 17.115882 Si / 1000 Ang^3
#
#
#
# Elastic Constant Matrix: (Units=GPa)
#
#
# Indices 1 2 3 4 5 6 
#
# 1 61.2699 34.5784 56.1610 0.0000 0.0000 0.0000
# 2 34.5784 75.7261 56.7552 0.0000 0.0000 0.0000
# 3 56.1610 56.7552 113.6787 0.0000 0.0000 0.0000
# 4 0.0000 0.0000 0.0000 24.6961 0.0000 0.0000
# 5 0.0000 0.0000 0.0000 0.0000 18.8906 0.0000
# 6 0.0000 0.0000 0.0000 0.0000 0.0000 17.2500
#
#
#
# Elastic Compliance Matrix: (Units=1/GPa)
#
#
# Indices 1 2 3 4 5 6 
#
# 1 0.030654 -0.004230 -0.013032 0.000000 0.000000 0.000000
# 2 -0.004230 0.021685 -0.008737 0.000000 0.000000 0.000000
# 3 -0.013032 -0.008737 0.019597 0.000000 0.000000 0.000000
# 4 0.000000 0.000000 0.000000 0.040492 0.000000 0.000000
# 5 0.000000 0.000000 0.000000 0.000000 0.052937 0.000000
# 6 0.000000 0.000000 0.000000 0.000000 0.000000 0.057971
#
#
# Mechanical properties :
#
#
# Convention : Reuss Voigt Hill
#
# Bulk Modulus (GPa) = 50.15514 60.62932 55.39223
# Shear Modulus (GPa) = 17.73179 19.04600 18.38889
#
# Velocity S-wave (km/s) = 3.22216 3.33944 3.28132
# Velocity P-wave (km/s) = 6.57343 7.09710 6.84028
#
# Compressibility (1/GPa) = 0.01993814
#
# Stress axis : x y z
#
# Youngs Moduli (GPa) = 32.62216 46.11494 51.02840
#
# Poissons Ratio (x) = 0.19507 0.66501
# Poissons Ratio (y) = 0.13799 0.44582
# Poissons Ratio (z) = 0.42514 0.40289
#
# Static dielectric constant tensor:
#      x y z
#    x 2.963010 0.000000 0.000000 
#    y 0.000000 3.226420 0.000000 
#    z 0.000000 0.000000 3.207470 
# 
# 
# High freq. dielectric constant tensor:
#      x y z
#    x 1.636020 0.000000 0.000000 
#    y 0.000000 1.649880 0.000000 
#    z 0.000000 0.000000 1.654720 
# 
# From -- ./inp_files/4351.got.cif
#   From: 2010.03.12/outbox.cif.g09.slc.cpg/sg47_3_cif.got.tgz:4351.got - 2010.04.14 03:12:58.
