data_PCOD8194542
_publ_section_title
;
Structure prediction by ZEFSAII (Michael W. Deem and Ramdas Pophale) SiO2 
 PCOD8194542
Probable space group: P M M M
;
_chemical_formula_sum "Si O2"
_cell_formula_units_Z 64
_cell_length_a 17.812713
_cell_length_b 15.156601
_cell_length_c 13.359019
_cell_angle_alpha 90.000000
_cell_angle_beta 90.000000
_cell_angle_gamma 90.000000
_cell_volume 3606.670403
_symmetry_space_group_name_H-M "P M M M"
_symmetry_group_IT_number 47
_symmetry_cell_setting 'orthorhombic'
loop_
_space_group_symop_operation_xyz
x,y,z
-x,-y,z
x,-y,-z
-x,y,-z
-x,-y,-z
x,y,-z
-x,y,z
x,-y,z
loop_
_atom_site_type_symbol
_atom_site_label
_atom_site_fract_x
_atom_site_fract_y
_atom_site_fract_z
Si Si1 0.809896 0.245584 0.113892
Si Si2 0.587615 0.101176 0.614442
Si Si3 0.299805 0.226157 0.708376
Si Si4 0.881963 0.634233 0.391153
Si Si5 0.086279 0.099539 0.804316
Si Si6 0.292693 0.402618 0.386735
Si Si7 0.151572 0.168740 0.389548
Si Si8 0.917409 0.402151 0.178332
O O1 0.735666 0.229467 0.180324
O O2 0.866366 0.163795 0.125034
O O3 0.852917 0.334641 0.145801
O O4 0.783161 0.253343 0.000000
O O5 0.606251 0.130065 0.500000
O O6 0.500000 0.112582 0.635395
O O7 0.629910 0.160597 0.697424
O O8 0.612097 0.000000 0.630507
O O9 0.328131 0.324846 0.680335
O O10 0.238717 0.188759 0.630831
O O11 0.913319 0.603009 0.500000
O O12 0.796289 0.605614 0.382107
O O13 0.892472 0.739295 0.382123
O O14 0.925718 0.591938 0.298889
O O15 0.115758 0.102376 0.690205
O O16 0.000000 0.129302 0.808697
O O17 0.096096 0.000000 0.843880
O O18 0.321693 0.391429 0.500000
O O19 0.315986 0.500000 0.345999
O O20 0.144167 0.126591 0.500000
O O21 0.896414 0.500000 0.138265
O O22 0.000000 0.374869 0.136297
#
# Coordination Sequence:
#
# PCOD8194542 Si02
#       8
#     8   8   8   8   8   8   8   8
#     4  11  24  40  55  70  94 127 171 230 282 316
#     4   9  18  33  56  88 122 150 169 188 228 294
#     4  10  18  32  53  76 101 134 176 210 247 299
#     4   9  16  28  46  69  99 134 168 204 253 315
#     4  10  21  36  52  69  90 122 165 210 262 321
#     4   9  15  24  44  73 103 135 167 199 240 294
#     4   9  17  29  47  74 103 132 166 203 248 303
#     4  11  22  35  52  74 101 136 179 227 281 334
#
# _framework density 17.744897000000002
#
# number of rings (size 3 to 8) (size 9 to 14) (size 15 to 20)
#    0.000    2.250    3.750    3.000    0.000    5.000 
#    0.000    3.750    0.000    0.750    0.000    2.625 
#    0.000    0.000    0.000    2.250    0.000    0.125 
#
# Total GULP energy -793177.594077 kJ/mol
# GULP energy per Si atom -12393.399907 kJ/mol
# Density = 1.770451 g / cm^3
# Si number density = 17.744897 Si / 1000 Ang^3
#
#
#
# Elastic Constant Matrix: (Units=GPa)
#
#
# Indices 1 2 3 4 5 6 
#
# 1 56.4100 42.4712 31.4116 0.0000 0.0000 0.0000
# 2 42.4712 105.9444 35.8100 0.0000 0.0000 0.0000
# 3 31.4116 35.8100 98.9772 0.0000 0.0000 0.0000
# 4 0.0000 0.0000 0.0000 3.7270 0.0000 0.0000
# 5 0.0000 0.0000 0.0000 0.0000 6.3078 0.0000
# 6 0.0000 0.0000 0.0000 0.0000 0.0000 22.0339
#
#
#
# Elastic Compliance Matrix: (Units=1/GPa)
#
#
# Indices 1 2 3 4 5 6 
#
# 1 0.027751 -0.009283 -0.005448 0.000000 0.000000 0.000000
# 2 -0.009283 0.013859 -0.002068 0.000000 0.000000 0.000000
# 3 -0.005448 -0.002068 0.012581 0.000000 0.000000 0.000000
# 4 0.000000 0.000000 0.000000 0.268311 0.000000 0.000000
# 5 0.000000 0.000000 0.000000 0.000000 0.158533 0.000000
# 6 0.000000 0.000000 0.000000 0.000000 0.000000 0.045385
#
#
# Mechanical properties :
#
#
# Convention : Reuss Voigt Hill
#
# Bulk Modulus (GPa) = 48.56418 53.41302 50.98860
# Shear Modulus (GPa) = 8.82017 16.52299 12.67158
#
# Velocity S-wave (km/s) = 2.23189 3.05477 2.67516
# Velocity P-wave (km/s) = 5.83688 6.52748 6.19182
#
# Compressibility (1/GPa) = 0.02059131
#
# Stress axis : x y z
#
# Youngs Moduli (GPa) = 36.03538 72.15300 79.48679
#
# Poissons Ratio (x) = 0.66980 0.43307
# Poissons Ratio (y) = 0.33452 0.16440
# Poissons Ratio (z) = 0.19633 0.14923
#
# Static dielectric constant tensor:
#      x y z
#    x 2.848930 0.000000 0.000000 
#    y 0.000000 3.432680 0.000000 
#    z 0.000000 0.000000 3.176160 
# 
# 
# High freq. dielectric constant tensor:
#      x y z
#    x 1.638530 0.000000 0.000000 
#    y 0.000000 1.696750 0.000000 
#    z 0.000000 0.000000 1.663700 
# 
# From -- ./inp_files/24796.got.cif
#   From: 2010.03.12/outbox.cif.g09.slc.cpg/sg47_13_cif.got.tgz:24796.got - 2010.04.14 03:12:58.
