data_PCOD8194572
_publ_section_title
;
Structure prediction by ZEFSAII (Michael W. Deem and Ramdas Pophale) SiO2 
 PCOD8194572
Probable space group: P M M M
;
_chemical_formula_sum "Si O2"
_cell_formula_units_Z 44
_cell_length_a 9.396673
_cell_length_b 14.338758
_cell_length_c 18.173952
_cell_angle_alpha 90.000000
_cell_angle_beta 90.000000
_cell_angle_gamma 90.000000
_cell_volume 2448.696867
_symmetry_space_group_name_H-M "P M M M"
_symmetry_group_IT_number 47
_symmetry_cell_setting 'orthorhombic'
loop_
_space_group_symop_operation_xyz
x,y,z
-x,-y,z
x,-y,-z
-x,y,-z
-x,-y,-z
x,y,-z
-x,y,z
x,-y,z
loop_
_atom_site_type_symbol
_atom_site_label
_atom_site_fract_x
_atom_site_fract_y
_atom_site_fract_z
Si Si1 0.668481 0.100707 0.303192
Si Si2 0.669319 0.297706 0.647986
Si Si3 0.163557 0.729212 0.918449
Si Si4 0.664557 0.105597 0.862757
Si Si5 0.165820 0.391598 0.219331
Si Si6 0.669079 0.605118 0.500000
O O1 0.500000 0.094746 0.300261
O O2 0.716132 0.188407 0.352980
O O3 0.723817 0.116644 0.220349
O O4 0.726599 0.000000 0.333449
O O5 0.500000 0.308451 0.656687
O O6 0.741733 0.350556 0.714926
O O7 0.725532 0.341736 0.572094
O O8 0.249547 0.825335 0.914678
O O9 0.214826 0.655428 0.857239
O O10 0.000000 0.754458 0.905323
O O11 0.187178 0.685913 0.000000
O O12 0.500000 0.133786 0.866565
O O13 0.687301 0.000000 0.890612
O O14 0.200087 0.500000 0.211854
O O15 0.000000 0.373644 0.235931
O O16 0.729730 0.500000 0.500000
O O17 0.500000 0.604007 0.500000
#
# Coordination Sequence:
#
# PCOD8194572 Si02
#       6
#     8   8   8   8   8   4
#     4   8  14  26  47  74 100 126 160 201 242 285
#     4  10  18  32  55  77 101 134 167 201 244 296
#     4  10  21  35  50  71 100 131 165 208 254 298
#     4   9  17  31  51  74 100 130 164 204 250 297
#     4  10  21  36  53  73  97 127 167 211 252 297
#     4   9  18  30  46  76 110 133 161 205 252 293
#
# _framework density 17.968741999999999
#
# number of rings (size 3 to 8) (size 9 to 14) (size 15 to 20)
#    0.000    2.636    1.818    1.636    0.000    2.545 
#    0.000    4.545    0.000    4.909    0.000    2.545 
#    0.000    1.455    0.000    0.000    0.000    0.000 
#
# Total GULP energy -545398.168413 kJ/mol
# GULP energy per Si atom -12395.412918 kJ/mol
# Density = 1.792784 g / cm^3
# Si number density = 17.968742 Si / 1000 Ang^3
#
#
#
# Elastic Constant Matrix: (Units=GPa)
#
#
# Indices 1 2 3 4 5 6 
#
# 1 33.8244 37.8074 35.6652 0.0000 0.0000 0.0000
# 2 37.8074 146.2277 83.2887 0.0000 0.0000 0.0000
# 3 35.6652 83.2887 140.1650 0.0000 0.0000 0.0000
# 4 0.0000 0.0000 0.0000 23.9120 0.0000 0.0000
# 5 0.0000 0.0000 0.0000 0.0000 20.8020 0.0000
# 6 0.0000 0.0000 0.0000 0.0000 0.0000 22.3507
#
#
#
# Elastic Compliance Matrix: (Units=1/GPa)
#
#
# Indices 1 2 3 4 5 6 
#
# 1 0.045671 -0.007844 -0.006960 0.000000 0.000000 0.000000
# 2 -0.007844 0.011685 -0.004947 0.000000 0.000000 0.000000
# 3 -0.006960 -0.004947 0.011845 0.000000 0.000000 0.000000
# 4 0.000000 0.000000 0.000000 0.041820 0.000000 0.000000
# 5 0.000000 0.000000 0.000000 0.000000 0.048072 0.000000
# 6 0.000000 0.000000 0.000000 0.000000 0.000000 0.044741
#
#
# Mechanical properties :
#
#
# Convention : Reuss Voigt Hill
#
# Bulk Modulus (GPa) = 33.67213 70.41552 52.04382
# Shear Modulus (GPa) = 19.74441 24.30999 22.02720
#
# Velocity S-wave (km/s) = 3.31844 3.68218 3.50503
# Velocity P-wave (km/s) = 5.78469 7.57303 6.73845
#
# Compressibility (1/GPa) = 0.02969815
#
# Stress axis : x y z
#
# Youngs Moduli (GPa) = 21.89579 85.58241 84.42233
#
# Poissons Ratio (x) = 0.67131 0.58757
# Poissons Ratio (y) = 0.17175 0.41766
# Poissons Ratio (z) = 0.15239 0.42340
#
# Static dielectric constant tensor:
#      x y z
#    x 2.984430 0.000000 0.000000 
#    y 0.000000 3.718700 0.000000 
#    z 0.000000 0.000000 3.335450 
# 
# 
# High freq. dielectric constant tensor:
#      x y z
#    x 1.658550 0.000000 0.000000 
#    y 0.000000 1.708910 0.000000 
#    z 0.000000 0.000000 1.687170 
# 
# From -- ./inp_files/6065.got.cif
#   From: 2010.03.12/outbox.cif.g09.slc.cpg/sg47_4_cif.got.tgz:6065.got - 2010.04.14 03:12:58.
