data_PCOD8194356
_publ_section_title
;
Structure prediction by ZEFSAII (Michael W. Deem and Ramdas Pophale) SiO2 
 PCOD8194356
Probable space group: P M M M
;
_chemical_formula_sum "Si O2"
_cell_formula_units_Z 64
_cell_length_a 15.223666
_cell_length_b 24.650633
_cell_length_c 9.125292
_cell_angle_alpha 90.000000
_cell_angle_beta 90.000000
_cell_angle_gamma 90.000000
_cell_volume 3424.475736
_symmetry_space_group_name_H-M "P M M M"
_symmetry_group_IT_number 47
_symmetry_cell_setting 'orthorhombic'
loop_
_space_group_symop_operation_xyz
x,y,z
-x,-y,z
x,-y,-z
-x,y,-z
-x,-y,-z
x,y,-z
-x,y,z
x,-y,z
loop_
_atom_site_type_symbol
_atom_site_label
_atom_site_fract_x
_atom_site_fract_y
_atom_site_fract_z
Si Si1 0.148339 0.786497 0.332581
Si Si2 0.095583 0.315324 0.832199
Si Si3 0.097416 0.093710 0.333788
Si Si4 0.677366 0.231918 0.827853
Si Si5 0.401181 0.860160 0.668190
Si Si6 0.718157 0.646309 0.169532
Si Si7 0.598296 0.438563 0.672859
Si Si8 0.267221 0.937871 0.832227
O O1 0.174875 0.773300 0.500000
O O2 0.090915 0.737303 0.269792
O O3 0.093362 0.841266 0.321194
O O4 0.233942 0.794684 0.233152
O O5 0.177745 0.353686 0.787998
O O6 0.000000 0.345014 0.817046
O O7 0.111831 0.296386 0.000000
O O8 0.121434 0.076806 0.500000
O O9 0.168215 0.067516 0.226531
O O10 0.000000 0.072182 0.292219
O O11 0.600185 0.198850 0.747362
O O12 0.674708 0.295798 0.789741
O O13 0.670946 0.222385 0.000000
O O14 0.372566 0.852719 0.500000
O O15 0.500000 0.882910 0.680934
O O16 0.335297 0.902327 0.741192
O O17 0.671297 0.599843 0.259609
O O18 0.704727 0.633026 0.000000
O O19 0.604675 0.433778 0.500000
O O20 0.500000 0.421839 0.724754
O O21 0.617981 0.500000 0.723262
O O22 0.297133 0.000000 0.818284
O O23 0.269186 0.918265 0.000000
#
# Coordination Sequence:
#
# PCOD8194356 Si02
#       8
#     8   8   8   8   8   8   8   8
#     4  10  18  30  51  79 110 143 182 223 265 317
#     4   9  18  32  49  73 110 152 188 223 267 320
#     4  10  21  36  56  83 113 145 181 223 272 326
#     4  10  20  35  55  81 115 150 182 218 268 325
#     4  11  24  41  62  87 112 142 181 224 275 334
#     4   9  19  33  52  82 114 145 183 225 269 319
#     4   9  19  36  56  78 106 142 185 232 280 328
#     4  11  25  43  62  83 108 141 182 229 278 330
#
# _framework density 18.688991999999999
#
# number of rings (size 3 to 8) (size 9 to 14) (size 15 to 20)
#    0.000    2.125    1.250    3.000    0.000    7.500 
#    0.000    5.625    0.000    0.375    0.000    2.625 
#    0.000    0.000    0.000    0.000    0.000    0.000 
#
# Total GULP energy -793435.323514 kJ/mol
# GULP energy per Si atom -12397.426930 kJ/mol
# Density = 1.864645 g / cm^3
# Si number density = 18.688992 Si / 1000 Ang^3
#
#
#
# Elastic Constant Matrix: (Units=GPa)
#
#
# Indices 1 2 3 4 5 6 
#
# 1 117.1004 53.6796 54.2187 0.0000 0.0000 0.0000
# 2 53.6796 83.9019 47.0168 0.0000 0.0000 0.0000
# 3 54.2187 47.0168 102.8652 0.0000 0.0000 0.0000
# 4 0.0000 0.0000 0.0000 29.5303 0.0000 0.0000
# 5 0.0000 0.0000 0.0000 0.0000 25.9708 0.0000
# 6 0.0000 0.0000 0.0000 0.0000 0.0000 18.4051
#
#
#
# Elastic Compliance Matrix: (Units=1/GPa)
#
#
# Indices 1 2 3 4 5 6 
#
# 1 0.013308 -0.006162 -0.004198 0.000000 0.000000 0.000000
# 2 -0.006162 0.018876 -0.005380 0.000000 0.000000 0.000000
# 3 -0.004198 -0.005380 0.014393 0.000000 0.000000 0.000000
# 4 0.000000 0.000000 0.000000 0.033863 0.000000 0.000000
# 5 0.000000 0.000000 0.000000 0.000000 0.038505 0.000000
# 6 0.000000 0.000000 0.000000 0.000000 0.000000 0.054333
#
#
# Mechanical properties :
#
#
# Convention : Reuss Voigt Hill
#
# Bulk Modulus (GPa) = 66.23588 68.18862 67.21225
# Shear Modulus (GPa) = 23.83339 24.71141 24.27240
#
# Velocity S-wave (km/s) = 3.57496 3.64021 3.60773
# Velocity P-wave (km/s) = 7.24972 7.36433 7.30725
#
# Compressibility (1/GPa) = 0.01509756
#
# Stress axis : x y z
#
# Youngs Moduli (GPa) = 75.14243 52.97829 69.47759
#
# Poissons Ratio (x) = 0.32644 0.29167
# Poissons Ratio (y) = 0.46302 0.37377
# Poissons Ratio (z) = 0.31545 0.28501
#
# Static dielectric constant tensor:
#      x y z
#    x 3.506440 0.000000 0.000000 
#    y 0.000000 3.274100 0.000000 
#    z 0.000000 0.000000 3.503900 
# 
# 
# High freq. dielectric constant tensor:
#      x y z
#    x 1.729940 0.000000 0.000000 
#    y 0.000000 1.702040 0.000000 
#    z 0.000000 0.000000 1.731090 
# 
# From -- ./inp_files/7920.got.cif
#   From: 2010.03.12/outbox.cif.g09.slc.cpg/sg47_4_cif.got.tgz:7920.got - 2010.04.14 03:12:58.
