data_PCOD8194991
_publ_section_title
;
Structure prediction by ZEFSAII (Michael W. Deem and Ramdas Pophale) SiO2 
 PCOD8194991
Probable space group: P M M M
;
_chemical_formula_sum "Si O2"
_cell_formula_units_Z 52
_cell_length_a 27.000421
_cell_length_b 13.753044
_cell_length_c 9.229181
_cell_angle_alpha 90.000000
_cell_angle_beta 90.000000
_cell_angle_gamma 90.000000
_cell_volume 3427.145411
_symmetry_space_group_name_H-M "P M M M"
_symmetry_group_IT_number 47
_symmetry_cell_setting 'orthorhombic'
loop_
_space_group_symop_operation_xyz
x,y,z
-x,-y,z
x,-y,-z
-x,y,-z
-x,-y,-z
x,y,-z
-x,y,z
x,-y,z
loop_
_atom_site_type_symbol
_atom_site_label
_atom_site_fract_x
_atom_site_fract_y
_atom_site_fract_z
Si Si1 0.800021 0.283100 0.171607
Si Si2 0.394135 0.616199 0.337488
Si Si3 0.700641 0.389711 0.169780
Si Si4 0.500000 0.393073 0.672593
Si Si5 0.152456 0.110995 0.328768
Si Si6 0.115928 0.609804 0.333002
Si Si7 0.946076 0.209505 0.330966
O O1 0.745750 0.320505 0.215240
O O2 0.808115 0.178247 0.245908
O O3 0.838476 0.362262 0.230963
O O4 0.806633 0.273554 0.000000
O O5 0.383254 0.652316 0.500000
O O6 0.397538 0.500000 0.332298
O O7 0.349377 0.654368 0.238628
O O8 0.447843 0.658889 0.282032
O O9 0.710882 0.500000 0.225010
O O10 0.692857 0.389820 0.000000
O O11 0.500000 0.500000 0.743535
O O12 0.500000 0.402897 0.500000
O O13 0.156728 0.131078 0.500000
O O14 0.096892 0.137530 0.272800
O O15 0.164074 0.000000 0.289381
O O16 0.132675 0.623114 0.500000
O O17 0.099378 0.500000 0.299781
O O18 0.069341 0.679103 0.298610
O O19 0.951814 0.191322 0.500000
O O20 0.000000 0.189273 0.257294
#
# Coordination Sequence:
#
# PCOD8194991 Si02
#       7
#     8   8   8   4   8   8   8
#     4  10  19  30  44  60  80 107 137 168 202 242
#     4   8  13  21  34  51  71 100 137 171 200 230
#     4   9  17  27  37  53  79 107 135 168 202 232
#     4   7  10  18  31  47  69  97 132 171 202 227
#     4   9  18  32  48  65  83 101 125 161 203 245
#     4   9  17  28  42  61  84 109 137 167 197 231
#     4   8  14  25  42  65  88 105 125 157 197 239
#
# _framework density 15.172976999999999
#
# number of rings (size 3 to 8) (size 9 to 14) (size 15 to 20)
#    0.000    3.308    0.000    2.769    0.000    3.077 
#    0.000    5.000    0.000    9.692    0.000    8.615 
#    0.000    0.000    0.000    0.692    0.000   13.615 
#
# Total GULP energy -644262.611420 kJ/mol
# GULP energy per Si atom -12389.665604 kJ/mol
# Density = 1.513844 g / cm^3
# Si number density = 15.172977 Si / 1000 Ang^3
#
#
#
# Elastic Constant Matrix: (Units=GPa)
#
#
# Indices 1 2 3 4 5 6 
#
# 1 138.3442 39.1454 39.9914 0.0000 0.0000 0.0000
# 2 39.1454 75.2241 23.6968 0.0000 0.0000 0.0000
# 3 39.9914 23.6968 34.2530 0.0000 0.0000 0.0000
# 4 0.0000 0.0000 0.0000 15.8155 0.0000 0.0000
# 5 0.0000 0.0000 0.0000 0.0000 7.5307 0.0000
# 6 0.0000 0.0000 0.0000 0.0000 0.0000 10.4039
#
#
#
# Elastic Compliance Matrix: (Units=1/GPa)
#
#
# Indices 1 2 3 4 5 6 
#
# 1 0.011184 -0.002182 -0.011548 0.000000 0.000000 0.000000
# 2 -0.002182 0.017424 -0.009506 0.000000 0.000000 0.000000
# 3 -0.011548 -0.009506 0.049254 0.000000 0.000000 0.000000
# 4 0.000000 0.000000 0.000000 0.063229 0.000000 0.000000
# 5 0.000000 0.000000 0.000000 0.000000 0.132789 0.000000
# 6 0.000000 0.000000 0.000000 0.000000 0.000000 0.096118
#
#
# Mechanical properties :
#
#
# Convention : Reuss Voigt Hill
#
# Bulk Modulus (GPa) = 31.85872 50.38761 41.12317
# Shear Modulus (GPa) = 11.71144 16.41589 14.06366
#
# Velocity S-wave (km/s) = 2.78125 3.29282 3.04779
# Velocity P-wave (km/s) = 5.59968 6.90925 6.28865
#
# Compressibility (1/GPa) = 0.03138858
#
# Stress axis : x y z
#
# Youngs Moduli (GPa) = 89.41341 57.39267 20.30303
#
# Poissons Ratio (x) = 0.12524 0.23446
# Poissons Ratio (y) = 0.19511 0.19301
# Poissons Ratio (z) = 1.03255 0.54559
#
# Static dielectric constant tensor:
#      x y z
#    x 3.237800 0.000000 0.000000 
#    y 0.000000 2.680850 0.000000 
#    z 0.000000 0.000000 2.731220 
# 
# 
# High freq. dielectric constant tensor:
#      x y z
#    x 1.585740 0.000000 0.000000 
#    y 0.000000 1.540180 0.000000 
#    z 0.000000 0.000000 1.559960 
# 
# From -- ./inp_files/13403.got.cif
#   From: 2010.03.12/outbox.cif.g09.slc.cpg/sg47_7_cif.got.tgz:13403.got - 2010.04.14 03:12:58.
