data_PCOD8194541
_publ_section_title
;
Structure prediction by ZEFSAII (Michael W. Deem and Ramdas Pophale) SiO2 
 PCOD8194541
Probable space group: P M M M
;
_chemical_formula_sum "Si O2"
_cell_formula_units_Z 52
_cell_length_a 8.763034
_cell_length_b 14.189825
_cell_length_c 21.739703
_cell_angle_alpha 90.000000
_cell_angle_beta 90.000000
_cell_angle_gamma 90.000000
_cell_volume 2703.243347
_symmetry_space_group_name_H-M "P M M M"
_symmetry_group_IT_number 47
_symmetry_cell_setting 'orthorhombic'
loop_
_space_group_symop_operation_xyz
x,y,z
-x,-y,z
x,-y,-z
-x,y,-z
-x,-y,-z
x,y,-z
-x,y,z
x,-y,z
loop_
_atom_site_type_symbol
_atom_site_label
_atom_site_fract_x
_atom_site_fract_y
_atom_site_fract_z
Si Si1 0.318764 0.105936 0.500000
Si Si2 0.319223 0.601730 0.568265
Si Si3 0.681686 0.392386 0.185200
Si Si4 0.321029 0.282637 0.932671
Si Si5 0.677262 0.892744 0.144472
Si Si6 0.680786 0.790937 0.377440
Si Si7 0.821046 0.780154 0.251118
O O1 0.500000 0.112977 0.500000
O O2 0.257693 0.153881 0.437470
O O3 0.258367 0.000000 0.500000
O O4 0.251433 0.619140 0.500000
O O5 0.500000 0.604714 0.562660
O O6 0.264348 0.500000 0.593722
O O7 0.266503 0.682451 0.614532
O O8 0.500000 0.386834 0.188538
O O9 0.738093 0.500000 0.195691
O O10 0.742017 0.355915 0.118431
O O11 0.745882 0.322015 0.237125
O O12 0.500000 0.298081 0.937961
O O13 0.284870 0.174782 0.913240
O O14 0.246029 0.301354 0.000000
O O15 0.500000 0.883014 0.162949
O O16 0.777016 0.859128 0.201783
O O17 0.719446 0.000000 0.126813
O O18 0.500000 0.804183 0.369923
O O19 0.763315 0.823843 0.315585
O O20 0.000000 0.765794 0.252424
#
# Coordination Sequence:
#
# PCOD8194541 Si02
#       7
#     4   8   8   8   8   8   8
#     4   9  18  32  52  78 102 125 159 206 256 307
#     4   8  13  23  43  71  96 117 147 191 241 290
#     4   9  18  34  55  78 106 142 183 221 255 299
#     4   8  14  26  48  82 116 137 161 208 268 320
#     4   9  18  34  55  77 102 135 176 220 263 310
#     4  10  18  32  53  75  99 129 166 210 257 307
#     4  11  23  36  51  74 105 141 178 219 265 313
#
# _framework density 19.236152000000001
#
# number of rings (size 3 to 8) (size 9 to 14) (size 15 to 20)
#    0.000    2.846    0.769    2.769    0.000    2.462 
#    0.000    6.538    0.000    7.846    0.000    9.692 
#    0.000    0.000    0.000    0.000    0.000    0.000 
#
# Total GULP energy -644414.150785 kJ/mol
# GULP energy per Si atom -12392.579823 kJ/mol
# Density = 1.919237 g / cm^3
# Si number density = 19.236152 Si / 1000 Ang^3
#
#
#
# Elastic Constant Matrix: (Units=GPa)
#
#
# Indices 1 2 3 4 5 6 
#
# 1 38.7219 19.2483 22.6805 0.0000 0.0000 0.0000
# 2 19.2483 100.3423 28.0715 0.0000 0.0000 0.0000
# 3 22.6805 28.0715 118.8231 0.0000 0.0000 0.0000
# 4 0.0000 0.0000 0.0000 14.9110 0.0000 0.0000
# 5 0.0000 0.0000 0.0000 0.0000 0.4584 0.0000
# 6 0.0000 0.0000 0.0000 0.0000 0.0000 10.8045
#
#
#
# Elastic Compliance Matrix: (Units=1/GPa)
#
#
# Indices 1 2 3 4 5 6 
#
# 1 0.030927 -0.004584 -0.004820 0.000000 0.000000 0.000000
# 2 -0.004584 0.011351 -0.001807 0.000000 0.000000 0.000000
# 3 -0.004820 -0.001807 0.009763 0.000000 0.000000 0.000000
# 4 0.000000 0.000000 0.000000 0.067064 0.000000 0.000000
# 5 0.000000 0.000000 0.000000 0.000000 2.181300 0.000000
# 6 0.000000 0.000000 0.000000 0.000000 0.000000 0.092554
#
#
# Mechanical properties :
#
#
# Convention : Reuss Voigt Hill
#
# Bulk Modulus (GPa) = 33.76246 44.20977 38.98612
# Shear Modulus (GPa) = 2.06164 17.76059 9.91111
#
# Velocity S-wave (km/s) = 1.03638 3.04187 2.27234
# Velocity P-wave (km/s) = 4.36140 5.94725 5.21496
#
# Compressibility (1/GPa) = 0.02961869
#
# Stress axis : x y z
#
# Youngs Moduli (GPa) = 32.33387 88.10069 102.43030
#
# Poissons Ratio (x) = 0.40387 0.49374
# Poissons Ratio (y) = 0.14822 0.18504
# Poissons Ratio (z) = 0.15586 0.15916
#
# Static dielectric constant tensor:
#      x y z
#    x 2.935970 0.000000 0.000000 
#    y 0.000000 3.787560 0.000000 
#    z 0.000000 0.000000 3.679420 
# 
# 
# High freq. dielectric constant tensor:
#      x y z
#    x 1.688660 0.000000 0.000000 
#    y 0.000000 1.752280 0.000000 
#    z 0.000000 0.000000 1.749950 
# 
# From -- ./inp_files/29609.got.cif
#   From: 2010.03.12/outbox.cif.g09.slc.cpg/sg47_15_cif.got.tgz:29609.got - 2010.04.14 03:12:58.
