data_PCOD8194551
_publ_section_title
;
Structure prediction by ZEFSAII (Michael W. Deem and Ramdas Pophale) SiO2 
 PCOD8194551
Probable space group: P M M M
;
_chemical_formula_sum "Si O2"
_cell_formula_units_Z 56
_cell_length_a 9.058810
_cell_length_b 22.755106
_cell_length_c 14.722011
_cell_angle_alpha 90.000000
_cell_angle_beta 90.000000
_cell_angle_gamma 90.000000
_cell_volume 3034.709692
_symmetry_space_group_name_H-M "P M M M"
_symmetry_group_IT_number 47
_symmetry_cell_setting 'orthorhombic'
loop_
_space_group_symop_operation_xyz
x,y,z
-x,-y,z
x,-y,-z
-x,y,-z
-x,-y,-z
x,y,-z
-x,y,z
x,-y,z
loop_
_atom_site_type_symbol
_atom_site_label
_atom_site_fract_x
_atom_site_fract_y
_atom_site_fract_z
Si Si1 0.337187 0.930882 0.500000
Si Si2 0.176856 0.615604 0.295539
Si Si3 0.173787 0.066685 0.320171
Si Si4 0.166916 0.631105 0.097167
Si Si5 0.327184 0.275369 0.605722
Si Si6 0.175349 0.500000 0.601799
Si Si7 0.836340 0.769974 0.899053
Si Si8 0.670699 0.826160 0.257420
O O1 0.500000 0.900908 0.500000
O O2 0.246887 0.910867 0.587004
O O3 0.355350 0.000000 0.500000
O O4 0.240023 0.609102 0.191784
O O5 0.238815 0.672327 0.346603
O O6 0.233352 0.557998 0.347757
O O7 0.000000 0.621501 0.294509
O O8 0.235114 0.113576 0.248713
O O9 0.000000 0.070623 0.330115
O O10 0.221319 0.000000 0.294324
O O11 0.170368 0.700582 0.099887
O O12 0.000000 0.607665 0.095338
O O13 0.241919 0.610327 0.000000
O O14 0.280984 0.270057 0.500000
O O15 0.500000 0.288876 0.616124
O O16 0.286525 0.214230 0.655879
O O17 0.239815 0.500000 0.500000
O O18 0.000000 0.500000 0.600152
O O19 0.706988 0.791928 0.834364
O O20 0.000000 0.789747 0.865189
O O21 0.807704 0.795011 0.000000
O O22 0.500000 0.843193 0.259745
#
# Coordination Sequence:
#
# PCOD8194551 Si02
#       8
#     4   8   8   8   8   4   8   8
#     4   9  17  31  51  73  99 135 177 218 263 310
#     4  10  18  32  54  75 100 136 177 217 259 312
#     4  10  21  36  53  74 103 140 183 225 261 311
#     4   8  14  26  47  74 101 129 164 209 260 311
#     4  10  22  37  50  71 106 140 171 214 263 307
#     4   9  18  30  46  74 106 135 175 225 268 303
#     4   9  17  32  54  78 105 135 168 213 266 319
#     4  11  22  34  53  79 107 138 173 217 269 321
#
# _framework density 18.453164999999998
#
# number of rings (size 3 to 8) (size 9 to 14) (size 15 to 20)
#    0.000    2.429    1.429    2.357    1.000    3.429 
#    0.000    0.714    0.000    4.286    0.000    3.000 
#    0.000    1.143    0.000    0.000    0.000    0.000 
#
# Total GULP energy -693942.946296 kJ/mol
# GULP energy per Si atom -12391.838327 kJ/mol
# Density = 1.841116 g / cm^3
# Si number density = 18.453165 Si / 1000 Ang^3
#
#
#
# Elastic Constant Matrix: (Units=GPa)
#
#
# Indices 1 2 3 4 5 6 
#
# 1 50.8186 34.7368 28.8684 0.0000 0.0000 0.0000
# 2 34.7368 88.2232 47.9612 0.0000 0.0000 0.0000
# 3 28.8684 47.9612 148.0565 0.0000 0.0000 0.0000
# 4 0.0000 0.0000 0.0000 73.1163 0.0000 0.0000
# 5 0.0000 0.0000 0.0000 0.0000 23.1228 0.0000
# 6 0.0000 0.0000 0.0000 0.0000 0.0000 18.8996
#
#
#
# Elastic Compliance Matrix: (Units=1/GPa)
#
#
# Indices 1 2 3 4 5 6 
#
# 1 0.027530 -0.009615 -0.002253 0.000000 0.000000 0.000000
# 2 -0.009615 0.017115 -0.003670 0.000000 0.000000 0.000000
# 3 -0.002253 -0.003670 0.008382 0.000000 0.000000 0.000000
# 4 0.000000 0.000000 0.000000 0.013677 0.000000 0.000000
# 5 0.000000 0.000000 0.000000 0.000000 0.043247 0.000000
# 6 0.000000 0.000000 0.000000 0.000000 0.000000 0.052911
#
#
# Mechanical properties :
#
#
# Convention : Reuss Voigt Hill
#
# Bulk Modulus (GPa) = 45.55292 56.69235 51.12264
# Shear Modulus (GPa) = 24.84403 34.72988 29.78696
#
# Velocity S-wave (km/s) = 3.67322 4.34297 4.02206
# Velocity P-wave (km/s) = 6.53677 7.47914 7.02378
#
# Compressibility (1/GPa) = 0.02195249
#
# Stress axis : x y z
#
# Youngs Moduli (GPa) = 36.32417 58.42658 119.29923
#
# Poissons Ratio (x) = 0.56175 0.26882
# Poissons Ratio (y) = 0.34924 0.43779
# Poissons Ratio (z) = 0.08185 0.21441
#
# Static dielectric constant tensor:
#      x y z
#    x 3.196010 0.000000 0.000000 
#    y 0.000000 3.281750 0.000000 
#    z 0.000000 0.000000 3.554070 
# 
# 
# High freq. dielectric constant tensor:
#      x y z
#    x 1.688780 0.000000 0.000000 
#    y 0.000000 1.702500 0.000000 
#    z 0.000000 0.000000 1.722650 
# 
# From -- ./inp_files/21647.got.cif
#   From: 2010.03.12/outbox.cif.g09.slc.cpg/sg47_11_cif.got.tgz:21647.got - 2010.04.14 03:12:58.
