data_PCOD8194082
_publ_section_title
;
Structure prediction by ZEFSAII (Michael W. Deem and Ramdas Pophale) SiO2 
 PCOD8194082
Probable space group: P M M M
;
_chemical_formula_sum "Si O2"
_cell_formula_units_Z 56
_cell_length_a 15.762361
_cell_length_b 20.560705
_cell_length_c 9.471958
_cell_angle_alpha 90.000000
_cell_angle_beta 90.000000
_cell_angle_gamma 90.000000
_cell_volume 3069.721920
_symmetry_space_group_name_H-M "P M M M"
_symmetry_group_IT_number 47
_symmetry_cell_setting 'orthorhombic'
loop_
_space_group_symop_operation_xyz
x,y,z
-x,-y,z
x,-y,-z
-x,y,-z
-x,-y,-z
x,y,-z
-x,y,z
x,-y,z
loop_
_atom_site_type_symbol
_atom_site_label
_atom_site_fract_x
_atom_site_fract_y
_atom_site_fract_z
Si Si1 0.233875 0.427744 0.332354
Si Si2 0.593708 0.102823 0.840264
Si Si3 0.801231 0.209337 0.336271
Si Si4 0.641631 0.247311 0.162051
Si Si5 0.407248 0.635400 0.662198
Si Si6 0.906850 0.671383 0.334580
Si Si7 0.246598 0.070292 0.336530
O O1 0.229462 0.426946 0.500000
O O2 0.213431 0.500000 0.274480
O O3 0.329633 0.409565 0.284168
O O4 0.164210 0.377217 0.269060
O O5 0.500000 0.076826 0.799244
O O6 0.591148 0.180377 0.826203
O O7 0.663459 0.071194 0.740859
O O8 0.616433 0.082583 0.000000
O O9 0.773931 0.215638 0.500000
O O10 0.731147 0.241992 0.239657
O O11 0.885111 0.252211 0.307392
O O12 0.812700 0.132425 0.294574
O O13 0.586658 0.301203 0.240714
O O14 0.657040 0.267467 0.000000
O O15 0.390826 0.656147 0.500000
O O16 0.500000 0.600241 0.675297
O O17 0.910921 0.657784 0.500000
O O18 0.000000 0.657974 0.267523
O O19 0.268535 0.074913 0.500000
O O20 0.202195 0.000000 0.302257
#
# Coordination Sequence:
#
# PCOD8194082 Si02
#       7
#     8   8   8   8   8   8   8
#     4   9  17  29  45  69 102 131 157 195 237 279
#     4   9  18  30  42  60  88 120 155 197 241 281
#     4   9  16  30  50  69  95 124 155 195 237 283
#     4  10  18  29  47  69  94 124 161 202 244 282
#     4  10  19  30  46  68  95 129 166 200 238 281
#     4   9  16  27  48  76 100 123 154 193 240 289
#     4   9  18  30  44  63  87 120 157 191 232 279
#
# _framework density 18.242695000000001
#
# number of rings (size 3 to 8) (size 9 to 14) (size 15 to 20)
#    0.000    2.714    1.429    0.857    0.000    2.857 
#    0.000    4.286    0.000    1.286    0.000    4.000 
#    0.000    1.143    0.000    7.143    0.000    7.429 
#
# Total GULP energy -693775.082965 kJ/mol
# GULP energy per Si atom -12388.840767 kJ/mol
# Density = 1.820117 g / cm^3
# Si number density = 18.242695 Si / 1000 Ang^3
#
#
#
# Elastic Constant Matrix: (Units=GPa)
#
#
# Indices 1 2 3 4 5 6 
#
# 1 119.4728 62.6574 14.7194 0.0000 0.0000 0.0000
# 2 62.6574 133.5251 17.5444 0.0000 0.0000 0.0000
# 3 14.7194 17.5444 35.9254 0.0000 0.0000 0.0000
# 4 0.0000 0.0000 0.0000 10.7565 0.0000 0.0000
# 5 0.0000 0.0000 0.0000 0.0000 5.2718 0.0000
# 6 0.0000 0.0000 0.0000 0.0000 0.0000 10.0275
#
#
#
# Elastic Compliance Matrix: (Units=1/GPa)
#
#
# Indices 1 2 3 4 5 6 
#
# 1 0.011259 -0.004998 -0.002172 0.000000 0.000000 0.000000
# 2 -0.004998 0.010221 -0.002944 0.000000 0.000000 0.000000
# 3 -0.002172 -0.002944 0.030163 0.000000 0.000000 0.000000
# 4 0.000000 0.000000 0.000000 0.092967 0.000000 0.000000
# 5 0.000000 0.000000 0.000000 0.000000 0.189687 0.000000
# 6 0.000000 0.000000 0.000000 0.000000 0.000000 0.099726
#
#
# Mechanical properties :
#
#
# Convention : Reuss Voigt Hill
#
# Bulk Modulus (GPa) = 31.83163 53.19618 42.51390
# Shear Modulus (GPa) = 10.75911 18.14465 14.45188
#
# Velocity S-wave (km/s) = 2.43117 3.15719 2.81766
# Velocity P-wave (km/s) = 5.03663 6.52028 5.82588
#
# Compressibility (1/GPa) = 0.03141529
#
# Stress axis : x y z
#
# Youngs Moduli (GPa) = 88.81902 97.83474 33.15301
#
# Poissons Ratio (x) = 0.48896 0.07202
# Poissons Ratio (y) = 0.44390 0.09760
# Poissons Ratio (z) = 0.19294 0.28802
#
# Static dielectric constant tensor:
#      x y z
#    x 3.323830 0.000000 0.000000 
#    y 0.000000 3.693810 0.000000 
#    z 0.000000 0.000000 3.106570 
# 
# 
# High freq. dielectric constant tensor:
#      x y z
#    x 1.684710 0.000000 0.000000 
#    y 0.000000 1.712240 0.000000 
#    z 0.000000 0.000000 1.667950 
# 
# From -- ./inp_files/7368.got.cif
#   From: 2010.03.12/outbox.cif.g09.slc.cpg/sg47_4_cif.got.tgz:7368.got - 2010.04.14 03:12:58.
