data_PCOD8194718
_publ_section_title
;
Structure prediction by ZEFSAII (Michael W. Deem and Ramdas Pophale) SiO2 
 PCOD8194718
Probable space group: P M M M
;
_chemical_formula_sum "Si O2"
_cell_formula_units_Z 48
_cell_length_a 24.172951
_cell_length_b 13.706133
_cell_length_c 9.021770
_cell_angle_alpha 90.000000
_cell_angle_beta 90.000000
_cell_angle_gamma 90.000000
_cell_volume 2989.071919
_symmetry_space_group_name_H-M "P M M M"
_symmetry_group_IT_number 47
_symmetry_cell_setting 'orthorhombic'
loop_
_space_group_symop_operation_xyz
x,y,z
-x,-y,z
x,-y,-z
-x,y,-z
-x,-y,-z
x,y,-z
-x,y,z
x,-y,z
loop_
_atom_site_type_symbol
_atom_site_label
_atom_site_fract_x
_atom_site_fract_y
_atom_site_fract_z
Si Si1 0.560668 0.884319 0.333836
Si Si2 0.062385 0.728189 0.327172
Si Si3 0.331077 0.113822 0.827082
Si Si4 0.165620 0.393128 0.674788
Si Si5 0.227705 0.796226 0.324030
Si Si6 0.873723 0.111775 0.829636
O O1 0.573863 0.846685 0.500000
O O2 0.500000 0.845012 0.282766
O O3 0.608238 0.848392 0.222009
O O4 0.559064 0.000000 0.333705
O O5 0.070613 0.752472 0.500000
O O6 0.104389 0.642864 0.277055
O O7 0.075900 0.825872 0.236520
O O8 0.000000 0.694068 0.292224
O O9 0.287463 0.179053 0.739481
O O10 0.322583 0.000000 0.786955
O O11 0.323854 0.132329 0.000000
O O12 0.167748 0.403102 0.500000
O O13 0.177020 0.500000 0.746852
O O14 0.211375 0.314098 0.725932
O O15 0.228242 0.807183 0.500000
O O16 0.182933 0.870830 0.259158
O O17 0.891188 0.000000 0.813056
O O18 0.863518 0.140504 0.000000
#
# Coordination Sequence:
#
# PCOD8194718 Si02
#       6
#     8   8   8   8   8   8
#     4   8  14  25  40  58  83 117 155 190 219 246
#     4   9  18  31  47  68  89 109 137 171 207 251
#     4  10  19  28  40  61  90 123 154 182 213 249
#     4   8  15  29  48  68  87 106 132 171 218 262
#     4  10  19  30  46  66  86 110 142 179 217 257
#     4  10  20  32  45  61  84 115 146 175 210 250
#
# _framework density 16.058496999999999
#
# number of rings (size 3 to 8) (size 9 to 14) (size 15 to 20)
#    0.000    2.833    0.000    3.500    0.000    5.667 
#    0.000    5.000    0.000   12.500    0.000    4.667 
#    0.000    0.667    0.000    7.667    0.000    2.500 
#
# Total GULP energy -594977.037779 kJ/mol
# GULP energy per Si atom -12395.354954 kJ/mol
# Density = 1.602195 g / cm^3
# Si number density = 16.058497 Si / 1000 Ang^3
#
#
#
# Elastic Constant Matrix: (Units=GPa)
#
#
# Indices 1 2 3 4 5 6 
#
# 1 119.5822 43.2233 43.0522 0.0000 0.0000 0.0000
# 2 43.2233 84.4289 34.0126 0.0000 0.0000 0.0000
# 3 43.0522 34.0126 67.6961 0.0000 0.0000 0.0000
# 4 0.0000 0.0000 0.0000 8.2019 0.0000 0.0000
# 5 0.0000 0.0000 0.0000 0.0000 19.0653 0.0000
# 6 0.0000 0.0000 0.0000 0.0000 0.0000 13.6888
#
#
#
# Elastic Compliance Matrix: (Units=1/GPa)
#
#
# Indices 1 2 3 4 5 6 
#
# 1 0.011726 -0.003760 -0.005568 0.000000 0.000000 0.000000
# 2 -0.003760 0.016056 -0.005676 0.000000 0.000000 0.000000
# 3 -0.005568 -0.005676 0.021165 0.000000 0.000000 0.000000
# 4 0.000000 0.000000 0.000000 0.121923 0.000000 0.000000
# 5 0.000000 0.000000 0.000000 0.000000 0.052451 0.000000
# 6 0.000000 0.000000 0.000000 0.000000 0.000000 0.073053
#
#
# Mechanical properties :
#
#
# Convention : Reuss Voigt Hill
#
# Bulk Modulus (GPa) = 52.80179 56.92038 54.86109
# Shear Modulus (GPa) = 15.02879 18.28578 16.65729
#
# Velocity S-wave (km/s) = 3.06253 3.37812 3.22419
# Velocity P-wave (km/s) = 6.74224 7.12308 6.93527
#
# Compressibility (1/GPa) = 0.01893875
#
# Stress axis : x y z
#
# Youngs Moduli (GPa) = 85.27888 62.28326 47.24835
#
# Poissons Ratio (x) = 0.23419 0.26309
# Poissons Ratio (y) = 0.32065 0.26816
# Poissons Ratio (z) = 0.47486 0.35350
#
# Static dielectric constant tensor:
#      x y z
#    x 3.228660 0.000000 0.000000 
#    y 0.000000 3.016800 0.000000 
#    z 0.000000 0.000000 3.012220 
# 
# 
# High freq. dielectric constant tensor:
#      x y z
#    x 1.617960 0.000000 0.000000 
#    y 0.000000 1.580640 0.000000 
#    z 0.000000 0.000000 1.611810 
# 
# From -- ./inp_files/7527.got.cif
#   From: 2010.03.12/outbox.cif.g09.slc.cpg/sg47_4_cif.got.tgz:7527.got - 2010.04.14 03:12:58.
