data_PCOD8194883
_publ_section_title
;
Structure prediction by ZEFSAII (Michael W. Deem and Ramdas Pophale) SiO2 
 PCOD8194883
Probable space group: P M M M
;
_chemical_formula_sum "Si O2"
_cell_formula_units_Z 52
_cell_length_a 13.648323
_cell_length_b 26.664452
_cell_length_c 9.331575
_cell_angle_alpha 90.000000
_cell_angle_beta 90.000000
_cell_angle_gamma 90.000000
_cell_volume 3395.993931
_symmetry_space_group_name_H-M "P M M M"
_symmetry_group_IT_number 47
_symmetry_cell_setting 'orthorhombic'
loop_
_space_group_symop_operation_xyz
x,y,z
-x,-y,z
x,-y,-z
-x,y,-z
-x,-y,-z
x,y,-z
-x,y,z
x,-y,z
loop_
_atom_site_type_symbol
_atom_site_label
_atom_site_fract_x
_atom_site_fract_y
_atom_site_fract_z
Si Si1 0.296927 0.707831 0.332409
Si Si2 0.797735 0.144819 0.832064
Si Si3 0.112746 0.057678 0.334562
Si Si4 0.390221 0.204783 0.164439
Si Si5 0.890185 0.767079 0.335326
Si Si6 0.616551 0.500000 0.657401
Si Si7 0.389841 0.607152 0.328929
O O1 0.319401 0.711119 0.500000
O O2 0.370755 0.746177 0.257948
O O3 0.184442 0.722066 0.296411
O O4 0.318009 0.651524 0.275587
O O5 0.816100 0.090633 0.763649
O O6 0.685716 0.160422 0.797289
O O7 0.871605 0.184915 0.763330
O O8 0.818978 0.142179 0.000000
O O9 0.132356 0.070542 0.500000
O O10 0.000000 0.069097 0.295850
O O11 0.137675 0.000000 0.302690
O O12 0.500000 0.184971 0.195267
O O13 0.376753 0.220879 0.000000
O O14 0.875716 0.783956 0.500000
O O15 0.000000 0.747118 0.307922
O O16 0.500000 0.500000 0.642678
O O17 0.665019 0.500000 0.500000
O O18 0.646651 0.552791 0.734871
O O19 0.389292 0.602783 0.500000
O O20 0.500000 0.619402 0.275630
#
# Coordination Sequence:
#
# PCOD8194883 Si02
#       7
#     8   8   8   8   8   4   8
#     4   9  16  25  39  59  78  99 133 171 198 225
#     4  10  19  29  44  65  84 104 133 166 195 226
#     4   9  18  32  48  65  86 111 134 157 193 239
#     4   9  18  31  43  57  82 112 135 157 193 239
#     4   9  17  28  40  55  79 109 134 157 194 242
#     4   7  10  16  26  44  72 100 120 147 197 247
#     4   8  12  18  30  50  75  98 122 158 200 236
#
# _framework density 15.312158999999999
#
# number of rings (size 3 to 8) (size 9 to 14) (size 15 to 20)
#    0.000    3.154    0.000    2.769    0.000    4.308 
#    0.000    0.769    0.000    0.462    0.000    4.308 
#    0.000    7.385    0.000    0.000    0.000   13.615 
#
# Total GULP energy -644421.905066 kJ/mol
# GULP energy per Si atom -12392.728944 kJ/mol
# Density = 1.527731 g / cm^3
# Si number density = 15.312159 Si / 1000 Ang^3
#
#
#
# Elastic Constant Matrix: (Units=GPa)
#
#
# Indices 1 2 3 4 5 6 
#
# 1 91.9426 59.7723 30.3311 0.0000 0.0000 0.0000
# 2 59.7723 132.7413 42.8445 0.0000 0.0000 0.0000
# 3 30.3311 42.8445 42.0341 0.0000 0.0000 0.0000
# 4 0.0000 0.0000 0.0000 5.1059 0.0000 0.0000
# 5 0.0000 0.0000 0.0000 0.0000 16.9730 0.0000
# 6 0.0000 0.0000 0.0000 0.0000 0.0000 21.9564
#
#
#
# Elastic Compliance Matrix: (Units=1/GPa)
#
#
# Indices 1 2 3 4 5 6 
#
# 1 0.016472 -0.005337 -0.006447 0.000000 0.000000 0.000000
# 2 -0.005337 0.012956 -0.009355 0.000000 0.000000 0.000000
# 3 -0.006447 -0.009355 0.037977 0.000000 0.000000 0.000000
# 4 0.000000 0.000000 0.000000 0.195853 0.000000 0.000000
# 5 0.000000 0.000000 0.000000 0.000000 0.058917 0.000000
# 6 0.000000 0.000000 0.000000 0.000000 0.000000 0.045545
#
#
# Mechanical properties :
#
#
# Convention : Reuss Voigt Hill
#
# Bulk Modulus (GPa) = 39.79435 59.17932 49.48683
# Shear Modulus (GPa) = 11.95104 17.72505 14.83805
#
# Velocity S-wave (km/s) = 2.79676 3.40601 3.11631
# Velocity P-wave (km/s) = 6.03940 7.36209 6.73330
#
# Compressibility (1/GPa) = 0.02512920
#
# Stress axis : x y z
#
# Youngs Moduli (GPa) = 60.70754 77.18470 26.33145
#
# Poissons Ratio (x) = 0.41190 0.16975
# Poissons Ratio (y) = 0.32397 0.24633
# Poissons Ratio (z) = 0.39137 0.72206
#
# Static dielectric constant tensor:
#      x y z
#    x 2.894120 0.000000 0.000000 
#    y 0.000000 3.130230 0.000000 
#    z 0.000000 0.000000 2.764670 
# 
# 
# High freq. dielectric constant tensor:
#      x y z
#    x 1.567270 0.000000 0.000000 
#    y 0.000000 1.584350 0.000000 
#    z 0.000000 0.000000 1.565940 
# 
# From -- ./inp_files/7997.got.cif
#   From: 2010.03.12/outbox.cif.g09.slc.cpg/sg47_4_cif.got.tgz:7997.got - 2010.04.14 03:12:58.
