data_PCOD8194285
_publ_section_title
;
Structure prediction by ZEFSAII (Michael W. Deem and Ramdas Pophale) SiO2 
 PCOD8194285
Probable space group: P M M M
;
_chemical_formula_sum "Si O2"
_cell_formula_units_Z 52
_cell_length_a 14.546220
_cell_length_b 21.211680
_cell_length_c 9.141450
_cell_angle_alpha 90.000000
_cell_angle_beta 90.000000
_cell_angle_gamma 90.000000
_cell_volume 2820.592239
_symmetry_space_group_name_H-M "P M M M"
_symmetry_group_IT_number 47
_symmetry_cell_setting 'orthorhombic'
loop_
_space_group_symop_operation_xyz
x,y,z
-x,-y,z
x,-y,-z
-x,y,-z
-x,-y,-z
x,y,-z
-x,y,z
x,-y,z
loop_
_atom_site_type_symbol
_atom_site_label
_atom_site_fract_x
_atom_site_fract_y
_atom_site_fract_z
Si Si1 0.394499 0.817843 0.168684
Si Si2 0.894341 0.500000 0.174101
Si Si3 0.601571 0.322047 0.826187
Si Si4 0.102928 0.141152 0.832421
Si Si5 0.107923 0.265779 0.666833
Si Si6 0.277715 0.931189 0.829130
Si Si7 0.789892 0.376325 0.826601
O O1 0.500000 0.836198 0.188760
O O2 0.375310 0.748224 0.236969
O O3 0.336136 0.874171 0.244801
O O4 0.365273 0.814780 0.000000
O O5 0.837348 0.560077 0.233668
O O6 0.000000 0.500000 0.233752
O O7 0.896644 0.500000 0.000000
O O8 0.500000 0.344111 0.768961
O O9 0.681750 0.371198 0.779109
O O10 0.596738 0.316695 0.000000
O O11 0.135856 0.198305 0.730863
O O12 0.169717 0.082288 0.804270
O O13 0.000000 0.119111 0.792367
O O14 0.108954 0.164503 0.000000
O O15 0.141241 0.269773 0.500000
O O16 0.156642 0.318209 0.761496
O O17 0.000000 0.276979 0.681297
O O18 0.300078 0.000000 0.758901
O O19 0.301639 0.934342 0.000000
O O20 0.798736 0.373438 0.000000
#
# Coordination Sequence:
#
# PCOD8194285 Si02
#       7
#     8   4   8   8   8   8   8
#     4   8  13  21  33  52  82 116 144 175 221 271
#     4   9  18  30  44  68 100 129 159 193 226 267
#     4   8  14  25  43  68  94 119 152 194 234 270
#     4   9  17  29  45  64  86 115 150 186 229 279
#     4  10  20  32  47  69  94 118 150 196 242 278
#     4   9  16  24  36  58  86 114 147 185 221 263
#     4  10  18  30  50  71  94 127 160 188 225 274
#
# _framework density 18.435843999999999
#
# number of rings (size 3 to 8) (size 9 to 14) (size 15 to 20)
#    0.000    3.000    0.000    2.769    0.000    4.615 
#    0.000    3.846    0.000    4.615    0.000    2.154 
#    0.000    1.231    0.000    5.538    0.000    4.923 
#
# Total GULP energy -644322.126505 kJ/mol
# GULP energy per Si atom -12390.810125 kJ/mol
# Density = 1.839388 g / cm^3
# Si number density = 18.435844 Si / 1000 Ang^3
#
#
#
# Elastic Constant Matrix: (Units=GPa)
#
#
# Indices 1 2 3 4 5 6 
#
# 1 99.8966 85.2637 12.8549 0.0000 0.0000 0.0000
# 2 85.2637 91.2293 5.4147 0.0000 0.0000 0.0000
# 3 12.8549 5.4147 9.9555 0.0000 0.0000 0.0000
# 4 0.0000 0.0000 0.0000 -3.7063 0.0000 0.0000
# 5 0.0000 0.0000 0.0000 0.0000 6.6915 0.0000
# 6 0.0000 0.0000 0.0000 0.0000 0.0000 28.6950
#
#
#
# Elastic Compliance Matrix: (Units=1/GPa)
#
#
# Indices 1 2 3 4 5 6 
#
# 1 0.071929 -0.063772 -0.058193 0.000000 0.000000 0.000000
# 2 -0.063772 0.067866 0.045433 0.000000 0.000000 0.000000
# 3 -0.058193 0.045433 0.150877 0.000000 0.000000 0.000000
# 4 0.000000 0.000000 0.000000 -0.269808 0.000000 0.000000
# 5 0.000000 0.000000 0.000000 0.000000 0.149443 0.000000
# 6 0.000000 0.000000 0.000000 0.000000 0.000000 0.034849
#
#
# Mechanical properties :
#
#
# Convention : Reuss Voigt Hill
#
# Bulk Modulus (GPa) = 7.26695 45.34975 26.30835
# Shear Modulus (GPa) = 12.37346 12.83925 12.60636
#
# Velocity S-wave (km/s) = 2.59349 2.64186 2.61779
# Velocity P-wave (km/s) = 3.59424 5.82735 4.84131
#
# Compressibility (1/GPa) = 0.13760924
#
# Stress axis : x y z
#
# Youngs Moduli (GPa) = 13.90260 14.73484 6.62789
#
# Poissons Ratio (x) = 0.93966 0.38570
# Poissons Ratio (y) = 0.88659 -0.30112
# Poissons Ratio (z) = 0.80903 -0.66944
#
# Static dielectric constant tensor:
#      x y z
#    x 3.776150 0.000000 0.000000 
#    y 0.000000 3.627170 0.000000 
#    z 0.000000 0.000000 2.833200 
# 
# 
# High freq. dielectric constant tensor:
#      x y z
#    x 1.729800 0.000000 0.000000 
#    y 0.000000 1.708450 0.000000 
#    z 0.000000 0.000000 1.641940 
# 
# From -- ./inp_files/7042.got.cif
#   From: 2010.03.12/outbox.cif.g09.slc.cpg/sg47_4_cif.got.tgz:7042.got - 2010.04.14 03:12:58.
