data_PCOD8194329
_publ_section_title
;
Structure prediction by ZEFSAII (Michael W. Deem and Ramdas Pophale) SiO2 
 PCOD8194329
Probable space group: P M M M
;
_chemical_formula_sum "Si O2"
_cell_formula_units_Z 64
_cell_length_a 31.106471
_cell_length_b 14.248240
_cell_length_c 9.093158
_cell_angle_alpha 90.000000
_cell_angle_beta 90.000000
_cell_angle_gamma 90.000000
_cell_volume 4030.200966
_symmetry_space_group_name_H-M "P M M M"
_symmetry_group_IT_number 47
_symmetry_cell_setting 'orthorhombic'
loop_
_space_group_symop_operation_xyz
x,y,z
-x,-y,z
x,-y,-z
-x,y,-z
-x,-y,-z
x,y,-z
-x,y,z
x,-y,z
loop_
_atom_site_type_symbol
_atom_site_label
_atom_site_fract_x
_atom_site_fract_y
_atom_site_fract_z
Si Si1 0.548844 0.605902 0.327879
Si Si2 0.138276 0.612065 0.831399
Si Si3 0.335660 0.102016 0.174703
Si Si4 0.954545 0.604825 0.825628
Si Si5 0.710274 0.608715 0.828929
Si Si6 0.376657 0.289993 0.172453
Si Si7 0.786307 0.284421 0.325998
Si Si8 0.762108 0.106054 0.828494
O O1 0.557391 0.612168 0.500000
O O2 0.500000 0.634433 0.290432
O O3 0.557833 0.500000 0.272468
O O4 0.579730 0.678125 0.247618
O O5 0.139837 0.500000 0.817422
O O6 0.091010 0.651084 0.777855
O O7 0.172816 0.656295 0.723849
O O8 0.148023 0.641533 0.000000
O O9 0.365411 0.186009 0.234592
O O10 0.286857 0.117107 0.227464
O O11 0.352680 0.000000 0.230517
O O12 0.335243 0.103839 0.000000
O O13 0.956045 0.500000 0.760667
O O14 0.000000 0.655888 0.776484
O O15 0.953007 0.598983 0.000000
O O16 0.715809 0.500000 0.789716
O O17 0.661950 0.639182 0.788607
O O18 0.743072 0.668367 0.733569
O O19 0.719888 0.628639 0.000000
O O20 0.385005 0.287241 0.000000
O O21 0.784578 0.282009 0.500000
O O22 0.790834 0.178672 0.264008
O O23 0.778428 0.000000 0.798925
O O24 0.765938 0.131002 0.000000
#
# Coordination Sequence:
#
# PCOD8194329 Si02
#       8
#     8   8   8   8   8   8   8   8
#     4   9  19  35  51  67  92 125 154 181 220 271
#     4   9  17  29  45  63  87 124 164 197 230 273
#     4   8  14  27  49  73  93 113 140 179 226 272
#     4   7  10  19  38  63  85 106 143 197 245 275
#     4  10  20  33  47  64  90 123 158 194 228 266
#     4  10  18  30  51  75  94 112 146 193 230 263
#     4  12  23  31  42  63  95 128 156 190 227 269
#     4   9  17  33  55  70  84 114 154 192 231 275
#
# _framework density 15.880101
#
# number of rings (size 3 to 8) (size 9 to 14) (size 15 to 20)
#    0.000    2.750    1.250    4.125    0.000    3.750 
#    0.000    0.625    0.000    1.125    0.000    4.375 
#    0.000    0.500    0.000    5.750    0.000    1.875 
#
# Total GULP energy -793034.035742 kJ/mol
# GULP energy per Si atom -12391.156808 kJ/mol
# Density = 1.584396 g / cm^3
# Si number density = 15.880101 Si / 1000 Ang^3
#
#
#
# Elastic Constant Matrix: (Units=GPa)
#
#
# Indices 1 2 3 4 5 6 
#
# 1 87.9396 34.7479 36.1112 0.0000 0.0000 0.0000
# 2 34.7479 82.5098 34.5262 0.0000 0.0000 0.0000
# 3 36.1112 34.5262 55.3169 0.0000 0.0000 0.0000
# 4 0.0000 0.0000 0.0000 13.7565 0.0000 0.0000
# 5 0.0000 0.0000 0.0000 0.0000 1.2482 0.0000
# 6 0.0000 0.0000 0.0000 0.0000 0.0000 5.0705
#
#
#
# Elastic Compliance Matrix: (Units=1/GPa)
#
#
# Indices 1 2 3 4 5 6 
#
# 1 0.016150 -0.003234 -0.008524 0.000000 0.000000 0.000000
# 2 -0.003234 0.017052 -0.008532 0.000000 0.000000 0.000000
# 3 -0.008524 -0.008532 0.028967 0.000000 0.000000 0.000000
# 4 0.000000 0.000000 0.000000 0.072693 0.000000 0.000000
# 5 0.000000 0.000000 0.000000 0.000000 0.801156 0.000000
# 6 0.000000 0.000000 0.000000 0.000000 0.000000 0.197218
#
#
# Mechanical properties :
#
#
# Convention : Reuss Voigt Hill
#
# Bulk Modulus (GPa) = 46.31984 48.50414 47.41199
# Shear Modulus (GPa) = 4.23366 12.04045 8.13706
#
# Velocity S-wave (km/s) = 1.63457 2.75655 2.26609
# Velocity P-wave (km/s) = 5.72662 6.38292 6.06366
#
# Compressibility (1/GPa) = 0.02158902
#
# Stress axis : x y z
#
# Youngs Moduli (GPa) = 61.92080 58.64437 34.52197
#
# Poissons Ratio (x) = 0.18968 0.29426
# Poissons Ratio (y) = 0.20028 0.29453
# Poissons Ratio (z) = 0.52780 0.50033
#
# Static dielectric constant tensor:
#      x y z
#    x 3.190140 0.000000 0.000000 
#    y 0.000000 3.160930 0.000000 
#    z 0.000000 0.000000 2.718280 
# 
# 
# High freq. dielectric constant tensor:
#      x y z
#    x 1.604640 0.000000 0.000000 
#    y 0.000000 1.594270 0.000000 
#    z 0.000000 0.000000 1.580720 
# 
# From -- ./inp_files/14349.got.cif
#   From: 2010.03.12/outbox.cif.g09.slc.cpg/sg47_8_cif.got.tgz:14349.got - 2010.04.14 03:12:58.
