data_PCOD8194471
_publ_section_title
;
Structure prediction by ZEFSAII (Michael W. Deem and Ramdas Pophale) SiO2 
 PCOD8194471
Probable space group: P M M M
;
_chemical_formula_sum "Si O2"
_cell_formula_units_Z 48
_cell_length_a 9.011424
_cell_length_b 14.273947
_cell_length_c 20.727417
_cell_angle_alpha 90.000000
_cell_angle_beta 90.000000
_cell_angle_gamma 90.000000
_cell_volume 2666.138393
_symmetry_space_group_name_H-M "P M M M"
_symmetry_group_IT_number 47
_symmetry_cell_setting 'orthorhombic'
loop_
_space_group_symop_operation_xyz
x,y,z
-x,-y,z
x,-y,-z
-x,y,-z
-x,-y,-z
x,y,-z
-x,y,z
x,-y,z
loop_
_atom_site_type_symbol
_atom_site_label
_atom_site_fract_x
_atom_site_fract_y
_atom_site_fract_z
Si Si1 0.675497 0.107462 0.752364
Si Si2 0.324128 0.397983 0.572649
Si Si3 0.175868 0.207458 0.871835
Si Si4 0.324039 0.797244 0.620585
Si Si5 0.823958 0.602496 0.072291
Si Si6 0.823817 0.104443 0.000000
Si Si7 0.168827 0.110669 0.500000
O O1 0.500000 0.112739 0.758961
O O2 0.746622 0.162315 0.811075
O O3 0.730608 0.158197 0.687438
O O4 0.730551 0.000000 0.751816
O O5 0.264750 0.379918 0.500000
O O6 0.500000 0.400709 0.570983
O O7 0.265100 0.500000 0.597713
O O8 0.271896 0.312122 0.618065
O O9 0.227959 0.316071 0.878728
O O10 0.233493 0.155752 0.936020
O O11 0.000000 0.197693 0.863503
O O12 0.500000 0.806302 0.612576
O O13 0.250341 0.853680 0.563275
O O14 0.770143 0.500000 0.097358
O O15 0.000000 0.605281 0.067901
O O16 0.761346 0.620561 0.000000
O O17 0.000000 0.104015 0.000000
O O18 0.758255 0.000000 0.000000
O O19 0.000000 0.146848 0.500000
O O20 0.176768 0.000000 0.500000
#
# Coordination Sequence:
#
# PCOD8194471 Si02
#       7
#     8   8   8   8   8   4   4
#     4  10  22  37  50  69 102 140 174 209 251 299
#     4   8  13  24  48  81 105 120 153 206 250 284
#     4  10  18  31  52  76  99 129 169 210 254 302
#     4  10  19  35  57  76  97 134 177 208 240 295
#     4   8  13  24  46  76 104 127 159 207 257 302
#     4   9  16  26  44  72  98 119 159 215 252 283
#     4  11  23  35  50  77 108 130 159 213 268 303
#
# _framework density 18.003565999999999
#
# number of rings (size 3 to 8) (size 9 to 14) (size 15 to 20)
#    0.000    2.667    1.667    2.250    0.000    3.000 
#    0.000    1.250    0.000    4.000    0.000    1.167 
#    0.000    0.000    0.000    0.000    0.000    0.000 
#
# Total GULP energy -594874.826827 kJ/mol
# GULP energy per Si atom -12393.225559 kJ/mol
# Density = 1.796259 g / cm^3
# Si number density = 18.003566 Si / 1000 Ang^3
#
#
#
# Elastic Constant Matrix: (Units=GPa)
#
#
# Indices 1 2 3 4 5 6 
#
# 1 16.1040 22.6164 28.3207 0.0000 0.0000 0.0000
# 2 22.6164 183.9917 93.3801 0.0000 0.0000 0.0000
# 3 28.3207 93.3801 150.1193 0.0000 0.0000 0.0000
# 4 0.0000 0.0000 0.0000 32.5037 0.0000 0.0000
# 5 0.0000 0.0000 0.0000 0.0000 21.3694 0.0000
# 6 0.0000 0.0000 0.0000 0.0000 0.0000 16.3657
#
#
#
# Elastic Compliance Matrix: (Units=1/GPa)
#
#
# Indices 1 2 3 4 5 6 
#
# 1 0.094673 -0.003760 -0.015522 0.000000 0.000000 0.000000
# 2 -0.003760 0.008092 -0.004324 0.000000 0.000000 0.000000
# 3 -0.015522 -0.004324 0.012279 0.000000 0.000000 0.000000
# 4 0.000000 0.000000 0.000000 0.030766 0.000000 0.000000
# 5 0.000000 0.000000 0.000000 0.000000 0.046796 0.000000
# 6 0.000000 0.000000 0.000000 0.000000 0.000000 0.061103
#
#
# Mechanical properties :
#
#
# Convention : Reuss Voigt Hill
#
# Bulk Modulus (GPa) = 14.74204 70.98329 42.86267
# Shear Modulus (GPa) = 15.45441 27.77426 21.61434
#
# Velocity S-wave (km/s) = 2.93304 3.93199 3.46867
# Velocity P-wave (km/s) = 4.43582 7.75416 6.31678
#
# Compressibility (1/GPa) = 0.06783323
#
# Stress axis : x y z
#
# Youngs Moduli (GPa) = 10.56263 123.58254 81.43692
#
# Poissons Ratio (x) = 0.46462 1.26406
# Poissons Ratio (y) = 0.03971 0.35214
# Poissons Ratio (z) = 0.16395 0.53439
#
# Static dielectric constant tensor:
#      x y z
#    x 2.885070 0.000000 0.000000 
#    y 0.000000 3.996520 0.000000 
#    z 0.000000 0.000000 3.368500 
# 
# 
# High freq. dielectric constant tensor:
#      x y z
#    x 1.646160 0.000000 0.000000 
#    y 0.000000 1.723700 0.000000 
#    z 0.000000 0.000000 1.682610 
# 
# From -- ./inp_files/26501.got.cif
#   From: 2010.03.12/outbox.cif.g09.slc.cpg/sg47_14_cif.got.tgz:26501.got - 2010.04.14 03:12:58.
