data_PCOD8194177
_publ_section_title
;
Structure prediction by ZEFSAII (Michael W. Deem and Ramdas Pophale) SiO2 
 PCOD8194177
Probable space group: P M M M
;
_chemical_formula_sum "Si O2"
_cell_formula_units_Z 52
_cell_length_a 10.456567
_cell_length_b 20.095664
_cell_length_c 14.371274
_cell_angle_alpha 90.000000
_cell_angle_beta 90.000000
_cell_angle_gamma 90.000000
_cell_volume 3019.859619
_symmetry_space_group_name_H-M "P M M M"
_symmetry_group_IT_number 47
_symmetry_cell_setting 'orthorhombic'
loop_
_space_group_symop_operation_xyz
x,y,z
-x,-y,z
x,-y,-z
-x,y,-z
-x,-y,-z
x,y,-z
-x,y,z
x,-y,z
loop_
_atom_site_type_symbol
_atom_site_label
_atom_site_fract_x
_atom_site_fract_y
_atom_site_fract_z
Si Si1 0.854202 0.721906 0.897961
Si Si2 0.151803 0.803869 0.395372
Si Si3 0.144720 0.072945 0.282127
Si Si4 0.500000 0.073696 0.890115
Si Si5 0.850662 0.667708 0.704319
Si Si6 0.237742 0.134036 0.106142
Si Si7 0.355849 0.578155 0.607196
O O1 0.828198 0.669319 0.815948
O O2 0.767893 0.786692 0.884537
O O3 0.000000 0.747251 0.891564
O O4 0.827473 0.689192 0.000000
O O5 0.206429 0.799342 0.500000
O O6 0.211049 0.869659 0.345566
O O7 0.191841 0.738111 0.339104
O O8 0.000000 0.808942 0.395624
O O9 0.141140 0.096026 0.174330
O O10 0.000000 0.065418 0.315441
O O11 0.211741 0.000000 0.293732
O O12 0.622834 0.114032 0.856681
O O13 0.500000 0.000000 0.845491
O O14 0.500000 0.067983 0.000000
O O15 0.755868 0.611825 0.666696
O O16 0.000000 0.651134 0.680856
O O17 0.210172 0.111191 0.000000
O O18 0.334296 0.597381 0.500000
O O19 0.500000 0.600283 0.637708
O O20 0.341213 0.500000 0.622100
#
# Coordination Sequence:
#
# PCOD8194177 Si02
#       7
#     8   8   8   4   8   8   8
#     4   9  17  30  49  72 100 132 163 202 254 304
#     4   9  17  29  44  64  92 124 157 197 244 287
#     4  10  19  29  42  63  89 117 155 199 243 296
#     4   9  18  30  42  58  83 117 156 201 255 309
#     4  10  18  31  53  79 105 133 170 214 253 295
#     4  10  18  30  46  62  86 120 157 200 250 304
#     4   9  19  36  56  80 112 143 167 199 248 301
#
# _framework density 17.219342999999999
#
# number of rings (size 3 to 8) (size 9 to 14) (size 15 to 20)
#    0.000    2.538    1.538    1.846    0.000    3.385 
#    1.385    3.077    0.000    0.462    0.000    3.231 
#    0.000    1.846    0.000    0.000    0.000    0.000 
#
# Total GULP energy -644413.170757 kJ/mol
# GULP energy per Si atom -12392.560976 kJ/mol
# Density = 1.718015 g / cm^3
# Si number density = 17.219343 Si / 1000 Ang^3
#
#
#
# Elastic Constant Matrix: (Units=GPa)
#
#
# Indices 1 2 3 4 5 6 
#
# 1 67.9728 39.4563 34.8311 0.0000 0.0000 0.0000
# 2 39.4563 71.1117 46.2638 0.0000 0.0000 0.0000
# 3 34.8311 46.2638 112.7933 0.0000 0.0000 0.0000
# 4 0.0000 0.0000 0.0000 26.3953 0.0000 0.0000
# 5 0.0000 0.0000 0.0000 0.0000 12.3454 0.0000
# 6 0.0000 0.0000 0.0000 0.0000 0.0000 24.7734
#
#
#
# Elastic Compliance Matrix: (Units=1/GPa)
#
#
# Indices 1 2 3 4 5 6 
#
# 1 0.022190 -0.010713 -0.002458 0.000000 0.000000 0.000000
# 2 -0.010713 0.024352 -0.006680 0.000000 0.000000 0.000000
# 3 -0.002458 -0.006680 0.012365 0.000000 0.000000 0.000000
# 4 0.000000 0.000000 0.000000 0.037886 0.000000 0.000000
# 5 0.000000 0.000000 0.000000 0.000000 0.081002 0.000000
# 6 0.000000 0.000000 0.000000 0.000000 0.000000 0.040366
#
#
# Mechanical properties :
#
#
# Convention : Reuss Voigt Hill
#
# Bulk Modulus (GPa) = 52.07127 54.77556 53.42342
# Shear Modulus (GPa) = 18.92041 21.45792 20.18917
#
# Velocity S-wave (km/s) = 3.31839 3.53392 3.42785
# Velocity P-wave (km/s) = 6.70731 6.96642 6.83809
#
# Compressibility (1/GPa) = 0.01920445
#
# Stress axis : x y z
#
# Youngs Moduli (GPa) = 45.06548 41.06365 80.87350
#
# Poissons Ratio (x) = 0.43990 0.19882
# Poissons Ratio (y) = 0.48277 0.54027
# Poissons Ratio (z) = 0.11079 0.27432
#
# Static dielectric constant tensor:
#      x y z
#    x 3.102490 0.000000 0.000000 
#    y 0.000000 3.088420 0.000000 
#    z 0.000000 0.000000 3.375610 
# 
# 
# High freq. dielectric constant tensor:
#      x y z
#    x 1.633290 0.000000 0.000000 
#    y 0.000000 1.647400 0.000000 
#    z 0.000000 0.000000 1.664300 
# 
# From -- ./inp_files/17779.got.cif
#   From: 2010.03.12/outbox.cif.g09.slc.cpg/sg47_9_cif.got.tgz:17779.got - 2010.04.14 03:12:58.
