data_PCOD8194886
_publ_section_title
;
Structure prediction by ZEFSAII (Michael W. Deem and Ramdas Pophale) SiO2 
 PCOD8194886
Probable space group: P M M M
;
_chemical_formula_sum "Si O2"
_cell_formula_units_Z 64
_cell_length_a 8.902512
_cell_length_b 22.961015
_cell_length_c 18.278956
_cell_angle_alpha 90.000000
_cell_angle_beta 90.000000
_cell_angle_gamma 90.000000
_cell_volume 3736.414403
_symmetry_space_group_name_H-M "P M M M"
_symmetry_group_IT_number 47
_symmetry_cell_setting 'orthorhombic'
loop_
_space_group_symop_operation_xyz
x,y,z
-x,-y,z
x,-y,-z
-x,y,-z
-x,-y,-z
x,y,-z
-x,y,z
x,-y,z
loop_
_atom_site_type_symbol
_atom_site_label
_atom_site_fract_x
_atom_site_fract_y
_atom_site_fract_z
Si Si1 0.174524 0.158621 0.687341
Si Si2 0.167098 0.563860 0.729814
Si Si3 0.667246 0.763378 0.582226
Si Si4 0.827892 0.683740 0.917576
Si Si5 0.324039 0.565652 0.120786
Si Si6 0.673275 0.244118 0.208422
Si Si7 0.676360 0.932752 0.583045
Si Si8 0.664870 0.340425 0.667174
O O1 0.198213 0.207574 0.626094
O O2 0.250979 0.183368 0.762519
O O3 0.245127 0.100708 0.650724
O O4 0.000000 0.147943 0.703295
O O5 0.175961 0.500000 0.694661
O O6 0.287462 0.571335 0.793839
O O7 0.210053 0.609585 0.667244
O O8 0.000000 0.576451 0.760114
O O9 0.684290 0.783160 0.500000
O O10 0.500000 0.782418 0.611908
O O11 0.680420 0.693564 0.590376
O O12 0.759820 0.618185 0.919454
O O13 0.746890 0.730595 0.865530
O O14 0.000000 0.678721 0.892112
O O15 0.814750 0.708119 0.000000
O O16 0.500000 0.574336 0.108416
O O17 0.275756 0.500000 0.093559
O O18 0.500000 0.230570 0.191746
O O19 0.693576 0.293713 0.268910
O O20 0.727461 0.913572 0.500000
O O21 0.500000 0.921577 0.589819
O O22 0.716952 0.000000 0.594106
O O23 0.500000 0.368616 0.675406
#
# Coordination Sequence:
#
# PCOD8194886 Si02
#       8
#     8   8   8   8   8   8   8   8
#     4  11  21  31  48  74 104 135 167 208 250 288
#     4  10  19  29  44  65  87 112 144 187 239 291
#     4   9  18  32  48  66  91 123 159 198 240 288
#     4  11  23  36  51  72  99 128 157 198 254 307
#     4  10  20  33  49  68  91 122 160 198 236 289
#     4  10  20  35  53  71  93 125 166 205 240 288
#     4   9  18  33  52  74 105 147 188 219 248 287
#     4   9  17  29  47  68  86 110 147 193 239 284
#
# _framework density 17.128720999999999
#
# number of rings (size 3 to 8) (size 9 to 14) (size 15 to 20)
#    0.000    2.125    1.250    4.125    0.000    7.000 
#    0.000    1.875    0.000    0.375    0.000    2.625 
#    0.000    0.500    0.000    5.250    0.000    2.250 
#
# Total GULP energy -792871.005017 kJ/mol
# GULP energy per Si atom -12388.609453 kJ/mol
# Density = 1.708974 g / cm^3
# Si number density = 17.128721 Si / 1000 Ang^3
#
#
#
# Elastic Constant Matrix: (Units=GPa)
#
#
# Indices 1 2 3 4 5 6 
#
# 1 97.3937 46.3106 33.1171 0.0000 0.0000 0.0000
# 2 46.3106 92.5927 43.9035 0.0000 0.0000 0.0000
# 3 33.1171 43.9035 56.3177 0.0000 0.0000 0.0000
# 4 0.0000 0.0000 0.0000 21.2824 0.0000 0.0000
# 5 0.0000 0.0000 0.0000 0.0000 20.9999 0.0000
# 6 0.0000 0.0000 0.0000 0.0000 0.0000 22.3790
#
#
#
# Elastic Compliance Matrix: (Units=1/GPa)
#
#
# Indices 1 2 3 4 5 6 
#
# 1 0.014139 -0.004965 -0.004444 0.000000 0.000000 0.000000
# 2 -0.004965 0.018876 -0.011796 0.000000 0.000000 0.000000
# 3 -0.004444 -0.011796 0.029565 0.000000 0.000000 0.000000
# 4 0.000000 0.000000 0.000000 0.046987 0.000000 0.000000
# 5 0.000000 0.000000 0.000000 0.000000 0.047619 0.000000
# 6 0.000000 0.000000 0.000000 0.000000 0.000000 0.044685
#
#
# Mechanical properties :
#
#
# Convention : Reuss Voigt Hill
#
# Bulk Modulus (GPa) = 49.57475 54.77405 52.17440
# Shear Modulus (GPa) = 19.91985 21.13044 20.52515
#
# Velocity S-wave (km/s) = 3.41391 3.51611 3.46539
# Velocity P-wave (km/s) = 6.67420 6.96645 6.82189
#
# Compressibility (1/GPa) = 0.02017156
#
# Stress axis : x y z
#
# Youngs Moduli (GPa) = 70.72388 52.97698 33.82321
#
# Poissons Ratio (x) = 0.26301 0.15032
# Poissons Ratio (y) = 0.35112 0.39897
# Poissons Ratio (z) = 0.31432 0.62491
#
# Static dielectric constant tensor:
#      x y z
#    x 3.227780 0.000000 0.000000 
#    y 0.000000 3.266050 0.000000 
#    z 0.000000 0.000000 3.067330 
# 
# 
# High freq. dielectric constant tensor:
#      x y z
#    x 1.666660 0.000000 0.000000 
#    y 0.000000 1.644980 0.000000 
#    z 0.000000 0.000000 1.628860 
# 
# From -- ./inp_files/27123.got.cif
#   From: 2010.03.12/outbox.cif.g09.slc.cpg/sg47_14_cif.got.tgz:27123.got - 2010.04.14 03:12:58.
