data_PCOD8194245
_publ_section_title
;
Structure prediction by ZEFSAII (Michael W. Deem and Ramdas Pophale) SiO2 
 PCOD8194245
Probable space group: P M M M
;
_chemical_formula_sum "Si O2"
_cell_formula_units_Z 40
_cell_length_a 23.241136
_cell_length_b 9.128405
_cell_length_c 11.763817
_cell_angle_alpha 90.000000
_cell_angle_beta 90.000000
_cell_angle_gamma 90.000000
_cell_volume 2495.746738
_symmetry_space_group_name_H-M "P M M M"
_symmetry_group_IT_number 47
_symmetry_cell_setting 'orthorhombic'
loop_
_space_group_symop_operation_xyz
x,y,z
-x,-y,z
x,-y,-z
-x,y,-z
-x,-y,-z
x,y,-z
-x,y,z
x,-y,z
loop_
_atom_site_type_symbol
_atom_site_label
_atom_site_fract_x
_atom_site_fract_y
_atom_site_fract_z
Si Si1 0.888463 0.673677 0.240026
Si Si2 0.671935 0.336541 0.365152
Si Si3 0.786479 0.172834 0.631332
Si Si4 0.000000 0.673881 0.373671
Si Si5 0.436583 0.164569 0.635183
Si Si6 0.935287 0.673041 0.000000
O O1 0.879136 0.500000 0.252503
O O2 0.833542 0.756551 0.287468
O O3 0.943442 0.729853 0.310142
O O4 0.899110 0.722084 0.110028
O O5 0.667516 0.341831 0.500000
O O6 0.679892 0.500000 0.315582
O O7 0.725403 0.236502 0.328363
O O8 0.613095 0.268585 0.313719
O O9 0.799359 0.214579 0.500000
O O10 0.785353 0.000000 0.648545
O O11 0.000000 0.500000 0.375592
O O12 0.000000 0.740230 0.500000
O O13 0.432738 0.163475 0.500000
O O14 0.500000 0.221367 0.673156
O O15 0.426709 0.000000 0.680836
O O16 0.942918 0.500000 0.000000
O O17 0.000000 0.741403 0.000000
#
# Coordination Sequence:
#
# PCOD8194245 Si02
#       6
#     8   8   8   4   8   4
#     4  10  18  30  49  69  89 112 143 180 217 262
#     4   9  16  25  38  56  78 107 145 186 223 259
#     4  10  20  32  44  60  86 118 149 182 224 271
#     4   9  16  25  42  68  91 111 138 173 210 250
#     4   8  13  21  33  50  75 109 146 180 215 256
#     4   9  16  30  51  73  91 111 140 177 220 265
#
# _framework density 16.027267999999999
#
# number of rings (size 3 to 8) (size 9 to 14) (size 15 to 20)
#    0.000    2.800    1.000    2.400    0.000    4.800 
#    0.000    3.000    0.000    2.400    0.000    0.000 
#    0.000    0.000    0.000    0.900    0.000   17.800 
#
# Total GULP energy -495827.865750 kJ/mol
# GULP energy per Si atom -12395.696644 kJ/mol
# Density = 1.599079 g / cm^3
# Si number density = 16.027268 Si / 1000 Ang^3
#
#
#
# Elastic Constant Matrix: (Units=GPa)
#
#
# Indices 1 2 3 4 5 6 
#
# 1 157.3153 61.4617 52.4794 0.0000 0.0000 0.0000
# 2 61.4617 73.9844 29.7651 0.0000 0.0000 0.0000
# 3 52.4794 29.7651 76.1170 0.0000 0.0000 0.0000
# 4 0.0000 0.0000 0.0000 10.8625 0.0000 0.0000
# 5 0.0000 0.0000 0.0000 0.0000 0.1816 0.0000
# 6 0.0000 0.0000 0.0000 0.0000 0.0000 15.2030
#
#
#
# Elastic Compliance Matrix: (Units=1/GPa)
#
#
# Indices 1 2 3 4 5 6 
#
# 1 0.010610 -0.006967 -0.004591 0.000000 0.000000 0.000000
# 2 -0.006967 0.020615 -0.003258 0.000000 0.000000 0.000000
# 3 -0.004591 -0.003258 0.017577 0.000000 0.000000 0.000000
# 4 0.000000 0.000000 0.000000 0.092060 0.000000 0.000000
# 5 0.000000 0.000000 0.000000 0.000000 5.507140 0.000000
# 6 0.000000 0.000000 0.000000 0.000000 0.000000 0.065776
#
#
# Mechanical properties :
#
#
# Convention : Reuss Voigt Hill
#
# Bulk Modulus (GPa) = 52.16386 66.09210 59.12798
# Shear Modulus (GPa) = 0.86960 16.16344 8.51652
#
# Velocity S-wave (km/s) = 0.73739 3.17913 2.30766
# Velocity P-wave (km/s) = 5.77431 7.40288 6.63872
#
# Compressibility (1/GPa) = 0.01917036
#
# Stress axis : x y z
#
# Youngs Moduli (GPa) = 94.24902 48.50826 56.89357
#
# Poissons Ratio (x) = 0.33798 0.26118
# Poissons Ratio (y) = 0.65667 0.18534
# Poissons Ratio (z) = 0.43267 0.15802
#
# Static dielectric constant tensor:
#      x y z
#    x 3.264020 0.000000 0.000000 
#    y 0.000000 2.972780 0.000000 
#    z 0.000000 0.000000 2.742980 
# 
# 
# High freq. dielectric constant tensor:
#      x y z
#    x 1.630300 0.000000 0.000000 
#    y 0.000000 1.602730 0.000000 
#    z 0.000000 0.000000 1.556800 
# 
# From -- ./inp_files/18948.got.cif
#   From: 2010.03.12/outbox.cif.g09.slc.cpg/sg47_10_cif.got.tgz:18948.got - 2010.04.14 03:12:58.
