data_PCOD8194849
_publ_section_title
;
Structure prediction by ZEFSAII (Michael W. Deem and Ramdas Pophale) SiO2 
 PCOD8194849
Probable space group: P M M M
;
_chemical_formula_sum "Si O2"
_cell_formula_units_Z 56
_cell_length_a 29.107287
_cell_length_b 9.128448
_cell_length_c 13.680904
_cell_angle_alpha 90.000000
_cell_angle_beta 90.000000
_cell_angle_gamma 90.000000
_cell_volume 3635.075784
_symmetry_space_group_name_H-M "P M M M"
_symmetry_group_IT_number 47
_symmetry_cell_setting 'orthorhombic'
loop_
_space_group_symop_operation_xyz
x,y,z
-x,-y,z
x,-y,-z
-x,y,-z
-x,-y,-z
x,y,-z
-x,y,z
x,-y,z
loop_
_atom_site_type_symbol
_atom_site_label
_atom_site_fract_x
_atom_site_fract_y
_atom_site_fract_z
Si Si1 0.911106 0.334735 0.616410
Si Si2 0.000000 0.834518 0.383363
Si Si3 0.355174 0.671129 0.389852
Si Si4 0.821309 0.830056 0.612265
Si Si5 0.726634 0.172605 0.288020
Si Si6 0.313522 0.327780 0.111158
Si Si7 0.592396 0.671758 0.203795
Si Si8 0.500000 0.675245 0.888385
O O1 0.912025 0.331012 0.500000
O O2 0.913290 0.500000 0.656196
O O3 0.954947 0.247179 0.657806
O O4 0.864378 0.260171 0.654358
O O5 0.000000 0.832620 0.500000
O O6 0.000000 0.000000 0.343601
O O7 0.370842 0.708344 0.500000
O O8 0.343478 0.500000 0.376988
O O9 0.309519 0.759957 0.364036
O O10 0.396600 0.715786 0.316383
O O11 0.810929 0.789017 0.500000
O O12 0.777242 0.786884 0.675545
O O13 0.833724 0.000000 0.622131
O O14 0.721524 0.240786 0.180217
O O15 0.718510 0.000000 0.283994
O O16 0.308089 0.500000 0.131438
O O17 0.365445 0.276598 0.135533
O O18 0.301988 0.287023 0.000000
O O19 0.586482 0.500000 0.193502
O O20 0.544769 0.742558 0.166464
O O21 0.500000 0.500000 0.884885
O O22 0.500000 0.730014 0.000000
#
# Coordination Sequence:
#
# PCOD8194849 Si02
#       8
#     8   4   8   8   8   8   8   4
#     4   9  16  24  35  52  73  99 135 176 210 241
#     4   9  15  23  35  49  69 101 138 173 210 249
#     4   9  17  29  43  58  80 110 140 170 205 246
#     4   9  17  28  39  53  77 107 136 167 206 248
#     4  10  19  29  43  63  84 106 136 174 210 246
#     4   9  17  30  46  62  83 110 136 164 202 249
#     4   8  14  24  38  59  84 107 133 164 201 247
#     4   9  14  20  35  59  84 107 131 165 210 255
#
# _framework density 15.405455
#
# number of rings (size 3 to 8) (size 9 to 14) (size 15 to 20)
#    0.000    3.000    0.000    2.786    0.000    6.571 
#    0.000    1.786    0.000    2.143    0.000    8.000 
#    0.000   18.286    0.000    0.643    0.000   12.071 
#
# Total GULP energy -694210.707726 kJ/mol
# GULP energy per Si atom -12396.619781 kJ/mol
# Density = 1.537039 g / cm^3
# Si number density = 15.405455 Si / 1000 Ang^3
#
#
#
# Elastic Constant Matrix: (Units=GPa)
#
#
# Indices 1 2 3 4 5 6 
#
# 1 140.1314 57.0821 58.4908 0.0000 0.0000 0.0000
# 2 57.0821 65.0513 33.9258 0.0000 0.0000 0.0000
# 3 58.4908 33.9258 97.4486 0.0000 0.0000 0.0000
# 4 0.0000 0.0000 0.0000 14.8944 0.0000 0.0000
# 5 0.0000 0.0000 0.0000 0.0000 14.8542 0.0000
# 6 0.0000 0.0000 0.0000 0.0000 0.0000 15.0649
#
#
#
# Elastic Compliance Matrix: (Units=1/GPa)
#
#
# Indices 1 2 3 4 5 6 
#
# 1 0.012547 -0.008654 -0.004518 0.000000 0.000000 0.000000
# 2 -0.008654 0.024751 -0.003423 0.000000 0.000000 0.000000
# 3 -0.004518 -0.003423 0.014165 0.000000 0.000000 0.000000
# 4 0.000000 0.000000 0.000000 0.067139 0.000000 0.000000
# 5 0.000000 0.000000 0.000000 0.000000 0.067321 0.000000
# 6 0.000000 0.000000 0.000000 0.000000 0.000000 0.066380
#
#
# Mechanical properties :
#
#
# Convention : Reuss Voigt Hill
#
# Bulk Modulus (GPa) = 54.72221 66.84763 60.78492
# Shear Modulus (GPa) = 17.14769 19.17153 18.15961
#
# Velocity S-wave (km/s) = 3.33992 3.53152 3.43706
# Velocity P-wave (km/s) = 7.10436 7.75340 7.43596
#
# Compressibility (1/GPa) = 0.01827411
#
# Stress axis : x y z
#
# Youngs Moduli (GPa) = 79.69939 40.40238 70.59421
#
# Poissons Ratio (x) = 0.34963 0.31897
# Poissons Ratio (y) = 0.68969 0.24163
# Poissons Ratio (z) = 0.36011 0.13829
#
# Static dielectric constant tensor:
#      x y z
#    x 3.053850 0.000000 0.000000 
#    y 0.000000 2.834210 0.000000 
#    z 0.000000 0.000000 2.854200 
# 
# 
# High freq. dielectric constant tensor:
#      x y z
#    x 1.588700 0.000000 0.000000 
#    y 0.000000 1.577070 0.000000 
#    z 0.000000 0.000000 1.556790 
# 
# From -- ./inp_files/25833.got.cif
#   From: 2010.03.12/outbox.cif.g09.slc.cpg/sg47_13_cif.got.tgz:25833.got - 2010.04.14 03:12:58.
