data_PCOD8194954
_publ_section_title
;
Structure prediction by ZEFSAII (Michael W. Deem and Ramdas Pophale) SiO2 
 PCOD8194954
Probable space group: P M M M
;
_chemical_formula_sum "Si O2"
_cell_formula_units_Z 52
_cell_length_a 9.033203
_cell_length_b 16.030258
_cell_length_c 20.214090
_cell_angle_alpha 90.000000
_cell_angle_beta 90.000000
_cell_angle_gamma 90.000000
_cell_volume 2927.092705
_symmetry_space_group_name_H-M "P M M M"
_symmetry_group_IT_number 47
_symmetry_cell_setting 'orthorhombic'
loop_
_space_group_symop_operation_xyz
x,y,z
-x,-y,z
x,-y,-z
-x,y,-z
-x,-y,-z
x,y,-z
-x,y,z
x,-y,z
loop_
_atom_site_type_symbol
_atom_site_label
_atom_site_fract_x
_atom_site_fract_y
_atom_site_fract_z
Si Si1 0.333260 0.198083 0.192816
Si Si2 0.176157 0.762973 0.327761
Si Si3 0.336988 0.383330 0.834978
Si Si4 0.324078 0.094428 0.072046
Si Si5 0.824293 0.907148 0.425581
Si Si6 0.325945 0.407187 0.685721
Si Si7 0.173675 0.500000 0.926740
O O1 0.500000 0.169631 0.213819
O O2 0.230367 0.204068 0.256875
O O3 0.342630 0.285415 0.155824
O O4 0.258004 0.139500 0.137011
O O5 0.235722 0.832303 0.379562
O O6 0.240192 0.671057 0.347779
O O7 0.000000 0.756132 0.327545
O O8 0.500000 0.422036 0.845901
O O9 0.279802 0.408542 0.762328
O O10 0.225531 0.417658 0.889082
O O11 0.500000 0.101219 0.076042
O O12 0.269647 0.000000 0.076366
O O13 0.272123 0.131069 0.000000
O O14 0.766080 0.891125 0.500000
O O15 0.000000 0.905444 0.424579
O O16 0.771068 0.000000 0.401673
O O17 0.500000 0.388931 0.677914
O O18 0.286232 0.500000 0.655944
O O19 0.000000 0.500000 0.929986
O O20 0.242430 0.500000 0.000000
#
# Coordination Sequence:
#
# PCOD8194954 Si02
#       7
#     8   8   8   8   8   8   4
#     4   9  18  31  47  68  95 124 153 191 242 291
#     4  10  19  29  47  78 104 123 160 208 247 286
#     4   9  17  31  47  62  81 112 155 191 221 273
#     4   8  14  26  45  67  88 114 155 202 239 275
#     4   8  15  30  51  73 101 139 175 203 236 282
#     4   9  17  32  52  70  93 126 160 194 238 290
#     4  11  23  33  41  59  87 115 144 187 244 291
#
# _framework density 17.765069
#
# number of rings (size 3 to 8) (size 9 to 14) (size 15 to 20)
#    0.000    3.000    0.769    2.538    0.000    4.615 
#    0.000    1.538    0.000    4.154    0.000    8.615 
#    0.000    0.000    0.000    0.000    0.000    0.000 
#
# Total GULP energy -644192.845573 kJ/mol
# GULP energy per Si atom -12388.323953 kJ/mol
# Density = 1.772463 g / cm^3
# Si number density = 17.765069 Si / 1000 Ang^3
#
#
#
# Elastic Constant Matrix: (Units=GPa)
#
#
# Indices 1 2 3 4 5 6 
#
# 1 42.4424 30.3716 26.5592 0.0000 0.0000 0.0000
# 2 30.3716 135.2094 69.9406 0.0000 0.0000 0.0000
# 3 26.5592 69.9406 85.1766 0.0000 0.0000 0.0000
# 4 0.0000 0.0000 0.0000 18.1755 0.0000 0.0000
# 5 0.0000 0.0000 0.0000 0.0000 10.2767 0.0000
# 6 0.0000 0.0000 0.0000 0.0000 0.0000 20.2993
#
#
#
# Elastic Compliance Matrix: (Units=1/GPa)
#
#
# Indices 1 2 3 4 5 6 
#
# 1 0.030104 -0.003314 -0.006665 0.000000 0.000000 0.000000
# 2 -0.003314 0.013222 -0.009823 0.000000 0.000000 0.000000
# 3 -0.006665 -0.009823 0.021885 0.000000 0.000000 0.000000
# 4 0.000000 0.000000 0.000000 0.055019 0.000000 0.000000
# 5 0.000000 0.000000 0.000000 0.000000 0.097308 0.000000
# 6 0.000000 0.000000 0.000000 0.000000 0.000000 0.049263
#
#
# Mechanical properties :
#
#
# Convention : Reuss Voigt Hill
#
# Bulk Modulus (GPa) = 39.05538 57.39682 48.22610
# Shear Modulus (GPa) = 15.87601 18.81411 17.34506
#
# Velocity S-wave (km/s) = 2.99266 3.25784 3.12806
# Velocity P-wave (km/s) = 5.82868 6.82131 6.34444
#
# Compressibility (1/GPa) = 0.02560467
#
# Stress axis : x y z
#
# Youngs Moduli (GPa) = 33.21815 75.63294 45.69392
#
# Poissons Ratio (x) = 0.25067 0.30457
# Poissons Ratio (y) = 0.11010 0.44886
# Poissons Ratio (z) = 0.22141 0.74296
#
# Static dielectric constant tensor:
#      x y z
#    x 2.943070 0.000000 0.000000 
#    y 0.000000 3.664400 0.000000 
#    z 0.000000 0.000000 3.302730 
# 
# 
# High freq. dielectric constant tensor:
#      x y z
#    x 1.650300 0.000000 0.000000 
#    y 0.000000 1.699150 0.000000 
#    z 0.000000 0.000000 1.666210 
# 
# From -- ./inp_files/26730.got.cif
#   From: 2010.03.12/outbox.cif.g09.slc.cpg/sg47_14_cif.got.tgz:26730.got - 2010.04.14 03:12:58.
