data_PCOD8194830
_publ_section_title
;
Structure prediction by ZEFSAII (Michael W. Deem and Ramdas Pophale) SiO2 
 PCOD8194830
Probable space group: P M M M
;
_chemical_formula_sum "Si O2"
_cell_formula_units_Z 64
_cell_length_a 23.721325
_cell_length_b 9.151263
_cell_length_c 18.908471
_cell_angle_alpha 90.000000
_cell_angle_beta 90.000000
_cell_angle_gamma 90.000000
_cell_volume 4104.652469
_symmetry_space_group_name_H-M "P M M M"
_symmetry_group_IT_number 47
_symmetry_cell_setting 'orthorhombic'
loop_
_space_group_symop_operation_xyz
x,y,z
-x,-y,z
x,-y,-z
-x,y,-z
-x,-y,-z
x,y,-z
-x,y,z
x,-y,z
loop_
_atom_site_type_symbol
_atom_site_label
_atom_site_fract_x
_atom_site_fract_y
_atom_site_fract_z
Si Si1 0.612954 0.173205 0.923716
Si Si2 0.832946 0.170103 0.333060
Si Si3 0.741155 0.169836 0.920172
Si Si4 0.227419 0.328631 0.213245
Si Si5 0.062604 0.173418 0.420999
Si Si6 0.564304 0.828635 0.221199
Si Si7 0.338280 0.328445 0.299733
Si Si8 0.278196 0.831184 0.418858
O O1 0.677019 0.225610 0.913143
O O2 0.575003 0.230003 0.858861
O O3 0.611826 0.000000 0.926376
O O4 0.590333 0.232931 0.000000
O O5 0.821102 0.258881 0.261638
O O6 0.890858 0.233236 0.366322
O O7 0.784539 0.198081 0.390739
O O8 0.837500 0.000000 0.313293
O O9 0.778374 0.262474 0.865302
O O10 0.745837 0.000000 0.900118
O O11 0.763267 0.197292 0.000000
O O12 0.217449 0.500000 0.210075
O O13 0.288707 0.287704 0.244849
O O14 0.073764 0.235540 0.500000
O O15 0.000000 0.220415 0.395311
O O16 0.067674 0.000000 0.424184
O O17 0.500000 0.795885 0.241673
O O18 0.603496 0.743234 0.275449
O O19 0.578400 0.000000 0.226007
O O20 0.347051 0.500000 0.306103
O O21 0.323299 0.265377 0.376587
O O22 0.280372 0.782108 0.500000
O O23 0.294805 0.000000 0.409423
#
# Coordination Sequence:
#
# PCOD8194830 Si02
#       8
#     8   8   8   8   8   8   8   8
#     4   8  14  25  42  64  87 109 136 172 210 248
#     4   9  16  26  43  66  92 121 151 183 217 254
#     4   9  16  27  45  65  85 113 146 179 218 263
#     4  10  19  29  42  62  88 118 150 183 219 257
#     4   8  13  22  39  65  95 124 155 190 222 252
#     4  10  19  30  47  67  85 109 142 178 213 254
#     4  10  20  32  45  62  86 115 142 172 214 262
#     4   9  17  29  47  69  89 110 139 178 219 258
#
# _framework density 15.592063
#
# number of rings (size 3 to 8) (size 9 to 14) (size 15 to 20)
#    0.000    2.875    1.250    2.250    0.000    3.500 
#    0.000    1.250    0.000    2.250    0.000    4.375 
#    0.000    0.500    0.000    5.750    0.000    1.625 
#
# Total GULP energy -793399.665461 kJ/mol
# GULP energy per Si atom -12396.869773 kJ/mol
# Density = 1.555657 g / cm^3
# Si number density = 15.592063 Si / 1000 Ang^3
#
#
#
# Elastic Constant Matrix: (Units=GPa)
#
#
# Indices 1 2 3 4 5 6 
#
# 1 92.7663 37.2411 58.1769 0.0000 0.0000 0.0000
# 2 37.2411 50.7321 47.1857 0.0000 0.0000 0.0000
# 3 58.1769 47.1857 114.3538 0.0000 0.0000 0.0000
# 4 0.0000 0.0000 0.0000 12.6050 0.0000 0.0000
# 5 0.0000 0.0000 0.0000 0.0000 25.9042 0.0000
# 6 0.0000 0.0000 0.0000 0.0000 0.0000 10.8598
#
#
#
# Elastic Compliance Matrix: (Units=1/GPa)
#
#
# Indices 1 2 3 4 5 6 
#
# 1 0.017372 -0.007355 -0.005803 0.000000 0.000000 0.000000
# 2 -0.007355 0.035102 -0.010742 0.000000 0.000000 0.000000
# 3 -0.005803 -0.010742 0.016130 0.000000 0.000000 0.000000
# 4 0.000000 0.000000 0.000000 0.079333 0.000000 0.000000
# 5 0.000000 0.000000 0.000000 0.000000 0.038604 0.000000
# 6 0.000000 0.000000 0.000000 0.000000 0.000000 0.092083
#
#
# Mechanical properties :
#
#
# Convention : Reuss Voigt Hill
#
# Bulk Modulus (GPa) = 48.07017 60.33995 54.20506
# Shear Modulus (GPa) = 14.99894 17.55703 16.27799
#
# Velocity S-wave (km/s) = 3.10491 3.35927 3.23459
# Velocity P-wave (km/s) = 6.61444 7.33685 6.98499
#
# Compressibility (1/GPa) = 0.02080292
#
# Stress axis : x y z
#
# Youngs Moduli (GPa) = 57.56550 28.48869 61.99789
#
# Poissons Ratio (x) = 0.20953 0.35977
# Poissons Ratio (y) = 0.42338 0.66600
# Poissons Ratio (z) = 0.33405 0.30603
#
# Static dielectric constant tensor:
#      x y z
#    x 2.841870 0.000000 0.000000 
#    y 0.000000 2.713010 0.000000 
#    z 0.000000 0.000000 3.119080 
# 
# 
# High freq. dielectric constant tensor:
#      x y z
#    x 1.567850 0.000000 0.000000 
#    y 0.000000 1.574840 0.000000 
#    z 0.000000 0.000000 1.598020 
# 
# From -- ./inp_files/10202.got.cif
#   From: 2010.03.12/outbox.cif.g09.slc.cpg/sg47_6_cif.got.tgz:10202.got - 2010.04.14 03:12:58.
