data_PCOD8194567
_publ_section_title
;
Structure prediction by ZEFSAII (Michael W. Deem and Ramdas Pophale) SiO2 
 PCOD8194567
Probable space group: P M M M
;
_chemical_formula_sum "Si O2"
_cell_formula_units_Z 56
_cell_length_a 14.515983
_cell_length_b 9.147179
_cell_length_c 22.791818
_cell_angle_alpha 90.000000
_cell_angle_beta 90.000000
_cell_angle_gamma 90.000000
_cell_volume 3026.304314
_symmetry_space_group_name_H-M "P M M M"
_symmetry_group_IT_number 47
_symmetry_cell_setting 'orthorhombic'
loop_
_space_group_symop_operation_xyz
x,y,z
-x,-y,z
x,-y,-z
-x,y,-z
-x,-y,-z
x,y,-z
-x,y,z
x,-y,z
loop_
_atom_site_type_symbol
_atom_site_label
_atom_site_fract_x
_atom_site_fract_y
_atom_site_fract_z
Si Si1 0.102884 0.161966 0.233635
Si Si2 0.255957 0.329422 0.826643
Si Si3 0.500000 0.661574 0.931144
Si Si4 0.396920 0.326283 0.500000
Si Si5 0.898064 0.165852 0.372154
Si Si6 0.286149 0.326506 0.612881
Si Si7 0.604650 0.326845 0.726974
Si Si8 0.318364 0.172198 0.933020
O O1 0.164319 0.292307 0.208790
O O2 0.102780 0.176119 0.302743
O O3 0.000000 0.183122 0.208852
O O4 0.139719 0.000000 0.215495
O O5 0.258650 0.500000 0.841639
O O6 0.344428 0.281948 0.787456
O O7 0.245779 0.238086 0.887273
O O8 0.500000 0.500000 0.901068
O O9 0.587843 0.752547 0.911547
O O10 0.500000 0.641432 0.000000
O O11 0.400253 0.500000 0.500000
O O12 0.500000 0.261536 0.500000
O O13 0.345496 0.269923 0.558007
O O14 0.817036 0.267159 0.396704
O O15 0.000000 0.216956 0.394626
O O16 0.880109 0.000000 0.392836
O O17 0.279517 0.500000 0.615155
O O18 0.336324 0.265455 0.671771
O O19 0.500000 0.263203 0.726957
O O20 0.600470 0.500000 0.721257
O O21 0.328315 0.000000 0.926485
O O22 0.291956 0.213984 0.000000
#
# Coordination Sequence:
#
# PCOD8194567 Si02
#       8
#     8   8   4   4   8   8   8   8
#     4   9  18  34  55  77 104 138 173 213 265 325
#     4  11  21  32  52  81 108 136 173 219 269 317
#     4   9  17  31  51  73  97 131 177 224 265 306
#     4   9  18  32  54  81 106 140 185 225 262 309
#     4   9  18  33  53  76 104 139 174 212 265 323
#     4  10  18  32  54  79 105 137 180 225 264 306
#     4   9  18  31  47  72 107 140 170 210 261 313
#     4  10  21  36  52  71 101 142 183 220 260 314
#
# _framework density 18.504418000000001
#
# number of rings (size 3 to 8) (size 9 to 14) (size 15 to 20)
#    0.000    2.429    1.429    2.357    1.000    4.000 
#    0.000    2.143    0.000    6.429    0.000    3.000 
#    0.000    0.000    0.000    0.000    0.000    0.000 
#
# Total GULP energy -694139.285433 kJ/mol
# GULP energy per Si atom -12395.344383 kJ/mol
# Density = 1.846230 g / cm^3
# Si number density = 18.504418 Si / 1000 Ang^3
#
#
#
# Elastic Constant Matrix: (Units=GPa)
#
#
# Indices 1 2 3 4 5 6 
#
# 1 125.9147 34.8495 40.5695 0.0000 0.0000 0.0000
# 2 34.8495 58.7618 34.5935 0.0000 0.0000 0.0000
# 3 40.5695 34.5935 89.3887 0.0000 0.0000 0.0000
# 4 0.0000 0.0000 0.0000 18.7939 0.0000 0.0000
# 5 0.0000 0.0000 0.0000 0.0000 8.3582 0.0000
# 6 0.0000 0.0000 0.0000 0.0000 0.0000 29.6613
#
#
#
# Elastic Compliance Matrix: (Units=1/GPa)
#
#
# Indices 1 2 3 4 5 6 
#
# 1 0.010058 -0.004245 -0.002922 0.000000 0.000000 0.000000
# 2 -0.004245 0.023830 -0.007296 0.000000 0.000000 0.000000
# 3 -0.002922 -0.007296 0.015337 0.000000 0.000000 0.000000
# 4 0.000000 0.000000 0.000000 0.053209 0.000000 0.000000
# 5 0.000000 0.000000 0.000000 0.000000 0.119643 0.000000
# 6 0.000000 0.000000 0.000000 0.000000 0.000000 0.033714
#
#
# Mechanical properties :
#
#
# Convention : Reuss Voigt Hill
#
# Bulk Modulus (GPa) = 49.26181 54.89891 52.08036
# Shear Modulus (GPa) = 17.15359 22.29951 19.72655
#
# Velocity S-wave (km/s) = 3.04797 3.47521 3.26858
# Velocity P-wave (km/s) = 6.25030 6.77017 6.51542
#
# Compressibility (1/GPa) = 0.02029970
#
# Stress axis : x y z
#
# Youngs Moduli (GPa) = 99.42062 41.96316 65.20234
#
# Poissons Ratio (x) = 0.17813 0.19054
# Poissons Ratio (y) = 0.42203 0.47571
# Poissons Ratio (z) = 0.29053 0.30616
#
# Static dielectric constant tensor:
#      x y z
#    x 3.783050 0.000000 0.000000 
#    y 0.000000 3.210470 0.000000 
#    z 0.000000 0.000000 3.351280 
# 
# 
# High freq. dielectric constant tensor:
#      x y z
#    x 1.715520 0.000000 0.000000 
#    y 0.000000 1.695200 0.000000 
#    z 0.000000 0.000000 1.708950 
# 
# From -- ./inp_files/31045.got.cif
#   From: 2010.03.12/outbox.cif.g09.slc.cpg/sg47_16_cif.got.tgz:31045.got - 2010.04.14 03:12:58.
