data_PCOD8194281
_publ_section_title
;
Structure prediction by ZEFSAII (Michael W. Deem and Ramdas Pophale) SiO2 
 PCOD8194281
Probable space group: P M M M
;
_chemical_formula_sum "Si O2"
_cell_formula_units_Z 48
_cell_length_a 13.688652
_cell_length_b 9.350266
_cell_length_c 20.022851
_cell_angle_alpha 90.000000
_cell_angle_beta 90.000000
_cell_angle_gamma 90.000000
_cell_volume 2562.775505
_symmetry_space_group_name_H-M "P M M M"
_symmetry_group_IT_number 47
_symmetry_cell_setting 'orthorhombic'
loop_
_space_group_symop_operation_xyz
x,y,z
-x,-y,z
x,-y,-z
-x,y,-z
-x,-y,-z
x,y,-z
-x,y,z
x,-y,z
loop_
_atom_site_type_symbol
_atom_site_label
_atom_site_fract_x
_atom_site_fract_y
_atom_site_fract_z
Si Si1 0.500000 0.656425 0.357866
Si Si2 0.699435 0.337909 0.576048
Si Si3 0.000000 0.656593 0.422552
Si Si4 0.891435 0.168951 0.199818
Si Si5 0.311436 0.170273 0.859671
Si Si6 0.500000 0.829828 0.224549
Si Si7 0.389840 0.170086 0.000000
Si Si8 0.844272 0.831825 0.350230
O O1 0.500000 0.500000 0.322603
O O2 0.586074 0.670626 0.410376
O O3 0.500000 0.773349 0.299557
O O4 0.721307 0.288886 0.500000
O O5 0.740001 0.500000 0.586890
O O6 0.737802 0.226702 0.632243
O O7 0.093216 0.748327 0.404203
O O8 0.000000 0.500000 0.387318
O O9 0.000000 0.631434 0.500000
O O10 0.796409 0.232170 0.160725
O O11 0.878118 0.211709 0.276647
O O12 0.000000 0.226260 0.176085
O O13 0.891073 0.000000 0.191181
O O14 0.400821 0.224578 0.812827
O O15 0.332263 0.224602 0.934728
O O16 0.308144 0.000000 0.855600
O O17 0.500000 0.000000 0.226057
O O18 0.500000 0.231939 0.000000
O O19 0.395451 0.000000 0.000000
O O20 0.852357 0.000000 0.361102
#
# Coordination Sequence:
#
# PCOD8194281 Si02
#       8
#     4   8   4   8   8   4   4   8
#     4  10  21  36  53  73 101 137 174 214 260 318
#     4  10  21  37  54  72  98 134 173 215 268 324
#     4  11  23  37  53  75 103 134 171 218 270 319
#     4   9  17  30  45  65  96 134 170 204 252 310
#     4   9  16  26  45  71 102 135 166 208 256 303
#     4  10  18  30  49  77 104 129 166 214 268 315
#     4   9  14  24  41  69 105 135 167 205 251 305
#     4  11  21  35  54  76 101 133 173 217 266 316
#
# _framework density 18.729693000000001
#
# number of rings (size 3 to 8) (size 9 to 14) (size 15 to 20)
#    0.000    2.167    1.667    2.500    0.000    6.000 
#    0.000    0.417    0.000    4.000    0.000    1.167 
#    0.000    0.000    0.000    0.750    0.000    0.833 
#
# Total GULP energy -594713.084257 kJ/mol
# GULP energy per Si atom -12389.855922 kJ/mol
# Density = 1.868706 g / cm^3
# Si number density = 18.729693 Si / 1000 Ang^3
#
#
#
# Elastic Constant Matrix: (Units=GPa)
#
#
# Indices 1 2 3 4 5 6 
#
# 1 149.5450 22.9504 51.5725 0.0000 0.0000 0.0000
# 2 22.9504 41.3472 26.3319 0.0000 0.0000 0.0000
# 3 51.5725 26.3319 94.0966 0.0000 0.0000 0.0000
# 4 0.0000 0.0000 0.0000 6.7282 0.0000 0.0000
# 5 0.0000 0.0000 0.0000 0.0000 30.1250 0.0000
# 6 0.0000 0.0000 0.0000 0.0000 0.0000 16.1239
#
#
#
# Elastic Compliance Matrix: (Units=1/GPa)
#
#
# Indices 1 2 3 4 5 6 
#
# 1 0.008393 -0.002104 -0.004011 0.000000 0.000000 0.000000
# 2 -0.002104 0.029958 -0.007230 0.000000 0.000000 0.000000
# 3 -0.004011 -0.007230 0.014849 0.000000 0.000000 0.000000
# 4 0.000000 0.000000 0.000000 0.148629 0.000000 0.000000
# 5 0.000000 0.000000 0.000000 0.000000 0.033195 0.000000
# 6 0.000000 0.000000 0.000000 0.000000 0.000000 0.062020
#
#
# Mechanical properties :
#
#
# Convention : Reuss Voigt Hill
#
# Bulk Modulus (GPa) = 37.72301 54.07761 45.90031
# Shear Modulus (GPa) = 15.03437 22.87101 18.95269
#
# Velocity S-wave (km/s) = 2.83627 3.49823 3.18450
# Velocity P-wave (km/s) = 5.55971 6.72697 6.17100
#
# Compressibility (1/GPa) = 0.02650902
#
# Stress axis : x y z
#
# Youngs Moduli (GPa) = 119.14361 33.38017 67.34383
#
# Poissons Ratio (x) = 0.07024 0.27014
# Poissons Ratio (y) = 0.25070 0.48690
# Poissons Ratio (z) = 0.47792 0.24134
#
# Static dielectric constant tensor:
#      x y z
#    x 21.114390 0.000000 0.000000 
#    y 0.000000 3.042250 0.000000 
#    z 0.000000 0.000000 3.384680 
# 
# 
# High freq. dielectric constant tensor:
#      x y z
#    x 1.749820 0.000000 0.000000 
#    y 0.000000 1.676790 0.000000 
#    z 0.000000 0.000000 1.717690 
# 
# From -- ./inp_files/28072.got.cif
#   From: 2010.03.12/outbox.cif.g09.slc.cpg/sg47_15_cif.got.tgz:28072.got - 2010.04.14 03:12:58.
