data_PCOD8194893
_publ_section_title
;
Structure prediction by ZEFSAII (Michael W. Deem and Ramdas Pophale) SiO2 
 PCOD8194893
Probable space group: P M M M
;
_chemical_formula_sum "Si O2"
_cell_formula_units_Z 56
_cell_length_a 14.315025
_cell_length_b 14.056575
_cell_length_c 17.969140
_cell_angle_alpha 90.000000
_cell_angle_beta 90.000000
_cell_angle_gamma 90.000000
_cell_volume 3615.754350
_symmetry_space_group_name_H-M "P M M M"
_symmetry_group_IT_number 47
_symmetry_cell_setting 'orthorhombic'
loop_
_space_group_symop_operation_xyz
x,y,z
-x,-y,z
x,-y,-z
-x,y,-z
-x,-y,-z
x,y,-z
-x,y,z
x,-y,z
loop_
_atom_site_type_symbol
_atom_site_label
_atom_site_fract_x
_atom_site_fract_y
_atom_site_fract_z
Si Si1 0.201094 0.113693 0.082500
Si Si2 0.388874 0.892664 0.500000
Si Si3 0.286081 0.892336 0.229088
Si Si4 0.103183 0.716184 0.586479
Si Si5 0.610495 0.780810 0.354599
Si Si6 0.000000 0.102969 0.912571
Si Si7 0.715060 0.608377 0.412634
Si Si8 0.895533 0.104921 0.317832
O O1 0.281462 0.142396 0.142674
O O2 0.098390 0.157012 0.105653
O O3 0.190537 0.000000 0.082263
O O4 0.231706 0.149685 0.000000
O O5 0.500000 0.891079 0.500000
O O6 0.351772 0.841004 0.574543
O O7 0.350275 0.000000 0.500000
O O8 0.350001 0.823429 0.278055
O O9 0.177653 0.888237 0.251538
O O10 0.325755 0.000000 0.236582
O O11 0.103639 0.736032 0.500000
O O12 0.178300 0.635806 0.607757
O O13 0.131980 0.816664 0.621585
O O14 0.000000 0.681938 0.612839
O O15 0.500000 0.782836 0.349367
O O16 0.644092 0.672607 0.365133
O O17 0.000000 0.000000 0.871324
O O18 0.000000 0.085011 0.000000
O O19 0.694919 0.622664 0.500000
O O20 0.698498 0.500000 0.388487
O O21 0.000000 0.123434 0.285745
O O22 0.890261 0.000000 0.355370
#
# Coordination Sequence:
#
# PCOD8194893 Si02
#       8
#     8   4   8   8   8   4   8   8
#     4   8  14  24  39  61  90 122 155 188 221 261
#     4   9  18  32  49  65  84 113 147 187 231 275
#     4  10  19  29  44  66  92 125 158 187 226 272
#     4   9  17  30  46  64  90 122 155 187 220 266
#     4  11  21  34  48  66  90 115 153 198 239 279
#     4   7  10  18  34  58  86 117 152 187 218 253
#     4  10  20  34  51  69  88 113 150 193 239 283
#     4   9  17  27  40  62  92 124 156 188 222 262
#
# _framework density 15.487778
#
# number of rings (size 3 to 8) (size 9 to 14) (size 15 to 20)
#    0.000    2.714    2.143    1.286    1.000    1.714 
#    0.000    3.571    0.000    0.429    0.000    2.000 
#    0.000    0.571    0.000    1.286    0.000    9.714 
#
# Total GULP energy -693854.676095 kJ/mol
# GULP energy per Si atom -12390.262073 kJ/mol
# Density = 1.545253 g / cm^3
# Si number density = 15.487778 Si / 1000 Ang^3
#
#
#
# Elastic Constant Matrix: (Units=GPa)
#
#
# Indices 1 2 3 4 5 6 
#
# 1 60.2143 33.1470 43.0193 0.0000 0.0000 0.0000
# 2 33.1470 84.5993 40.1218 0.0000 0.0000 0.0000
# 3 43.0193 40.1218 79.4250 0.0000 0.0000 0.0000
# 4 0.0000 0.0000 0.0000 7.6641 0.0000 0.0000
# 5 0.0000 0.0000 0.0000 0.0000 19.6130 0.0000
# 6 0.0000 0.0000 0.0000 0.0000 0.0000 16.4762
#
#
#
# Elastic Compliance Matrix: (Units=1/GPa)
#
#
# Indices 1 2 3 4 5 6 
#
# 1 0.028663 -0.005086 -0.012956 0.000000 0.000000 0.000000
# 2 -0.005086 0.016447 -0.005553 0.000000 0.000000 0.000000
# 3 -0.012956 -0.005553 0.022413 0.000000 0.000000 0.000000
# 4 0.000000 0.000000 0.000000 0.130479 0.000000 0.000000
# 5 0.000000 0.000000 0.000000 0.000000 0.050987 0.000000
# 6 0.000000 0.000000 0.000000 0.000000 0.000000 0.060694
#
#
# Mechanical properties :
#
#
# Convention : Reuss Voigt Hill
#
# Bulk Modulus (GPa) = 49.18185 50.75719 49.96952
# Shear Modulus (GPa) = 13.74947 15.94735 14.84841
#
# Velocity S-wave (km/s) = 2.98277 3.21233 3.09968
# Velocity P-wave (km/s) = 6.60959 6.82659 6.71897
#
# Compressibility (1/GPa) = 0.02033270
#
# Stress axis : x y z
#
# Youngs Moduli (GPa) = 34.88789 60.80130 44.61695
#
# Poissons Ratio (x) = 0.30925 0.57804
# Poissons Ratio (y) = 0.17745 0.24777
# Poissons Ratio (z) = 0.45199 0.33765
#
# Static dielectric constant tensor:
#      x y z
#    x 2.995640 0.000000 0.000000 
#    y 0.000000 2.692930 0.000000 
#    z 0.000000 0.000000 2.927870 
# 
# 
# High freq. dielectric constant tensor:
#      x y z
#    x 1.593360 0.000000 0.000000 
#    y 0.000000 1.550120 0.000000 
#    z 0.000000 0.000000 1.574570 
# 
# From -- ./inp_files/24036.got.cif
#   From: 2010.03.12/outbox.cif.g09.slc.cpg/sg47_13_cif.got.tgz:24036.got - 2010.04.14 03:12:58.
