data_PCOD8194407
_publ_section_title
;
Structure prediction by ZEFSAII (Michael W. Deem and Ramdas Pophale) SiO2 
 PCOD8194407
Probable space group: P M M M
;
_chemical_formula_sum "Si O2"
_cell_formula_units_Z 40
_cell_length_a 20.585404
_cell_length_b 11.823666
_cell_length_c 7.845347
_cell_angle_alpha 90.000000
_cell_angle_beta 90.000000
_cell_angle_gamma 90.000000
_cell_volume 1909.517773
_symmetry_space_group_name_H-M "P M M M"
_symmetry_group_IT_number 47
_symmetry_cell_setting 'orthorhombic'
loop_
_space_group_symop_operation_xyz
x,y,z
-x,-y,z
x,-y,-z
-x,y,-z
-x,-y,-z
x,y,-z
-x,y,z
x,-y,z
loop_
_atom_site_type_symbol
_atom_site_label
_atom_site_fract_x
_atom_site_fract_y
_atom_site_fract_z
Si Si1 0.500000 0.371500 0.703554
Si Si2 0.373667 0.246624 0.299557
Si Si3 0.000000 0.869815 0.704800
Si Si4 0.801054 0.000000 0.806963
Si Si5 0.133544 0.220113 0.693601
Si Si6 0.660274 0.000000 0.698559
Si Si7 0.245844 0.628143 0.296062
O O1 0.500000 0.500000 0.768834
O O2 0.500000 0.366191 0.500000
O O3 0.563746 0.309470 0.778807
O O4 0.372911 0.266923 0.500000
O O5 0.380044 0.113209 0.255959
O O6 0.307330 0.300971 0.224000
O O7 0.062982 0.802772 0.779150
O O8 0.000000 0.871945 0.500000
O O9 0.000000 0.000000 0.770776
O O10 0.824951 0.893276 0.701440
O O11 0.723794 0.000000 0.813484
O O12 0.828135 0.000000 0.000000
O O13 0.120372 0.254090 0.500000
O O14 0.178185 0.318717 0.777826
O O15 0.680275 0.000000 0.500000
O O16 0.244777 0.634495 0.500000
O O17 0.251445 0.500000 0.230393
#
# Coordination Sequence:
#
# PCOD8194407 Si02
#       7
#     4   8   4   4   8   4   8
#     4   9  16  25  37  63 105 137 154 190 243 286
#     4   9  16  25  42  66  96 131 161 190 236 291
#     4   9  16  26  47  73  95 124 161 194 235 293
#     4  12  22  31  48  75 102 125 158 206 253 291
#     4  10  18  32  51  71  98 130 161 195 240 292
#     4  10  18  31  49  71  96 129 163 198 245 293
#     4   9  16  26  44  69  94 125 165 200 231 278
#
# _framework density 20.947697000000002
#
# number of rings (size 3 to 8) (size 9 to 14) (size 15 to 20)
#    0.000    2.400    3.000    1.500    0.000    2.800 
#    0.000    3.500    0.000    3.600    0.000    1.400 
#    0.000    2.400    0.000    0.000    0.000    0.000 
#
# Total GULP energy -495707.054751 kJ/mol
# GULP energy per Si atom -12392.676369 kJ/mol
# Density = 2.090002 g / cm^3
# Si number density = 20.947697 Si / 1000 Ang^3
#
#
#
# Elastic Constant Matrix: (Units=GPa)
#
#
# Indices 1 2 3 4 5 6 
#
# 1 197.3517 100.2505 0.7680 0.0000 0.0000 0.0000
# 2 100.2505 182.8527 -3.1091 0.0000 0.0000 0.0000
# 3 0.7680 -3.1091 13.3332 0.0000 0.0000 0.0000
# 4 0.0000 0.0000 0.0000 -2.3968 0.0000 0.0000
# 5 0.0000 0.0000 0.0000 0.0000 -0.1485 0.0000
# 6 0.0000 0.0000 0.0000 0.0000 0.0000 38.0899
#
#
#
# Elastic Compliance Matrix: (Units=1/GPa)
#
#
# Indices 1 2 3 4 5 6 
#
# 1 0.007046 -0.003885 -0.001312 0.000000 0.000000 0.000000
# 2 -0.003885 0.007633 0.002004 0.000000 0.000000 0.000000
# 3 -0.001312 0.002004 0.075544 0.000000 0.000000 0.000000
# 4 0.000000 0.000000 0.000000 -0.417217 0.000000 0.000000
# 5 0.000000 0.000000 0.000000 0.000000 -6.734392 0.000000
# 6 0.000000 0.000000 0.000000 0.000000 0.000000 0.026254
#
#
# Mechanical properties :
#
#
# Convention : Reuss Voigt Hill
#
# Bulk Modulus (GPa) = 11.92805 65.48403 38.70604
# Shear Modulus (GPa) = -0.71420 26.81747 13.05163
#
# Velocity S-wave (km/s) = -0.58454 3.58189 2.49882
# Velocity P-wave (km/s) = 2.29150 6.95954 5.18103
#
# Compressibility (1/GPa) = 0.08383597
#
# Stress axis : x y z
#
# Youngs Moduli (GPa) = 141.92819 131.00896 13.23737
#
# Poissons Ratio (x) = 0.50900 0.01737
# Poissons Ratio (y) = 0.55142 -0.02652
# Poissons Ratio (z) = 0.18618 -0.26251
#
# Static dielectric constant tensor:
#      x y z
#    x 4.139190 0.000000 0.000000 
#    y 0.000000 3.892730 0.000000 
#    z 0.000000 0.000000 2.992650 
# 
# 
# High freq. dielectric constant tensor:
#      x y z
#    x 1.825990 0.000000 0.000000 
#    y 0.000000 1.816910 0.000000 
#    z 0.000000 0.000000 1.755550 
# 
# From -- ./inp_files/10747.got.cif
#   From: 2010.03.12/outbox.cif.g09.slc.cpg/sg47_6_cif.got.tgz:10747.got - 2010.04.14 03:12:58.
