data_PCOD8194481
_publ_section_title
;
Structure prediction by ZEFSAII (Michael W. Deem and Ramdas Pophale) SiO2 
 PCOD8194481
Probable space group: P M M M
;
_chemical_formula_sum "Si O2"
_cell_formula_units_Z 52
_cell_length_a 9.123252
_cell_length_b 23.088017
_cell_length_c 14.405575
_cell_angle_alpha 90.000000
_cell_angle_beta 90.000000
_cell_angle_gamma 90.000000
_cell_volume 3034.358586
_symmetry_space_group_name_H-M "P M M M"
_symmetry_group_IT_number 47
_symmetry_cell_setting 'orthorhombic'
loop_
_space_group_symop_operation_xyz
x,y,z
-x,-y,z
x,-y,-z
-x,y,-z
-x,-y,-z
x,y,-z
-x,y,z
x,-y,z
loop_
_atom_site_type_symbol
_atom_site_label
_atom_site_fract_x
_atom_site_fract_y
_atom_site_fract_z
Si Si1 0.327693 0.780940 0.706043
Si Si2 0.326502 0.262736 0.899652
Si Si3 0.168201 0.565342 0.722515
Si Si4 0.829004 0.114059 0.391571
Si Si5 0.670446 0.393421 0.894955
Si Si6 0.334319 0.000000 0.610362
Si Si7 0.328977 0.661585 0.606825
O O1 0.500000 0.794247 0.693761
O O2 0.279053 0.778097 0.814395
O O3 0.233626 0.831043 0.661064
O O4 0.284964 0.720695 0.658033
O O5 0.500000 0.266727 0.902663
O O6 0.269503 0.327904 0.883913
O O7 0.268708 0.238842 0.000000
O O8 0.184475 0.500000 0.684494
O O9 0.239346 0.567157 0.824570
O O10 0.245243 0.607721 0.650282
O O11 0.000000 0.583826 0.730920
O O12 0.797100 0.122626 0.500000
O O13 0.000000 0.107398 0.370978
O O14 0.748877 0.056839 0.352725
O O15 0.500000 0.397102 0.868034
O O16 0.695680 0.415612 0.000000
O O17 0.500000 0.000000 0.648914
O O18 0.332218 0.000000 0.500000
O O19 0.283224 0.667879 0.500000
O O20 0.500000 0.649324 0.618911
#
# Coordination Sequence:
#
# PCOD8194481 Si02
#       7
#     8   8   8   8   8   4   8
#     4  10  18  31  53  78 103 130 164 207 250 296
#     4   8  14  27  50  77 101 125 156 199 250 298
#     4  11  24  38  51  70  99 133 166 204 255 316
#     4  10  20  32  47  72 108 145 176 207 246 293
#     4   9  17  33  57  79  98 124 161 205 253 305
#     4   9  17  31  51  73 100 137 180 219 251 286
#     4  10  21  37  56  76  97 125 167 218 262 300
#
# _framework density 17.137065
#
# number of rings (size 3 to 8) (size 9 to 14) (size 15 to 20)
#    0.000    2.385    1.538    2.538    0.000    5.538 
#    0.000    3.077    0.000    0.462    0.000    0.538 
#    0.000    4.308    0.000    0.000    0.000    0.000 
#
# Total GULP energy -644705.671494 kJ/mol
# GULP energy per Si atom -12398.185990 kJ/mol
# Density = 1.709806 g / cm^3
# Si number density = 17.137065 Si / 1000 Ang^3
#
#
#
# Elastic Constant Matrix: (Units=GPa)
#
#
# Indices 1 2 3 4 5 6 
#
# 1 74.3446 56.4699 49.4649 0.0000 0.0000 0.0000
# 2 56.4699 106.6706 54.5103 0.0000 0.0000 0.0000
# 3 49.4649 54.5103 108.5165 0.0000 0.0000 0.0000
# 4 0.0000 0.0000 0.0000 6.8741 0.0000 0.0000
# 5 0.0000 0.0000 0.0000 0.0000 17.2439 0.0000
# 6 0.0000 0.0000 0.0000 0.0000 0.0000 2.6669
#
#
#
# Elastic Compliance Matrix: (Units=1/GPa)
#
#
# Indices 1 2 3 4 5 6 
#
# 1 0.025520 -0.010178 -0.006520 0.000000 0.000000 0.000000
# 2 -0.010178 0.016671 -0.003735 0.000000 0.000000 0.000000
# 3 -0.006520 -0.003735 0.014063 0.000000 0.000000 0.000000
# 4 0.000000 0.000000 0.000000 0.145473 0.000000 0.000000
# 5 0.000000 0.000000 0.000000 0.000000 0.057992 0.000000
# 6 0.000000 0.000000 0.000000 0.000000 0.000000 0.374968
#
#
# Mechanical properties :
#
#
# Convention : Reuss Voigt Hill
#
# Bulk Modulus (GPa) = 64.98333 67.82464 66.40398
# Shear Modulus (GPa) = 7.34557 13.96276 10.65416
#
# Velocity S-wave (km/s) = 2.07260 2.85751 2.49610
# Velocity P-wave (km/s) = 6.61284 7.10991 6.86587
#
# Compressibility (1/GPa) = 0.01538856
#
# Stress axis : x y z
#
# Youngs Moduli (GPa) = 39.18516 59.98306 71.10669
#
# Poissons Ratio (x) = 0.61051 0.46362
# Poissons Ratio (y) = 0.39883 0.26558
# Poissons Ratio (z) = 0.25549 0.22404
#
# Static dielectric constant tensor:
#      x y z
#    x 3.071040 0.000000 0.000000 
#    y 0.000000 3.114470 0.000000 
#    z 0.000000 0.000000 3.556080 
# 
# 
# High freq. dielectric constant tensor:
#      x y z
#    x 1.648600 0.000000 0.000000 
#    y 0.000000 1.649070 0.000000 
#    z 0.000000 0.000000 1.656470 
# 
# From -- ./inp_files/6934.got.cif
#   From: 2010.03.12/outbox.cif.g09.slc.cpg/sg47_4_cif.got.tgz:6934.got - 2010.04.14 03:12:58.
