data_PCOD8194024
_publ_section_title
;
Structure prediction by ZEFSAII (Michael W. Deem and Ramdas Pophale) SiO2 
 PCOD8194024
Probable space group: P M M M
;
_chemical_formula_sum "Si O2"
_cell_formula_units_Z 52
_cell_length_a 14.188063
_cell_length_b 17.897480
_cell_length_c 12.549386
_cell_angle_alpha 90.000000
_cell_angle_beta 90.000000
_cell_angle_gamma 90.000000
_cell_volume 3186.672788
_symmetry_space_group_name_H-M "P M M M"
_symmetry_group_IT_number 47
_symmetry_cell_setting 'orthorhombic'
loop_
_space_group_symop_operation_xyz
x,y,z
-x,-y,z
x,-y,-z
-x,y,-z
-x,-y,-z
x,y,-z
-x,y,z
x,-y,z
loop_
_atom_site_type_symbol
_atom_site_label
_atom_site_fract_x
_atom_site_fract_y
_atom_site_fract_z
Si Si1 0.393671 0.149534 0.718407
Si Si2 0.611876 0.917631 0.500000
Si Si3 0.209496 0.089053 0.787621
Si Si4 0.198069 0.648604 0.623315
Si Si5 0.892634 0.500000 0.373331
Si Si6 0.888904 0.803808 0.375124
Si Si7 0.602012 0.303591 0.378978
Si Si8 0.894841 0.911552 0.000000
O O1 0.500000 0.120322 0.744805
O O2 0.352311 0.122121 0.605689
O O3 0.318189 0.117182 0.802077
O O4 0.393655 0.238812 0.709639
O O5 0.500000 0.917646 0.500000
O O6 0.654897 0.000000 0.500000
O O7 0.157374 0.127603 0.688135
O O8 0.205752 0.000000 0.771935
O O9 0.158735 0.116192 0.894972
O O10 0.170364 0.647746 0.500000
O O11 0.153695 0.574777 0.677222
O O12 0.156351 0.726162 0.669244
O O13 0.310843 0.641352 0.641874
O O14 0.878886 0.500000 0.500000
O O15 0.000000 0.500000 0.338506
O O16 0.866512 0.815321 0.500000
O O17 0.000000 0.801668 0.353630
O O18 0.609559 0.270375 0.500000
O O19 0.500000 0.344797 0.366876
O O20 0.000000 0.877390 0.000000
O O21 0.899716 0.000000 0.000000
#
# Coordination Sequence:
#
# PCOD8194024 Si02
#       8
#     8   4   8   8   4   8   8   4
#     4  10  18  29  44  66  95 125 156 190 233 285
#     4   9  16  24  36  58  91 126 155 184 221 276
#     4  11  22  34  51  70  90 122 164 202 240 284
#     4   9  16  27  42  62  89 122 157 191 229 278
#     4   9  16  26  41  59  83 122 165 196 226 273
#     4  10  20  32  46  68  97 123 151 197 252 293
#     4   9  15  25  41  60  88 126 159 185 223 279
#     4   9  20  40  57  65  81 118 167 208 240 283
#
# _framework density 16.317961
#
# number of rings (size 3 to 8) (size 9 to 14) (size 15 to 20)
#    0.000    2.385    2.308    1.385    1.077    4.000 
#    0.000    1.538    0.000    3.692    0.000    0.000 
#    0.000    0.615    0.000    3.077    0.000    5.769 
#
# Total GULP energy -644396.403935 kJ/mol
# GULP energy per Si atom -12392.238537 kJ/mol
# Density = 1.628082 g / cm^3
# Si number density = 16.317961 Si / 1000 Ang^3
#
#
#
# Elastic Constant Matrix: (Units=GPa)
#
#
# Indices 1 2 3 4 5 6 
#
# 1 149.3416 49.2250 41.3266 0.0000 0.0000 0.0000
# 2 49.2250 81.6727 22.0025 0.0000 0.0000 0.0000
# 3 41.3266 22.0025 48.6809 0.0000 0.0000 0.0000
# 4 0.0000 0.0000 0.0000 3.8742 0.0000 0.0000
# 5 0.0000 0.0000 0.0000 0.0000 20.8595 0.0000
# 6 0.0000 0.0000 0.0000 0.0000 0.0000 25.3617
#
#
#
# Elastic Compliance Matrix: (Units=1/GPa)
#
#
# Indices 1 2 3 4 5 6 
#
# 1 0.009877 -0.004206 -0.006483 0.000000 0.000000 0.000000
# 2 -0.004206 0.015733 -0.003540 0.000000 0.000000 0.000000
# 3 -0.006483 -0.003540 0.027646 0.000000 0.000000 0.000000
# 4 0.000000 0.000000 0.000000 0.258121 0.000000 0.000000
# 5 0.000000 0.000000 0.000000 0.000000 0.047940 0.000000
# 6 0.000000 0.000000 0.000000 0.000000 0.000000 0.039429
#
#
# Mechanical properties :
#
#
# Convention : Reuss Voigt Hill
#
# Bulk Modulus (GPa) = 40.32916 56.08925 48.20921
# Shear Modulus (GPa) = 11.48185 21.16183 16.32184
#
# Velocity S-wave (km/s) = 2.65549 3.60508 3.16608
# Velocity P-wave (km/s) = 5.84554 7.19556 6.55540
#
# Compressibility (1/GPa) = 0.02479595
#
# Stress axis : x y z
#
# Youngs Moduli (GPa) = 101.24959 63.56170 36.17164
#
# Poissons Ratio (x) = 0.26735 0.23452
# Poissons Ratio (y) = 0.42586 0.12805
# Poissons Ratio (z) = 0.65645 0.22502
#
# Static dielectric constant tensor:
#      x y z
#    x 3.357150 0.000000 0.000000 
#    y 0.000000 3.013990 0.000000 
#    z 0.000000 0.000000 2.707790 
# 
# 
# High freq. dielectric constant tensor:
#      x y z
#    x 1.652690 0.000000 0.000000 
#    y 0.000000 1.608180 0.000000 
#    z 0.000000 0.000000 1.558750 
# 
# From -- ./inp_files/17840.got.cif
#   From: 2010.03.12/outbox.cif.g09.slc.cpg/sg47_9_cif.got.tgz:17840.got - 2010.04.14 03:12:58.
