data_PCOD8194866
_publ_section_title
;
Structure prediction by ZEFSAII (Michael W. Deem and Ramdas Pophale) SiO2 
 PCOD8194866
Probable space group: P M M M
;
_chemical_formula_sum "Si O2"
_cell_formula_units_Z 64
_cell_length_a 23.403023
_cell_length_b 19.149988
_cell_length_c 9.339063
_cell_angle_alpha 90.000000
_cell_angle_beta 90.000000
_cell_angle_gamma 90.000000
_cell_volume 4185.465541
_symmetry_space_group_name_H-M "P M M M"
_symmetry_group_IT_number 47
_symmetry_cell_setting 'orthorhombic'
loop_
_space_group_symop_operation_xyz
x,y,z
-x,-y,z
x,-y,-z
-x,y,-z
-x,-y,-z
x,y,-z
-x,y,z
x,-y,z
loop_
_atom_site_type_symbol
_atom_site_label
_atom_site_fract_x
_atom_site_fract_y
_atom_site_fract_z
Si Si1 0.433756 0.080055 0.663755
Si Si2 0.245262 0.424058 0.669864
Si Si3 0.716734 0.722152 0.334267
Si Si4 0.063273 0.283981 0.670573
Si Si5 0.117080 0.576129 0.329840
Si Si6 0.831543 0.194190 0.334627
Si Si7 0.772283 0.079484 0.832836
Si Si8 0.341405 0.838718 0.831998
O O1 0.414575 0.092450 0.500000
O O2 0.500000 0.098476 0.682578
O O3 0.399303 0.130517 0.768093
O O4 0.422306 0.000000 0.707614
O O5 0.241389 0.420753 0.500000
O O6 0.270742 0.500000 0.718217
O O7 0.284037 0.358608 0.720254
O O8 0.181271 0.415938 0.731549
O O9 0.698684 0.729044 0.500000
O O10 0.780626 0.750911 0.310562
O O11 0.671215 0.763812 0.239065
O O12 0.065296 0.285988 0.500000
O O13 0.078150 0.361258 0.731470
O O14 0.109894 0.228125 0.725322
O O15 0.000000 0.262910 0.725400
O O16 0.119158 0.581233 0.500000
O O17 0.092215 0.500000 0.283745
O O18 0.837313 0.173825 0.500000
O O19 0.820724 0.123131 0.248407
O O20 0.709630 0.108187 0.794479
O O21 0.775472 0.000000 0.779772
O O22 0.784557 0.086124 0.000000
O O23 0.349266 0.827887 0.000000
#
# Coordination Sequence:
#
# PCOD8194866 Si02
#       8
#     8   8   8   8   8   8   8   8
#     4   9  18  32  48  66  91 123 154 179 202 233
#     4   8  12  19  34  55  79 108 141 175 210 250
#     4   9  15  25  41  59  82 112 144 178 214 251
#     4   9  15  22  33  51  78 108 134 165 206 251
#     4   8  12  18  29  48  76 108 138 166 199 243
#     4   9  16  26  40  59  80 103 133 166 205 255
#     4   9  18  31  45  61  81 104 130 167 213 252
#     4  10  19  29  43  65  91 116 143 176 211 248
#
# _framework density 15.291010999999999
#
# number of rings (size 3 to 8) (size 9 to 14) (size 15 to 20)
#    0.000    3.125    1.250    1.875    0.000    2.000 
#    0.000    1.875    0.000    1.125    0.000    2.625 
#    0.000    1.000    0.000    6.875    0.000    2.875 
#
# Total GULP energy -793191.415076 kJ/mol
# GULP energy per Si atom -12393.615861 kJ/mol
# Density = 1.525621 g / cm^3
# Si number density = 15.291011 Si / 1000 Ang^3
#
#
#
# Elastic Constant Matrix: (Units=GPa)
#
#
# Indices 1 2 3 4 5 6 
#
# 1 72.1578 50.9653 30.5618 0.0000 0.0000 0.0000
# 2 50.9653 126.7917 37.9750 0.0000 0.0000 0.0000
# 3 30.5618 37.9750 38.3094 0.0000 0.0000 0.0000
# 4 0.0000 0.0000 0.0000 9.0374 0.0000 0.0000
# 5 0.0000 0.0000 0.0000 0.0000 11.6212 0.0000
# 6 0.0000 0.0000 0.0000 0.0000 0.0000 26.1358
#
#
#
# Elastic Compliance Matrix: (Units=1/GPa)
#
#
# Indices 1 2 3 4 5 6 
#
# 1 0.023264 -0.005394 -0.013212 0.000000 0.000000 0.000000
# 2 -0.005394 0.012468 -0.008056 0.000000 0.000000 0.000000
# 3 -0.013212 -0.008056 0.044629 0.000000 0.000000 0.000000
# 4 0.000000 0.000000 0.000000 0.110652 0.000000 0.000000
# 5 0.000000 0.000000 0.000000 0.000000 0.086050 0.000000
# 6 0.000000 0.000000 0.000000 0.000000 0.000000 0.038262
#
#
# Mechanical properties :
#
#
# Convention : Reuss Voigt Hill
#
# Bulk Modulus (GPa) = 36.98677 52.91813 44.95245
# Shear Modulus (GPa) = 13.23936 17.20933 15.22434
#
# Velocity S-wave (km/s) = 2.94568 3.35842 3.15880
# Velocity P-wave (km/s) = 5.98419 7.05132 6.53956
#
# Compressibility (1/GPa) = 0.02703669
#
# Stress axis : x y z
#
# Youngs Moduli (GPa) = 42.98404 80.20527 22.40686
#
# Poissons Ratio (x) = 0.43264 0.29605
# Poissons Ratio (y) = 0.23186 0.18051
# Poissons Ratio (z) = 0.56792 0.64613
#
# Static dielectric constant tensor:
#      x y z
#    x 2.761990 0.000000 0.000000 
#    y 0.000000 3.172920 0.000000 
#    z 0.000000 0.000000 2.592910 
# 
# 
# High freq. dielectric constant tensor:
#      x y z
#    x 1.556100 0.000000 0.000000 
#    y 0.000000 1.589770 0.000000 
#    z 0.000000 0.000000 1.548580 
# 
# From -- ./inp_files/11847.got.cif
#   From: 2010.03.12/outbox.cif.g09.slc.cpg/sg47_6_cif.got.tgz:11847.got - 2010.04.14 03:12:58.
