data_PCOD8194947
_publ_section_title
;
Structure prediction by ZEFSAII (Michael W. Deem and Ramdas Pophale) SiO2 
 PCOD8194947
Probable space group: P M M M
;
_chemical_formula_sum "Si O2"
_cell_formula_units_Z 44
_cell_length_a 13.655799
_cell_length_b 21.240373
_cell_length_c 8.958742
_cell_angle_alpha 90.000000
_cell_angle_beta 90.000000
_cell_angle_gamma 90.000000
_cell_volume 2598.521321
_symmetry_space_group_name_H-M "P M M M"
_symmetry_group_IT_number 47
_symmetry_cell_setting 'orthorhombic'
loop_
_space_group_symop_operation_xyz
x,y,z
-x,-y,z
x,-y,-z
-x,y,-z
-x,-y,-z
x,y,-z
-x,y,z
x,-y,z
loop_
_atom_site_type_symbol
_atom_site_label
_atom_site_fract_x
_atom_site_fract_y
_atom_site_fract_z
Si Si1 0.388848 0.500000 0.177610
Si Si2 0.799063 0.187366 0.176129
Si Si3 0.886613 0.071336 0.328181
Si Si4 0.112372 0.693823 0.673471
Si Si5 0.717237 0.374415 0.823390
Si Si6 0.393535 0.749092 0.824063
O O1 0.500000 0.500000 0.241538
O O2 0.329219 0.439356 0.235314
O O3 0.394256 0.500000 0.000000
O O4 0.824304 0.116842 0.223684
O O5 0.869825 0.238056 0.252745
O O6 0.686772 0.199734 0.227228
O O7 0.811428 0.195444 0.000000
O O8 0.868592 0.089140 0.500000
O O9 0.000000 0.079060 0.287482
O O10 0.852456 0.000000 0.296549
O O11 0.138032 0.699517 0.500000
O O12 0.178337 0.638961 0.746395
O O13 0.000000 0.674576 0.699441
O O14 0.641770 0.320034 0.775077
O O15 0.734777 0.375357 0.000000
O O16 0.500000 0.763332 0.750632
O O17 0.404307 0.750830 0.000000
#
# Coordination Sequence:
#
# PCOD8194947 Si02
#       6
#     4   8   8   8   8   8
#     4   9  16  28  50  77 100 122 151 189 236 287
#     4  10  19  29  47  74  96 117 150 193 235 271
#     4   9  18  32  48  66  92 127 159 184 220 274
#     4  10  20  33  48  65  90 126 160 189 228 278
#     4   9  17  29  48  73  95 118 152 193 232 270
#     4   8  14  26  44  66  92 119 147 182 225 271
#
# _framework density 16.932706
#
# number of rings (size 3 to 8) (size 9 to 14) (size 15 to 20)
#    0.000    2.818    0.000    3.818    0.000    6.545 
#    0.000    1.818    0.000   22.364    0.000    3.818 
#    0.000    0.000    0.000    0.000    0.000    0.000 
#
# Total GULP energy -545466.818965 kJ/mol
# GULP energy per Si atom -12396.973158 kJ/mol
# Density = 1.689417 g / cm^3
# Si number density = 16.932706 Si / 1000 Ang^3
#
#
#
# Elastic Constant Matrix: (Units=GPa)
#
#
# Indices 1 2 3 4 5 6 
#
# 1 128.3500 65.5442 43.8438 0.0000 0.0000 0.0000
# 2 65.5442 117.1633 35.3028 0.0000 0.0000 0.0000
# 3 43.8438 35.3028 55.6385 0.0000 0.0000 0.0000
# 4 0.0000 0.0000 0.0000 20.6730 0.0000 0.0000
# 5 0.0000 0.0000 0.0000 0.0000 5.5319 0.0000
# 6 0.0000 0.0000 0.0000 0.0000 0.0000 24.5711
#
#
#
# Elastic Compliance Matrix: (Units=1/GPa)
#
#
# Indices 1 2 3 4 5 6 
#
# 1 0.012693 -0.005053 -0.006796 0.000000 0.000000 0.000000
# 2 -0.005053 0.012564 -0.003990 0.000000 0.000000 0.000000
# 3 -0.006796 -0.003990 0.025860 0.000000 0.000000 0.000000
# 4 0.000000 0.000000 0.000000 0.048372 0.000000 0.000000
# 5 0.000000 0.000000 0.000000 0.000000 0.180771 0.000000
# 6 0.000000 0.000000 0.000000 0.000000 0.000000 0.040698
#
#
# Mechanical properties :
#
#
# Convention : Reuss Voigt Hill
#
# Bulk Modulus (GPa) = 51.44308 65.61482 58.52895
# Shear Modulus (GPa) = 13.92303 20.58594 17.25448
#
# Velocity S-wave (km/s) = 2.87061 3.49054 3.19565
# Velocity P-wave (km/s) = 6.43693 7.42157 6.94672
#
# Compressibility (1/GPa) = 0.01943896
#
# Stress axis : x y z
#
# Youngs Moduli (GPa) = 78.78227 79.59110 38.66927
#
# Poissons Ratio (x) = 0.40218 0.26280
# Poissons Ratio (y) = 0.39810 0.15429
# Poissons Ratio (z) = 0.53542 0.31758
#
# Static dielectric constant tensor:
#      x y z
#    x 3.393660 0.000000 0.000000 
#    y 0.000000 3.138370 0.000000 
#    z 0.000000 0.000000 2.937040 
# 
# 
# High freq. dielectric constant tensor:
#      x y z
#    x 1.653720 0.000000 0.000000 
#    y 0.000000 1.643510 0.000000 
#    z 0.000000 0.000000 1.631400 
# 
# From -- ./inp_files/6790.got.cif
#   From: 2010.03.12/outbox.cif.g09.slc.cpg/sg47_4_cif.got.tgz:6790.got - 2010.04.14 03:12:58.
