data_PCOD8194576
_publ_section_title
;
Structure prediction by ZEFSAII (Michael W. Deem and Ramdas Pophale) SiO2 
 PCOD8194576
Probable space group: P M M M
;
_chemical_formula_sum "Si O2"
_cell_formula_units_Z 52
_cell_length_a 15.593768
_cell_length_b 9.386378
_cell_length_c 19.079109
_cell_angle_alpha 90.000000
_cell_angle_beta 90.000000
_cell_angle_gamma 90.000000
_cell_volume 2792.590122
_symmetry_space_group_name_H-M "P M M M"
_symmetry_group_IT_number 47
_symmetry_cell_setting 'orthorhombic'
loop_
_space_group_symop_operation_xyz
x,y,z
-x,-y,z
x,-y,-z
-x,y,-z
-x,-y,-z
x,y,-z
-x,y,z
x,-y,z
loop_
_atom_site_type_symbol
_atom_site_label
_atom_site_fract_x
_atom_site_fract_y
_atom_site_fract_z
Si Si1 0.399027 0.343013 0.077592
Si Si2 0.142659 0.663923 0.813706
Si Si3 0.259375 0.335039 0.581830
Si Si4 0.092237 0.664349 0.342025
Si Si5 0.683691 0.166969 0.194005
Si Si6 0.000000 0.669214 0.079447
Si Si7 0.599133 0.832726 0.659807
O O1 0.500000 0.340133 0.073720
O O2 0.368225 0.500000 0.103909
O O3 0.369785 0.217493 0.127669
O O4 0.360844 0.315079 0.000000
O O5 0.169436 0.500000 0.825550
O O6 0.091991 0.682124 0.741441
O O7 0.225301 0.759793 0.808261
O O8 0.084300 0.719980 0.878184
O O9 0.243362 0.316599 0.500000
O O10 0.272587 0.500000 0.602988
O O11 0.176105 0.266254 0.621318
O O12 0.344944 0.250578 0.602640
O O13 0.094452 0.500000 0.363865
O O14 0.000000 0.729278 0.367941
O O15 0.631909 0.211026 0.263380
O O16 0.697350 0.000000 0.189518
O O17 0.000000 0.500000 0.077657
O O18 0.000000 0.731714 0.000000
O O19 0.500000 0.786694 0.652147
O O20 0.610136 0.000000 0.646453
#
# Coordination Sequence:
#
# PCOD8194576 Si02
#       7
#     8   8   8   8   8   4   8
#     4   9  19  36  56  78 105 138 177 221 270 323
#     4  10  18  32  55  78 104 143 184 223 271 326
#     4  10  21  36  56  85 116 143 179 230 282 332
#     4   9  16  30  55  83 110 142 180 222 272 333
#     4  11  22  35  54  81 111 142 182 230 277 328
#     4   9  18  32  53  83 112 140 183 234 275 322
#     4  10  22  39  57  78 108 150 194 231 275 336
#
# _framework density 18.620706999999999
#
# number of rings (size 3 to 8) (size 9 to 14) (size 15 to 20)
#    0.000    2.231    2.308    1.385    0.000    3.692 
#    0.000    5.769    0.000    1.846    0.000    1.077 
#    0.000    0.000    0.000    0.000    0.000    0.000 
#
# Total GULP energy -644609.487899 kJ/mol
# GULP energy per Si atom -12396.336306 kJ/mol
# Density = 1.857833 g / cm^3
# Si number density = 18.620707 Si / 1000 Ang^3
#
#
#
# Elastic Constant Matrix: (Units=GPa)
#
#
# Indices 1 2 3 4 5 6 
#
# 1 137.2804 34.9666 58.8693 0.0000 0.0000 0.0000
# 2 34.9666 42.8086 35.4238 0.0000 0.0000 0.0000
# 3 58.8693 35.4238 88.2932 0.0000 0.0000 0.0000
# 4 0.0000 0.0000 0.0000 31.6088 0.0000 0.0000
# 5 0.0000 0.0000 0.0000 0.0000 32.0458 0.0000
# 6 0.0000 0.0000 0.0000 0.0000 0.0000 10.0925
#
#
#
# Elastic Compliance Matrix: (Units=1/GPa)
#
#
# Indices 1 2 3 4 5 6 
#
# 1 0.010692 -0.004243 -0.005427 0.000000 0.000000 0.000000
# 2 -0.004243 0.036653 -0.011877 0.000000 0.000000 0.000000
# 3 -0.005427 -0.011877 0.019709 0.000000 0.000000 0.000000
# 4 0.000000 0.000000 0.000000 0.031637 0.000000 0.000000
# 5 0.000000 0.000000 0.000000 0.000000 0.031205 0.000000
# 6 0.000000 0.000000 0.000000 0.000000 0.000000 0.099083
#
#
# Mechanical properties :
#
#
# Convention : Reuss Voigt Hill
#
# Bulk Modulus (GPa) = 41.73246 58.54460 50.13853
# Shear Modulus (GPa) = 17.85335 24.02425 20.93880
#
# Velocity S-wave (km/s) = 3.09979 3.59582 3.35698
# Velocity P-wave (km/s) = 5.93903 6.98203 6.48155
#
# Compressibility (1/GPa) = 0.02396216
#
# Stress axis : x y z
#
# Youngs Moduli (GPa) = 93.52624 27.28270 50.73814
#
# Poissons Ratio (x) = 0.11576 0.27534
# Poissons Ratio (y) = 0.39683 0.60259
# Poissons Ratio (z) = 0.50754 0.32402
#
# Static dielectric constant tensor:
#      x y z
#    x 3.450240 0.000000 0.000000 
#    y 0.000000 2.347800 0.000000 
#    z 0.000000 0.000000 4.637240 
# 
# 
# High freq. dielectric constant tensor:
#      x y z
#    x 1.735510 0.000000 0.000000 
#    y 0.000000 1.686990 0.000000 
#    z 0.000000 0.000000 1.725230 
# 
# From -- ./inp_files/30877.got.cif
#   From: 2010.03.12/outbox.cif.g09.slc.cpg/sg47_16_cif.got.tgz:30877.got - 2010.04.14 03:12:58.
