data_PCOD8194444
_publ_section_title
;
Structure prediction by ZEFSAII (Michael W. Deem and Ramdas Pophale) SiO2 
 PCOD8194444
Probable space group: P M M M
;
_chemical_formula_sum "Si O2"
_cell_formula_units_Z 52
_cell_length_a 11.735422
_cell_length_b 8.875207
_cell_length_c 28.084666
_cell_angle_alpha 90.000000
_cell_angle_beta 90.000000
_cell_angle_gamma 90.000000
_cell_volume 2925.138713
_symmetry_space_group_name_H-M "P M M M"
_symmetry_group_IT_number 47
_symmetry_cell_setting 'orthorhombic'
loop_
_space_group_symop_operation_xyz
x,y,z
-x,-y,z
x,-y,-z
-x,y,-z
-x,-y,-z
x,y,-z
-x,y,z
x,-y,z
loop_
_atom_site_type_symbol
_atom_site_label
_atom_site_fract_x
_atom_site_fract_y
_atom_site_fract_z
Si Si1 0.500000 0.320803 0.300972
Si Si2 0.500000 0.678745 0.193604
Si Si3 0.371168 0.177703 0.946560
Si Si4 0.266129 0.177524 0.313613
Si Si5 0.721904 0.676383 0.859132
Si Si6 0.134518 0.325583 0.397066
Si Si7 0.865056 0.333040 0.500000
Si Si8 0.869467 0.677232 0.772096
O O1 0.500000 0.500000 0.305937
O O2 0.500000 0.261283 0.247047
O O3 0.387187 0.254025 0.325081
O O4 0.500000 0.500000 0.194240
O O5 0.388441 0.741662 0.167849
O O6 0.500000 0.234493 0.934481
O O7 0.276431 0.246139 0.910910
O O8 0.366670 0.000000 0.942512
O O9 0.338857 0.229222 0.000000
O O10 0.186741 0.217689 0.357783
O O11 0.210646 0.237859 0.264967
O O12 0.280622 0.000000 0.309253
O O13 0.712646 0.500000 0.867846
O O14 0.831161 0.715757 0.826331
O O15 0.173290 0.500000 0.390591
O O16 0.173099 0.259649 0.449472
O O17 0.000000 0.315821 0.391142
O O18 0.813654 0.500000 0.500000
O O19 0.000000 0.343107 0.500000
O O20 0.854544 0.500000 0.762345
O O21 0.000000 0.728736 0.765920
#
# Coordination Sequence:
#
# PCOD8194444 Si02
#       8
#     4   4   8   8   8   8   4   8
#     4  11  21  39  59  73  99 139 180 215 254 307
#     4   9  16  29  50  74  96 121 162 211 256 298
#     4   9  18  31  46  69 101 132 161 197 248 310
#     4  12  24  35  50  78 112 140 171 213 261 311
#     4  10  18  31  51  75  99 125 163 213 258 299
#     4   9  17  32  55  80 106 140 180 219 261 307
#     4   7  12  26  51  80 103 128 175 229 261 295
#     4  10  21  37  55  74 100 139 181 215 253 304
#
# _framework density 17.776935000000002
#
# number of rings (size 3 to 8) (size 9 to 14) (size 15 to 20)
#    0.000    2.231    2.308    3.462    0.000    3.385 
#    0.000    1.154    0.000    2.308    0.000    6.462 
#    0.000    0.000    0.000    0.000    0.000    0.000 
#
# Total GULP energy -644468.286576 kJ/mol
# GULP energy per Si atom -12393.620896 kJ/mol
# Density = 1.773647 g / cm^3
# Si number density = 17.776935 Si / 1000 Ang^3
#
#
#
# Elastic Constant Matrix: (Units=GPa)
#
#
# Indices 1 2 3 4 5 6 
#
# 1 66.9524 32.5557 26.2759 0.0000 0.0000 0.0000
# 2 32.5557 64.8983 38.6165 0.0000 0.0000 0.0000
# 3 26.2759 38.6165 118.2612 0.0000 0.0000 0.0000
# 4 0.0000 0.0000 0.0000 13.1091 0.0000 0.0000
# 5 0.0000 0.0000 0.0000 0.0000 19.6409 0.0000
# 6 0.0000 0.0000 0.0000 0.0000 0.0000 17.2697
#
#
#
# Elastic Compliance Matrix: (Units=1/GPa)
#
#
# Indices 1 2 3 4 5 6 
#
# 1 0.019952 -0.009148 -0.001446 0.000000 0.000000 0.000000
# 2 -0.009148 0.023319 -0.005582 0.000000 0.000000 0.000000
# 3 -0.001446 -0.005582 0.010600 0.000000 0.000000 0.000000
# 4 0.000000 0.000000 0.000000 0.076283 0.000000 0.000000
# 5 0.000000 0.000000 0.000000 0.000000 0.050914 0.000000
# 6 0.000000 0.000000 0.000000 0.000000 0.000000 0.057905
#
#
# Mechanical properties :
#
#
# Convention : Reuss Voigt Hill
#
# Bulk Modulus (GPa) = 46.47104 49.44535 47.95820
# Shear Modulus (GPa) = 17.95346 20.18153 19.06749
#
# Velocity S-wave (km/s) = 3.18139 3.37302 3.27861
# Velocity P-wave (km/s) = 6.30023 6.56083 6.43185
#
# Compressibility (1/GPa) = 0.02151878
#
# Stress axis : x y z
#
# Youngs Moduli (GPa) = 50.12075 42.88273 94.34152
#
# Poissons Ratio (x) = 0.39231 0.13639
# Poissons Ratio (y) = 0.45853 0.52661
# Poissons Ratio (z) = 0.07246 0.23937
#
# Static dielectric constant tensor:
#      x y z
#    x 3.193440 0.000000 0.000000 
#    y 0.000000 3.031660 0.000000 
#    z 0.000000 0.000000 3.565130 
# 
# 
# High freq. dielectric constant tensor:
#      x y z
#    x 1.661650 0.000000 0.000000 
#    y 0.000000 1.664230 0.000000 
#    z 0.000000 0.000000 1.697670 
# 
# From -- ./inp_files/33647.got.cif
#   From: 2010.03.12/outbox.cif.g09.slc.cpg/sg47_17_cif.got.tgz:33647.got - 2010.04.14 03:12:58.
