data_PCOD8194055
_publ_section_title
;
Structure prediction by ZEFSAII (Michael W. Deem and Ramdas Pophale) SiO2 
 PCOD8194055
Probable space group: P M M M
;
_chemical_formula_sum "Si O2"
_cell_formula_units_Z 40
_cell_length_a 9.278149
_cell_length_b 12.675127
_cell_length_c 22.101806
_cell_angle_alpha 90.000000
_cell_angle_beta 90.000000
_cell_angle_gamma 90.000000
_cell_volume 2599.210332
_symmetry_space_group_name_H-M "P M M M"
_symmetry_group_IT_number 47
_symmetry_cell_setting 'orthorhombic'
loop_
_space_group_symop_operation_xyz
x,y,z
-x,-y,z
x,-y,-z
-x,y,-z
-x,-y,-z
x,y,-z
-x,y,z
x,-y,z
loop_
_atom_site_type_symbol
_atom_site_label
_atom_site_fract_x
_atom_site_fract_y
_atom_site_fract_z
Si Si1 0.830962 0.795951 0.861678
Si Si2 0.662889 0.874396 0.384440
Si Si3 0.163398 0.125875 0.500000
Si Si4 0.828392 0.000000 0.931522
Si Si5 0.165715 0.122193 0.731876
Si Si6 0.667684 0.378543 0.068628
O O1 0.796424 0.809998 0.790928
O O2 0.756313 0.690045 0.884037
O O3 0.000000 0.785452 0.873248
O O4 0.768213 0.896044 0.898348
O O5 0.500000 0.830864 0.388103
O O6 0.753718 0.830272 0.441073
O O7 0.735734 0.834711 0.322488
O O8 0.664011 0.000000 0.386064
O O9 0.000000 0.169117 0.500000
O O10 0.162925 0.000000 0.500000
O O11 0.000000 0.000000 0.928117
O O12 0.771280 0.000000 0.000000
O O13 0.000000 0.136562 0.712465
O O14 0.197137 0.000000 0.746697
O O15 0.500000 0.355402 0.077712
O O16 0.702960 0.500000 0.082341
O O17 0.713814 0.350382 0.000000
#
# Coordination Sequence:
#
# PCOD8194055 Si02
#       6
#     8   8   4   4   8   8
#     4  10  18  29  46  67  87 111 143 179 215 258
#     4   9  16  24  35  52  75 104 141 180 212 243
#     4   9  15  23  35  51  71 101 140 179 218 251
#     4   9  16  26  41  63  89 112 135 170 217 259
#     4   9  16  27  40  56  82 113 142 170 208 257
#     4   9  19  35  50  63  83 111 141 177 224 271
#
# _framework density 15.389288000000001
#
# number of rings (size 3 to 8) (size 9 to 14) (size 15 to 20)
#    0.000    2.800    1.000    2.100    0.000    6.000 
#    0.000    1.500    0.000    1.800    0.000    0.000 
#    0.000    0.000    0.000    0.900    0.000   16.900 
#
# Total GULP energy -495971.715360 kJ/mol
# GULP energy per Si atom -12399.292884 kJ/mol
# Density = 1.535426 g / cm^3
# Si number density = 15.389288 Si / 1000 Ang^3
#
#
#
# Elastic Constant Matrix: (Units=GPa)
#
#
# Indices 1 2 3 4 5 6 
#
# 1 89.1568 33.2703 72.2935 0.0000 0.0000 0.0000
# 2 33.2703 52.1792 46.1254 0.0000 0.0000 0.0000
# 3 72.2935 46.1254 131.6597 0.0000 0.0000 0.0000
# 4 0.0000 0.0000 0.0000 12.1674 0.0000 0.0000
# 5 0.0000 0.0000 0.0000 0.0000 27.5527 0.0000
# 6 0.0000 0.0000 0.0000 0.0000 0.0000 17.6686
#
#
#
# Elastic Compliance Matrix: (Units=1/GPa)
#
#
# Indices 1 2 3 4 5 6 
#
# 1 0.020960 -0.004622 -0.009890 0.000000 0.000000 0.000000
# 2 -0.004622 0.028782 -0.007545 0.000000 0.000000 0.000000
# 3 -0.009890 -0.007545 0.015669 0.000000 0.000000 0.000000
# 4 0.000000 0.000000 0.000000 0.082187 0.000000 0.000000
# 5 0.000000 0.000000 0.000000 0.000000 0.036294 0.000000
# 6 0.000000 0.000000 0.000000 0.000000 0.000000 0.056597
#
#
# Mechanical properties :
#
#
# Convention : Reuss Voigt Hill
#
# Bulk Modulus (GPa) = 46.95589 64.04156 55.49872
# Shear Modulus (GPa) = 17.14070 19.56485 18.35278
#
# Velocity S-wave (km/s) = 3.34100 3.56944 3.45710
# Velocity P-wave (km/s) = 6.74250 7.66111 7.21644
#
# Compressibility (1/GPa) = 0.02129658
#
# Stress axis : x y z
#
# Youngs Moduli (GPa) = 47.70932 34.74410 63.81957
#
# Poissons Ratio (x) = 0.16059 0.63116
# Poissons Ratio (y) = 0.22052 0.48154
# Poissons Ratio (z) = 0.47184 0.26216
#
# Static dielectric constant tensor:
#      x y z
#    x 2.910630 0.000000 0.000000 
#    y 0.000000 2.505350 0.000000 
#    z 0.000000 0.000000 3.051300 
# 
# 
# High freq. dielectric constant tensor:
#      x y z
#    x 1.587230 0.000000 0.000000 
#    y 0.000000 1.531070 0.000000 
#    z 0.000000 0.000000 1.599960 
# 
# From -- ./inp_files/10651.got.cif
#   From: 2010.03.12/outbox.cif.g09.slc.cpg/sg47_6_cif.got.tgz:10651.got - 2010.04.14 03:12:58.
