data_PCOD8194459
_publ_section_title
;
Structure prediction by ZEFSAII (Michael W. Deem and Ramdas Pophale) SiO2 
 PCOD8194459
Probable space group: P M M M
;
_chemical_formula_sum "Si O2"
_cell_formula_units_Z 48
_cell_length_a 9.383857
_cell_length_b 17.750870
_cell_length_c 15.573492
_cell_angle_alpha 90.000000
_cell_angle_beta 90.000000
_cell_angle_gamma 90.000000
_cell_volume 2594.101880
_symmetry_space_group_name_H-M "P M M M"
_symmetry_group_IT_number 47
_symmetry_cell_setting 'orthorhombic'
loop_
_space_group_symop_operation_xyz
x,y,z
-x,-y,z
x,-y,-z
-x,y,-z
-x,-y,-z
x,y,-z
-x,y,z
x,-y,z
loop_
_atom_site_type_symbol
_atom_site_label
_atom_site_fract_x
_atom_site_fract_y
_atom_site_fract_z
Si Si1 0.663792 0.189727 0.097254
Si Si2 0.168054 0.853718 0.593805
Si Si3 0.830388 0.416598 0.500000
Si Si4 0.335575 0.654391 0.179926
Si Si5 0.167526 0.914584 0.227888
Si Si6 0.832233 0.311752 0.349932
Si Si7 0.330565 0.500000 0.904266
O O1 0.500000 0.167139 0.112851
O O2 0.684467 0.279190 0.110516
O O3 0.757953 0.141643 0.162348
O O4 0.710507 0.170806 0.000000
O O5 0.231037 0.879141 0.500000
O O6 0.225590 0.902530 0.674425
O O7 0.211086 0.767589 0.609268
O O8 0.000000 0.862938 0.589240
O O9 0.765541 0.500000 0.500000
O O10 0.776044 0.375326 0.414765
O O11 0.000000 0.416740 0.500000
O O12 0.500000 0.645952 0.206632
O O13 0.245164 0.677121 0.261215
O O14 0.276139 0.575436 0.143089
O O15 0.000000 0.896662 0.224560
O O16 0.200802 0.000000 0.200341
O O17 0.000000 0.316702 0.333524
O O18 0.500000 0.500000 0.908820
O O19 0.266462 0.500000 0.000000
#
# Coordination Sequence:
#
# PCOD8194459 Si02
#       7
#     8   8   4   8   8   8   4
#     4  10  21  37  57  79 104 140 183 220 259 315
#     4   9  16  30  53  78 104 136 173 211 254 308
#     4   9  18  30  47  75 106 138 177 216 255 308
#     4  10  20  34  54  79 105 133 172 219 264 309
#     4  10  21  36  55  82 112 138 170 219 274 319
#     4  10  18  31  52  75 101 137 176 212 254 306
#     4   9  18  34  55  76 101 134 170 211 259 311
#
# _framework density 18.503515
#
# number of rings (size 3 to 8) (size 9 to 14) (size 15 to 20)
#    0.000    2.333    2.500    0.500    1.167    3.333 
#    0.000    3.750    0.000    4.000    0.000    1.167 
#    0.000    0.000    0.000    0.000    0.000    0.000 
#
# Total GULP energy -595026.872971 kJ/mol
# GULP energy per Si atom -12396.393187 kJ/mol
# Density = 1.846140 g / cm^3
# Si number density = 18.503515 Si / 1000 Ang^3
#
#
#
# Elastic Constant Matrix: (Units=GPa)
#
#
# Indices 1 2 3 4 5 6 
#
# 1 31.6626 31.8356 34.5525 0.0000 0.0000 0.0000
# 2 31.8356 96.7939 44.5511 0.0000 0.0000 0.0000
# 3 34.5525 44.5511 138.2887 0.0000 0.0000 0.0000
# 4 0.0000 0.0000 0.0000 26.1319 0.0000 0.0000
# 5 0.0000 0.0000 0.0000 0.0000 41.8607 0.0000
# 6 0.0000 0.0000 0.0000 0.0000 0.0000 19.4797
#
#
#
# Elastic Compliance Matrix: (Units=1/GPa)
#
#
# Indices 1 2 3 4 5 6 
#
# 1 0.056086 -0.014085 -0.009476 0.000000 0.000000 0.000000
# 2 -0.014085 0.015667 -0.001528 0.000000 0.000000 0.000000
# 3 -0.009476 -0.001528 0.010091 0.000000 0.000000 0.000000
# 4 0.000000 0.000000 0.000000 0.038267 0.000000 0.000000
# 5 0.000000 0.000000 0.000000 0.000000 0.023889 0.000000
# 6 0.000000 0.000000 0.000000 0.000000 0.000000 0.051336
#
#
# Mechanical properties :
#
#
# Convention : Reuss Voigt Hill
#
# Bulk Modulus (GPa) = 31.57960 54.29151 42.93556
# Shear Modulus (GPa) = 19.52595 27.88153 23.70374
#
# Velocity S-wave (km/s) = 3.25199 3.88599 3.58304
# Velocity P-wave (km/s) = 5.58610 7.03843 6.35390
#
# Compressibility (1/GPa) = 0.03166601
#
# Stress axis : x y z
#
# Youngs Moduli (GPa) = 17.82978 63.82760 99.09713
#
# Poissons Ratio (x) = 0.89903 0.93902
# Poissons Ratio (y) = 0.25114 0.15142
# Poissons Ratio (z) = 0.16895 0.09753
#
# Static dielectric constant tensor:
#      x y z
#    x 2.982050 0.000000 0.000000 
#    y 0.000000 3.714460 0.000000 
#    z 0.000000 0.000000 3.601440 
# 
# 
# High freq. dielectric constant tensor:
#      x y z
#    x 1.669360 0.000000 0.000000 
#    y 0.000000 1.726580 0.000000 
#    z 0.000000 0.000000 1.732910 
# 
# From -- ./inp_files/21161.got.cif
#   From: 2010.03.12/outbox.cif.g09.slc.cpg/sg47_11_cif.got.tgz:21161.got - 2010.04.14 03:12:58.
