data_PCOD8194322
_publ_section_title
;
Structure prediction by ZEFSAII (Michael W. Deem and Ramdas Pophale) SiO2 
 PCOD8194322
Probable space group: P M M M
;
_chemical_formula_sum "Si O2"
_cell_formula_units_Z 52
_cell_length_a 8.952514
_cell_length_b 12.153396
_cell_length_c 25.508413
_cell_angle_alpha 90.000000
_cell_angle_beta 90.000000
_cell_angle_gamma 90.000000
_cell_volume 2775.403283
_symmetry_space_group_name_H-M "P M M M"
_symmetry_group_IT_number 47
_symmetry_cell_setting 'orthorhombic'
loop_
_space_group_symop_operation_xyz
x,y,z
-x,-y,z
x,-y,-z
-x,y,-z
-x,-y,-z
x,y,-z
-x,y,z
x,-y,z
loop_
_atom_site_type_symbol
_atom_site_label
_atom_site_fract_x
_atom_site_fract_y
_atom_site_fract_z
Si Si1 0.671340 0.721628 0.842194
Si Si2 0.821579 0.260266 0.654884
Si Si3 0.176667 0.779156 0.940592
Si Si4 0.177593 0.876521 0.442135
Si Si5 0.665381 0.000000 0.938415
Si Si6 0.823472 0.128523 0.242037
Si Si7 0.825897 0.500000 0.676019
Si Si8 0.666167 0.500000 0.220134
O O1 0.500000 0.753606 0.852133
O O2 0.752820 0.697536 0.897983
O O3 0.746204 0.819654 0.808932
O O4 0.689632 0.606955 0.813918
O O5 0.755921 0.202049 0.602871
O O6 0.765984 0.194055 0.706256
O O7 0.758328 0.385921 0.652998
O O8 0.000000 0.260476 0.654763
O O9 0.000000 0.780242 0.937248
O O10 0.239656 0.895665 0.920836
O O11 0.228164 0.749533 0.000000
O O12 0.228425 0.835223 0.500000
O O13 0.000000 0.876823 0.438822
O O14 0.237222 0.000000 0.432457
O O15 0.500000 0.000000 0.912387
O O16 0.647168 0.000000 0.000000
O O17 0.000000 0.141888 0.235602
O O18 0.779049 0.000000 0.247318
O O19 0.795889 0.500000 0.737486
O O20 0.000000 0.500000 0.665374
O O21 0.500000 0.500000 0.245627
#
# Coordination Sequence:
#
# PCOD8194322 Si02
#       8
#     8   8   8   8   4   8   4   4
#     4  11  23  38  57  78 104 136 174 219 267 320
#     4   9  16  27  44  69  99 134 178 219 259 313
#     4  10  21  37  56  79 107 139 175 214 259 316
#     4   8  13  22  38  62  97 141 180 213 257 315
#     4   9  17  31  53  79 107 141 177 211 252 303
#     4  10  20  33  51  76 106 138 171 213 266 320
#     4  10  18  30  51  73  97 134 176 218 268 319
#     4  10  22  40  57  76 101 136 180 221 264 317
#
# _framework density 18.736017
#
# number of rings (size 3 to 8) (size 9 to 14) (size 15 to 20)
#    0.000    2.385    1.538    2.077    1.077    4.615 
#    0.000    0.769    0.000    4.615    0.000    0.000 
#    0.000    3.077    0.000    8.462    0.000    7.692 
#
# Total GULP energy -644485.440610 kJ/mol
# GULP energy per Si atom -12393.950781 kJ/mol
# Density = 1.869337 g / cm^3
# Si number density = 18.736017 Si / 1000 Ang^3
#
#
#
# Elastic Constant Matrix: (Units=GPa)
#
#
# Indices 1 2 3 4 5 6 
#
# 1 40.1921 25.8384 31.6588 0.0000 0.0000 0.0000
# 2 25.8384 123.5809 61.9829 0.0000 0.0000 0.0000
# 3 31.6588 61.9829 141.6215 0.0000 0.0000 0.0000
# 4 0.0000 0.0000 0.0000 -7.1163 0.0000 0.0000
# 5 0.0000 0.0000 0.0000 0.0000 8.7543 0.0000
# 6 0.0000 0.0000 0.0000 0.0000 0.0000 30.9186
#
#
#
# Elastic Compliance Matrix: (Units=1/GPa)
#
#
# Indices 1 2 3 4 5 6 
#
# 1 0.031619 -0.003928 -0.005349 0.000000 0.000000 0.000000
# 2 -0.003928 0.010856 -0.003873 0.000000 0.000000 0.000000
# 3 -0.005349 -0.003873 0.009952 0.000000 0.000000 0.000000
# 4 0.000000 0.000000 0.000000 -0.140522 0.000000 0.000000
# 5 0.000000 0.000000 0.000000 0.000000 0.114229 0.000000
# 6 0.000000 0.000000 0.000000 0.000000 0.000000 0.032343
#
#
# Mechanical properties :
#
#
# Convention : Reuss Voigt Hill
#
# Bulk Modulus (GPa) = 38.27561 60.48384 49.37973
# Shear Modulus (GPa) = 53.48382 18.90562 36.19472
#
# Velocity S-wave (km/s) = 5.34864 3.18000 4.40002
# Velocity P-wave (km/s) = 7.65619 6.77019 7.22678
#
# Compressibility (1/GPa) = 0.02612630
#
# Stress axis : x y z
#
# Youngs Moduli (GPa) = 31.62639 92.11730 100.48281
#
# Poissons Ratio (x) = 0.36184 0.53749
# Poissons Ratio (y) = 0.12423 0.38918
# Poissons Ratio (z) = 0.16917 0.35678
#
# Static dielectric constant tensor:
#      x y z
#    x 3.158510 0.000000 0.000000 
#    y 0.000000 3.661600 0.000000 
#    z 0.000000 0.000000 3.620290 
# 
# 
# High freq. dielectric constant tensor:
#      x y z
#    x 1.692730 0.000000 0.000000 
#    y 0.000000 1.726600 0.000000 
#    z 0.000000 0.000000 1.730110 
# 
# From -- ./inp_files/33331.got.cif
#   From: 2010.03.12/outbox.cif.g09.slc.cpg/sg47_17_cif.got.tgz:33331.got - 2010.04.14 03:12:58.
