data_PCOD8194478
_publ_section_title
;
Structure prediction by ZEFSAII (Michael W. Deem and Ramdas Pophale) SiO2 
 PCOD8194478
Probable space group: P M M M
;
_chemical_formula_sum "Si O2"
_cell_formula_units_Z 52
_cell_length_a 8.664335
_cell_length_b 28.234703
_cell_length_c 11.776490
_cell_angle_alpha 90.000000
_cell_angle_beta 90.000000
_cell_angle_gamma 90.000000
_cell_volume 2880.940753
_symmetry_space_group_name_H-M "P M M M"
_symmetry_group_IT_number 47
_symmetry_cell_setting 'orthorhombic'
loop_
_space_group_symop_operation_xyz
x,y,z
-x,-y,z
x,-y,-z
-x,y,-z
-x,-y,-z
x,y,-z
-x,y,z
x,-y,z
loop_
_atom_site_type_symbol
_atom_site_label
_atom_site_fract_x
_atom_site_fract_y
_atom_site_fract_z
Si Si1 0.817694 0.317053 0.269350
Si Si2 0.183451 0.860044 0.271480
Si Si3 0.816627 0.052634 0.872959
Si Si4 0.682501 0.715744 0.500000
Si Si5 0.816684 0.228551 0.873716
Si Si6 0.680937 0.597761 0.132097
Si Si7 0.826962 0.500000 0.865704
Si Si8 0.317785 0.176182 0.500000
O O1 0.740997 0.313319 0.392006
O O2 0.753585 0.274057 0.192970
O O3 0.772753 0.365454 0.208715
O O4 0.000000 0.314311 0.284185
O O5 0.245673 0.909102 0.217239
O O6 0.241186 0.818303 0.189378
O O7 0.259081 0.853235 0.393025
O O8 0.000000 0.859686 0.285209
O O9 0.000000 0.055119 0.875721
O O10 0.761808 0.000000 0.835823
O O11 0.754817 0.064152 0.000000
O O12 0.500000 0.716623 0.500000
O O13 0.748099 0.769848 0.500000
O O14 0.000000 0.229610 0.879707
O O15 0.745815 0.229075 0.000000
O O16 0.500000 0.603365 0.152435
O O17 0.733852 0.546131 0.174898
O O18 0.724011 0.605816 0.000000
O O19 0.000000 0.500000 0.813924
O O20 0.836494 0.500000 0.000000
O O21 0.500000 0.177631 0.500000
#
# Coordination Sequence:
#
# PCOD8194478 Si02
#       8
#     8   8   8   4   8   8   4   4
#     4  11  21  34  54  78 106 137 177 223 266 314
#     4  10  18  31  53  76 100 133 175 215 255 309
#     4   8  14  26  48  80 111 133 160 208 267 318
#     4  11  23  39  55  71  99 139 182 222 269 322
#     4   9  17  28  46  75 105 130 161 207 260 311
#     4  10  20  34  53  80 115 150 181 217 267 322
#     4   9  17  31  53  80 109 144 187 229 268 311
#     4  11  23  37  52  70 100 137 176 220 265 310
#
# _framework density 18.049659999999999
#
# number of rings (size 3 to 8) (size 9 to 14) (size 15 to 20)
#    0.000    2.231    1.538    3.000    0.000    4.923 
#    0.000    0.385    0.000    6.000    0.000    4.308 
#    0.000    0.000    0.000    0.000    0.000    0.000 
#
# Total GULP energy -644802.200794 kJ/mol
# GULP energy per Si atom -12400.042323 kJ/mol
# Density = 1.800858 g / cm^3
# Si number density = 18.049660 Si / 1000 Ang^3
#
#
#
# Elastic Constant Matrix: (Units=GPa)
#
#
# Indices 1 2 3 4 5 6 
#
# 1 44.2264 23.1760 26.6838 0.0000 0.0000 0.0000
# 2 23.1760 144.1203 70.6304 0.0000 0.0000 0.0000
# 3 26.6838 70.6304 135.7436 0.0000 0.0000 0.0000
# 4 0.0000 0.0000 0.0000 12.4223 0.0000 0.0000
# 5 0.0000 0.0000 0.0000 0.0000 14.5994 0.0000
# 6 0.0000 0.0000 0.0000 0.0000 0.0000 17.1474
#
#
#
# Elastic Compliance Matrix: (Units=1/GPa)
#
#
# Indices 1 2 3 4 5 6 
#
# 1 0.026194 -0.002267 -0.003970 0.000000 0.000000 0.000000
# 2 -0.002267 0.009510 -0.004503 0.000000 0.000000 0.000000
# 3 -0.003970 -0.004503 0.010490 0.000000 0.000000 0.000000
# 4 0.000000 0.000000 0.000000 0.080500 0.000000 0.000000
# 5 0.000000 0.000000 0.000000 0.000000 0.068496 0.000000
# 6 0.000000 0.000000 0.000000 0.000000 0.000000 0.058318
#
#
# Mechanical properties :
#
#
# Convention : Reuss Voigt Hill
#
# Bulk Modulus (GPa) = 40.46017 62.78562 51.62289
# Shear Modulus (GPa) = 17.65387 22.40718 20.03052
#
# Velocity S-wave (km/s) = 3.13081 3.52720 3.33490
# Velocity P-wave (km/s) = 5.96104 7.17277 6.59479
#
# Compressibility (1/GPa) = 0.02471566
#
# Stress axis : x y z
#
# Youngs Moduli (GPa) = 38.17691 105.15489 95.32964
#
# Poissons Ratio (x) = 0.23837 0.37842
# Poissons Ratio (y) = 0.08654 0.42923
# Poissons Ratio (z) = 0.15155 0.47346
#
# Static dielectric constant tensor:
#      x y z
#    x 3.055110 0.000000 0.000000 
#    y 0.000000 3.564760 0.000000 
#    z 0.000000 0.000000 3.251950 
# 
# 
# High freq. dielectric constant tensor:
#      x y z
#    x 1.674590 0.000000 0.000000 
#    y 0.000000 1.706230 0.000000 
#    z 0.000000 0.000000 1.690040 
# 
# From -- ./inp_files/15514.got.cif
#   From: 2010.03.12/outbox.cif.g09.slc.cpg/sg47_8_cif.got.tgz:15514.got - 2010.04.14 03:12:58.
