data_PCOD8194958
_publ_section_title
;
Structure prediction by ZEFSAII (Michael W. Deem and Ramdas Pophale) SiO2 
 PCOD8194958
Probable space group: P M M M
;
_chemical_formula_sum "Si O2"
_cell_formula_units_Z 64
_cell_length_a 25.309729
_cell_length_b 14.807305
_cell_length_c 9.060890
_cell_angle_alpha 90.000000
_cell_angle_beta 90.000000
_cell_angle_gamma 90.000000
_cell_volume 3395.739568
_symmetry_space_group_name_H-M "P M M M"
_symmetry_group_IT_number 47
_symmetry_cell_setting 'orthorhombic'
loop_
_space_group_symop_operation_xyz
x,y,z
-x,-y,z
x,-y,-z
-x,y,-z
-x,-y,-z
x,y,-z
-x,y,z
x,-y,z
loop_
_atom_site_type_symbol
_atom_site_label
_atom_site_fract_x
_atom_site_fract_y
_atom_site_fract_z
Si Si1 0.810526 0.098997 0.834529
Si Si2 0.441551 0.598556 0.175157
Si Si3 0.440332 0.105398 0.671397
Si Si4 0.057985 0.720929 0.829856
Si Si5 0.251674 0.726764 0.828802
Si Si6 0.368186 0.245791 0.823509
Si Si7 0.916735 0.899213 0.327265
Si Si8 0.156840 0.603221 0.176252
O O1 0.766668 0.171786 0.797932
O O2 0.855653 0.108878 0.714023
O O3 0.784077 0.000000 0.824507
O O4 0.833798 0.115479 0.000000
O O5 0.500000 0.614553 0.239518
O O6 0.420544 0.500000 0.223185
O O7 0.403522 0.673556 0.240651
O O8 0.443082 0.605617 0.000000
O O9 0.433169 0.128098 0.500000
O O10 0.500000 0.134092 0.722054
O O11 0.393943 0.154413 0.762152
O O12 0.432639 0.000000 0.701510
O O13 0.053024 0.818526 0.752936
O O14 0.104397 0.656312 0.764959
O O15 0.000000 0.674339 0.810236
O O16 0.070698 0.739124 0.000000
O O17 0.310276 0.727837 0.759488
O O18 0.209653 0.654059 0.761991
O O19 0.255899 0.703503 0.000000
O O20 0.366552 0.238130 0.000000
O O21 0.923946 0.885299 0.500000
O O22 0.937679 0.000000 0.281553
O O23 0.156160 0.500000 0.235638
O O24 0.156341 0.603557 0.000000
#
# Coordination Sequence:
#
# PCOD8194958 Si02
#       8
#     8   8   8   8   8   8   8   8
#     4   9  16  29  50  70  94 131 168 202 242 294
#     4   8  14  25  41  64  97 131 158 192 243 295
#     4   9  19  36  54  71  98 139 179 213 257 309
#     4  10  20  34  54  79 105 135 173 213 253 303
#     4   9  17  29  46  73 105 133 162 201 255 308
#     4  10  19  29  48  78 105 130 167 213 255 299
#     4  10  20  33  51  76 104 133 165 204 252 301
#     4   9  17  31  52  77 105 135 169 212 259 304
#
# _framework density 18.847147
#
# number of rings (size 3 to 8) (size 9 to 14) (size 15 to 20)
#    0.000    2.750    1.250    1.500    0.000    3.500 
#    0.000    7.500    0.000    2.250    0.000    2.625 
#    0.000    0.000    0.000    0.000    0.000    0.000 
#
# Total GULP energy -792944.644296 kJ/mol
# GULP energy per Si atom -12389.760067 kJ/mol
# Density = 1.880425 g / cm^3
# Si number density = 18.847147 Si / 1000 Ang^3
#
#
#
# Elastic Constant Matrix: (Units=GPa)
#
#
# Indices 1 2 3 4 5 6 
#
# 1 143.0794 75.9843 21.3654 0.0000 0.0000 0.0000
# 2 75.9843 131.0898 23.2158 0.0000 0.0000 0.0000
# 3 21.3654 23.2158 25.2386 0.0000 0.0000 0.0000
# 4 0.0000 0.0000 0.0000 10.5229 0.0000 0.0000
# 5 0.0000 0.0000 0.0000 0.0000 9.6972 0.0000
# 6 0.0000 0.0000 0.0000 0.0000 0.0000 12.9498
#
#
#
# Elastic Compliance Matrix: (Units=1/GPa)
#
#
# Indices 1 2 3 4 5 6 
#
# 1 0.010408 -0.005343 -0.003896 0.000000 0.000000 0.000000
# 2 -0.005343 0.011856 -0.006382 0.000000 0.000000 0.000000
# 3 -0.003896 -0.006382 0.048791 0.000000 0.000000 0.000000
# 4 0.000000 0.000000 0.000000 0.095031 0.000000 0.000000
# 5 0.000000 0.000000 0.000000 0.000000 0.103123 0.000000
# 6 0.000000 0.000000 0.000000 0.000000 0.000000 0.077221
#
#
# Mechanical properties :
#
#
# Convention : Reuss Voigt Hill
#
# Bulk Modulus (GPa) = 25.11825 60.05986 42.58905
# Shear Modulus (GPa) = 12.78953 18.55679 15.67316
#
# Velocity S-wave (km/s) = 2.60781 3.14123 2.88686
# Velocity P-wave (km/s) = 4.73538 6.71509 5.81017
#
# Compressibility (1/GPa) = 0.03981170
#
# Stress axis : x y z
#
# Youngs Moduli (GPa) = 96.07568 84.34749 20.49557
#
# Poissons Ratio (x) = 0.45068 0.07986
# Poissons Ratio (y) = 0.51334 0.13081
# Poissons Ratio (z) = 0.37434 0.53834
#
# Static dielectric constant tensor:
#      x y z
#    x 3.632220 0.000000 0.000000 
#    y 0.000000 3.701830 0.000000 
#    z 0.000000 0.000000 2.963020 
# 
# 
# High freq. dielectric constant tensor:
#      x y z
#    x 1.734350 0.000000 0.000000 
#    y 0.000000 1.739640 0.000000 
#    z 0.000000 0.000000 1.676170 
# 
# From -- ./inp_files/12770.got.cif
#   From: 2010.03.12/outbox.cif.g09.slc.cpg/sg47_7_cif.got.tgz:12770.got - 2010.04.14 03:12:58.
