data_PCOD8194518
_publ_section_title
;
Structure prediction by ZEFSAII (Michael W. Deem and Ramdas Pophale) SiO2 
 PCOD8194518
Probable space group: P M M M
;
_chemical_formula_sum "Si O2"
_cell_formula_units_Z 52
_cell_length_a 9.427940
_cell_length_b 12.116614
_cell_length_c 25.640694
_cell_angle_alpha 90.000000
_cell_angle_beta 90.000000
_cell_angle_gamma 90.000000
_cell_volume 2929.057238
_symmetry_space_group_name_H-M "P M M M"
_symmetry_group_IT_number 47
_symmetry_cell_setting 'orthorhombic'
loop_
_space_group_symop_operation_xyz
x,y,z
-x,-y,z
x,-y,-z
-x,y,-z
-x,-y,-z
x,y,-z
-x,y,z
x,-y,z
loop_
_atom_site_type_symbol
_atom_site_label
_atom_site_fract_x
_atom_site_fract_y
_atom_site_fract_z
Si Si1 0.839121 0.695435 0.835938
Si Si2 0.832974 0.258710 0.654231
Si Si3 0.159429 0.797788 0.941694
Si Si4 0.168709 0.875537 0.442452
Si Si5 0.656107 0.000000 0.938277
Si Si6 0.833711 0.124222 0.246458
Si Si7 0.834608 0.500000 0.685193
Si Si8 0.331232 0.500000 0.209097
O O1 0.829535 0.702027 0.898802
O O2 0.801309 0.811155 0.807419
O O3 0.722825 0.607094 0.820733
O O4 0.000000 0.659752 0.819651
O O5 0.767052 0.205334 0.601702
O O6 0.769744 0.196079 0.705235
O O7 0.797595 0.389298 0.653009
O O8 0.000000 0.240876 0.654605
O O9 0.000000 0.845650 0.943280
O O10 0.261567 0.892186 0.920031
O O11 0.202094 0.755157 0.000000
O O12 0.223989 0.839652 0.500000
O O13 0.000000 0.870243 0.442024
O O14 0.218771 0.000000 0.429919
O O15 0.500000 0.000000 0.912999
O O16 0.647888 0.000000 0.000000
O O17 0.000000 0.111952 0.254701
O O18 0.766863 0.000000 0.244479
O O19 0.732761 0.500000 0.733992
O O20 0.000000 0.500000 0.702514
O O21 0.500000 0.500000 0.211181
#
# Coordination Sequence:
#
# PCOD8194518 Si02
#       8
#     8   8   8   8   4   8   4   4
#     4  10  20  35  56  76 100 131 166 207 252 304
#     4   9  15  24  41  64  93 129 169 206 241 291
#     4   9  18  32  51  76 102 129 166 212 256 300
#     4   8  13  21  34  57  94 136 169 199 244 298
#     4   9  17  29  47  71 103 143 175 199 240 301
#     4   9  16  25  43  72  98 122 159 203 244 292
#     4  10  18  32  51  71  95 130 172 208 250 298
#     4  12  24  38  55  74  99 130 170 211 254 308
#
# _framework density 17.753152
#
# number of rings (size 3 to 8) (size 9 to 14) (size 15 to 20)
#    0.000    2.692    1.538    1.846    1.077    3.385 
#    0.000    0.769    0.000    4.615    0.000    0.000 
#    0.000    1.231    0.000    1.692    0.000    1.538 
#
# Total GULP energy -644355.524971 kJ/mol
# GULP energy per Si atom -12391.452403 kJ/mol
# Density = 1.771274 g / cm^3
# Si number density = 17.753152 Si / 1000 Ang^3
#
#
#
# Elastic Constant Matrix: (Units=GPa)
#
#
# Indices 1 2 3 4 5 6 
#
# 1 61.3657 32.6326 25.2319 0.0000 0.0000 0.0000
# 2 32.6326 129.6181 65.8894 0.0000 0.0000 0.0000
# 3 25.2319 65.8894 132.7506 0.0000 0.0000 0.0000
# 4 0.0000 0.0000 0.0000 26.9265 0.0000 0.0000
# 5 0.0000 0.0000 0.0000 0.0000 5.9402 0.0000
# 6 0.0000 0.0000 0.0000 0.0000 0.0000 14.9575
#
#
#
# Elastic Compliance Matrix: (Units=1/GPa)
#
#
# Indices 1 2 3 4 5 6 
#
# 1 0.019085 -0.003960 -0.001662 0.000000 0.000000 0.000000
# 2 -0.003960 0.011140 -0.004777 0.000000 0.000000 0.000000
# 3 -0.001662 -0.004777 0.010220 0.000000 0.000000 0.000000
# 4 0.000000 0.000000 0.000000 0.037138 0.000000 0.000000
# 5 0.000000 0.000000 0.000000 0.000000 0.168344 0.000000
# 6 0.000000 0.000000 0.000000 0.000000 0.000000 0.066856
#
#
# Mechanical properties :
#
#
# Convention : Reuss Voigt Hill
#
# Bulk Modulus (GPa) = 50.89700 63.47136 57.18418
# Shear Modulus (GPa) = 14.70031 22.89689 18.79860
#
# Velocity S-wave (km/s) = 2.88069 3.59519 3.25759
# Velocity P-wave (km/s) = 6.30841 7.28448 6.81394
#
# Compressibility (1/GPa) = 0.01964752
#
# Stress axis : x y z
#
# Youngs Moduli (GPa) = 52.39743 89.76637 97.85110
#
# Poissons Ratio (x) = 0.35547 0.16263
# Poissons Ratio (y) = 0.20749 0.46739
# Poissons Ratio (z) = 0.08708 0.42877
#
# Static dielectric constant tensor:
#      x y z
#    x 2.884320 0.000000 0.000000 
#    y 0.000000 3.322320 0.000000 
#    z 0.000000 0.000000 3.555160 
# 
# 
# High freq. dielectric constant tensor:
#      x y z
#    x 1.624580 0.000000 0.000000 
#    y 0.000000 1.681050 0.000000 
#    z 0.000000 0.000000 1.691320 
# 
# From -- ./inp_files/33333.got.cif
#   From: 2010.03.12/outbox.cif.g09.slc.cpg/sg47_17_cif.got.tgz:33333.got - 2010.04.14 03:12:58.
