data_PCOD8194414
_publ_section_title
;
Structure prediction by ZEFSAII (Michael W. Deem and Ramdas Pophale) SiO2 
 PCOD8194414
Probable space group: P M M M
;
_chemical_formula_sum "Si O2"
_cell_formula_units_Z 52
_cell_length_a 8.905025
_cell_length_b 22.179829
_cell_length_c 14.845773
_cell_angle_alpha 90.000000
_cell_angle_beta 90.000000
_cell_angle_gamma 90.000000
_cell_volume 2932.217303
_symmetry_space_group_name_H-M "P M M M"
_symmetry_group_IT_number 47
_symmetry_cell_setting 'orthorhombic'
loop_
_space_group_symop_operation_xyz
x,y,z
-x,-y,z
x,-y,-z
-x,y,-z
-x,-y,-z
x,y,-z
-x,y,z
x,-y,z
loop_
_atom_site_type_symbol
_atom_site_label
_atom_site_fract_x
_atom_site_fract_y
_atom_site_fract_z
Si Si1 0.321800 0.433351 0.000000
Si Si2 0.321744 0.643902 0.166603
Si Si3 0.177369 0.568650 0.680570
Si Si4 0.822663 0.000000 0.894925
Si Si5 0.321303 0.889929 0.209751
Si Si6 0.321905 0.773523 0.898300
Si Si7 0.321978 0.931737 0.598697
Si Si8 0.333915 0.570908 0.500000
O O1 0.264086 0.398221 0.913499
O O2 0.250900 0.500000 0.000000
O O3 0.500000 0.436278 0.000000
O O4 0.500000 0.641092 0.179518
O O5 0.241133 0.618443 0.253266
O O6 0.265438 0.711437 0.146100
O O7 0.231434 0.500000 0.703659
O O8 0.240075 0.591462 0.585850
O O9 0.000000 0.571041 0.678638
O O10 0.753831 0.058355 0.848556
O O11 0.000000 0.000000 0.881225
O O12 0.778442 0.000000 0.000000
O O13 0.500000 0.897747 0.203460
O O14 0.266497 0.827076 0.166694
O O15 0.266996 0.892627 0.314949
O O16 0.500000 0.772440 0.904742
O O17 0.256635 0.781079 0.000000
O O18 0.264240 0.907332 0.500000
O O19 0.500000 0.931625 0.597172
O O20 0.263426 0.000000 0.612362
O O21 0.351993 0.500000 0.500000
O O22 0.500000 0.600884 0.500000
#
# Coordination Sequence:
#
# PCOD8194414 Si02
#       8
#     4   8   8   4   8   8   8   4
#     4   9  16  26  45  71  95 126 169 210 250 299
#     4  10  18  31  50  71 100 134 171 211 254 306
#     4  10  20  33  50  75 105 134 165 207 260 311
#     4  11  23  35  46  69 106 136 161 205 260 303
#     4  10  18  31  54  77  97 129 173 211 251 301
#     4   9  17  30  49  74 100 129 167 217 261 295
#     4   8  13  23  43  73 103 126 153 196 246 292
#     4   9  17  31  53  79 103 129 165 208 255 310
#
# _framework density 17.734020999999998
#
# number of rings (size 3 to 8) (size 9 to 14) (size 15 to 20)
#    0.000    2.538    1.538    2.308    0.000    3.692 
#    0.000    1.154    1.692    3.231    0.000    0.000 
#    0.000    0.000    0.000    0.000    0.000    0.000 
#
# Total GULP energy -644477.891213 kJ/mol
# GULP energy per Si atom -12393.805600 kJ/mol
# Density = 1.769366 g / cm^3
# Si number density = 17.734021 Si / 1000 Ang^3
#
#
#
# Elastic Constant Matrix: (Units=GPa)
#
#
# Indices 1 2 3 4 5 6 
#
# 1 32.3520 27.3993 33.5608 0.0000 0.0000 0.0000
# 2 27.3993 142.6496 93.4289 0.0000 0.0000 0.0000
# 3 33.5608 93.4289 189.7972 0.0000 0.0000 0.0000
# 4 0.0000 0.0000 0.0000 75.6613 0.0000 0.0000
# 5 0.0000 0.0000 0.0000 0.0000 70.2094 0.0000
# 6 0.0000 0.0000 0.0000 0.0000 0.0000 10.8211
#
#
#
# Elastic Compliance Matrix: (Units=1/GPa)
#
#
# Indices 1 2 3 4 5 6 
#
# 1 0.039693 -0.004467 -0.004820 0.000000 0.000000 0.000000
# 2 -0.004467 0.010848 -0.004550 0.000000 0.000000 0.000000
# 3 -0.004820 -0.004550 0.008361 0.000000 0.000000 0.000000
# 4 0.000000 0.000000 0.000000 0.013217 0.000000 0.000000
# 5 0.000000 0.000000 0.000000 0.000000 0.014243 0.000000
# 6 0.000000 0.000000 0.000000 0.000000 0.000000 0.092412
#
#
# Mechanical properties :
#
#
# Convention : Reuss Voigt Hill
#
# Bulk Modulus (GPa) = 32.02254 74.84187 53.43221
# Shear Modulus (GPa) = 23.05647 45.36567 34.21107
#
# Velocity S-wave (km/s) = 3.60964 5.06327 4.39694
# Velocity P-wave (km/s) = 5.95558 8.74507 7.48149
#
# Compressibility (1/GPa) = 0.03122800
#
# Stress axis : x y z
#
# Youngs Moduli (GPa) = 25.19319 92.17868 119.60395
#
# Poissons Ratio (x) = 0.41180 0.57645
# Poissons Ratio (y) = 0.11255 0.54423
# Poissons Ratio (z) = 0.12142 0.41944
#
# Static dielectric constant tensor:
#      x y z
#    x 2.905690 0.000000 0.000000 
#    y 0.000000 3.386320 0.000000 
#    z 0.000000 0.000000 3.671680 
# 
# 
# High freq. dielectric constant tensor:
#      x y z
#    x 1.645710 0.000000 0.000000 
#    y 0.000000 1.669170 0.000000 
#    z 0.000000 0.000000 1.704190 
# 
# From -- ./inp_files/21522.got.cif
#   From: 2010.03.12/outbox.cif.g09.slc.cpg/sg47_11_cif.got.tgz:21522.got - 2010.04.14 03:12:58.
