data_PCOD8194762
_publ_section_title
;
Structure prediction by ZEFSAII (Michael W. Deem and Ramdas Pophale) SiO2 
 PCOD8194762
Probable space group: P M M M
;
_chemical_formula_sum "Si O2"
_cell_formula_units_Z 64
_cell_length_a 9.189317
_cell_length_b 34.063707
_cell_length_c 13.559176
_cell_angle_alpha 90.000000
_cell_angle_beta 90.000000
_cell_angle_gamma 90.000000
_cell_volume 4244.323126
_symmetry_space_group_name_H-M "P M M M"
_symmetry_group_IT_number 47
_symmetry_cell_setting 'orthorhombic'
loop_
_space_group_symop_operation_xyz
x,y,z
-x,-y,z
x,-y,-z
-x,y,-z
-x,-y,-z
x,y,-z
-x,y,z
x,-y,z
loop_
_atom_site_type_symbol
_atom_site_label
_atom_site_fract_x
_atom_site_fract_y
_atom_site_fract_z
Si Si1 0.669397 0.955258 0.612969
Si Si2 0.337209 0.383012 0.117135
Si Si3 0.165859 0.837558 0.889585
Si Si4 0.329857 0.232447 0.200662
Si Si5 0.829085 0.694571 0.885172
Si Si6 0.836535 0.456667 0.117286
Si Si7 0.169021 0.885320 0.298289
Si Si8 0.666391 0.184805 0.389510
O O1 0.712166 0.946351 0.500000
O O2 0.500000 0.947216 0.629304
O O3 0.759338 0.927531 0.685521
O O4 0.708427 0.000000 0.639772
O O5 0.500000 0.378076 0.159742
O O6 0.238620 0.346518 0.150234
O O7 0.268550 0.423103 0.161236
O O8 0.341459 0.385504 0.000000
O O9 0.273006 0.801203 0.872475
O O10 0.200424 0.872925 0.814701
O O11 0.000000 0.822635 0.874341
O O12 0.190001 0.853659 0.000000
O O13 0.500000 0.239211 0.180738
O O14 0.243769 0.272187 0.181093
O O15 0.296888 0.219726 0.313412
O O16 0.000000 0.693400 0.864911
O O17 0.795088 0.702782 0.000000
O O18 0.781670 0.500000 0.150688
O O19 0.000000 0.449409 0.156585
O O20 0.837357 0.454212 0.000000
O O21 0.234888 0.853125 0.371857
O O22 0.000000 0.888646 0.321802
O O23 0.694555 0.200678 0.500000
O O24 0.500000 0.171183 0.375131
#
# Coordination Sequence:
#
# PCOD8194762 Si02
#       8
#     8   8   8   8   8   8   8   8
#     4   9  18  32  48  65  87 115 140 160 192 242
#     4   9  16  24  34  49  68  91 124 166 205 238
#     4   9  18  32  46  60  83 113 139 163 197 240
#     4  10  19  29  43  63  82 101 132 171 202 230
#     4  10  19  29  40  53  74 105 135 164 203 248
#     4   8  13  21  32  45  63  89 121 157 198 244
#     4  10  19  29  45  69  90 108 135 170 201 228
#     4   9  18  32  47  62  84 113 137 157 191 241
#
# _framework density 15.078965
#
# number of rings (size 3 to 8) (size 9 to 14) (size 15 to 20)
#    0.000    2.750    0.000    3.000    0.000    7.500 
#    0.000    1.875    0.000    0.375    0.000    2.625 
#    0.000    0.000    0.000    0.000    0.000    0.625 
#
# Total GULP energy -793505.164763 kJ/mol
# GULP energy per Si atom -12398.518199 kJ/mol
# Density = 1.504464 g / cm^3
# Si number density = 15.078965 Si / 1000 Ang^3
#
#
#
# Elastic Constant Matrix: (Units=GPa)
#
#
# Indices 1 2 3 4 5 6 
#
# 1 94.8345 69.9974 34.0956 0.0000 0.0000 0.0000
# 2 69.9974 128.3528 43.3279 0.0000 0.0000 0.0000
# 3 34.0956 43.3279 66.6834 0.0000 0.0000 0.0000
# 4 0.0000 0.0000 0.0000 12.5970 0.0000 0.0000
# 5 0.0000 0.0000 0.0000 0.0000 16.8188 0.0000
# 6 0.0000 0.0000 0.0000 0.0000 0.0000 32.9843
#
#
#
# Elastic Compliance Matrix: (Units=1/GPa)
#
#
# Indices 1 2 3 4 5 6 
#
# 1 0.018329 -0.008752 -0.003685 0.000000 0.000000 0.000000
# 2 -0.008752 0.014159 -0.004725 0.000000 0.000000 0.000000
# 3 -0.003685 -0.004725 0.019951 0.000000 0.000000 0.000000
# 4 0.000000 0.000000 0.000000 0.079384 0.000000 0.000000
# 5 0.000000 0.000000 0.000000 0.000000 0.059457 0.000000
# 6 0.000000 0.000000 0.000000 0.000000 0.000000 0.030317
#
#
# Mechanical properties :
#
#
# Convention : Reuss Voigt Hill
#
# Bulk Modulus (GPa) = 55.20407 64.96804 60.08605
# Shear Modulus (GPa) = 19.08685 21.97666 20.53175
#
# Velocity S-wave (km/s) = 3.56166 3.82178 3.69401
# Velocity P-wave (km/s) = 7.32143 7.91539 7.62420
#
# Compressibility (1/GPa) = 0.01811461
#
# Stress axis : x y z
#
# Youngs Moduli (GPa) = 54.55687 70.62692 50.12376
#
# Poissons Ratio (x) = 0.61812 0.18472
# Poissons Ratio (y) = 0.47748 0.23683
# Poissons Ratio (z) = 0.20106 0.33371
#
# Static dielectric constant tensor:
#      x y z
#    x 3.055210 0.000000 0.000000 
#    y 0.000000 2.948030 0.000000 
#    z 0.000000 0.000000 2.633130 
# 
# 
# High freq. dielectric constant tensor:
#      x y z
#    x 1.590470 0.000000 0.000000 
#    y 0.000000 1.575240 0.000000 
#    z 0.000000 0.000000 1.529670 
# 
# From -- ./inp_files/22177.got.cif
#   From: 2010.03.12/outbox.cif.g09.slc.cpg/sg47_12_cif.got.tgz:22177.got - 2010.04.14 03:12:58.
