data_PCOD8194158
_publ_section_title
;
Structure prediction by ZEFSAII (Michael W. Deem and Ramdas Pophale) SiO2 
 PCOD8194158
Probable space group: P M M M
;
_chemical_formula_sum "Si O2"
_cell_formula_units_Z 48
_cell_length_a 14.359607
_cell_length_b 20.657136
_cell_length_c 9.368482
_cell_angle_alpha 90.000000
_cell_angle_beta 90.000000
_cell_angle_gamma 90.000000
_cell_volume 2778.957402
_symmetry_space_group_name_H-M "P M M M"
_symmetry_group_IT_number 47
_symmetry_cell_setting 'orthorhombic'
loop_
_space_group_symop_operation_xyz
x,y,z
-x,-y,z
x,-y,-z
-x,y,-z
-x,-y,-z
x,y,-z
-x,y,z
x,-y,z
loop_
_atom_site_type_symbol
_atom_site_label
_atom_site_fract_x
_atom_site_fract_y
_atom_site_fract_z
Si Si1 0.392366 0.315348 0.834425
Si Si2 0.105132 0.769733 0.335158
Si Si3 0.294948 0.426853 0.667518
Si Si4 0.395977 0.071535 0.169394
Si Si5 0.899526 0.377860 0.330981
Si Si6 0.724189 0.190120 0.169157
O O1 0.500000 0.299292 0.805045
O O2 0.364392 0.378967 0.747253
O O3 0.332449 0.253915 0.782715
O O4 0.374330 0.329891 0.000000
O O5 0.134134 0.775795 0.500000
O O6 0.113961 0.695956 0.282259
O O7 0.174292 0.812095 0.239804
O O8 0.000000 0.795082 0.311707
O O9 0.299363 0.410925 0.500000
O O10 0.327191 0.500000 0.699219
O O11 0.188491 0.418881 0.725054
O O12 0.500000 0.082936 0.229733
O O13 0.328740 0.127028 0.230052
O O14 0.360102 0.000000 0.215665
O O15 0.399229 0.076674 0.000000
O O16 0.904118 0.381356 0.500000
O O17 0.000000 0.403783 0.271177
O O18 0.735356 0.187640 0.000000
#
# Coordination Sequence:
#
# PCOD8194158 Si02
#       6
#     8   8   8   8   8   8
#     4  10  21  35  49  67  93 125 158 192 234 285
#     4   9  17  30  49  71  96 127 159 191 233 286
#     4  10  20  33  50  71  93 119 156 201 241 278
#     4   8  14  26  46  73 103 131 158 192 237 285
#     4   8  14  27  47  69  92 117 147 186 233 283
#     4  10  18  29  50  77  99 121 156 200 237 274
#
# _framework density 17.272663999999999
#
# number of rings (size 3 to 8) (size 9 to 14) (size 15 to 20)
#    0.000    2.833    1.667    2.000    0.000    3.667 
#    0.000    3.333    0.000    3.000    0.000    5.833 
#    0.000    0.000    0.000    0.000    0.000    0.000 
#
# Total GULP energy -594963.269704 kJ/mol
# GULP energy per Si atom -12395.068119 kJ/mol
# Density = 1.723335 g / cm^3
# Si number density = 17.272664 Si / 1000 Ang^3
#
#
#
# Elastic Constant Matrix: (Units=GPa)
#
#
# Indices 1 2 3 4 5 6 
#
# 1 101.3540 54.5661 33.4555 0.0000 0.0000 0.0000
# 2 54.5661 108.2230 32.7631 0.0000 0.0000 0.0000
# 3 33.4555 32.7631 29.6568 0.0000 0.0000 0.0000
# 4 0.0000 0.0000 0.0000 15.0287 0.0000 0.0000
# 5 0.0000 0.0000 0.0000 0.0000 26.8035 0.0000
# 6 0.0000 0.0000 0.0000 0.0000 0.0000 16.0912
#
#
#
# Elastic Compliance Matrix: (Units=1/GPa)
#
#
# Indices 1 2 3 4 5 6 
#
# 1 0.016861 -0.004121 -0.014467 0.000000 0.000000 0.000000
# 2 -0.004121 0.014891 -0.011801 0.000000 0.000000 0.000000
# 3 -0.014467 -0.011801 0.063077 0.000000 0.000000 0.000000
# 4 0.000000 0.000000 0.000000 0.066539 0.000000 0.000000
# 5 0.000000 0.000000 0.000000 0.000000 0.037309 0.000000
# 6 0.000000 0.000000 0.000000 0.000000 0.000000 0.062146
#
#
# Mechanical properties :
#
#
# Convention : Reuss Voigt Hill
#
# Bulk Modulus (GPa) = 29.36983 53.42255 41.39619
# Shear Modulus (GPa) = 15.01721 19.48129 17.24925
#
# Velocity S-wave (km/s) = 2.95179 3.36202 3.16356
# Velocity P-wave (km/s) = 5.35332 6.78727 6.11249
#
# Compressibility (1/GPa) = 0.03404854
#
# Stress axis : x y z
#
# Youngs Moduli (GPa) = 59.30954 67.15527 15.85366
#
# Poissons Ratio (x) = 0.27677 0.22936
# Poissons Ratio (y) = 0.24444 0.18709
# Poissons Ratio (z) = 0.85805 0.79252
#
# Static dielectric constant tensor:
#      x y z
#    x 3.575160 0.000000 0.000000 
#    y 0.000000 3.241520 0.000000 
#    z 0.000000 0.000000 2.802700 
# 
# 
# High freq. dielectric constant tensor:
#      x y z
#    x 1.675260 0.000000 0.000000 
#    y 0.000000 1.654430 0.000000 
#    z 0.000000 0.000000 1.624140 
# 
# From -- ./inp_files/6354.got.cif
#   From: 2010.03.12/outbox.cif.g09.slc.cpg/sg47_4_cif.got.tgz:6354.got - 2010.04.14 03:12:58.
