data_PCOD8194432
_publ_section_title
;
Structure prediction by ZEFSAII (Michael W. Deem and Ramdas Pophale) SiO2 
 PCOD8194432
Probable space group: P M M M
;
_chemical_formula_sum "Si O2"
_cell_formula_units_Z 52
_cell_length_a 14.488046
_cell_length_b 8.692974
_cell_length_c 23.450472
_cell_angle_alpha 90.000000
_cell_angle_beta 90.000000
_cell_angle_gamma 90.000000
_cell_volume 2953.451104
_symmetry_space_group_name_H-M "P M M M"
_symmetry_group_IT_number 47
_symmetry_cell_setting 'orthorhombic'
loop_
_space_group_symop_operation_xyz
x,y,z
-x,-y,z
x,-y,-z
-x,y,-z
-x,-y,-z
x,y,-z
-x,y,z
x,-y,z
loop_
_atom_site_type_symbol
_atom_site_label
_atom_site_fract_x
_atom_site_fract_y
_atom_site_fract_z
Si Si1 0.396111 0.316964 0.436991
Si Si2 0.395222 0.818534 0.000000
Si Si3 0.286789 0.683650 0.329844
Si Si4 0.396608 0.682818 0.220508
Si Si5 0.292425 0.317682 0.107406
Si Si6 0.100731 0.682875 0.279891
Si Si7 0.101023 0.682576 0.848406
O O1 0.364765 0.260137 0.500000
O O2 0.500000 0.259192 0.424093
O O3 0.394754 0.500000 0.435068
O O4 0.327158 0.249003 0.389094
O O5 0.341062 0.762468 0.055009
O O6 0.500000 0.752564 0.000000
O O7 0.397658 0.000000 0.000000
O O8 0.290014 0.500000 0.330812
O O9 0.347559 0.746516 0.277290
O O10 0.181652 0.744034 0.321504
O O11 0.500000 0.749695 0.218119
O O12 0.397889 0.500000 0.222094
O O13 0.341988 0.739245 0.164925
O O14 0.300433 0.500000 0.099569
O O15 0.184878 0.263029 0.110879
O O16 0.104739 0.500000 0.277887
O O17 0.116674 0.745826 0.215745
O O18 0.000000 0.737718 0.302568
O O19 0.102719 0.500000 0.845506
O O20 0.000000 0.738483 0.871403
#
# Coordination Sequence:
#
# PCOD8194432 Si02
#       7
#     8   4   8   8   8   8   8
#     4   8  13  19  25  34  53  88 132 168 197 240
#     4  11  25  41  52  63  86 122 153 171 202 261
#     4   9  13  18  28  44  67  93 121 158 208 253
#     4   9  15  21  33  57  82  97 117 163 221 257
#     4  10  18  31  51  72  89 109 142 184 220 252
#     4   8  12  18  29  47  72  98 121 150 199 259
#     4   8  13  23  41  66  92 110 127 162 215 266
#
# _framework density 17.606521000000001
#
# number of rings (size 3 to 8) (size 9 to 14) (size 15 to 20)
#    0.000    3.154    1.538    2.538    0.000    3.077 
#    0.000    0.385    0.000    3.231    0.000    3.231 
#    0.000    0.000    0.000    0.000    0.000    0.769 
#
# Total GULP energy -644271.056250 kJ/mol
# GULP energy per Si atom -12389.828005 kJ/mol
# Density = 1.756645 g / cm^3
# Si number density = 17.606521 Si / 1000 Ang^3
#
#
#
# Elastic Constant Matrix: (Units=GPa)
#
#
# Indices 1 2 3 4 5 6 
#
# 1 192.9853 13.4715 97.1468 0.0000 0.0000 0.0000
# 2 13.4715 8.2002 12.4259 0.0000 0.0000 0.0000
# 3 97.1468 12.4259 142.9920 0.0000 0.0000 0.0000
# 4 0.0000 0.0000 0.0000 -4.1041 0.0000 0.0000
# 5 0.0000 0.0000 0.0000 0.0000 -88.2487 0.0000
# 6 0.0000 0.0000 0.0000 0.0000 0.0000 4.9931
#
#
#
# Elastic Compliance Matrix: (Units=1/GPa)
#
#
# Indices 1 2 3 4 5 6 
#
# 1 0.008102 -0.005722 -0.005007 0.000000 0.000000 0.000000
# 2 -0.005722 0.144483 -0.008668 0.000000 0.000000 0.000000
# 3 -0.005007 -0.008668 0.011148 0.000000 0.000000 0.000000
# 4 0.000000 0.000000 0.000000 -0.243658 0.000000 0.000000
# 5 0.000000 0.000000 0.000000 0.000000 -0.011332 0.000000
# 6 0.000000 0.000000 0.000000 0.000000 0.000000 0.200275
#
#
# Mechanical properties :
#
#
# Convention : Reuss Voigt Hill
#
# Bulk Modulus (GPa) = 8.00394 65.58511 36.79452
# Shear Modulus (GPa) = 26.39117 -2.72970 11.83074
#
# Velocity S-wave (km/s) = 3.87582 -1.24650 2.59502
# Velocity P-wave (km/s) = 4.95834 5.93798 5.47014
#
# Compressibility (1/GPa) = 0.12493854
#
# Stress axis : x y z
#
# Youngs Moduli (GPa) = 123.43258 6.92124 89.70069
#
# Poissons Ratio (x) = 0.03961 0.44912
# Poissons Ratio (y) = 0.70634 0.77750
# Poissons Ratio (z) = 0.61801 0.05999
#
# Static dielectric constant tensor:
#      x y z
#    x 3.844340 0.000000 0.000000 
#    y 0.000000 2.478890 0.000000 
#    z 0.000000 0.000000 3.392660 
# 
# 
# High freq. dielectric constant tensor:
#      x y z
#    x 1.698540 0.000000 0.000000 
#    y 0.000000 1.597610 0.000000 
#    z 0.000000 0.000000 1.667830 
# 
# From -- ./inp_files/21754.got.cif
#   From: 2010.03.12/outbox.cif.g09.slc.cpg/sg47_11_cif.got.tgz:21754.got - 2010.04.14 03:12:58.
