data_PCOD8194466
_publ_section_title
;
Structure prediction by ZEFSAII (Michael W. Deem and Ramdas Pophale) SiO2 
 PCOD8194466
Probable space group: P M M M
;
_chemical_formula_sum "Si O2"
_cell_formula_units_Z 40
_cell_length_a 10.194176
_cell_length_b 23.859086
_cell_length_c 8.928320
_cell_angle_alpha 90.000000
_cell_angle_beta 90.000000
_cell_angle_gamma 90.000000
_cell_volume 2171.579221
_symmetry_space_group_name_H-M "P M M M"
_symmetry_group_IT_number 47
_symmetry_cell_setting 'orthorhombic'
loop_
_space_group_symop_operation_xyz
x,y,z
-x,-y,z
x,-y,-z
-x,y,-z
-x,-y,-z
x,y,-z
-x,y,z
x,-y,z
loop_
_atom_site_type_symbol
_atom_site_label
_atom_site_fract_x
_atom_site_fract_y
_atom_site_fract_z
Si Si1 0.349892 0.854236 0.675165
Si Si2 0.251332 0.369078 0.322211
Si Si3 0.500000 0.562423 0.321971
Si Si4 0.000000 0.436799 0.321992
Si Si5 0.349409 0.738402 0.176160
Si Si6 0.148977 0.065573 0.827651
O O1 0.335599 0.843113 0.500000
O O2 0.500000 0.870520 0.716708
O O3 0.305896 0.798303 0.760742
O O4 0.253105 0.903664 0.722827
O O5 0.251968 0.361636 0.500000
O O6 0.373585 0.404947 0.263182
O O7 0.125218 0.402634 0.264388
O O8 0.254999 0.307970 0.248414
O O9 0.500000 0.500000 0.253835
O O10 0.500000 0.559207 0.500000
O O11 0.000000 0.500000 0.255688
O O12 0.000000 0.440598 0.500000
O O13 0.500000 0.725767 0.221523
O O14 0.329224 0.738663 0.000000
O O15 0.000000 0.083577 0.786492
O O16 0.166800 0.000000 0.799035
O O17 0.178327 0.080462 0.000000
#
# Coordination Sequence:
#
# PCOD8194466 Si02
#       6
#     8   8   4   4   8   8
#     4  10  21  36  56  83 113 144 183 230 276 321
#     4  10  18  31  52  76 103 134 171 215 261 313
#     4   9  16  26  47  77 101 127 168 213 256 309
#     4   9  18  32  51  77 107 135 166 211 264 315
#     4  10  20  35  55  77 104 138 178 223 271 321
#     4   9  19  37  59  83 114 151 188 224 265 317
#
# _framework density 18.419775999999999
#
# number of rings (size 3 to 8) (size 9 to 14) (size 15 to 20)
#    0.000    2.400    1.000    2.400    0.000    5.600 
#    1.800    3.500    0.000    3.600    0.000    0.000 
#    0.000    0.000    0.000    0.000    0.000    0.000 
#
# Total GULP energy -496061.725582 kJ/mol
# GULP energy per Si atom -12401.543140 kJ/mol
# Density = 1.837785 g / cm^3
# Si number density = 18.419776 Si / 1000 Ang^3
#
#
#
# Elastic Constant Matrix: (Units=GPa)
#
#
# Indices 1 2 3 4 5 6 
#
# 1 126.0549 65.7090 32.2909 0.0000 0.0000 0.0000
# 2 65.7090 109.7159 35.5832 0.0000 0.0000 0.0000
# 3 32.2909 35.5832 50.7910 0.0000 0.0000 0.0000
# 4 0.0000 0.0000 0.0000 7.7742 0.0000 0.0000
# 5 0.0000 0.0000 0.0000 0.0000 21.5651 0.0000
# 6 0.0000 0.0000 0.0000 0.0000 0.0000 36.3259
#
#
#
# Elastic Compliance Matrix: (Units=1/GPa)
#
#
# Indices 1 2 3 4 5 6 
#
# 1 0.011957 -0.006076 -0.003345 0.000000 0.000000 0.000000
# 2 -0.006076 0.014882 -0.006563 0.000000 0.000000 0.000000
# 3 -0.003345 -0.006563 0.026413 0.000000 0.000000 0.000000
# 4 0.000000 0.000000 0.000000 0.128631 0.000000 0.000000
# 5 0.000000 0.000000 0.000000 0.000000 0.046371 0.000000
# 6 0.000000 0.000000 0.000000 0.000000 0.000000 0.027529
#
#
# Mechanical properties :
#
#
# Convention : Reuss Voigt Hill
#
# Bulk Modulus (GPa) = 46.98422 61.52534 54.25478
# Shear Modulus (GPa) = 16.95796 23.33162 20.14479
#
# Velocity S-wave (km/s) = 3.03749 3.56288 3.31063
# Velocity P-wave (km/s) = 6.15343 7.09928 6.64321
#
# Compressibility (1/GPa) = 0.02128374
#
# Stress axis : x y z
#
# Youngs Moduli (GPa) = 83.63005 67.19444 37.86004
#
# Poissons Ratio (x) = 0.40830 0.12664
# Poissons Ratio (y) = 0.50818 0.24848
# Poissons Ratio (z) = 0.27974 0.44100
#
# Static dielectric constant tensor:
#      x y z
#    x 3.425710 0.000000 0.000000 
#    y 0.000000 3.409320 0.000000 
#    z 0.000000 0.000000 3.094020 
# 
# 
# High freq. dielectric constant tensor:
#      x y z
#    x 1.711060 0.000000 0.000000 
#    y 0.000000 1.722880 0.000000 
#    z 0.000000 0.000000 1.691860 
# 
# From -- ./inp_files/1894.got.cif
#   From: 2010.03.12/outbox.cif.g09.slc.cpg/sg47_1_cif.got.tgz:1894.got - 2010.04.14 03:12:58.
