data_PCOD8194184
_publ_section_title
;
Structure prediction by ZEFSAII (Michael W. Deem and Ramdas Pophale) SiO2 
 PCOD8194184
Probable space group: P M M M
;
_chemical_formula_sum "Si O2"
_cell_formula_units_Z 64
_cell_length_a 21.843009
_cell_length_b 18.381968
_cell_length_c 9.404744
_cell_angle_alpha 90.000000
_cell_angle_beta 90.000000
_cell_angle_gamma 90.000000
_cell_volume 3776.169228
_symmetry_space_group_name_H-M "P M M M"
_symmetry_group_IT_number 47
_symmetry_cell_setting 'orthorhombic'
loop_
_space_group_symop_operation_xyz
x,y,z
-x,-y,z
x,-y,-z
-x,y,-z
-x,-y,-z
x,y,-z
-x,y,z
x,-y,z
loop_
_atom_site_type_symbol
_atom_site_label
_atom_site_fract_x
_atom_site_fract_y
_atom_site_fract_z
Si Si1 0.307275 0.418604 0.834416
Si Si2 0.611009 0.782203 0.332801
Si Si3 0.253369 0.080239 0.152963
Si Si4 0.397063 0.920091 0.839429
Si Si5 0.567406 0.650760 0.161589
Si Si6 0.261503 0.713127 0.335623
Si Si7 0.168720 0.832031 0.664396
Si Si8 0.929546 0.082727 0.833829
O O1 0.290410 0.500000 0.784004
O O2 0.379386 0.406773 0.800969
O O3 0.264523 0.361390 0.752477
O O4 0.293555 0.408560 0.000000
O O5 0.601275 0.785475 0.500000
O O6 0.583304 0.856759 0.268098
O O7 0.570505 0.718097 0.268352
O O8 0.682560 0.767418 0.291319
O O9 0.324872 0.075262 0.169860
O O10 0.225423 0.118598 0.289558
O O11 0.224618 0.000000 0.149701
O O12 0.236717 0.118212 0.000000
O O13 0.423769 0.000000 0.795859
O O14 0.418428 0.901114 0.000000
O O15 0.500000 0.614311 0.178987
O O16 0.576635 0.679006 0.000000
O O17 0.269318 0.692717 0.500000
O O18 0.194779 0.750198 0.308040
O O19 0.153629 0.844545 0.500000
O O20 0.109170 0.854933 0.753720
O O21 0.000000 0.099474 0.800067
O O22 0.913723 0.000000 0.783831
O O23 0.915921 0.090209 0.000000
#
# Coordination Sequence:
#
# PCOD8194184 Si02
#       8
#     8   8   8   8   8   8   8   8
#     4   9  18  32  51  75  99 123 153 188 225 270
#     4  10  18  30  46  64  91 122 152 191 235 278
#     4   9  17  27  39  58  85 117 151 186 228 277
#     4   9  17  28  42  61  85 114 149 187 229 280
#     4   9  18  32  50  71  94 122 154 187 227 275
#     4   9  19  32  44  65  96 127 155 184 228 283
#     4  11  20  29  43  66  94 122 159 203 239 276
#     4   9  19  35  50  64  89 129 174 213 248 287
#
# _framework density 16.948392999999999
#
# number of rings (size 3 to 8) (size 9 to 14) (size 15 to 20)
#    0.000    2.625    1.250    2.250    0.000    4.750 
#    0.000    3.125    0.000    0.375    0.000    6.125 
#    0.000    0.500    0.000    5.500    0.000    4.000 
#
# Total GULP energy -792990.001600 kJ/mol
# GULP energy per Si atom -12390.468775 kJ/mol
# Density = 1.690982 g / cm^3
# Si number density = 16.948393 Si / 1000 Ang^3
#
#
#
# Elastic Constant Matrix: (Units=GPa)
#
#
# Indices 1 2 3 4 5 6 
#
# 1 64.6439 24.4461 26.4740 0.0000 0.0000 0.0000
# 2 24.4461 104.5044 52.6559 0.0000 0.0000 0.0000
# 3 26.4740 52.6559 71.9732 0.0000 0.0000 0.0000
# 4 0.0000 0.0000 0.0000 21.3793 0.0000 0.0000
# 5 0.0000 0.0000 0.0000 0.0000 18.6874 0.0000
# 6 0.0000 0.0000 0.0000 0.0000 0.0000 16.2632
#
#
#
# Elastic Compliance Matrix: (Units=1/GPa)
#
#
# Indices 1 2 3 4 5 6 
#
# 1 0.018344 -0.001412 -0.005715 0.000000 0.000000 0.000000
# 2 -0.001412 0.015264 -0.010648 0.000000 0.000000 0.000000
# 3 -0.005715 -0.010648 0.023786 0.000000 0.000000 0.000000
# 4 0.000000 0.000000 0.000000 0.046774 0.000000 0.000000
# 5 0.000000 0.000000 0.000000 0.000000 0.053512 0.000000
# 6 0.000000 0.000000 0.000000 0.000000 0.000000 0.061489
#
#
# Mechanical properties :
#
#
# Convention : Reuss Voigt Hill
#
# Bulk Modulus (GPa) = 45.77627 49.80817 47.79222
# Shear Modulus (GPa) = 19.08395 20.43566 19.75980
#
# Velocity S-wave (km/s) = 3.35924 3.47617 3.41820
# Velocity P-wave (km/s) = 6.48952 6.75008 6.62108
#
# Compressibility (1/GPa) = 0.02184538
#
# Stress axis : x y z
#
# Youngs Moduli (GPa) = 54.51521 65.51151 42.04077
#
# Poissons Ratio (x) = 0.09248 0.24024
# Poissons Ratio (y) = 0.07696 0.44766
# Poissons Ratio (z) = 0.31153 0.69759
#
# Static dielectric constant tensor:
#      x y z
#    x 2.970880 0.000000 0.000000 
#    y 0.000000 3.173410 0.000000 
#    z 0.000000 0.000000 3.177690 
# 
# 
# High freq. dielectric constant tensor:
#      x y z
#    x 1.625800 0.000000 0.000000 
#    y 0.000000 1.631730 0.000000 
#    z 0.000000 0.000000 1.654400 
# 
# From -- ./inp_files/12868.got.cif
#   From: 2010.03.12/outbox.cif.g09.slc.cpg/sg47_7_cif.got.tgz:12868.got - 2010.04.14 03:12:58.
