data_PCOD8194175
_publ_section_title
;
Structure prediction by ZEFSAII (Michael W. Deem and Ramdas Pophale) SiO2 
 PCOD8194175
Probable space group: P M M M
;
_chemical_formula_sum "Si O2"
_cell_formula_units_Z 40
_cell_length_a 12.927408
_cell_length_b 22.428224
_cell_length_c 9.412336
_cell_angle_alpha 90.000000
_cell_angle_beta 90.000000
_cell_angle_gamma 90.000000
_cell_volume 2729.001427
_symmetry_space_group_name_H-M "P M M M"
_symmetry_group_IT_number 47
_symmetry_cell_setting 'orthorhombic'
loop_
_space_group_symop_operation_xyz
x,y,z
-x,-y,z
x,-y,-z
-x,y,-z
-x,-y,-z
x,y,-z
-x,y,z
x,-y,z
loop_
_atom_site_type_symbol
_atom_site_label
_atom_site_fract_x
_atom_site_fract_y
_atom_site_fract_z
Si Si1 0.881352 0.237805 0.663864
Si Si2 0.876159 0.872390 0.159798
Si Si3 0.000000 0.570577 0.833990
Si Si4 0.886211 0.000000 0.169190
Si Si5 0.386552 0.433343 0.331562
Si Si6 0.184134 0.632309 0.332134
O O1 0.872248 0.221818 0.500000
O O2 0.832090 0.181595 0.746013
O O3 0.819497 0.297558 0.702449
O O4 0.000000 0.248715 0.708771
O O5 0.000000 0.875159 0.168811
O O6 0.831261 0.937195 0.213791
O O7 0.839299 0.859845 0.000000
O O8 0.100479 0.596697 0.757898
O O9 0.000000 0.500000 0.814254
O O10 0.000000 0.588540 0.000000
O O11 0.000000 0.000000 0.238510
O O12 0.896959 0.000000 0.000000
O O13 0.387077 0.434755 0.500000
O O14 0.500000 0.411735 0.276861
O O15 0.364012 0.500000 0.273796
O O16 0.296778 0.389176 0.279189
O O17 0.164093 0.620706 0.500000
#
# Coordination Sequence:
#
# PCOD8194175 Si02
#       6
#     8   8   4   4   8   8
#     4   9  16  25  34  50  76 102 129 158 186 227
#     4   8  13  21  34  49  66  94 129 161 191 221
#     4  11  23  33  41  59  85 106 131 170 205 235
#     4   7  10  18  31  47  65  87 124 165 190 216
#     4   8  14  25  43  66  83  95 124 171 210 239
#     4  10  18  30  46  61  80 109 137 162 199 246
#
# _framework density 14.657375
#
# number of rings (size 3 to 8) (size 9 to 14) (size 15 to 20)
#    0.000    3.200    1.000    2.700    0.000    2.400 
#    0.000    0.500    0.000    3.600    0.000    2.800 
#    0.000    0.000    0.000    0.900    0.000   20.900 
#
# Total GULP energy -495535.870675 kJ/mol
# GULP energy per Si atom -12388.396767 kJ/mol
# Density = 1.462401 g / cm^3
# Si number density = 14.657375 Si / 1000 Ang^3
#
#
#
# Elastic Constant Matrix: (Units=GPa)
#
#
# Indices 1 2 3 4 5 6 
#
# 1 76.9679 59.2407 26.4038 0.0000 0.0000 0.0000
# 2 59.2407 147.6254 49.4394 0.0000 0.0000 0.0000
# 3 26.4038 49.4394 43.9421 0.0000 0.0000 0.0000
# 4 0.0000 0.0000 0.0000 24.8008 0.0000 0.0000
# 5 0.0000 0.0000 0.0000 0.0000 3.6829 0.0000
# 6 0.0000 0.0000 0.0000 0.0000 0.0000 9.2827
#
#
#
# Elastic Compliance Matrix: (Units=1/GPa)
#
#
# Indices 1 2 3 4 5 6 
#
# 1 0.019372 -0.006219 -0.004643 0.000000 0.000000 0.000000
# 2 -0.006219 0.012866 -0.010739 0.000000 0.000000 0.000000
# 3 -0.004643 -0.010739 0.037629 0.000000 0.000000 0.000000
# 4 0.000000 0.000000 0.000000 0.040321 0.000000 0.000000
# 5 0.000000 0.000000 0.000000 0.000000 0.271528 0.000000
# 6 0.000000 0.000000 0.000000 0.000000 0.000000 0.107728
#
#
# Mechanical properties :
#
#
# Convention : Reuss Voigt Hill
#
# Bulk Modulus (GPa) = 37.50166 59.85593 48.67879
# Shear Modulus (GPa) = 9.23303 16.45003 12.84153
#
# Velocity S-wave (km/s) = 2.51255 3.35371 2.96313
# Velocity P-wave (km/s) = 5.83595 7.47810 6.70747
#
# Compressibility (1/GPa) = 0.02666549
#
# Stress axis : x y z
#
# Youngs Moduli (GPa) = 51.62168 77.72591 26.57491
#
# Poissons Ratio (x) = 0.48335 0.12340
# Poissons Ratio (y) = 0.32102 0.28538
# Poissons Ratio (z) = 0.23970 0.83467
#
# Static dielectric constant tensor:
#      x y z
#    x 2.710950 0.000000 0.000000 
#    y 0.000000 3.220100 0.000000 
#    z 0.000000 0.000000 2.667330 
# 
# 
# High freq. dielectric constant tensor:
#      x y z
#    x 1.506220 0.000000 0.000000 
#    y 0.000000 1.575220 0.000000 
#    z 0.000000 0.000000 1.535250 
# 
# From -- ./inp_files/6678.got.cif
#   From: 2010.03.12/outbox.cif.g09.slc.cpg/sg47_4_cif.got.tgz:6678.got - 2010.04.14 03:12:58.
