data_PCOD8194195
_publ_section_title
;
Structure prediction by ZEFSAII (Michael W. Deem and Ramdas Pophale) SiO2 
 PCOD8194195
Probable space group: P M M M
;
_chemical_formula_sum "Si O2"
_cell_formula_units_Z 44
_cell_length_a 24.727847
_cell_length_b 9.346682
_cell_length_c 12.941371
_cell_angle_alpha 90.000000
_cell_angle_beta 90.000000
_cell_angle_gamma 90.000000
_cell_volume 2991.052663
_symmetry_space_group_name_H-M "P M M M"
_symmetry_group_IT_number 47
_symmetry_cell_setting 'orthorhombic'
loop_
_space_group_symop_operation_xyz
x,y,z
-x,-y,z
x,-y,-z
-x,y,-z
-x,-y,-z
x,y,-z
-x,y,z
x,-y,z
loop_
_atom_site_type_symbol
_atom_site_label
_atom_site_fract_x
_atom_site_fract_y
_atom_site_fract_z
Si Si1 0.563873 0.667223 0.500000
Si Si2 0.159694 0.660984 0.376689
Si Si3 0.738181 0.163944 0.380614
Si Si4 0.379900 0.831602 0.315196
Si Si5 0.940303 0.160676 0.377126
Si Si6 0.439499 0.830331 0.113343
O O1 0.579234 0.500000 0.500000
O O2 0.500000 0.690778 0.500000
O O3 0.588259 0.741232 0.600609
O O4 0.158779 0.666499 0.500000
O O5 0.160673 0.500000 0.334758
O O6 0.213205 0.740591 0.335661
O O7 0.105938 0.736395 0.331091
O O8 0.726415 0.198955 0.500000
O O9 0.683895 0.200287 0.318450
O O10 0.755732 0.000000 0.366650
O O11 0.399446 0.777034 0.202942
O O12 0.391345 0.000000 0.334642
O O13 0.937423 0.161553 0.500000
O O14 0.000000 0.213724 0.341405
O O15 0.929930 0.000000 0.336532
O O16 0.500000 0.772688 0.136046
O O17 0.440481 0.000000 0.112701
O O18 0.420046 0.774980 0.000000
#
# Coordination Sequence:
#
# PCOD8194195 Si02
#       6
#     4   8   8   8   8   8
#     4  11  23  33  41  59  87 111 130 161 206 247
#     4   9  16  23  32  47  66  92 124 157 195 233
#     4   9  16  26  37  51  72  97 128 162 193 229
#     4  10  18  30  47  64  80 105 139 168 198 243
#     4   8  13  21  32  45  62  87 120 158 197 230
#     4   8  14  25  43  67  88 102 123 163 209 246
#
# _framework density 14.71054
#
# number of rings (size 3 to 8) (size 9 to 14) (size 15 to 20)
#    0.000    3.000    0.909    2.455    0.000    4.727 
#    0.000    1.818    0.000    0.545    0.000    2.545 
#    0.000    0.000    0.000    0.000    0.000    0.909 
#
# Total GULP energy -545351.143745 kJ/mol
# GULP energy per Si atom -12394.344176 kJ/mol
# Density = 1.467706 g / cm^3
# Si number density = 14.710540 Si / 1000 Ang^3
#
#
#
# Elastic Constant Matrix: (Units=GPa)
#
#
# Indices 1 2 3 4 5 6 
#
# 1 136.1583 65.6486 50.7955 0.0000 0.0000 0.0000
# 2 65.6486 77.8664 29.7150 0.0000 0.0000 0.0000
# 3 50.7955 29.7150 66.8493 0.0000 0.0000 0.0000
# 4 0.0000 0.0000 0.0000 2.9552 0.0000 0.0000
# 5 0.0000 0.0000 0.0000 0.0000 7.3622 0.0000
# 6 0.0000 0.0000 0.0000 0.0000 0.0000 18.3277
#
#
#
# Elastic Compliance Matrix: (Units=1/GPa)
#
#
# Indices 1 2 3 4 5 6 
#
# 1 0.014520 -0.009672 -0.006734 0.000000 0.000000 0.000000
# 2 -0.009672 0.021909 -0.002389 0.000000 0.000000 0.000000
# 3 -0.006734 -0.002389 0.021138 0.000000 0.000000 0.000000
# 4 0.000000 0.000000 0.000000 0.338382 0.000000 0.000000
# 5 0.000000 0.000000 0.000000 0.000000 0.135829 0.000000
# 6 0.000000 0.000000 0.000000 0.000000 0.000000 0.054562
#
#
# Mechanical properties :
#
#
# Convention : Reuss Voigt Hill
#
# Bulk Modulus (GPa) = 50.05931 63.68804 56.87368
# Shear Modulus (GPa) = 7.92911 14.71001 11.31956
#
# Velocity S-wave (km/s) = 2.32418 3.16565 2.77697
# Velocity P-wave (km/s) = 6.42696 7.53326 7.00199
#
# Compressibility (1/GPa) = 0.01997630
#
# Stress axis : x y z
#
# Youngs Moduli (GPa) = 68.87192 45.64423 47.30888
#
# Poissons Ratio (x) = 0.44146 0.31856
# Poissons Ratio (y) = 0.66612 0.11304
# Poissons Ratio (z) = 0.46376 0.10906
#
# Static dielectric constant tensor:
#      x y z
#    x 3.074390 0.000000 0.000000 
#    y 0.000000 2.817280 0.000000 
#    z 0.000000 0.000000 2.622390 
# 
# 
# High freq. dielectric constant tensor:
#      x y z
#    x 1.573650 0.000000 0.000000 
#    y 0.000000 1.551170 0.000000 
#    z 0.000000 0.000000 1.499340 
# 
# From -- ./inp_files/15404.got.cif
#   From: 2010.03.12/outbox.cif.g09.slc.cpg/sg47_8_cif.got.tgz:15404.got - 2010.04.14 03:12:58.
