data_PCOD8194372
_publ_section_title
;
Structure prediction by ZEFSAII (Michael W. Deem and Ramdas Pophale) SiO2 
 PCOD8194372
Probable space group: P M M M
;
_chemical_formula_sum "Si O2"
_cell_formula_units_Z 52
_cell_length_a 21.811962
_cell_length_b 9.034144
_cell_length_c 14.873850
_cell_angle_alpha 90.000000
_cell_angle_beta 90.000000
_cell_angle_gamma 90.000000
_cell_volume 2930.927923
_symmetry_space_group_name_H-M "P M M M"
_symmetry_group_IT_number 47
_symmetry_cell_setting 'orthorhombic'
loop_
_space_group_symop_operation_xyz
x,y,z
-x,-y,z
x,-y,-z
-x,y,-z
-x,-y,-z
x,y,-z
-x,y,z
x,-y,z
loop_
_atom_site_type_symbol
_atom_site_label
_atom_site_fract_x
_atom_site_fract_y
_atom_site_fract_z
Si Si1 0.429369 0.671590 0.500000
Si Si2 0.886238 0.175851 0.221864
Si Si3 0.571926 0.324511 0.692917
Si Si4 0.774799 0.824189 0.101035
Si Si5 0.070826 0.326138 0.601692
Si Si6 0.359925 0.824989 0.153268
Si Si7 0.000000 0.175677 0.897661
Si Si8 0.572041 0.335175 0.000000
O O1 0.416994 0.500000 0.500000
O O2 0.500000 0.707248 0.500000
O O3 0.404253 0.731550 0.594620
O O4 0.824651 0.233469 0.172765
O O5 0.889632 0.243107 0.322230
O O6 0.941157 0.231935 0.157768
O O7 0.887443 0.000000 0.232226
O O8 0.500000 0.286528 0.709517
O O9 0.581370 0.500000 0.707954
O O10 0.618445 0.228616 0.750415
O O11 0.708412 0.767124 0.132639
O O12 0.776513 0.000000 0.098777
O O13 0.788568 0.764223 0.000000
O O14 0.091811 0.280630 0.500000
O O15 0.079889 0.500000 0.614819
O O16 0.000000 0.281608 0.614626
O O17 0.363305 0.000000 0.144513
O O18 0.407848 0.753356 0.086497
O O19 0.000000 0.000000 0.903855
O O20 0.000000 0.240142 0.000000
O O21 0.600643 0.500000 0.000000
O O22 0.500000 0.346386 0.000000
#
# Coordination Sequence:
#
# PCOD8194372 Si02
#       8
#     4   8   8   8   8   8   4   4
#     4   7  12  26  49  73  97 127 161 196 243 304
#     4  10  18  30  53  80 101 128 172 217 251 289
#     4   9  17  31  52  77 102 129 164 208 256 303
#     4   9  18  34  53  72  99 137 172 204 247 304
#     4   9  18  33  52  74 105 142 169 199 257 319
#     4  11  21  34  52  74 102 137 173 207 253 310
#     4   9  16  26  44  77 108 126 157 209 256 291
#     4  11  23  37  53  75 103 134 171 218 262 298
#
# _framework density 17.741823
#
# number of rings (size 3 to 8) (size 9 to 14) (size 15 to 20)
#    0.000    2.538    1.538    3.000    0.000    4.923 
#    0.000    2.692    1.692    3.231    0.000    0.000 
#    0.000    0.000    0.000    0.000    0.000    0.000 
#
# Total GULP energy -644344.164966 kJ/mol
# GULP energy per Si atom -12391.233942 kJ/mol
# Density = 1.770144 g / cm^3
# Si number density = 17.741823 Si / 1000 Ang^3
#
#
#
# Elastic Constant Matrix: (Units=GPa)
#
#
# Indices 1 2 3 4 5 6 
#
# 1 93.3262 28.6455 64.9153 0.0000 0.0000 0.0000
# 2 28.6455 42.7755 38.6739 0.0000 0.0000 0.0000
# 3 64.9153 38.6739 172.8077 0.0000 0.0000 0.0000
# 4 0.0000 0.0000 0.0000 27.7633 0.0000 0.0000
# 5 0.0000 0.0000 0.0000 0.0000 -72.8177 0.0000
# 6 0.0000 0.0000 0.0000 0.0000 0.0000 13.4554
#
#
#
# Elastic Compliance Matrix: (Units=1/GPa)
#
#
# Indices 1 2 3 4 5 6 
#
# 1 0.015848 -0.006557 -0.004486 0.000000 0.000000 0.000000
# 2 -0.006557 0.032021 -0.004703 0.000000 0.000000 0.000000
# 3 -0.004486 -0.004703 0.008524 0.000000 0.000000 0.000000
# 4 0.000000 0.000000 0.000000 0.036019 0.000000 0.000000
# 5 0.000000 0.000000 0.000000 0.000000 -0.013733 0.000000
# 6 0.000000 0.000000 0.000000 0.000000 0.000000 0.074319
#
#
# Mechanical properties :
#
#
# Convention : Reuss Voigt Hill
#
# Bulk Modulus (GPa) = 40.15844 63.70877 51.93360
# Shear Modulus (GPa) = 25.93477 5.45852 15.69664
#
# Velocity S-wave (km/s) = 3.82748 1.75594 2.97766
# Velocity P-wave (km/s) = 6.49745 6.33229 6.41540
#
# Compressibility (1/GPa) = 0.02490137
#
# Stress axis : x y z
#
# Youngs Moduli (GPa) = 63.09948 31.22937 117.31037
#
# Poissons Ratio (x) = 0.20478 0.52623
# Poissons Ratio (y) = 0.41376 0.55171
# Poissons Ratio (z) = 0.28305 0.14687
#
# Static dielectric constant tensor:
#      x y z
#    x 3.236590 0.000000 0.000000 
#    y 0.000000 2.958540 0.000000 
#    z 0.000000 0.000000 3.566990 
# 
# 
# High freq. dielectric constant tensor:
#      x y z
#    x 1.666880 0.000000 0.000000 
#    y 0.000000 1.653330 0.000000 
#    z 0.000000 0.000000 1.707590 
# 
# From -- ./inp_files/25115.got.cif
#   From: 2010.03.12/outbox.cif.g09.slc.cpg/sg47_13_cif.got.tgz:25115.got - 2010.04.14 03:12:58.
