data_PCOD8194248
_publ_section_title
;
Structure prediction by ZEFSAII (Michael W. Deem and Ramdas Pophale) SiO2 
 PCOD8194248
Probable space group: P M M M
;
_chemical_formula_sum "Si O2"
_cell_formula_units_Z 52
_cell_length_a 11.708079
_cell_length_b 27.847717
_cell_length_c 9.323924
_cell_angle_alpha 90.000000
_cell_angle_beta 90.000000
_cell_angle_gamma 90.000000
_cell_volume 3040.002676
_symmetry_space_group_name_H-M "P M M M"
_symmetry_group_IT_number 47
_symmetry_cell_setting 'orthorhombic'
loop_
_space_group_symop_operation_xyz
x,y,z
-x,-y,z
x,-y,-z
-x,y,-z
-x,-y,-z
x,y,-z
-x,y,z
x,-y,z
loop_
_atom_site_type_symbol
_atom_site_label
_atom_site_fract_x
_atom_site_fract_y
_atom_site_fract_z
Si Si1 0.500000 0.288526 0.831970
Si Si2 0.750539 0.594958 0.665788
Si Si3 0.500000 0.616945 0.660456
Si Si4 0.870903 0.500000 0.670617
Si Si5 0.869049 0.680100 0.167712
Si Si6 0.366708 0.855583 0.331137
Si Si7 0.635304 0.947161 0.839678
Si Si8 0.280402 0.768356 0.832496
O O1 0.500000 0.341332 0.773311
O O2 0.610711 0.261043 0.777459
O O3 0.500000 0.293665 0.000000
O O4 0.784314 0.602173 0.500000
O O5 0.614707 0.585884 0.684004
O O6 0.810739 0.547817 0.731385
O O7 0.791357 0.642260 0.748446
O O8 0.500000 0.638811 0.500000
O O9 0.862833 0.500000 0.500000
O O10 0.000000 0.500000 0.726458
O O11 0.829263 0.734845 0.200153
O O12 0.000000 0.675133 0.216917
O O13 0.853536 0.669231 0.000000
O O14 0.349235 0.854478 0.500000
O O15 0.500000 0.846168 0.289544
O O16 0.323704 0.907096 0.272899
O O17 0.281493 0.816949 0.259525
O O18 0.500000 0.948984 0.840271
O O19 0.682300 0.000000 0.794192
O O20 0.678999 0.934167 0.000000
O O21 0.288425 0.781916 0.000000
#
# Coordination Sequence:
#
# PCOD8194248 Si02
#       8
#     4   8   4   4   8   8   8   8
#     4  10  18  30  49  69  90 125 162 190 231 287
#     4  10  20  34  53  75  99 127 158 194 237 286
#     4  10  20  31  48  76 102 123 153 196 239 280
#     4   9  18  33  52  72  95 127 166 201 234 280
#     4  10  21  36  53  73  96 123 158 199 241 285
#     4  10  19  27  39  63  93 123 156 197 239 277
#     4   8  14  25  40  57  82 121 164 199 232 277
#     4  10  19  31  47  66  90 122 157 192 231 282
#
# _framework density 17.105249000000001
#
# number of rings (size 3 to 8) (size 9 to 14) (size 15 to 20)
#    0.000    2.385    2.308    1.385    0.000    3.385 
#    0.000    3.462    0.000    1.385    0.000    1.615 
#    0.000    0.615    0.000    7.077    0.000    2.308 
#
# Total GULP energy -644602.828574 kJ/mol
# GULP energy per Si atom -12396.208242 kJ/mol
# Density = 1.706632 g / cm^3
# Si number density = 17.105249 Si / 1000 Ang^3
#
#
#
# Elastic Constant Matrix: (Units=GPa)
#
#
# Indices 1 2 3 4 5 6 
#
# 1 86.1747 39.2256 24.8114 0.0000 0.0000 0.0000
# 2 39.2256 126.9283 48.4287 0.0000 0.0000 0.0000
# 3 24.8114 48.4287 50.4568 0.0000 0.0000 0.0000
# 4 0.0000 0.0000 0.0000 27.1207 0.0000 0.0000
# 5 0.0000 0.0000 0.0000 0.0000 10.1818 0.0000
# 6 0.0000 0.0000 0.0000 0.0000 0.0000 -3.8613
#
#
#
# Elastic Compliance Matrix: (Units=1/GPa)
#
#
# Indices 1 2 3 4 5 6 
#
# 1 0.014080 -0.002697 -0.004335 0.000000 0.000000 0.000000
# 2 -0.002697 0.012947 -0.011101 0.000000 0.000000 0.000000
# 3 -0.004335 -0.011101 0.032605 0.000000 0.000000 0.000000
# 4 0.000000 0.000000 0.000000 0.036872 0.000000 0.000000
# 5 0.000000 0.000000 0.000000 0.000000 0.098215 0.000000
# 6 0.000000 0.000000 0.000000 0.000000 0.000000 -0.258983
#
#
# Mechanical properties :
#
#
# Convention : Reuss Voigt Hill
#
# Bulk Modulus (GPa) = 42.79536 54.27680 48.53608
# Shear Modulus (GPa) = -247.41474 16.76119 -115.32677
#
# Velocity S-wave (km/s) = -12.03979 3.13371 -8.21999
# Velocity P-wave (km/s) = 12.96928 6.70026 7.85203
#
# Compressibility (1/GPa) = 0.02336702
#
# Stress axis : x y z
#
# Youngs Moduli (GPa) = 71.02165 77.23545 30.67025
#
# Poissons Ratio (x) = 0.20834 0.13295
# Poissons Ratio (y) = 0.19157 0.34046
# Poissons Ratio (z) = 0.30786 0.85736
#
# Static dielectric constant tensor:
#      x y z
#    x 3.150670 0.000000 0.000000 
#    y 0.000000 3.356050 0.000000 
#    z 0.000000 0.000000 3.070280 
# 
# 
# High freq. dielectric constant tensor:
#      x y z
#    x 1.627770 0.000000 0.000000 
#    y 0.000000 1.662990 0.000000 
#    z 0.000000 0.000000 1.649060 
# 
# From -- ./inp_files/4606.got.cif
#   From: 2010.03.12/outbox.cif.g09.slc.cpg/sg47_3_cif.got.tgz:4606.got - 2010.04.14 03:12:58.
