data_PCOD8194337
_publ_section_title
;
Structure prediction by ZEFSAII (Michael W. Deem and Ramdas Pophale) SiO2 
 PCOD8194337
Probable space group: P M M M
;
_chemical_formula_sum "Si O2"
_cell_formula_units_Z 52
_cell_length_a 9.322852
_cell_length_b 26.816209
_cell_length_c 12.050526
_cell_angle_alpha 90.000000
_cell_angle_beta 90.000000
_cell_angle_gamma 90.000000
_cell_volume 3012.674252
_symmetry_space_group_name_H-M "P M M M"
_symmetry_group_IT_number 47
_symmetry_cell_setting 'orthorhombic'
loop_
_space_group_symop_operation_xyz
x,y,z
-x,-y,z
x,-y,-z
-x,y,-z
-x,-y,-z
x,y,-z
-x,y,z
x,-y,z
loop_
_atom_site_type_symbol
_atom_site_label
_atom_site_fract_x
_atom_site_fract_y
_atom_site_fract_z
Si Si1 0.170289 0.905285 0.263126
Si Si2 0.667490 0.175194 0.126704
Si Si3 0.170357 0.556098 0.000000
Si Si4 0.169642 0.380062 0.791604
Si Si5 0.336318 0.289725 0.871463
Si Si6 0.661334 0.443869 0.630501
Si Si7 0.829927 0.056252 0.500000
Si Si8 0.170289 0.000000 0.124600
O O1 0.242763 0.855961 0.215408
O O2 0.220959 0.914163 0.390127
O O3 0.225347 0.951461 0.189244
O O4 0.000000 0.899155 0.255884
O O5 0.500000 0.163721 0.141304
O O6 0.701265 0.232540 0.154226
O O7 0.714395 0.162752 0.000000
O O8 0.225733 0.585660 0.107417
O O9 0.234318 0.500000 0.000000
O O10 0.000000 0.553843 0.000000
O O11 0.232469 0.324500 0.799854
O O12 0.225848 0.405145 0.679892
O O13 0.000000 0.375881 0.788174
O O14 0.500000 0.301135 0.838721
O O15 0.309883 0.301193 0.000000
O O16 0.669367 0.437919 0.500000
O O17 0.500000 0.432109 0.672168
O O18 0.704539 0.500000 0.665577
O O19 0.000000 0.051773 0.500000
O O20 0.766022 0.000000 0.500000
O O21 0.000000 0.000000 0.121667
O O22 0.233940 0.000000 0.000000
#
# Coordination Sequence:
#
# PCOD8194337 Si02
#       8
#     8   8   4   8   8   8   4   4
#     4  10  18  30  51  76 102 134 172 212 249 295
#     4   9  19  35  53  74 102 134 167 209 261 307
#     4   9  18  30  43  69 111 145 161 188 247 308
#     4  11  20  31  51  78 108 137 167 209 258 306
#     4   9  18  34  54  73  98 135 174 210 252 309
#     4   9  19  36  55  74  99 134 175 214 251 297
#     4   9  16  30  51  75 103 139 175 205 246 301
#     4   9  16  25  42  72 105 131 162 203 248 296
#
# _framework density 17.260411000000001
#
# number of rings (size 3 to 8) (size 9 to 14) (size 15 to 20)
#    0.000    2.538    1.538    2.769    0.000    2.769 
#    0.000    3.077    1.692    3.692    0.000    0.000 
#    0.000    0.000    0.000    0.000    0.000    0.000 
#
# Total GULP energy -644776.219959 kJ/mol
# GULP energy per Si atom -12399.542692 kJ/mol
# Density = 1.722113 g / cm^3
# Si number density = 17.260411 Si / 1000 Ang^3
#
#
#
# Elastic Constant Matrix: (Units=GPa)
#
#
# Indices 1 2 3 4 5 6 
#
# 1 61.5973 55.3453 41.3070 0.0000 0.0000 0.0000
# 2 55.3453 123.4628 63.0066 0.0000 0.0000 0.0000
# 3 41.3070 63.0066 103.6861 0.0000 0.0000 0.0000
# 4 0.0000 0.0000 0.0000 28.3898 0.0000 0.0000
# 5 0.0000 0.0000 0.0000 0.0000 24.1730 0.0000
# 6 0.0000 0.0000 0.0000 0.0000 0.0000 28.8616
#
#
#
# Elastic Compliance Matrix: (Units=1/GPa)
#
#
# Indices 1 2 3 4 5 6 
#
# 1 0.029068 -0.010322 -0.005308 0.000000 0.000000 0.000000
# 2 -0.010322 0.015405 -0.005249 0.000000 0.000000 0.000000
# 3 -0.005308 -0.005249 0.014949 0.000000 0.000000 0.000000
# 4 0.000000 0.000000 0.000000 0.035224 0.000000 0.000000
# 5 0.000000 0.000000 0.000000 0.000000 0.041368 0.000000
# 6 0.000000 0.000000 0.000000 0.000000 0.000000 0.034648
#
#
# Mechanical properties :
#
#
# Convention : Reuss Voigt Hill
#
# Bulk Modulus (GPa) = 56.61159 67.56268 62.08713
# Shear Modulus (GPa) = 22.90325 24.89069 23.89697
#
# Velocity S-wave (km/s) = 3.64665 3.80158 3.72492
# Velocity P-wave (km/s) = 7.11340 7.64836 7.38573
#
# Compressibility (1/GPa) = 0.01766423
#
# Stress axis : x y z
#
# Youngs Moduli (GPa) = 34.40198 64.91224 66.89357
#
# Poissons Ratio (x) = 0.66999 0.35509
# Poissons Ratio (y) = 0.35508 0.35115
# Poissons Ratio (z) = 0.18261 0.34075
#
# Static dielectric constant tensor:
#      x y z
#    x 2.927660 0.000000 0.000000 
#    y 0.000000 3.219830 0.000000 
#    z 0.000000 0.000000 3.190910 
# 
# 
# High freq. dielectric constant tensor:
#      x y z
#    x 1.643270 0.000000 0.000000 
#    y 0.000000 1.669270 0.000000 
#    z 0.000000 0.000000 1.658770 
# 
# From -- ./inp_files/15496.got.cif
#   From: 2010.03.12/outbox.cif.g09.slc.cpg/sg47_8_cif.got.tgz:15496.got - 2010.04.14 03:12:58.
