data_PCOD8194705
_publ_section_title
;
Structure prediction by ZEFSAII (Michael W. Deem and Ramdas Pophale) SiO2 
 PCOD8194705
Probable space group: P M M M
;
_chemical_formula_sum "Si O2"
_cell_formula_units_Z 56
_cell_length_a 13.579856
_cell_length_b 9.213806
_cell_length_c 29.298613
_cell_angle_alpha 90.000000
_cell_angle_beta 90.000000
_cell_angle_gamma 90.000000
_cell_volume 3665.905705
_symmetry_space_group_name_H-M "P M M M"
_symmetry_group_IT_number 47
_symmetry_cell_setting 'orthorhombic'
loop_
_space_group_symop_operation_xyz
x,y,z
-x,-y,z
x,-y,-z
-x,y,-z
-x,-y,-z
x,y,-z
-x,y,z
x,-y,z
loop_
_atom_site_type_symbol
_atom_site_label
_atom_site_fract_x
_atom_site_fract_y
_atom_site_fract_z
Si Si1 0.889681 0.166022 0.213988
Si Si2 0.613569 0.672956 0.353049
Si Si3 0.298281 0.830329 0.730355
Si Si4 0.112856 0.831303 0.052142
Si Si5 0.797799 0.330966 0.132982
Si Si6 0.610311 0.334229 0.811337
Si Si7 0.383237 0.337720 0.451756
O O1 0.813923 0.203573 0.254568
O O2 0.872188 0.265022 0.169982
O O3 0.000000 0.193564 0.232435
O O4 0.874947 0.000000 0.198193
O O5 0.500000 0.715416 0.343324
O O6 0.626255 0.500000 0.350211
O O7 0.684334 0.750364 0.317229
O O8 0.649087 0.732649 0.403317
O O9 0.372557 0.769404 0.768307
O O10 0.318529 0.000000 0.724311
O O11 0.185595 0.739817 0.083807
O O12 0.000000 0.788700 0.062475
O O13 0.129418 0.000000 0.062116
O O14 0.139315 0.794185 0.000000
O O15 0.819966 0.500000 0.129338
O O16 0.685350 0.297807 0.147750
O O17 0.500000 0.308977 0.829923
O O18 0.625543 0.500000 0.794711
O O19 0.350357 0.258594 0.500000
O O20 0.500000 0.345839 0.450072
O O21 0.340295 0.500000 0.453458
#
# Coordination Sequence:
#
# PCOD8194705 Si02
#       7
#     8   8   8   8   8   8   8
#     4   9  18  32  46  58  78 110 140 163 195 243
#     4   9  16  25  38  56  80 110 137 162 198 240
#     4  10  19  28  40  60  82 104 135 172 203 233
#     4   9  18  32  48  65  87 115 140 160 192 243
#     4  10  19  29  45  69  89 105 132 170 205 234
#     4   9  18  32  46  59  81 113 142 166 196 236
#     4   7  10  18  33  52  72  97 133 169 193 223
#
# _framework density 15.275897000000001
#
# number of rings (size 3 to 8) (size 9 to 14) (size 15 to 20)
#    0.000    3.000    0.000    3.429    0.000    6.000 
#    0.000    0.714    0.000    0.857    0.000    5.000 
#    0.000    0.571    0.000    7.143    0.000    0.286 
#
# Total GULP energy -693951.893985 kJ/mol
# GULP energy per Si atom -12391.998107 kJ/mol
# Density = 1.524113 g / cm^3
# Si number density = 15.275897 Si / 1000 Ang^3
#
#
#
# Elastic Constant Matrix: (Units=GPa)
#
#
# Indices 1 2 3 4 5 6 
#
# 1 81.3176 32.4196 53.7873 0.0000 0.0000 0.0000
# 2 32.4196 55.4886 54.0161 0.0000 0.0000 0.0000
# 3 53.7873 54.0161 138.2751 0.0000 0.0000 0.0000
# 4 0.0000 0.0000 0.0000 12.5210 0.0000 0.0000
# 5 0.0000 0.0000 0.0000 0.0000 18.2261 0.0000
# 6 0.0000 0.0000 0.0000 0.0000 0.0000 19.5856
#
#
#
# Elastic Compliance Matrix: (Units=1/GPa)
#
#
# Indices 1 2 3 4 5 6 
#
# 1 0.017665 -0.005860 -0.004582 0.000000 0.000000 0.000000
# 2 -0.005860 0.031024 -0.009840 0.000000 0.000000 0.000000
# 3 -0.004582 -0.009840 0.012858 0.000000 0.000000 0.000000
# 4 0.000000 0.000000 0.000000 0.079866 0.000000 0.000000
# 5 0.000000 0.000000 0.000000 0.000000 0.054866 0.000000
# 6 0.000000 0.000000 0.000000 0.000000 0.000000 0.051058
#
#
# Mechanical properties :
#
#
# Convention : Reuss Voigt Hill
#
# Bulk Modulus (GPa) = 47.65794 61.72526 54.69160
# Shear Modulus (GPa) = 16.95514 19.05709 18.00612
#
# Velocity S-wave (km/s) = 3.33517 3.53587 3.43698
# Velocity P-wave (km/s) = 6.78948 7.56072 7.18545
#
# Compressibility (1/GPa) = 0.02098286
#
# Stress axis : x y z
#
# Youngs Moduli (GPa) = 56.61043 32.23274 77.77128
#
# Poissons Ratio (x) = 0.18889 0.35635
# Poissons Ratio (y) = 0.33175 0.76526
# Poissons Ratio (z) = 0.25939 0.31717
#
# Static dielectric constant tensor:
#      x y z
#    x 2.773490 0.000000 0.000000 
#    y 0.000000 2.840610 0.000000 
#    z 0.000000 0.000000 3.126250 
# 
# 
# High freq. dielectric constant tensor:
#      x y z
#    x 1.555020 0.000000 0.000000 
#    y 0.000000 1.575680 0.000000 
#    z 0.000000 0.000000 1.586240 
# 
# From -- ./inp_files/22093.got.cif
#   From: 2010.03.12/outbox.cif.g09.slc.cpg/sg47_12_cif.got.tgz:22093.got - 2010.04.14 03:12:58.
