data_PCOD8194145
_publ_section_title
;
Structure prediction by ZEFSAII (Michael W. Deem and Ramdas Pophale) SiO2 
 PCOD8194145
Probable space group: P M M M
;
_chemical_formula_sum "Si O2"
_cell_formula_units_Z 52
_cell_length_a 23.214731
_cell_length_b 8.709136
_cell_length_c 14.140106
_cell_angle_alpha 90.000000
_cell_angle_beta 90.000000
_cell_angle_gamma 90.000000
_cell_volume 2858.850159
_symmetry_space_group_name_H-M "P M M M"
_symmetry_group_IT_number 47
_symmetry_cell_setting 'orthorhombic'
loop_
_space_group_symop_operation_xyz
x,y,z
-x,-y,z
x,-y,-z
-x,y,-z
-x,-y,-z
x,y,-z
-x,y,z
x,-y,z
loop_
_atom_site_type_symbol
_atom_site_label
_atom_site_fract_x
_atom_site_fract_y
_atom_site_fract_z
Si Si1 0.145989 0.321384 0.393283
Si Si2 0.107345 0.821062 0.211216
Si Si3 0.733160 0.175588 0.394971
Si Si4 0.785194 0.321620 0.110288
Si Si5 0.000000 0.318899 0.893875
Si Si6 0.676430 0.179633 0.795302
Si Si7 0.563144 0.817769 0.106265
O O1 0.128299 0.275440 0.500000
O O2 0.136144 0.500000 0.374288
O O3 0.106241 0.225994 0.321578
O O4 0.212943 0.285041 0.375432
O O5 0.168601 0.777774 0.166993
O O6 0.056990 0.734301 0.158207
O O7 0.096340 0.000000 0.201444
O O8 0.707315 0.205677 0.500000
O O9 0.684585 0.211103 0.316735
O O10 0.754911 0.000000 0.385721
O O11 0.795417 0.500000 0.132798
O O12 0.721975 0.272973 0.142898
O O13 0.792298 0.286621 0.000000
O O14 0.000000 0.500000 0.896523
O O15 0.000000 0.251375 0.000000
O O16 0.612991 0.241570 0.823238
O O17 0.683503 0.000000 0.819359
O O18 0.500000 0.756333 0.139085
O O19 0.562106 0.000000 0.106837
O O20 0.576364 0.759068 0.000000
#
# Coordination Sequence:
#
# PCOD8194145 Si02
#       7
#     8   8   8   8   4   8   8
#     4  10  20  35  57  83 111 144 180 219 266 321
#     4  12  24  39  60  85 112 144 181 223 267 317
#     4   9  17  29  46  72 105 137 171 215 269 323
#     4  11  23  36  51  75 108 141 173 218 274 324
#     4  11  25  45  66  85 110 147 187 226 268 317
#     4  10  18  29  49  75 100 133 176 222 271 322
#     4   8  14  25  42  66  97 133 176 225 271 319
#
# _framework density 18.189129999999999
#
# number of rings (size 3 to 8) (size 9 to 14) (size 15 to 20)
#    0.000    1.923    1.538    3.923    0.000    5.231 
#    0.000    0.385    0.000    3.231    0.000    5.385 
#    0.000    0.000    0.000    5.231    0.000    5.692 
#
# Total GULP energy -644790.872980 kJ/mol
# GULP energy per Si atom -12399.824480 kJ/mol
# Density = 1.814773 g / cm^3
# Si number density = 18.189130 Si / 1000 Ang^3
#
#
#
# Elastic Constant Matrix: (Units=GPa)
#
#
# Indices 1 2 3 4 5 6 
#
# 1 100.9987 15.5173 54.9281 0.0000 0.0000 0.0000
# 2 15.5173 46.6741 30.6908 0.0000 0.0000 0.0000
# 3 54.9281 30.6908 127.2881 0.0000 0.0000 0.0000
# 4 0.0000 0.0000 0.0000 23.0035 0.0000 0.0000
# 5 0.0000 0.0000 0.0000 0.0000 16.5439 0.0000
# 6 0.0000 0.0000 0.0000 0.0000 0.0000 82.8111
#
#
#
# Elastic Compliance Matrix: (Units=1/GPa)
#
#
# Indices 1 2 3 4 5 6 
#
# 1 0.012959 -0.000750 -0.005411 0.000000 0.000000 0.000000
# 2 -0.000750 0.025505 -0.005826 0.000000 0.000000 0.000000
# 3 -0.005411 -0.005826 0.011596 0.000000 0.000000 0.000000
# 4 0.000000 0.000000 0.000000 0.043472 0.000000 0.000000
# 5 0.000000 0.000000 0.000000 0.000000 0.060445 0.000000
# 6 0.000000 0.000000 0.000000 0.000000 0.000000 0.012076
#
#
# Mechanical properties :
#
#
# Convention : Reuss Voigt Hill
#
# Bulk Modulus (GPa) = 38.33509 53.02593 45.68051
# Shear Modulus (GPa) = 25.16054 36.06001 30.61027
#
# Velocity S-wave (km/s) = 3.72327 4.45736 4.10675
# Velocity P-wave (km/s) = 6.29327 7.46368 6.90333
#
# Compressibility (1/GPa) = 0.02608576
#
# Stress axis : x y z
#
# Youngs Moduli (GPa) = 77.16424 39.20733 86.23600
#
# Poissons Ratio (x) = 0.02941 0.46666
# Poissons Ratio (y) = 0.05788 0.50241
# Poissons Ratio (z) = 0.41757 0.22842
#
# Static dielectric constant tensor:
#      x y z
#    x 3.498450 0.000000 0.000000 
#    y 0.000000 3.250030 0.000000 
#    z 0.000000 0.000000 3.671410 
# 
# 
# High freq. dielectric constant tensor:
#      x y z
#    x 1.685840 0.000000 0.000000 
#    y 0.000000 1.694110 0.000000 
#    z 0.000000 0.000000 1.716610 
# 
# From -- ./inp_files/21418.got.cif
#   From: 2010.03.12/outbox.cif.g09.slc.cpg/sg47_11_cif.got.tgz:21418.got - 2010.04.14 03:12:58.
