data_PCOD8194375
_publ_section_title
;
Structure prediction by ZEFSAII (Michael W. Deem and Ramdas Pophale) SiO2 
 PCOD8194375
Probable space group: P M M M
;
_chemical_formula_sum "Si O2"
_cell_formula_units_Z 52
_cell_length_a 8.914883
_cell_length_b 21.867719
_cell_length_c 14.760300
_cell_angle_alpha 90.000000
_cell_angle_beta 90.000000
_cell_angle_gamma 90.000000
_cell_volume 2877.493272
_symmetry_space_group_name_H-M "P M M M"
_symmetry_group_IT_number 47
_symmetry_cell_setting 'orthorhombic'
loop_
_space_group_symop_operation_xyz
x,y,z
-x,-y,z
x,-y,-z
-x,y,-z
-x,-y,-z
x,y,-z
-x,y,z
x,-y,z
loop_
_atom_site_type_symbol
_atom_site_label
_atom_site_fract_x
_atom_site_fract_y
_atom_site_fract_z
Si Si1 0.167550 0.428095 0.000000
Si Si2 0.322200 0.639098 0.158576
Si Si3 0.176703 0.570717 0.682110
Si Si4 0.678263 0.000000 0.897108
Si Si5 0.321887 0.885479 0.220211
Si Si6 0.321737 0.772729 0.898026
Si Si7 0.823480 0.929751 0.397859
Si Si8 0.333224 0.571743 0.500000
O O1 0.257445 0.408018 0.912730
O O2 0.156860 0.500000 0.000000
O O3 0.000000 0.399897 0.000000
O O4 0.500000 0.636014 0.156311
O O5 0.261675 0.617860 0.254338
O O6 0.264089 0.707240 0.136936
O O7 0.218681 0.500000 0.703458
O O8 0.234695 0.591942 0.584882
O O9 0.000000 0.580332 0.689392
O O10 0.736531 0.941055 0.842308
O O11 0.500000 0.000000 0.902137
O O12 0.743027 0.000000 0.000000
O O13 0.500000 0.886324 0.228005
O O14 0.262267 0.824088 0.171368
O O15 0.257380 0.888628 0.322084
O O16 0.500000 0.774286 0.900653
O O17 0.260215 0.784561 0.000000
O O18 0.777241 0.908655 0.500000
O O19 0.000000 0.922699 0.385341
O O20 0.774302 0.000000 0.383881
O O21 0.355174 0.500000 0.500000
O O22 0.500000 0.602194 0.500000
#
# Coordination Sequence:
#
# PCOD8194375 Si02
#       8
#     4   8   8   4   8   8   8   4
#     4  11  23  37  53  77 109 140 173 222 278 322
#     4  11  21  35  55  77 103 140 184 222 261 315
#     4  10  20  34  53  79 110 140 169 212 271 322
#     4   9  16  26  44  77 110 134 165 209 258 305
#     4  10  18  30  53  81 105 133 174 219 260 304
#     4   9  18  34  54  76 104 139 176 216 261 311
#     4   9  18  33  52  74 105 143 174 208 264 323
#     4   9  17  31  53  81 109 137 173 214 257 316
#
# _framework density 18.071283999999999
#
# number of rings (size 3 to 8) (size 9 to 14) (size 15 to 20)
#    0.000    2.231    1.538    2.769    0.000    6.462 
#    0.000    2.308    1.692    1.846    0.000    0.000 
#    0.000    0.000    0.000    0.000    0.000    0.000 
#
# Total GULP energy -644699.457785 kJ/mol
# GULP energy per Si atom -12398.066496 kJ/mol
# Density = 1.803015 g / cm^3
# Si number density = 18.071284 Si / 1000 Ang^3
#
#
#
# Elastic Constant Matrix: (Units=GPa)
#
#
# Indices 1 2 3 4 5 6 
#
# 1 54.1470 31.7243 36.4245 0.0000 0.0000 0.0000
# 2 31.7243 99.1218 68.9266 0.0000 0.0000 0.0000
# 3 36.4245 68.9266 163.2094 0.0000 0.0000 0.0000
# 4 0.0000 0.0000 0.0000 186.7168 0.0000 0.0000
# 5 0.0000 0.0000 0.0000 0.0000 17.0423 0.0000
# 6 0.0000 0.0000 0.0000 0.0000 0.0000 14.1541
#
#
#
# Elastic Compliance Matrix: (Units=1/GPa)
#
#
# Indices 1 2 3 4 5 6 
#
# 1 0.023695 -0.005531 -0.002952 0.000000 0.000000 0.000000
# 2 -0.005531 0.015574 -0.005343 0.000000 0.000000 0.000000
# 3 -0.002952 -0.005343 0.009042 0.000000 0.000000 0.000000
# 4 0.000000 0.000000 0.000000 0.005356 0.000000 0.000000
# 5 0.000000 0.000000 0.000000 0.000000 0.058677 0.000000
# 6 0.000000 0.000000 0.000000 0.000000 0.000000 0.070651
#
#
# Mechanical properties :
#
#
# Convention : Reuss Voigt Hill
#
# Bulk Modulus (GPa) = 48.40433 65.62542 57.01487
# Shear Modulus (GPa) = 22.98498 55.54284 39.26391
#
# Velocity S-wave (km/s) = 3.57025 5.54997 4.66631
# Velocity P-wave (km/s) = 6.62110 8.80131 7.78788
#
# Compressibility (1/GPa) = 0.02065931
#
# Stress axis : x y z
#
# Youngs Moduli (GPa) = 42.20365 64.20968 110.58976
#
# Poissons Ratio (x) = 0.35511 0.32651
# Poissons Ratio (y) = 0.23341 0.59087
# Poissons Ratio (z) = 0.12460 0.34307
#
# Static dielectric constant tensor:
#      x y z
#    x 3.146460 0.000000 0.000000 
#    y 0.000000 3.310430 0.000000 
#    z 0.000000 0.000000 3.567310 
# 
# 
# High freq. dielectric constant tensor:
#      x y z
#    x 1.681830 0.000000 0.000000 
#    y 0.000000 1.680180 0.000000 
#    z 0.000000 0.000000 1.715470 
# 
# From -- ./inp_files/21525.got.cif
#   From: 2010.03.12/outbox.cif.g09.slc.cpg/sg47_11_cif.got.tgz:21525.got - 2010.04.14 03:12:58.
