data_PCOD8194937
_publ_section_title
;
Structure prediction by ZEFSAII (Michael W. Deem and Ramdas Pophale) SiO2 
 PCOD8194937
Probable space group: P M M M
;
_chemical_formula_sum "Si O2"
_cell_formula_units_Z 52
_cell_length_a 9.160829
_cell_length_b 19.220547
_cell_length_c 16.108731
_cell_angle_alpha 90.000000
_cell_angle_beta 90.000000
_cell_angle_gamma 90.000000
_cell_volume 2836.363245
_symmetry_space_group_name_H-M "P M M M"
_symmetry_group_IT_number 47
_symmetry_cell_setting 'orthorhombic'
loop_
_space_group_symop_operation_xyz
x,y,z
-x,-y,z
x,-y,-z
-x,y,-z
-x,-y,-z
x,y,-z
-x,y,z
x,-y,z
loop_
_atom_site_type_symbol
_atom_site_label
_atom_site_fract_x
_atom_site_fract_y
_atom_site_fract_z
Si Si1 0.671509 0.348577 0.831380
Si Si2 0.836899 0.194212 0.656231
Si Si3 0.673266 0.578922 0.000000
Si Si4 0.331029 0.811659 0.816468
Si Si5 0.666481 0.637457 0.500000
Si Si6 0.336469 0.803465 0.500000
Si Si7 0.165869 0.359468 0.335799
Si Si8 0.160833 0.076247 0.903014
O O1 0.500000 0.362407 0.817866
O O2 0.705381 0.267054 0.843152
O O3 0.753694 0.380102 0.750543
O O4 0.731060 0.384586 0.915663
O O5 0.759796 0.164471 0.736986
O O6 0.746279 0.165809 0.578934
O O7 0.836231 0.277103 0.657038
O O8 0.000000 0.164804 0.650739
O O9 0.729954 0.500000 0.000000
O O10 0.500000 0.583286 0.000000
O O11 0.500000 0.819424 0.796052
O O12 0.282568 0.865326 0.886665
O O13 0.500000 0.608996 0.500000
O O14 0.664946 0.720322 0.500000
O O15 0.748787 0.610096 0.416547
O O16 0.500000 0.832247 0.500000
O O17 0.000000 0.388826 0.335005
O O18 0.000000 0.098154 0.868469
O O19 0.204855 0.000000 0.866186
O O20 0.150344 0.068821 0.000000
#
# Coordination Sequence:
#
# PCOD8194937 Si02
#       8
#     8   8   4   8   4   4   8   8
#     4   9  18  31  48  71  99 128 164 209 252 291
#     4   9  16  26  40  60  90 126 162 195 234 286
#     4   9  18  34  55  75  96 129 172 210 245 291
#     4  10  19  29  46  71  99 125 156 200 248 288
#     4   9  15  23  39  63  94 129 160 193 240 292
#     4   9  15  23  37  59  90 123 158 197 242 283
#     4   9  16  26  41  64  95 128 162 198 241 293
#     4   9  19  35  51  67  91 124 160 196 236 288
#
# _framework density 18.333335000000002
#
# number of rings (size 3 to 8) (size 9 to 14) (size 15 to 20)
#    0.000    2.846    0.000    2.308    1.077    6.769 
#    0.000    1.154    0.000    0.923    0.000    1.077 
#    0.000    8.615    0.000    0.000    0.000    0.000 
#
# Total GULP energy -644517.095874 kJ/mol
# GULP energy per Si atom -12394.559536 kJ/mol
# Density = 1.829161 g / cm^3
# Si number density = 18.333335 Si / 1000 Ang^3
#
#
#
# Elastic Constant Matrix: (Units=GPa)
#
#
# Indices 1 2 3 4 5 6 
#
# 1 122.8686 32.2248 66.7717 0.0000 0.0000 0.0000
# 2 32.2248 49.8287 37.9496 0.0000 0.0000 0.0000
# 3 66.7717 37.9496 141.8725 0.0000 0.0000 0.0000
# 4 0.0000 0.0000 0.0000 2.0967 0.0000 0.0000
# 5 0.0000 0.0000 0.0000 0.0000 34.9146 0.0000
# 6 0.0000 0.0000 0.0000 0.0000 0.0000 10.9178
#
#
#
# Elastic Compliance Matrix: (Units=1/GPa)
#
#
# Indices 1 2 3 4 5 6 
#
# 1 0.011595 -0.004198 -0.004334 0.000000 0.000000 0.000000
# 2 -0.004198 0.026723 -0.005172 0.000000 0.000000 0.000000
# 3 -0.004334 -0.005172 0.010472 0.000000 0.000000 0.000000
# 4 0.000000 0.000000 0.000000 0.476946 0.000000 0.000000
# 5 0.000000 0.000000 0.000000 0.000000 0.028641 0.000000
# 6 0.000000 0.000000 0.000000 0.000000 0.000000 0.091594
#
#
# Mechanical properties :
#
#
# Convention : Reuss Voigt Hill
#
# Bulk Modulus (GPa) = 46.77045 65.38467 56.07756
# Shear Modulus (GPa) = 7.34746 21.42737 14.38742
#
# Velocity S-wave (km/s) = 2.00410 3.42243 2.80441
# Velocity P-wave (km/s) = 5.56073 7.16653 6.41408
#
# Compressibility (1/GPa) = 0.02138102
#
# Stress axis : x y z
#
# Youngs Moduli (GPa) = 86.24268 37.42125 95.49142
#
# Poissons Ratio (x) = 0.15708 0.41390
# Poissons Ratio (y) = 0.36202 0.49393
# Poissons Ratio (z) = 0.37381 0.19356
#
# Static dielectric constant tensor:
#      x y z
#    x 3.469120 0.000000 0.000000 
#    y 0.000000 2.901010 0.000000 
#    z 0.000000 0.000000 3.531830 
# 
# 
# High freq. dielectric constant tensor:
#      x y z
#    x 1.712560 0.000000 0.000000 
#    y 0.000000 1.654740 0.000000 
#    z 0.000000 0.000000 1.718280 
# 
# From -- ./inp_files/21494.got.cif
#   From: 2010.03.12/outbox.cif.g09.slc.cpg/sg47_11_cif.got.tgz:21494.got - 2010.04.14 03:12:58.
