data_PCOD8194895
_publ_section_title
;
Structure prediction by ZEFSAII (Michael W. Deem and Ramdas Pophale) SiO2 
 PCOD8194895
Probable space group: P M M M
;
_chemical_formula_sum "Si O2"
_cell_formula_units_Z 52
_cell_length_a 14.916661
_cell_length_b 22.466824
_cell_length_c 9.365258
_cell_angle_alpha 90.000000
_cell_angle_beta 90.000000
_cell_angle_gamma 90.000000
_cell_volume 3138.578889
_symmetry_space_group_name_H-M "P M M M"
_symmetry_group_IT_number 47
_symmetry_cell_setting 'orthorhombic'
loop_
_space_group_symop_operation_xyz
x,y,z
-x,-y,z
x,-y,-z
-x,y,-z
-x,-y,-z
x,y,-z
-x,y,z
x,-y,z
loop_
_atom_site_type_symbol
_atom_site_label
_atom_site_fract_x
_atom_site_fract_y
_atom_site_fract_z
Si Si1 0.769820 0.236830 0.831914
Si Si2 0.106309 0.322585 0.335726
Si Si3 0.893555 0.565780 0.160065
Si Si4 0.597907 0.097720 0.659927
Si Si5 0.900686 0.000000 0.169389
Si Si6 0.234534 0.098628 0.166062
Si Si7 0.599124 0.760993 0.660558
O O1 0.851583 0.269092 0.754133
O O2 0.783438 0.167298 0.796586
O O3 0.675373 0.261688 0.769801
O O4 0.772341 0.249703 0.000000
O O5 0.136696 0.318994 0.500000
O O6 0.142188 0.385129 0.271216
O O7 0.000000 0.316993 0.320261
O O8 0.858372 0.500000 0.205211
O O9 0.000000 0.565469 0.161438
O O10 0.859643 0.581328 0.000000
O O11 0.616088 0.074761 0.500000
O O12 0.500000 0.074804 0.712231
O O13 0.675896 0.072954 0.760502
O O14 0.598035 0.168450 0.663288
O O15 0.849228 0.940485 0.220843
O O16 0.000000 0.000000 0.238046
O O17 0.908187 0.000000 0.000000
O O18 0.250496 0.089397 0.000000
O O19 0.621423 0.738607 0.500000
O O20 0.500000 0.737374 0.706901
#
# Coordination Sequence:
#
# PCOD8194895 Si02
#       7
#     8   8   8   8   4   8   8
#     4  10  19  29  44  67  92 116 145 185 230 273
#     4  10  20  31  43  62  90 124 158 189 222 263
#     4   8  14  26  44  64  87 117 151 186 224 263
#     4   8  14  26  45  67  90 115 137 161 205 264
#     4   9  18  34  52  65  80 106 145 191 232 271
#     4   9  18  31  48  68  85 108 144 184 226 268
#     4   8  14  26  44  64  87 116 146 175 213 264
#
# _framework density 16.568007000000001
#
# number of rings (size 3 to 8) (size 9 to 14) (size 15 to 20)
#    0.000    3.154    0.000    2.308    0.000    3.077 
#    0.000    6.923    0.000    3.231    0.000    0.000 
#    0.000    0.615    0.000    6.462    0.000    3.385 
#
# Total GULP energy -644447.554733 kJ/mol
# GULP energy per Si atom -12393.222206 kJ/mol
# Density = 1.653030 g / cm^3
# Si number density = 16.568007 Si / 1000 Ang^3
#
#
#
# Elastic Constant Matrix: (Units=GPa)
#
#
# Indices 1 2 3 4 5 6 
#
# 1 100.4155 43.8215 52.2858 0.0000 0.0000 0.0000
# 2 43.8215 71.4903 46.7076 0.0000 0.0000 0.0000
# 3 52.2858 46.7076 90.8458 0.0000 0.0000 0.0000
# 4 0.0000 0.0000 0.0000 13.7291 0.0000 0.0000
# 5 0.0000 0.0000 0.0000 0.0000 28.7739 0.0000
# 6 0.0000 0.0000 0.0000 0.0000 0.0000 1.5708
#
#
#
# Elastic Compliance Matrix: (Units=1/GPa)
#
#
# Indices 1 2 3 4 5 6 
#
# 1 0.015557 -0.005551 -0.006100 0.000000 0.000000 0.000000
# 2 -0.005551 0.023044 -0.008653 0.000000 0.000000 0.000000
# 3 -0.006100 -0.008653 0.018967 0.000000 0.000000 0.000000
# 4 0.000000 0.000000 0.000000 0.072838 0.000000 0.000000
# 5 0.000000 0.000000 0.000000 0.000000 0.034754 0.000000
# 6 0.000000 0.000000 0.000000 0.000000 0.000000 0.636626
#
#
# Mechanical properties :
#
#
# Convention : Reuss Voigt Hill
#
# Bulk Modulus (GPa) = 58.95965 60.93128 59.94547
# Shear Modulus (GPa) = 5.89590 16.81053 11.35322
#
# Velocity S-wave (km/s) = 1.88847 3.18879 2.62057
# Velocity P-wave (km/s) = 6.35758 7.10030 6.73918
#
# Compressibility (1/GPa) = 0.01696075
#
# Stress axis : x y z
#
# Youngs Moduli (GPa) = 64.27880 43.39567 52.72202
#
# Poissons Ratio (x) = 0.24088 0.32160
# Poissons Ratio (y) = 0.35680 0.45621
# Poissons Ratio (z) = 0.39210 0.37551
#
# Static dielectric constant tensor:
#      x y z
#    x 3.278250 0.000000 0.000000 
#    y 0.000000 3.044920 0.000000 
#    z 0.000000 0.000000 3.189150 
# 
# 
# High freq. dielectric constant tensor:
#      x y z
#    x 1.622230 0.000000 0.000000 
#    y 0.000000 1.612010 0.000000 
#    z 0.000000 0.000000 1.634260 
# 
# From -- ./inp_files/7574.got.cif
#   From: 2010.03.12/outbox.cif.g09.slc.cpg/sg47_4_cif.got.tgz:7574.got - 2010.04.14 03:12:58.
