data_PCOD8194068
_publ_section_title
;
Structure prediction by ZEFSAII (Michael W. Deem and Ramdas Pophale) SiO2 
 PCOD8194068
Probable space group: P M M M
;
_chemical_formula_sum "Si O2"
_cell_formula_units_Z 56
_cell_length_a 19.339080
_cell_length_b 18.991252
_cell_length_c 8.954293
_cell_angle_alpha 90.000000
_cell_angle_beta 90.000000
_cell_angle_gamma 90.000000
_cell_volume 3288.673113
_symmetry_space_group_name_H-M "P M M M"
_symmetry_group_IT_number 47
_symmetry_cell_setting 'orthorhombic'
loop_
_space_group_symop_operation_xyz
x,y,z
-x,-y,z
x,-y,-z
-x,y,-z
-x,-y,-z
x,y,-z
-x,y,z
x,-y,z
loop_
_atom_site_type_symbol
_atom_site_label
_atom_site_fract_x
_atom_site_fract_y
_atom_site_fract_z
Si Si1 0.199478 0.290072 0.676642
Si Si2 0.078438 0.214260 0.822718
Si Si3 0.714461 0.577862 0.322458
Si Si4 0.844535 0.076874 0.824741
Si Si5 0.424126 0.353903 0.323306
Si Si6 0.279331 0.832276 0.827502
Si Si7 0.575025 0.793290 0.171284
O O1 0.190767 0.286523 0.500000
O O2 0.125058 0.275694 0.751582
O O3 0.227247 0.366531 0.730105
O O4 0.255436 0.232783 0.726947
O O5 0.104017 0.137460 0.763722
O O6 0.000000 0.225563 0.769912
O O7 0.085821 0.218406 0.000000
O O8 0.711209 0.577935 0.500000
O O9 0.733735 0.500000 0.261846
O O10 0.638160 0.598251 0.259321
O O11 0.765232 0.098555 0.786762
O O12 0.859517 0.000000 0.751009
O O13 0.855679 0.069982 0.000000
O O14 0.420538 0.353011 0.500000
O O15 0.500000 0.382156 0.270440
O O16 0.413095 0.274598 0.271019
O O17 0.361066 0.846941 0.798012
O O18 0.265029 0.811937 0.000000
O O19 0.500000 0.828758 0.207974
O O20 0.576689 0.768524 0.000000
#
# Coordination Sequence:
#
# PCOD8194068 Si02
#       7
#     8   8   8   8   8   8   8
#     4  10  18  29  47  68  89 114 146 182 217 257
#     4   9  18  32  50  71  93 117 142 171 210 255
#     4   9  17  28  42  63  90 117 146 183 225 263
#     4   8  14  25  43  68  93 116 144 175 207 250
#     4   9  16  26  41  61  85 113 147 185 223 262
#     4   9  16  27  44  63  86 117 151 186 221 257
#     4   9  16  25  39  59  84 115 149 186 226 262
#
# _framework density 17.028144999999999
#
# number of rings (size 3 to 8) (size 9 to 14) (size 15 to 20)
#    0.000    3.000    1.429    1.286    0.000    0.857 
#    0.000    2.857    0.000   11.571    0.000   12.000 
#    0.000    0.000    0.000    8.714    0.000    9.429 
#
# Total GULP energy -693769.143928 kJ/mol
# GULP energy per Si atom -12388.734713 kJ/mol
# Density = 1.698939 g / cm^3
# Si number density = 17.028145 Si / 1000 Ang^3
#
#
#
# Elastic Constant Matrix: (Units=GPa)
#
#
# Indices 1 2 3 4 5 6 
#
# 1 162.7922 62.0034 22.8338 0.0000 0.0000 0.0000
# 2 62.0034 87.7405 18.3467 0.0000 0.0000 0.0000
# 3 22.8338 18.3467 15.1649 0.0000 0.0000 0.0000
# 4 0.0000 0.0000 0.0000 14.7733 0.0000 0.0000
# 5 0.0000 0.0000 0.0000 0.0000 20.0448 0.0000
# 6 0.0000 0.0000 0.0000 0.0000 0.0000 19.9267
#
#
#
# Elastic Compliance Matrix: (Units=1/GPa)
#
#
# Indices 1 2 3 4 5 6 
#
# 1 0.009060 -0.004752 -0.007892 0.000000 0.000000 0.000000
# 2 -0.004752 0.017749 -0.014318 0.000000 0.000000 0.000000
# 3 -0.007892 -0.014318 0.095148 0.000000 0.000000 0.000000
# 4 0.000000 0.000000 0.000000 0.067690 0.000000 0.000000
# 5 0.000000 0.000000 0.000000 0.000000 0.049888 0.000000
# 6 0.000000 0.000000 0.000000 0.000000 0.000000 0.050184
#
#
# Mechanical properties :
#
#
# Convention : Reuss Voigt Hill
#
# Bulk Modulus (GPa) = 14.69905 52.45173 33.57539
# Shear Modulus (GPa) = 13.64923 21.78319 17.71621
#
# Velocity S-wave (km/s) = 2.83427 3.58054 3.22903
# Velocity P-wave (km/s) = 4.40020 6.92557 5.80195
#
# Compressibility (1/GPa) = 0.06803160
#
# Stress axis : x y z
#
# Youngs Moduli (GPa) = 110.37928 56.34035 10.50996
#
# Poissons Ratio (x) = 0.26772 0.08295
# Poissons Ratio (y) = 0.52451 0.15049
# Poissons Ratio (z) = 0.87114 0.80670
#
# Static dielectric constant tensor:
#      x y z
#    x 3.519690 0.000000 0.000000 
#    y 0.000000 3.223040 0.000000 
#    z 0.000000 0.000000 2.907340 
# 
# 
# High freq. dielectric constant tensor:
#      x y z
#    x 1.666640 0.000000 0.000000 
#    y 0.000000 1.625030 0.000000 
#    z 0.000000 0.000000 1.625720 
# 
# From -- ./inp_files/9870.got.cif
#   From: 2010.03.12/outbox.cif.g09.slc.cpg/sg47_5_cif.got.tgz:9870.got - 2010.04.14 03:12:58.
