data_PCOD8194041
_publ_section_title
;
Structure prediction by ZEFSAII (Michael W. Deem and Ramdas Pophale) SiO2 
 PCOD8194041
Probable space group: P M M M
;
_chemical_formula_sum "Si O2"
_cell_formula_units_Z 64
_cell_length_a 9.515200
_cell_length_b 19.665657
_cell_length_c 20.546190
_cell_angle_alpha 90.000000
_cell_angle_beta 90.000000
_cell_angle_gamma 90.000000
_cell_volume 3844.657715
_symmetry_space_group_name_H-M "P M M M"
_symmetry_group_IT_number 47
_symmetry_cell_setting 'orthorhombic'
loop_
_space_group_symop_operation_xyz
x,y,z
-x,-y,z
x,-y,-z
-x,y,-z
-x,-y,-z
x,y,-z
-x,y,z
x,-y,z
loop_
_atom_site_type_symbol
_atom_site_label
_atom_site_fract_x
_atom_site_fract_y
_atom_site_fract_z
Si Si1 0.339768 0.198146 0.265951
Si Si2 0.837053 0.421205 0.808773
Si Si3 0.842137 0.074610 0.268027
Si Si4 0.840678 0.673538 0.927047
Si Si5 0.333215 0.423866 0.571555
Si Si6 0.337484 0.799960 0.887539
Si Si7 0.842150 0.075311 0.113283
Si Si8 0.666903 0.346668 0.697405
O O1 0.500000 0.182441 0.282720
O O2 0.253398 0.135172 0.296203
O O3 0.316299 0.206587 0.189369
O O4 0.288825 0.267822 0.299285
O O5 0.799044 0.500000 0.816069
O O6 0.799084 0.385909 0.877204
O O7 0.742032 0.389392 0.752966
O O8 0.000000 0.410490 0.790521
O O9 0.837417 0.076266 0.190697
O O10 0.000000 0.086712 0.293109
O O11 0.788573 0.000000 0.291814
O O12 0.735929 0.736440 0.920987
O O13 0.000000 0.698770 0.913251
O O14 0.827510 0.643727 0.000000
O O15 0.279830 0.399677 0.500000
O O16 0.500000 0.424768 0.571988
O O17 0.276967 0.500000 0.585893
O O18 0.278686 0.373431 0.627514
O O19 0.500000 0.801228 0.907608
O O20 0.265941 0.869062 0.914571
O O21 0.000000 0.092725 0.089443
O O22 0.798648 0.000000 0.088212
O O23 0.500000 0.355333 0.707143
#
# Coordination Sequence:
#
# PCOD8194041 Si02
#       8
#     8   8   8   8   8   8   8   8
#     4   9  17  26  39  63  92 120 149 182 225 273
#     4  10  21  35  51  72  94 116 148 191 236 281
#     4   8  14  24  38  58  85 118 153 185 220 264
#     4  10  21  36  52  67  85 115 153 191 234 283
#     4   8  14  25  43  68  95 125 162 197 226 261
#     4  10  18  29  45  66  92 118 147 186 231 279
#     4   8  14  25  42  64  89 118 151 184 220 268
#     4  10  18  30  48  71  99 127 156 190 229 274
#
# _framework density 16.646474999999999
#
# number of rings (size 3 to 8) (size 9 to 14) (size 15 to 20)
#    0.000    2.875    1.250    1.875    0.000    2.750 
#    0.000    3.750    0.000    0.750    0.000    6.125 
#    0.000    0.500    0.000    6.250    0.000    1.250 
#
# Total GULP energy -793305.515881 kJ/mol
# GULP energy per Si atom -12395.398686 kJ/mol
# Density = 1.660859 g / cm^3
# Si number density = 16.646475 Si / 1000 Ang^3
#
#
#
# Elastic Constant Matrix: (Units=GPa)
#
#
# Indices 1 2 3 4 5 6 
#
# 1 68.4638 64.0641 36.0427 0.0000 0.0000 0.0000
# 2 64.0641 151.6146 60.9468 0.0000 0.0000 0.0000
# 3 36.0427 60.9468 75.9270 0.0000 0.0000 0.0000
# 4 0.0000 0.0000 0.0000 9.4144 0.0000 0.0000
# 5 0.0000 0.0000 0.0000 0.0000 10.7938 0.0000
# 6 0.0000 0.0000 0.0000 0.0000 0.0000 26.6024
#
#
#
# Elastic Compliance Matrix: (Units=1/GPa)
#
#
# Indices 1 2 3 4 5 6 
#
# 1 0.025423 -0.008697 -0.005087 0.000000 0.000000 0.000000
# 2 -0.008697 0.012713 -0.006076 0.000000 0.000000 0.000000
# 3 -0.005087 -0.006076 0.020463 0.000000 0.000000 0.000000
# 4 0.000000 0.000000 0.000000 0.106220 0.000000 0.000000
# 5 0.000000 0.000000 0.000000 0.000000 0.092646 0.000000
# 6 0.000000 0.000000 0.000000 0.000000 0.000000 0.037591
#
#
# Mechanical properties :
#
#
# Convention : Reuss Voigt Hill
#
# Bulk Modulus (GPa) = 52.97252 68.67917 60.82585
# Shear Modulus (GPa) = 14.65977 18.35888 16.50932
#
# Velocity S-wave (km/s) = 2.97080 3.32455 3.15264
# Velocity P-wave (km/s) = 6.60747 7.48892 7.06196
#
# Compressibility (1/GPa) = 0.01887771
#
# Stress axis : x y z
#
# Youngs Moduli (GPa) = 39.33489 78.65744 48.86936
#
# Poissons Ratio (x) = 0.68412 0.24859
# Poissons Ratio (y) = 0.34211 0.29695
# Poissons Ratio (z) = 0.20009 0.47795
#
# Static dielectric constant tensor:
#      x y z
#    x 3.093510 0.000000 0.000000 
#    y 0.000000 3.412830 0.000000 
#    z 0.000000 0.000000 2.961350 
# 
# 
# High freq. dielectric constant tensor:
#      x y z
#    x 1.628740 0.000000 0.000000 
#    y 0.000000 1.649520 0.000000 
#    z 0.000000 0.000000 1.600860 
# 
# From -- ./inp_files/27033.got.cif
#   From: 2010.03.12/outbox.cif.g09.slc.cpg/sg47_14_cif.got.tgz:27033.got - 2010.04.14 03:12:58.
