data_PCOD8194993
_publ_section_title
;
Structure prediction by ZEFSAII (Michael W. Deem and Ramdas Pophale) SiO2 
 PCOD8194993
Probable space group: P M M M
;
_chemical_formula_sum "Si O2"
_cell_formula_units_Z 56
_cell_length_a 13.761041
_cell_length_b 29.337486
_cell_length_c 8.941323
_cell_angle_alpha 90.000000
_cell_angle_beta 90.000000
_cell_angle_gamma 90.000000
_cell_volume 3609.740382
_symmetry_space_group_name_H-M "P M M M"
_symmetry_group_IT_number 47
_symmetry_cell_setting 'orthorhombic'
loop_
_space_group_symop_operation_xyz
x,y,z
-x,-y,z
x,-y,-z
-x,y,-z
-x,-y,-z
x,y,-z
-x,y,z
x,-y,z
loop_
_atom_site_type_symbol
_atom_site_label
_atom_site_fract_x
_atom_site_fract_y
_atom_site_fract_z
Si Si1 0.386941 0.270751 0.675016
Si Si2 0.390661 0.893764 0.326994
Si Si3 0.209474 0.950295 0.675211
Si Si4 0.615554 0.550040 0.668142
Si Si5 0.384772 0.637649 0.166336
Si Si6 0.889559 0.859901 0.322955
Si Si7 0.714014 0.187184 0.822998
O O1 0.367127 0.265506 0.500000
O O2 0.500000 0.261924 0.713303
O O3 0.353977 0.320958 0.726363
O O4 0.320517 0.235876 0.765186
O O5 0.378250 0.879243 0.500000
O O6 0.500000 0.909363 0.291012
O O7 0.320312 0.935886 0.287907
O O8 0.364168 0.850191 0.228222
O O9 0.194118 0.955281 0.500000
O O10 0.136814 0.911075 0.734986
O O11 0.188824 0.000000 0.750075
O O12 0.654764 0.556738 0.500000
O O13 0.500000 0.553157 0.667099
O O14 0.647710 0.500000 0.729087
O O15 0.659530 0.590285 0.770432
O O16 0.500000 0.633899 0.161059
O O17 0.342963 0.645759 0.000000
O O18 0.872034 0.856799 0.500000
O O19 0.820578 0.823372 0.243327
O O20 0.000000 0.848956 0.278807
O O21 0.720684 0.187840 0.000000
#
# Coordination Sequence:
#
# PCOD8194993 Si02
#       7
#     8   8   8   8   8   8   8
#     4  10  19  30  44  60  81 110 141 173 210 252
#     4   9  17  29  44  62  86 115 144 171 200 238
#     4   8  14  25  43  69  94 110 131 167 206 240
#     4   8  13  21  32  45  64  95 136 178 216 252
#     4   9  16  24  34  51  75 101 133 174 216 254
#     4   9  18  33  51  68  86 108 134 165 202 246
#     4  11  21  31  45  64  85 107 135 171 208 248
#
# _framework density 15.513579999999999
#
# number of rings (size 3 to 8) (size 9 to 14) (size 15 to 20)
#    0.000    2.857    0.000    3.857    0.000    5.714 
#    0.000    4.286    0.000    6.857    0.000    8.000 
#    0.000    0.000    0.000    0.000    0.000    0.714 
#
# Total GULP energy -694104.030699 kJ/mol
# GULP energy per Si atom -12394.714834 kJ/mol
# Density = 1.547827 g / cm^3
# Si number density = 15.513580 Si / 1000 Ang^3
#
#
#
# Elastic Constant Matrix: (Units=GPa)
#
#
# Indices 1 2 3 4 5 6 
#
# 1 69.0018 33.1695 30.3186 0.0000 0.0000 0.0000
# 2 33.1695 113.2321 41.9979 0.0000 0.0000 0.0000
# 3 30.3186 41.9979 72.5565 0.0000 0.0000 0.0000
# 4 0.0000 0.0000 0.0000 8.0681 0.0000 0.0000
# 5 0.0000 0.0000 0.0000 0.0000 11.3689 0.0000
# 6 0.0000 0.0000 0.0000 0.0000 0.0000 10.4099
#
#
#
# Elastic Compliance Matrix: (Units=1/GPa)
#
#
# Indices 1 2 3 4 5 6 
#
# 1 0.018661 -0.003278 -0.005900 0.000000 0.000000 0.000000
# 2 -0.003278 0.011822 -0.005473 0.000000 0.000000 0.000000
# 3 -0.005900 -0.005473 0.019416 0.000000 0.000000 0.000000
# 4 0.000000 0.000000 0.000000 0.123945 0.000000 0.000000
# 5 0.000000 0.000000 0.000000 0.000000 0.087959 0.000000
# 6 0.000000 0.000000 0.000000 0.000000 0.000000 0.096063
#
#
# Mechanical properties :
#
#
# Convention : Reuss Voigt Hill
#
# Bulk Modulus (GPa) = 48.55375 51.75138 50.15256
# Shear Modulus (GPa) = 12.68932 15.92300 14.30616
#
# Velocity S-wave (km/s) = 2.86308 3.20721 3.04002
# Velocity P-wave (km/s) = 6.50348 6.86630 6.68735
#
# Compressibility (1/GPa) = 0.02059573
#
# Stress axis : x y z
#
# Youngs Moduli (GPa) = 53.58897 84.59122 51.50464
#
# Poissons Ratio (x) = 0.27728 0.30389
# Poissons Ratio (y) = 0.17566 0.28188
# Poissons Ratio (z) = 0.31618 0.46296
#
# Static dielectric constant tensor:
#      x y z
#    x 2.661190 0.000000 0.000000 
#    y 0.000000 3.175550 0.000000 
#    z 0.000000 0.000000 2.917040 
# 
# 
# High freq. dielectric constant tensor:
#      x y z
#    x 1.543200 0.000000 0.000000 
#    y 0.000000 1.599110 0.000000 
#    z 0.000000 0.000000 1.586000 
# 
# From -- ./inp_files/8108.got.cif
#   From: 2010.03.12/outbox.cif.g09.slc.cpg/sg47_5_cif.got.tgz:8108.got - 2010.04.14 03:12:58.
