data_PCOD8194517
_publ_section_title
;
Structure prediction by ZEFSAII (Michael W. Deem and Ramdas Pophale) SiO2 
 PCOD8194517
Probable space group: P M M M
;
_chemical_formula_sum "Si O2"
_cell_formula_units_Z 52
_cell_length_a 11.851217
_cell_length_b 9.293314
_cell_length_c 28.502137
_cell_angle_alpha 90.000000
_cell_angle_beta 90.000000
_cell_angle_gamma 90.000000
_cell_volume 3139.142168
_symmetry_space_group_name_H-M "P M M M"
_symmetry_group_IT_number 47
_symmetry_cell_setting 'orthorhombic'
loop_
_space_group_symop_operation_xyz
x,y,z
-x,-y,z
x,-y,-z
-x,y,-z
-x,-y,-z
x,y,-z
-x,y,z
x,-y,z
loop_
_atom_site_type_symbol
_atom_site_label
_atom_site_fract_x
_atom_site_fract_y
_atom_site_fract_z
Si Si1 0.000000 0.328778 0.416292
Si Si2 0.000000 0.670173 0.690036
Si Si3 0.241710 0.671329 0.280049
Si Si4 0.374249 0.328751 0.190234
Si Si5 0.369742 0.166938 0.638408
Si Si6 0.365230 0.838723 0.000000
Si Si7 0.365670 0.660302 0.912467
Si Si8 0.214656 0.836305 0.552579
O O1 0.109917 0.269925 0.441935
O O2 0.000000 0.500000 0.419317
O O3 0.000000 0.270945 0.362915
O O4 0.887886 0.725041 0.716659
O O5 0.000000 0.500000 0.688546
O O6 0.250939 0.500000 0.284464
O O7 0.289717 0.727368 0.230314
O O8 0.313989 0.737676 0.321590
O O9 0.500000 0.267749 0.200525
O O10 0.379553 0.500000 0.189624
O O11 0.330467 0.277608 0.138845
O O12 0.500000 0.209423 0.634422
O O13 0.313290 0.205151 0.588666
O O14 0.353795 0.000000 0.651358
O O15 0.317168 0.761329 0.046524
O O16 0.500000 0.835504 0.000000
O O17 0.318424 0.000000 0.000000
O O18 0.500000 0.653990 0.914666
O O19 0.316528 0.500000 0.920237
O O20 0.263458 0.818549 0.500000
O O21 0.173533 0.000000 0.561249
#
# Coordination Sequence:
#
# PCOD8194517 Si02
#       8
#     4   4   8   8   8   4   8   8
#     4  11  20  34  53  76 100 120 147 187 231 271
#     4   9  18  30  48  73  96 117 145 184 226 269
#     4  10  18  32  51  70  93 121 153 186 225 274
#     4   8  14  24  41  64  86 113 151 187 217 258
#     4  10  21  35  50  70  94 119 150 188 228 270
#     4   9  15  21  31  51  79 112 147 178 214 259
#     4   8  13  22  35  52  76 108 146 183 215 250
#     4  10  21  36  53  72  94 122 154 186 224 273
#
# _framework density 16.565035999999999
#
# number of rings (size 3 to 8) (size 9 to 14) (size 15 to 20)
#    0.000    2.692    1.538    2.077    0.000    3.385 
#    0.000    2.692    0.000    2.769    0.000    2.154 
#    0.000    0.615    0.000    7.846    0.000    2.923 
#
# Total GULP energy -644612.547789 kJ/mol
# GULP energy per Si atom -12396.395150 kJ/mol
# Density = 1.652733 g / cm^3
# Si number density = 16.565036 Si / 1000 Ang^3
#
#
#
# Elastic Constant Matrix: (Units=GPa)
#
#
# Indices 1 2 3 4 5 6 
#
# 1 94.9893 31.1614 61.1172 0.0000 0.0000 0.0000
# 2 31.1614 53.7628 47.2803 0.0000 0.0000 0.0000
# 3 61.1172 47.2803 166.9619 0.0000 0.0000 0.0000
# 4 0.0000 0.0000 0.0000 17.6285 0.0000 0.0000
# 5 0.0000 0.0000 0.0000 0.0000 2.8316 0.0000
# 6 0.0000 0.0000 0.0000 0.0000 0.0000 13.3947
#
#
#
# Elastic Compliance Matrix: (Units=1/GPa)
#
#
# Indices 1 2 3 4 5 6 
#
# 1 0.014736 -0.005056 -0.003962 0.000000 0.000000 0.000000
# 2 -0.005056 0.026504 -0.005654 0.000000 0.000000 0.000000
# 3 -0.003962 -0.005654 0.009041 0.000000 0.000000 0.000000
# 4 0.000000 0.000000 0.000000 0.056726 0.000000 0.000000
# 5 0.000000 0.000000 0.000000 0.000000 0.353160 0.000000
# 6 0.000000 0.000000 0.000000 0.000000 0.000000 0.074657
#
#
# Mechanical properties :
#
#
# Convention : Reuss Voigt Hill
#
# Bulk Modulus (GPa) = 47.76879 66.09242 56.93060
# Shear Modulus (GPa) = 8.75431 18.51462 13.63447
#
# Velocity S-wave (km/s) = 2.30137 3.34682 2.87206
# Velocity P-wave (km/s) = 5.99679 7.41082 6.74098
#
# Compressibility (1/GPa) = 0.02093417
#
# Stress axis : x y z
#
# Youngs Moduli (GPa) = 67.86298 37.73081 110.60797
#
# Poissons Ratio (x) = 0.19079 0.43824
# Poissons Ratio (y) = 0.34315 0.62541
# Poissons Ratio (z) = 0.26888 0.21334
#
# Static dielectric constant tensor:
#      x y z
#    x 3.026770 0.000000 0.000000 
#    y 0.000000 2.969990 0.000000 
#    z 0.000000 0.000000 3.461140 
# 
# 
# High freq. dielectric constant tensor:
#      x y z
#    x 1.601840 0.000000 0.000000 
#    y 0.000000 1.616140 0.000000 
#    z 0.000000 0.000000 1.650590 
# 
# From -- ./inp_files/33677.got.cif
#   From: 2010.03.12/outbox.cif.g09.slc.cpg/sg47_17_cif.got.tgz:33677.got - 2010.04.14 03:12:58.
