data_PCOD8194331
_publ_section_title
;
Structure prediction by ZEFSAII (Michael W. Deem and Ramdas Pophale) SiO2 
 PCOD8194331
Probable space group: P M M M
;
_chemical_formula_sum "Si O2"
_cell_formula_units_Z 52
_cell_length_a 27.349809
_cell_length_b 12.647093
_cell_length_c 9.220104
_cell_angle_alpha 90.000000
_cell_angle_beta 90.000000
_cell_angle_gamma 90.000000
_cell_volume 3189.193202
_symmetry_space_group_name_H-M "P M M M"
_symmetry_group_IT_number 47
_symmetry_cell_setting 'orthorhombic'
loop_
_space_group_symop_operation_xyz
x,y,z
-x,-y,z
x,-y,-z
-x,y,-z
-x,-y,-z
x,y,-z
-x,y,z
x,-y,z
loop_
_atom_site_type_symbol
_atom_site_label
_atom_site_fract_x
_atom_site_fract_y
_atom_site_fract_z
Si Si1 0.617259 0.291553 0.330916
Si Si2 0.622399 0.500000 0.827519
Si Si3 0.731903 0.271730 0.662576
Si Si4 0.556624 0.122255 0.165500
Si Si5 0.000000 0.126319 0.662088
Si Si6 0.199222 0.881687 0.827908
Si Si7 0.279558 0.500000 0.664345
Si Si8 0.908319 0.874325 0.161034
O O1 0.606436 0.309379 0.500000
O O2 0.598552 0.394525 0.242208
O O3 0.674477 0.271153 0.302424
O O4 0.588494 0.189736 0.275994
O O5 0.679359 0.500000 0.787246
O O6 0.614667 0.500000 0.000000
O O7 0.741947 0.230977 0.500000
O O8 0.759384 0.196205 0.772384
O O9 0.751994 0.392639 0.681727
O O10 0.500000 0.148137 0.191769
O O11 0.567452 0.000000 0.198575
O O12 0.571151 0.149167 0.000000
O O13 0.048690 0.171673 0.738570
O O14 0.000000 0.170382 0.500000
O O15 0.000000 0.000000 0.665663
O O16 0.145232 0.843324 0.776096
O O17 0.210025 0.000000 0.769537
O O18 0.200210 0.881847 0.000000
O O19 0.303383 0.500000 0.500000
O O20 0.911505 0.000000 0.153245
O O21 0.915723 0.827214 0.000000
#
# Coordination Sequence:
#
# PCOD8194331 Si02
#       8
#     8   4   8   8   4   8   4   8
#     4  10  20  34  51  72  98 125 154 188 228 277
#     4  10  18  30  51  75  96 120 151 188 232 275
#     4   9  18  31  47  66  90 120 150 183 223 266
#     4   9  19  36  55  74  97 124 155 193 233 269
#     4   9  15  21  33  55  77 100 139 186 221 253
#     4   9  18  30  42  60  89 122 153 185 221 262
#     4   8  16  32  48  65  91 119 149 188 232 272
#     4   8  14  25  38  51  74 111 147 177 215 261
#
# _framework density 16.305064000000002
#
# number of rings (size 3 to 8) (size 9 to 14) (size 15 to 20)
#    0.000    3.000    0.000    3.692    0.000    6.154 
#    0.000    5.769    0.000    2.308    0.000    0.000 
#    0.000    0.615    0.000    6.923    0.000    5.231 
#
# Total GULP energy -644481.761774 kJ/mol
# GULP energy per Si atom -12393.880034 kJ/mol
# Density = 1.626795 g / cm^3
# Si number density = 16.305064 Si / 1000 Ang^3
#
#
#
# Elastic Constant Matrix: (Units=GPa)
#
#
# Indices 1 2 3 4 5 6 
#
# 1 68.3960 47.9906 44.3960 0.0000 0.0000 0.0000
# 2 47.9906 84.2570 46.4847 0.0000 0.0000 0.0000
# 3 44.3960 46.4847 90.5233 0.0000 0.0000 0.0000
# 4 0.0000 0.0000 0.0000 26.4637 0.0000 0.0000
# 5 0.0000 0.0000 0.0000 0.0000 21.5968 0.0000
# 6 0.0000 0.0000 0.0000 0.0000 0.0000 -1.2644
#
#
#
# Elastic Compliance Matrix: (Units=1/GPa)
#
#
# Indices 1 2 3 4 5 6 
#
# 1 0.027691 -0.011553 -0.007649 0.000000 0.000000 0.000000
# 2 -0.011553 0.021380 -0.005313 0.000000 0.000000 0.000000
# 3 -0.007649 -0.005313 0.017526 0.000000 0.000000 0.000000
# 4 0.000000 0.000000 0.000000 0.037788 0.000000 0.000000
# 5 0.000000 0.000000 0.000000 0.000000 0.046303 0.000000
# 6 0.000000 0.000000 0.000000 0.000000 0.000000 -0.790881
#
#
# Mechanical properties :
#
#
# Convention : Reuss Voigt Hill
#
# Bulk Modulus (GPa) = 56.91747 57.87989 57.39868
# Shear Modulus (GPa) = -8.54250 16.31288 3.88519
#
# Velocity S-wave (km/s) = -2.29141 3.16647 1.54531
# Velocity P-wave (km/s) = 5.28989 6.99599 6.20189
#
# Compressibility (1/GPa) = 0.01756930
#
# Stress axis : x y z
#
# Youngs Moduli (GPa) = 36.11227 46.77356 57.05745
#
# Poissons Ratio (x) = 0.54036 0.43641
# Poissons Ratio (y) = 0.41719 0.30314
# Poissons Ratio (z) = 0.27621 0.24850
#
# Static dielectric constant tensor:
#      x y z
#    x 3.013890 0.000000 0.000000 
#    y 0.000000 2.989220 0.000000 
#    z 0.000000 0.000000 3.078780 
# 
# 
# High freq. dielectric constant tensor:
#      x y z
#    x 1.609330 0.000000 0.000000 
#    y 0.000000 1.602190 0.000000 
#    z 0.000000 0.000000 1.630690 
# 
# From -- ./inp_files/14153.got.cif
#   From: 2010.03.12/outbox.cif.g09.slc.cpg/sg47_8_cif.got.tgz:14153.got - 2010.04.14 03:12:58.
