data_PCOD8194573
_publ_section_title
;
Structure prediction by ZEFSAII (Michael W. Deem and Ramdas Pophale) SiO2 
 PCOD8194573
Probable space group: P M M M
;
_chemical_formula_sum "Si O2"
_cell_formula_units_Z 36
_cell_length_a 10.436970
_cell_length_b 7.922536
_cell_length_c 23.892451
_cell_angle_alpha 90.000000
_cell_angle_beta 90.000000
_cell_angle_gamma 90.000000
_cell_volume 1975.601560
_symmetry_space_group_name_H-M "P M M M"
_symmetry_group_IT_number 47
_symmetry_cell_setting 'orthorhombic'
loop_
_space_group_symop_operation_xyz
x,y,z
-x,-y,z
x,-y,-z
-x,y,-z
-x,-y,-z
x,y,-z
-x,y,z
x,-y,z
loop_
_atom_site_type_symbol
_atom_site_label
_atom_site_fract_x
_atom_site_fract_y
_atom_site_fract_z
Si Si1 0.152840 0.810674 0.363629
Si Si2 0.000000 0.201249 0.062655
Si Si3 0.152811 0.500000 0.563230
Si Si4 0.857704 0.800560 0.240221
Si Si5 0.248388 0.199466 0.126288
Si Si6 0.500000 0.694613 0.938015
O O1 0.205161 0.670348 0.406917
O O2 0.199416 0.754985 0.301416
O O3 0.000000 0.814717 0.363629
O O4 0.203376 0.000000 0.379374
O O5 0.873417 0.272206 0.092812
O O6 0.000000 0.000000 0.063780
O O7 0.000000 0.272143 0.000000
O O8 0.204906 0.500000 0.500000
O O9 0.000000 0.500000 0.564662
O O10 0.763629 0.735349 0.190783
O O11 0.000000 0.721168 0.232369
O O12 0.871857 0.000000 0.235902
O O13 0.377380 0.260386 0.098258
O O14 0.247376 0.000000 0.124374
O O15 0.500000 0.500000 0.949670
O O16 0.500000 0.784072 0.000000
#
# Coordination Sequence:
#
# PCOD8194573 Si02
#       6
#     8   4   4   8   8   4
#     4   8  14  24  38  57  85 121 156 197 247 289
#     4   9  16  26  47  79 101 111 143 204 256 291
#     4   9  16  24  34  54  86 125 168 203 229 275
#     4   8  13  25  46  71  95 114 143 197 256 298
#     4  10  18  32  55  77  93 118 159 205 250 300
#     4  11  25  41  49  61  97 139 167 196 243 304
#
# _framework density 18.222297999999999
#
# number of rings (size 3 to 8) (size 9 to 14) (size 15 to 20)
#    0.000    3.000    1.111    2.333    0.000    2.222 
#    2.000    2.778    0.000    2.000    0.000    0.000 
#    0.000    0.000    0.000    2.000    0.000   17.778 
#
# Total GULP energy -446037.908364 kJ/mol
# GULP energy per Si atom -12389.941899 kJ/mol
# Density = 1.818082 g / cm^3
# Si number density = 18.222298 Si / 1000 Ang^3
#
#
#
# Elastic Constant Matrix: (Units=GPa)
#
#
# Indices 1 2 3 4 5 6 
#
# 1 85.6553 18.5153 54.3934 0.0000 0.0000 0.0000
# 2 18.5153 64.1453 63.8473 0.0000 0.0000 0.0000
# 3 54.3934 63.8473 190.2171 0.0000 0.0000 0.0000
# 4 0.0000 0.0000 0.0000 19.6916 0.0000 0.0000
# 5 0.0000 0.0000 0.0000 0.0000 15.5156 0.0000
# 6 0.0000 0.0000 0.0000 0.0000 0.0000 -52.6304
#
#
#
# Elastic Compliance Matrix: (Units=1/GPa)
#
#
# Indices 1 2 3 4 5 6 
#
# 1 0.014265 -0.000086 -0.004050 0.000000 0.000000 0.000000
# 2 -0.000086 0.023412 -0.007834 0.000000 0.000000 0.000000
# 3 -0.004050 -0.007834 0.009045 0.000000 0.000000 0.000000
# 4 0.000000 0.000000 0.000000 0.050783 0.000000 0.000000
# 5 0.000000 0.000000 0.000000 0.000000 0.064451 0.000000
# 6 0.000000 0.000000 0.000000 0.000000 0.000000 -0.019000
#
#
# Mechanical properties :
#
#
# Convention : Reuss Voigt Hill
#
# Bulk Modulus (GPa) = 43.89496 68.16999 56.03248
# Shear Modulus (GPa) = 28.65497 10.06613 19.36055
#
# Velocity S-wave (km/s) = 3.96981 2.35288 3.26308
# Velocity P-wave (km/s) = 6.71963 6.69872 6.70918
#
# Compressibility (1/GPa) = 0.02278166
#
# Stress axis : x y z
#
# Youngs Moduli (GPa) = 70.09968 42.71367 110.56118
#
# Poissons Ratio (x) = 0.00368 0.44781
# Poissons Ratio (y) = 0.00604 0.86610
# Poissons Ratio (z) = 0.28393 0.33460
#
# Static dielectric constant tensor:
#      x y z
#    x 3.008000 0.000000 0.000000 
#    y 0.000000 3.245030 0.000000 
#    z 0.000000 0.000000 3.954510 
# 
# 
# High freq. dielectric constant tensor:
#      x y z
#    x 1.640590 0.000000 0.000000 
#    y 0.000000 1.688550 0.000000 
#    z 0.000000 0.000000 1.719520 
# 
# From -- ./inp_files/32281.got.cif
#   From: 2010.03.12/outbox.cif.g09.slc.cpg/sg47_17_cif.got.tgz:32281.got - 2010.04.14 03:12:58.
