data_PCOD8194666
_publ_section_title
;
Structure prediction by ZEFSAII (Michael W. Deem and Ramdas Pophale) SiO2 
 PCOD8194666
Probable space group: P M M M
;
_chemical_formula_sum "Si O2"
_cell_formula_units_Z 36
_cell_length_a 14.138439
_cell_length_b 23.750194
_cell_length_c 7.755240
_cell_angle_alpha 90.000000
_cell_angle_beta 90.000000
_cell_angle_gamma 90.000000
_cell_volume 2604.137229
_symmetry_space_group_name_H-M "P M M M"
_symmetry_group_IT_number 47
_symmetry_cell_setting 'orthorhombic'
loop_
_space_group_symop_operation_xyz
x,y,z
-x,-y,z
x,-y,-z
-x,y,-z
-x,-y,-z
x,y,-z
-x,y,z
x,-y,z
loop_
_atom_site_type_symbol
_atom_site_label
_atom_site_fract_x
_atom_site_fract_y
_atom_site_fract_z
Si Si1 0.887549 0.860772 0.808341
Si Si2 0.112201 0.265076 0.808553
Si Si3 0.112364 0.343077 0.500000
Si Si4 0.736564 0.566880 0.500000
Si Si5 0.113027 0.063438 0.500000
Si Si6 0.394539 0.566783 0.808358
O O1 0.850031 0.797810 0.766219
O O2 0.846948 0.904703 0.669040
O O3 0.000000 0.860572 0.799555
O O4 0.854173 0.879149 0.000000
O O5 0.149016 0.309070 0.667332
O O6 0.000000 0.263564 0.801905
O O7 0.146289 0.283643 0.000000
O O8 0.160942 0.404117 0.500000
O O9 0.000000 0.352459 0.500000
O O10 0.752561 0.500000 0.500000
O O11 0.679452 0.588725 0.332694
O O12 0.000000 0.063344 0.500000
O O13 0.152681 0.000000 0.500000
O O14 0.500000 0.590051 0.767530
O O15 0.397911 0.500000 0.799450
O O16 0.362651 0.586421 0.000000
#
# Coordination Sequence:
#
# PCOD8194666 Si02
#       6
#     8   8   4   4   4   8
#     4   8  13  21  32  43  54  71  99 136 173 204
#     4   8  14  25  39  50  58  75 111 155 187 205
#     4  10  19  28  38  51  69  95 123 150 179 212
#     4  10  19  28  39  56  77  98 117 139 172 218
#     4   9  15  19  24  38  60  81  96 115 155 215
#     4   8  14  26  44  62  76  90 110 137 169 206
#
# _framework density 13.824156
#
# number of rings (size 3 to 8) (size 9 to 14) (size 15 to 20)
#    0.000    3.444    0.000    3.000    0.000    5.556 
#    0.000    2.222    0.000    0.000    0.000    6.222 
#    0.000    0.000    0.000    0.000    0.000    0.000 
#
# Total GULP energy -446058.198475 kJ/mol
# GULP energy per Si atom -12390.505513 kJ/mol
# Density = 1.379269 g / cm^3
# Si number density = 13.824156 Si / 1000 Ang^3
#
#
#
# Elastic Constant Matrix: (Units=GPa)
#
#
# Indices 1 2 3 4 5 6 
#
# 1 29.1529 24.4686 30.4013 0.0000 0.0000 0.0000
# 2 24.4686 68.3107 54.7994 0.0000 0.0000 0.0000
# 3 30.4013 54.7994 122.8706 0.0000 0.0000 0.0000
# 4 0.0000 0.0000 0.0000 12.7925 0.0000 0.0000
# 5 0.0000 0.0000 0.0000 0.0000 6.2545 0.0000
# 6 0.0000 0.0000 0.0000 0.0000 0.0000 1.3733
#
#
#
# Elastic Compliance Matrix: (Units=1/GPa)
#
#
# Indices 1 2 3 4 5 6 
#
# 1 0.052860 -0.013145 -0.007216 0.000000 0.000000 0.000000
# 2 -0.013145 0.026063 -0.008372 0.000000 0.000000 0.000000
# 3 -0.007216 -0.008372 0.013658 0.000000 0.000000 0.000000
# 4 0.000000 0.000000 0.000000 0.078171 0.000000 0.000000
# 5 0.000000 0.000000 0.000000 0.000000 0.159884 0.000000
# 6 0.000000 0.000000 0.000000 0.000000 0.000000 0.728198
#
#
# Mechanical properties :
#
#
# Convention : Reuss Voigt Hill
#
# Bulk Modulus (GPa) = 28.47784 48.85254 38.66519
# Shear Modulus (GPa) = 4.43260 11.46172 7.94716
#
# Velocity S-wave (km/s) = 1.79259 2.88255 2.40026
# Velocity P-wave (km/s) = 4.99292 6.81865 5.97592
#
# Compressibility (1/GPa) = 0.03511503
#
# Stress axis : x y z
#
# Youngs Moduli (GPa) = 18.91782 38.36802 73.21833
#
# Poissons Ratio (x) = 0.50436 0.52836
# Poissons Ratio (y) = 0.24868 0.61295
# Poissons Ratio (z) = 0.13652 0.32120
#
# Static dielectric constant tensor:
#      x y z
#    x 2.193380 0.000000 0.000000 
#    y 0.000000 2.633500 0.000000 
#    z 0.000000 0.000000 3.202320 
# 
# 
# High freq. dielectric constant tensor:
#      x y z
#    x 1.450810 0.000000 0.000000 
#    y 0.000000 1.505310 0.000000 
#    z 0.000000 0.000000 1.551320 
# 
# From -- ./inp_files/3979.got.cif
#   From: 2010.03.12/outbox.cif.g09.slc.cpg/sg47_2_cif.got.tgz:3979.got - 2010.04.14 03:12:58.
