data_PCOD8194469
_publ_section_title
;
Structure prediction by ZEFSAII (Michael W. Deem and Ramdas Pophale) SiO2 
 PCOD8194469
Probable space group: P M M M
;
_chemical_formula_sum "Si O2"
_cell_formula_units_Z 40
_cell_length_a 8.821628
_cell_length_b 18.960157
_cell_length_c 12.611512
_cell_angle_alpha 90.000000
_cell_angle_beta 90.000000
_cell_angle_gamma 90.000000
_cell_volume 2109.394584
_symmetry_space_group_name_H-M "P M M M"
_symmetry_group_IT_number 47
_symmetry_cell_setting 'orthorhombic'
loop_
_space_group_symop_operation_xyz
x,y,z
-x,-y,z
x,-y,-z
-x,y,-z
-x,-y,-z
x,y,-z
-x,y,z
x,-y,z
loop_
_atom_site_type_symbol
_atom_site_label
_atom_site_fract_x
_atom_site_fract_y
_atom_site_fract_z
Si Si1 0.171716 0.083860 0.000000
Si Si2 0.319864 0.421663 0.117761
Si Si3 0.319854 0.326918 0.693524
Si Si4 0.320332 0.578529 0.500000
Si Si5 0.820511 0.183741 0.378320
Si Si6 0.325239 0.083260 0.784399
O O1 0.254804 0.112307 0.894486
O O2 0.000000 0.112014 0.000000
O O3 0.177269 0.000000 0.000000
O O4 0.500000 0.423272 0.121866
O O5 0.260450 0.500000 0.149459
O O6 0.260453 0.362024 0.197694
O O7 0.262588 0.401979 0.000000
O O8 0.500000 0.316106 0.690679
O O9 0.263241 0.379277 0.602006
O O10 0.241086 0.252137 0.681383
O O11 0.249428 0.500000 0.500000
O O12 0.500000 0.572785 0.500000
O O13 0.762574 0.181822 0.500000
O O14 0.758323 0.115761 0.317035
O O15 0.000000 0.183257 0.373989
O O16 0.500000 0.105629 0.782955
O O17 0.303649 0.000000 0.775541
#
# Coordination Sequence:
#
# PCOD8194469 Si02
#       6
#     4   8   8   4   8   8
#     4   9  17  33  59  89 121 151 178 215 266 323
#     4   8  14  26  47  77 109 137 170 218 274 329
#     4  10  18  31  52  76 105 141 179 225 277 330
#     4   9  16  26  47  79 104 129 176 231 279 328
#     4  11  24  40  56  75 108 152 192 233 285 344
#     4  10  21  38  62  90 116 144 184 232 278 328
#
# _framework density 18.962788
#
# number of rings (size 3 to 8) (size 9 to 14) (size 15 to 20)
#    0.000    2.400    1.000    2.700    0.000    6.400 
#    1.800    2.000    0.000    3.000    0.000    1.400 
#    0.000    0.000    0.000    0.000    0.000    0.000 
#
# Total GULP energy -495965.687981 kJ/mol
# GULP energy per Si atom -12399.142200 kJ/mol
# Density = 1.891963 g / cm^3
# Si number density = 18.962788 Si / 1000 Ang^3
#
#
#
# Elastic Constant Matrix: (Units=GPa)
#
#
# Indices 1 2 3 4 5 6 
#
# 1 62.7478 28.6463 43.5629 0.0000 0.0000 0.0000
# 2 28.6463 68.0798 56.3746 0.0000 0.0000 0.0000
# 3 43.5629 56.3746 155.7199 0.0000 0.0000 0.0000
# 4 0.0000 0.0000 0.0000 42.0837 0.0000 0.0000
# 5 0.0000 0.0000 0.0000 0.0000 23.1105 0.0000
# 6 0.0000 0.0000 0.0000 0.0000 0.0000 11.0518
#
#
#
# Elastic Compliance Matrix: (Units=1/GPa)
#
#
# Indices 1 2 3 4 5 6 
#
# 1 0.021239 -0.005736 -0.003865 0.000000 0.000000 0.000000
# 2 -0.005736 0.022527 -0.006550 0.000000 0.000000 0.000000
# 3 -0.003865 -0.006550 0.009874 0.000000 0.000000 0.000000
# 4 0.000000 0.000000 0.000000 0.023762 0.000000 0.000000
# 5 0.000000 0.000000 0.000000 0.000000 0.043270 0.000000
# 6 0.000000 0.000000 0.000000 0.000000 0.000000 0.090483
#
#
# Mechanical properties :
#
#
# Convention : Reuss Voigt Hill
#
# Bulk Modulus (GPa) = 46.86820 60.41277 53.64048
# Shear Modulus (GPa) = 19.95442 25.78013 22.86728
#
# Velocity S-wave (km/s) = 3.24743 3.69116 3.47638
# Velocity P-wave (km/s) = 6.23142 7.07771 6.66800
#
# Compressibility (1/GPa) = 0.02133643
#
# Stress axis : x y z
#
# Youngs Moduli (GPa) = 47.08349 44.39206 101.27181
#
# Poissons Ratio (x) = 0.25465 0.39140
# Poissons Ratio (y) = 0.27009 0.66337
# Poissons Ratio (z) = 0.18197 0.29079
#
# Static dielectric constant tensor:
#      x y z
#    x 3.183140 0.000000 0.000000 
#    y 0.000000 3.412540 0.000000 
#    z 0.000000 0.000000 3.832780 
# 
# 
# High freq. dielectric constant tensor:
#      x y z
#    x 1.705790 0.000000 0.000000 
#    y 0.000000 1.729040 0.000000 
#    z 0.000000 0.000000 1.751410 
# 
# From -- ./inp_files/15126.got.cif
#   From: 2010.03.12/outbox.cif.g09.slc.cpg/sg47_8_cif.got.tgz:15126.got - 2010.04.14 03:12:58.
