data_PCOD8194058
_publ_section_title
;
Structure prediction by ZEFSAII (Michael W. Deem and Ramdas Pophale) SiO2 
 PCOD8194058
Probable space group: P M M M
;
_chemical_formula_sum "Si O2"
_cell_formula_units_Z 52
_cell_length_a 13.879170
_cell_length_b 8.054874
_cell_length_c 27.698005
_cell_angle_alpha 90.000000
_cell_angle_beta 90.000000
_cell_angle_gamma 90.000000
_cell_volume 3096.497515
_symmetry_space_group_name_H-M "P M M M"
_symmetry_group_IT_number 47
_symmetry_cell_setting 'orthorhombic'
loop_
_space_group_symop_operation_xyz
x,y,z
-x,-y,z
x,-y,-z
-x,y,-z
-x,-y,-z
x,y,-z
-x,y,z
x,-y,z
loop_
_atom_site_type_symbol
_atom_site_label
_atom_site_fract_x
_atom_site_fract_y
_atom_site_fract_z
Si Si1 0.711898 0.806267 0.789409
Si Si2 0.108846 0.805024 0.445623
Si Si3 0.611886 0.311942 0.117305
Si Si4 0.108507 0.302730 0.737548
Si Si5 0.613944 0.000000 0.946229
Si Si6 0.219630 0.690422 0.355509
Si Si7 0.394595 0.192937 0.694587
O O1 0.676250 0.702616 0.835027
O O2 0.825283 0.774394 0.779823
O O3 0.653648 0.734986 0.743249
O O4 0.692389 0.000000 0.798745
O O5 0.140502 0.758459 0.500000
O O6 0.180065 0.715500 0.409058
O O7 0.000000 0.742701 0.436392
O O8 0.114986 0.000000 0.437367
O O9 0.500000 0.280814 0.130513
O O10 0.625575 0.500000 0.096291
O O11 0.647999 0.170240 0.079983
O O12 0.110998 0.500000 0.740777
O O13 0.145993 0.239199 0.685021
O O14 0.000000 0.235730 0.744493
O O15 0.500000 0.000000 0.949524
O O16 0.658975 0.000000 0.000000
O O17 0.236610 0.500000 0.345214
O O18 0.324480 0.775115 0.350843
O O19 0.500000 0.275048 0.686014
O O20 0.408006 0.000000 0.701833
#
# Coordination Sequence:
#
# PCOD8194058 Si02
#       7
#     8   8   8   8   4   8   8
#     4  10  18  29  46  68  95 124 159 200 236 277
#     4   9  18  32  49  68  89 114 146 184 225 273
#     4  10  19  30  47  70  97 131 166 201 244 289
#     4   9  18  31  44  62  93 128 158 189 227 277
#     4   9  18  32  48  68  97 131 167 207 245 284
#     4  10  19  30  46  68  93 120 149 185 231 278
#     4   9  18  31  47  66  90 123 159 193 227 268
#
# _framework density 16.793168000000001
#
# number of rings (size 3 to 8) (size 9 to 14) (size 15 to 20)
#    0.000    2.538    0.769    2.308    0.000    4.000 
#    0.000    2.308    0.000    0.462    0.000    3.231 
#    0.000    1.231    0.000    3.231    0.000    0.154 
#
# Total GULP energy -644632.192079 kJ/mol
# GULP energy per Si atom -12396.772925 kJ/mol
# Density = 1.675495 g / cm^3
# Si number density = 16.793168 Si / 1000 Ang^3
#
#
#
# Elastic Constant Matrix: (Units=GPa)
#
#
# Indices 1 2 3 4 5 6 
#
# 1 112.3260 25.2051 45.9742 0.0000 0.0000 0.0000
# 2 25.2051 61.7536 30.4935 0.0000 0.0000 0.0000
# 3 45.9742 30.4935 96.6889 0.0000 0.0000 0.0000
# 4 0.0000 0.0000 0.0000 20.4583 0.0000 0.0000
# 5 0.0000 0.0000 0.0000 0.0000 19.6752 0.0000
# 6 0.0000 0.0000 0.0000 0.0000 0.0000 19.0645
#
#
#
# Elastic Compliance Matrix: (Units=1/GPa)
#
#
# Indices 1 2 3 4 5 6 
#
# 1 0.011329 -0.002326 -0.004653 0.000000 0.000000 0.000000
# 2 -0.002326 0.019658 -0.005094 0.000000 0.000000 0.000000
# 3 -0.004653 -0.005094 0.014161 0.000000 0.000000 0.000000
# 4 0.000000 0.000000 0.000000 0.048880 0.000000 0.000000
# 5 0.000000 0.000000 0.000000 0.000000 0.050825 0.000000
# 6 0.000000 0.000000 0.000000 0.000000 0.000000 0.052454
#
#
# Mechanical properties :
#
#
# Convention : Reuss Voigt Hill
#
# Bulk Modulus (GPa) = 47.61358 52.67934 50.14646
# Shear Modulus (GPa) = 21.88618 23.11263 22.49940
#
# Velocity S-wave (km/s) = 3.61401 3.71389 3.66429
# Velocity P-wave (km/s) = 6.76973 7.05891 6.91583
#
# Compressibility (1/GPa) = 0.02100241
#
# Stress axis : x y z
#
# Youngs Moduli (GPa) = 88.26748 50.86963 70.61458
#
# Poissons Ratio (x) = 0.11834 0.32858
# Poissons Ratio (y) = 0.20534 0.35968
# Poissons Ratio (z) = 0.41073 0.25911
#
# Static dielectric constant tensor:
#      x y z
#    x 3.181990 0.000000 0.000000 
#    y 0.000000 3.121710 0.000000 
#    z 0.000000 0.000000 3.058240 
# 
# 
# High freq. dielectric constant tensor:
#      x y z
#    x 1.628290 0.000000 0.000000 
#    y 0.000000 1.651650 0.000000 
#    z 0.000000 0.000000 1.622100 
# 
# From -- ./inp_files/7647.got.cif
#   From: 2010.03.12/outbox.cif.g09.slc.cpg/sg47_4_cif.got.tgz:7647.got - 2010.04.14 03:12:58.
