data_PCOD8194219
_publ_section_title
;
Structure prediction by ZEFSAII (Michael W. Deem and Ramdas Pophale) SiO2 
 PCOD8194219
Probable space group: P M M M
;
_chemical_formula_sum "Si O2"
_cell_formula_units_Z 52
_cell_length_a 9.027742
_cell_length_b 28.107931
_cell_length_c 11.876566
_cell_angle_alpha 90.000000
_cell_angle_beta 90.000000
_cell_angle_gamma 90.000000
_cell_volume 3013.692271
_symmetry_space_group_name_H-M "P M M M"
_symmetry_group_IT_number 47
_symmetry_cell_setting 'orthorhombic'
loop_
_space_group_symop_operation_xyz
x,y,z
-x,-y,z
x,-y,-z
-x,y,-z
-x,-y,-z
x,y,-z
-x,y,z
x,-y,z
loop_
_atom_site_type_symbol
_atom_site_label
_atom_site_fract_x
_atom_site_fract_y
_atom_site_fract_z
Si Si1 0.673614 0.262884 0.000000
Si Si2 0.833473 0.167363 0.000000
Si Si3 0.823944 0.052013 0.372839
Si Si4 0.666178 0.500000 0.133142
Si Si5 0.325430 0.315408 0.218852
Si Si6 0.674349 0.229418 0.371483
Si Si7 0.171427 0.143043 0.753543
Si Si8 0.174927 0.404371 0.130655
O O1 0.714740 0.208402 0.000000
O O2 0.737360 0.287509 0.110753
O O3 0.500000 0.266945 0.000000
O O4 0.807540 0.136608 0.112398
O O5 0.000000 0.188725 0.000000
O O6 0.769554 0.060333 0.500000
O O7 0.758045 0.094982 0.298614
O O8 0.000000 0.052637 0.366826
O O9 0.767303 0.000000 0.330254
O O10 0.500000 0.500000 0.184239
O O11 0.754415 0.546453 0.173520
O O12 0.658087 0.500000 0.000000
O O13 0.500000 0.326098 0.211942
O O14 0.286758 0.282539 0.326706
O O15 0.237764 0.365015 0.217375
O O16 0.730693 0.225420 0.500000
O O17 0.500000 0.220997 0.362740
O O18 0.749062 0.189688 0.294002
O O19 0.000000 0.148156 0.720173
O O20 0.000000 0.407909 0.143300
O O21 0.219466 0.393500 0.000000
#
# Coordination Sequence:
#
# PCOD8194219 Si02
#       8
#     4   4   8   4   8   8   8   8
#     4  10  18  30  48  66  88 125 168 196 226 282
#     4  10  20  30  43  68  99 125 154 194 237 282
#     4   8  14  26  45  67  89 117 157 201 241 283
#     4   9  17  29  45  65  94 131 166 197 233 281
#     4  10  19  31  47  67  92 123 160 195 231 282
#     4  10  21  35  50  70  96 125 159 200 242 284
#     4  10  19  31  48  70  96 125 157 194 238 288
#     4  10  19  29  44  68  98 128 159 197 239 279
#
# _framework density 17.254583
#
# number of rings (size 3 to 8) (size 9 to 14) (size 15 to 20)
#    0.000    2.385    2.308    1.615    0.000    3.692 
#    0.000    0.385    0.000    2.769    0.000    2.692 
#    0.000    6.154    0.000    0.000    0.000    0.000 
#
# Total GULP energy -644552.834503 kJ/mol
# GULP energy per Si atom -12395.246817 kJ/mol
# Density = 1.721531 g / cm^3
# Si number density = 17.254583 Si / 1000 Ang^3
#
#
#
# Elastic Constant Matrix: (Units=GPa)
#
#
# Indices 1 2 3 4 5 6 
#
# 1 43.0765 41.1209 25.7730 0.0000 0.0000 0.0000
# 2 41.1209 146.9420 53.4707 0.0000 0.0000 0.0000
# 3 25.7730 53.4707 93.2004 0.0000 0.0000 0.0000
# 4 0.0000 0.0000 0.0000 20.7742 0.0000 0.0000
# 5 0.0000 0.0000 0.0000 0.0000 12.4095 0.0000
# 6 0.0000 0.0000 0.0000 0.0000 0.0000 -5.7301
#
#
#
# Elastic Compliance Matrix: (Units=1/GPa)
#
#
# Indices 1 2 3 4 5 6 
#
# 1 0.033350 -0.007554 -0.004889 0.000000 0.000000 0.000000
# 2 -0.007554 0.010312 -0.003827 0.000000 0.000000 0.000000
# 3 -0.004889 -0.003827 0.014277 0.000000 0.000000 0.000000
# 4 0.000000 0.000000 0.000000 0.048137 0.000000 0.000000
# 5 0.000000 0.000000 0.000000 0.000000 0.080583 0.000000
# 6 0.000000 0.000000 0.000000 0.000000 0.000000 -0.174516
#
#
# Mechanical properties :
#
#
# Convention : Reuss Voigt Hill
#
# Bulk Modulus (GPa) = 39.37023 58.21644 48.79333
# Shear Modulus (GPa) = 94.07222 16.34766 55.20994
#
# Velocity S-wave (km/s) = 7.39179 3.08139 5.66275
# Velocity P-wave (km/s) = 9.78356 6.81710 8.43181
#
# Compressibility (1/GPa) = 0.02539990
#
# Stress axis : x y z
#
# Youngs Moduli (GPa) = 29.98458 96.97377 70.04171
#
# Poissons Ratio (x) = 0.73254 0.34241
# Poissons Ratio (y) = 0.22650 0.26807
# Poissons Ratio (z) = 0.14658 0.37115
#
# Static dielectric constant tensor:
#      x y z
#    x 3.024540 0.000000 0.000000 
#    y 0.000000 3.406760 0.000000 
#    z 0.000000 0.000000 3.242220 
# 
# 
# High freq. dielectric constant tensor:
#      x y z
#    x 1.648030 0.000000 0.000000 
#    y 0.000000 1.671050 0.000000 
#    z 0.000000 0.000000 1.640340 
# 
# From -- ./inp_files/15582.got.cif
#   From: 2010.03.12/outbox.cif.g09.slc.cpg/sg47_8_cif.got.tgz:15582.got - 2010.04.14 03:12:58.
