data_PCOD8194369
_publ_section_title
;
Structure prediction by ZEFSAII (Michael W. Deem and Ramdas Pophale) SiO2 
 PCOD8194369
Probable space group: P M M M
;
_chemical_formula_sum "Si O2"
_cell_formula_units_Z 64
_cell_length_a 24.851204
_cell_length_b 8.941358
_cell_length_c 15.268828
_cell_angle_alpha 90.000000
_cell_angle_beta 90.000000
_cell_angle_gamma 90.000000
_cell_volume 3392.787201
_symmetry_space_group_name_H-M "P M M M"
_symmetry_group_IT_number 47
_symmetry_cell_setting 'orthorhombic'
loop_
_space_group_symop_operation_xyz
x,y,z
-x,-y,z
x,-y,-z
-x,y,-z
-x,-y,-z
x,y,-z
-x,y,z
x,-y,z
loop_
_atom_site_type_symbol
_atom_site_label
_atom_site_fract_x
_atom_site_fract_y
_atom_site_fract_z
Si Si1 0.148997 0.822597 0.784407
Si Si2 0.062364 0.327797 0.900013
Si Si3 0.288988 0.827843 0.643839
Si Si4 0.393293 0.671764 0.596295
Si Si5 0.364995 0.327899 0.901387
Si Si6 0.169923 0.828188 0.406699
Si Si7 0.256744 0.672346 0.183224
Si Si8 0.439221 0.826933 0.761113
O O1 0.095437 0.775934 0.834553
O O2 0.146918 0.757085 0.683924
O O3 0.201309 0.760799 0.835337
O O4 0.154261 0.000000 0.781713
O O5 0.077682 0.500000 0.883975
O O6 0.000000 0.300031 0.879768
O O7 0.075466 0.283088 0.000000
O O8 0.337549 0.761793 0.588158
O O9 0.234137 0.811827 0.590133
O O10 0.286488 0.731759 0.731427
O O11 0.300090 0.000000 0.668269
O O12 0.420871 0.683743 0.500000
O O13 0.381435 0.500000 0.620682
O O14 0.431659 0.740543 0.669892
O O15 0.378829 0.500000 0.880311
O O16 0.300416 0.303058 0.893502
O O17 0.398538 0.226219 0.835646
O O18 0.381566 0.285005 0.000000
O O19 0.148788 0.756456 0.500000
O O20 0.152527 0.000000 0.406600
O O21 0.240904 0.500000 0.194450
O O22 0.500000 0.799031 0.793828
O O23 0.427844 0.000000 0.742948
#
# Coordination Sequence:
#
# PCOD8194369 Si02
#       8
#     8   8   8   8   8   8   8   8
#     4  10  20  32  52  84 116 148 187 232 279 325
#     4   9  19  37  59  80 105 143 189 234 285 344
#     4  10  18  30  52  80 110 144 183 227 274 322
#     4  11  23  37  56  83 112 144 182 224 274 333
#     4  10  22  40  62  86 111 144 184 224 273 335
#     4   8  15  28  46  72 109 149 184 218 260 312
#     4  10  19  33  54  80 115 153 185 220 268 328
#     4  11  25  43  62  83 108 140 180 231 286 337
#
# _framework density 18.863547000000001
#
# number of rings (size 3 to 8) (size 9 to 14) (size 15 to 20)
#    0.000    2.125    1.250    3.375    0.000    4.750 
#    0.000    4.375    0.000    7.875    0.000    2.625 
#    0.000    0.000    0.000    0.000    0.000    0.000 
#
# Total GULP energy -793274.032888 kJ/mol
# GULP energy per Si atom -12394.906764 kJ/mol
# Density = 1.882061 g / cm^3
# Si number density = 18.863547 Si / 1000 Ang^3
#
#
#
# Elastic Constant Matrix: (Units=GPa)
#
#
# Indices 1 2 3 4 5 6 
#
# 1 81.9824 43.5010 51.4562 0.0000 0.0000 0.0000
# 2 43.5010 78.7702 38.1067 0.0000 0.0000 0.0000
# 3 51.4562 38.1067 103.6840 0.0000 0.0000 0.0000
# 4 0.0000 0.0000 0.0000 20.7025 0.0000 0.0000
# 5 0.0000 0.0000 0.0000 0.0000 13.5732 0.0000
# 6 0.0000 0.0000 0.0000 0.0000 0.0000 31.1641
#
#
#
# Elastic Compliance Matrix: (Units=1/GPa)
#
#
# Indices 1 2 3 4 5 6 
#
# 1 0.021227 -0.008059 -0.007572 0.000000 0.000000 0.000000
# 2 -0.008059 0.018500 -0.002800 0.000000 0.000000 0.000000
# 3 -0.007572 -0.002800 0.014432 0.000000 0.000000 0.000000
# 4 0.000000 0.000000 0.000000 0.048303 0.000000 0.000000
# 5 0.000000 0.000000 0.000000 0.000000 0.073674 0.000000
# 6 0.000000 0.000000 0.000000 0.000000 0.000000 0.032088
#
#
# Mechanical properties :
#
#
# Convention : Reuss Voigt Hill
#
# Bulk Modulus (GPa) = 57.81673 58.95160 58.38417
# Shear Modulus (GPa) = 19.93195 21.84614 20.88904
#
# Velocity S-wave (km/s) = 3.25412 3.40680 3.33134
# Velocity P-wave (km/s) = 6.69594 6.84065 6.76868
#
# Compressibility (1/GPa) = 0.01729603
#
# Stress axis : x y z
#
# Youngs Moduli (GPa) = 47.10985 54.05306 69.29173
#
# Poissons Ratio (x) = 0.43563 0.52471
# Poissons Ratio (y) = 0.37967 0.19400
# Poissons Ratio (z) = 0.35674 0.15133
#
# Static dielectric constant tensor:
#      x y z
#    x 3.281150 0.000000 0.000000 
#    y 0.000000 3.407790 0.000000 
#    z 0.000000 0.000000 3.581890 
# 
# 
# High freq. dielectric constant tensor:
#      x y z
#    x 1.712370 0.000000 0.000000 
#    y 0.000000 1.727960 0.000000 
#    z 0.000000 0.000000 1.737800 
# 
# From -- ./inp_files/25600.got.cif
#   From: 2010.03.12/outbox.cif.g09.slc.cpg/sg47_13_cif.got.tgz:25600.got - 2010.04.14 03:12:58.
