data_PCOD8194236
_publ_section_title
;
Structure prediction by ZEFSAII (Michael W. Deem and Ramdas Pophale) SiO2 
 PCOD8194236
Probable space group: P M M M
;
_chemical_formula_sum "Si O2"
_cell_formula_units_Z 64
_cell_length_a 19.254706
_cell_length_b 19.528187
_cell_length_c 9.935641
_cell_angle_alpha 90.000000
_cell_angle_beta 90.000000
_cell_angle_gamma 90.000000
_cell_volume 3735.895399
_symmetry_space_group_name_H-M "P M M M"
_symmetry_group_IT_number 47
_symmetry_cell_setting 'orthorhombic'
loop_
_space_group_symop_operation_xyz
x,y,z
-x,-y,z
x,-y,-z
-x,y,-z
-x,-y,-z
x,y,-z
-x,y,z
x,-y,z
loop_
_atom_site_type_symbol
_atom_site_label
_atom_site_fract_x
_atom_site_fract_y
_atom_site_fract_z
Si Si1 0.811399 0.813406 0.159172
Si Si2 0.081842 0.423055 0.648940
Si Si3 0.174469 0.658077 0.159313
Si Si4 0.581751 0.077269 0.351746
Si Si5 0.345711 0.820989 0.840358
Si Si6 0.078222 0.077136 0.160095
Si Si7 0.689071 0.577129 0.159882
Si Si8 0.421812 0.316800 0.159808
O O1 0.828494 0.736712 0.205570
O O2 0.733569 0.828748 0.208190
O O3 0.866456 0.868191 0.221071
O O4 0.814460 0.817879 0.000000
O O5 0.105310 0.397777 0.500000
O O6 0.109088 0.500000 0.671988
O O7 0.110409 0.376192 0.766799
O O8 0.000000 0.420772 0.660014
O O9 0.245172 0.621544 0.208766
O O10 0.165120 0.650117 0.000000
O O11 0.603200 0.105718 0.500000
O O12 0.500000 0.080220 0.335954
O O13 0.613399 0.118912 0.230059
O O14 0.608737 0.000000 0.337408
O O15 0.378401 0.749129 0.791719
O O16 0.352872 0.829019 0.000000
O O17 0.000000 0.095945 0.209097
O O18 0.097580 0.000000 0.208567
O O19 0.080498 0.079749 0.000000
O O20 0.691156 0.500000 0.220190
O O21 0.618994 0.615325 0.209863
O O22 0.689777 0.573740 0.000000
O O23 0.500000 0.316418 0.220733
O O24 0.425880 0.316470 0.000000
#
# Coordination Sequence:
#
# PCOD8194236 Si02
#       8
#     8   8   8   8   8   8   8   8
#     4   9  17  28  44  67 100 130 153 192 246 288
#     4   9  19  35  51  68  95 130 164 200 245 294
#     4  10  18  30  48  72  99 126 158 198 242 292
#     4   9  19  35  51  68  95 130 164 200 245 294
#     4  10  18  30  48  72  99 126 158 198 242 292
#     4   8  14  25  40  59  87 125 164 194 226 278
#     4   9  16  26  41  62  90 124 158 193 237 284
#     4   9  16  26  41  62  90 124 158 193 237 284
#
# _framework density 17.1311
#
# number of rings (size 3 to 8) (size 9 to 14) (size 15 to 20)
#    0.000    2.875    1.250    1.875    0.000    3.250 
#    0.000    5.625    0.000    0.000    0.000    0.000 
#    0.000    0.000    0.000   10.750    0.000    9.500 
#
# Total GULP energy -793197.297305 kJ/mol
# GULP energy per Si atom -12393.707770 kJ/mol
# Density = 1.709211 g / cm^3
# Si number density = 17.131100 Si / 1000 Ang^3
#
#
#
# Elastic Constant Matrix: (Units=GPa)
#
#
# Indices 1 2 3 4 5 6 
#
# 1 89.5550 74.7395 18.3539 0.0000 0.0000 0.0000
# 2 74.7395 137.1404 28.8511 0.0000 0.0000 0.0000
# 3 18.3539 28.8511 29.0750 0.0000 0.0000 0.0000
# 4 0.0000 0.0000 0.0000 9.7750 0.0000 0.0000
# 5 0.0000 0.0000 0.0000 0.0000 11.1069 0.0000
# 6 0.0000 0.0000 0.0000 0.0000 0.0000 37.8068
#
#
#
# Elastic Compliance Matrix: (Units=1/GPa)
#
#
# Indices 1 2 3 4 5 6 
#
# 1 0.020609 -0.010736 -0.002356 0.000000 0.000000 0.000000
# 2 -0.010736 0.014808 -0.007917 0.000000 0.000000 0.000000
# 3 -0.002356 -0.007917 0.043738 0.000000 0.000000 0.000000
# 4 0.000000 0.000000 0.000000 0.102302 0.000000 0.000000
# 5 0.000000 0.000000 0.000000 0.000000 0.090034 0.000000
# 6 0.000000 0.000000 0.000000 0.000000 0.000000 0.026450
#
#
# Mechanical properties :
#
#
# Convention : Reuss Voigt Hill
#
# Bulk Modulus (GPa) = 26.92811 55.51773 41.22292
# Shear Modulus (GPa) = 14.19090 20.65947 17.42519
#
# Velocity S-wave (km/s) = 2.88127 3.47647 3.19277
# Velocity P-wave (km/s) = 5.17899 6.97082 6.14061
#
# Compressibility (1/GPa) = 0.03713592
#
# Stress axis : x y z
#
# Youngs Moduli (GPa) = 48.52228 67.52976 22.86366
#
# Poissons Ratio (x) = 0.72499 0.05388
# Poissons Ratio (y) = 0.52093 0.18101
# Poissons Ratio (z) = 0.11434 0.53464
#
# Static dielectric constant tensor:
#      x y z
#    x 3.367110 0.000000 0.000000 
#    y 0.000000 3.450430 0.000000 
#    z 0.000000 0.000000 2.713590 
# 
# 
# High freq. dielectric constant tensor:
#      x y z
#    x 1.666980 0.000000 0.000000 
#    y 0.000000 1.669500 0.000000 
#    z 0.000000 0.000000 1.601230 
# 
# From -- ./inp_files/9943.got.cif
#   From: 2010.03.12/outbox.cif.g09.slc.cpg/sg47_5_cif.got.tgz:9943.got - 2010.04.14 03:12:58.
