data_PCOD8194473
_publ_section_title
;
Structure prediction by ZEFSAII (Michael W. Deem and Ramdas Pophale) SiO2 
 PCOD8194473
Probable space group: P M M M
;
_chemical_formula_sum "Si O2"
_cell_formula_units_Z 40
_cell_length_a 19.430383
_cell_length_b 13.226818
_cell_length_c 7.975700
_cell_angle_alpha 90.000000
_cell_angle_beta 90.000000
_cell_angle_gamma 90.000000
_cell_volume 2049.771965
_symmetry_space_group_name_H-M "P M M M"
_symmetry_group_IT_number 47
_symmetry_cell_setting 'orthorhombic'
loop_
_space_group_symop_operation_xyz
x,y,z
-x,-y,z
x,-y,-z
-x,y,-z
-x,-y,-z
x,y,-z
-x,y,z
x,-y,z
loop_
_atom_site_type_symbol
_atom_site_label
_atom_site_fract_x
_atom_site_fract_y
_atom_site_fract_z
Si Si1 0.077377 0.000000 0.300013
Si Si2 0.420501 0.745515 0.308154
Si Si3 0.418853 0.389943 0.000000
Si Si4 0.158853 0.805696 0.697368
Si Si5 0.923359 0.612458 0.802426
Si Si6 0.700409 0.111024 0.303793
O O1 0.113893 0.101339 0.229086
O O2 0.079130 0.000000 0.500000
O O3 0.000000 0.000000 0.230745
O O4 0.408336 0.706416 0.500000
O O5 0.500000 0.776427 0.282091
O O6 0.396096 0.662752 0.173302
O O7 0.374316 0.842588 0.266992
O O8 0.383882 0.500000 0.000000
O O9 0.500000 0.399405 0.000000
O O10 0.156760 0.812377 0.500000
O O11 0.131305 0.696057 0.747695
O O12 0.237155 0.819255 0.766071
O O13 0.901550 0.500000 0.737009
O O14 0.000000 0.638940 0.732679
O O15 0.926182 0.610290 0.000000
O O16 0.711966 0.098983 0.500000
O O17 0.702968 0.000000 0.219437
#
# Coordination Sequence:
#
# PCOD8194473 Si02
#       6
#     4   8   4   8   8   8
#     4   9  16  26  45  75 104 130 163 206 259 316
#     4   9  18  33  55  82 109 143 187 227 267 323
#     4   9  18  34  55  79 109 141 176 227 282 323
#     4  10  18  31  52  77 103 133 170 214 263 315
#     4   9  19  36  54  71  98 137 174 212 263 317
#     4   9  17  32  53  76 106 141 171 209 267 323
#
# _framework density 19.514365000000002
#
# number of rings (size 3 to 8) (size 9 to 14) (size 15 to 20)
#    0.000    2.800    1.000    1.200    0.000    2.400 
#    1.800    7.000    0.000    7.200    0.000    0.000 
#    0.000    0.000    0.000    0.000    0.000    0.000 
#
# Total GULP energy -495642.387432 kJ/mol
# GULP energy per Si atom -12391.059686 kJ/mol
# Density = 1.946995 g / cm^3
# Si number density = 19.514365 Si / 1000 Ang^3
#
#
#
# Elastic Constant Matrix: (Units=GPa)
#
#
# Indices 1 2 3 4 5 6 
#
# 1 125.8737 85.6773 30.6625 0.0000 0.0000 0.0000
# 2 85.6773 173.8262 36.6582 0.0000 0.0000 0.0000
# 3 30.6625 36.6582 51.8031 0.0000 0.0000 0.0000
# 4 0.0000 0.0000 0.0000 45.6767 0.0000 0.0000
# 5 0.0000 0.0000 0.0000 0.0000 12.6179 0.0000
# 6 0.0000 0.0000 0.0000 0.0000 0.0000 28.6031
#
#
#
# Elastic Compliance Matrix: (Units=1/GPa)
#
#
# Indices 1 2 3 4 5 6 
#
# 1 0.012493 -0.005405 -0.003570 0.000000 0.000000 0.000000
# 2 -0.005405 0.009100 -0.003241 0.000000 0.000000 0.000000
# 3 -0.003570 -0.003241 0.023710 0.000000 0.000000 0.000000
# 4 0.000000 0.000000 0.000000 0.021893 0.000000 0.000000
# 5 0.000000 0.000000 0.000000 0.000000 0.079252 0.000000
# 6 0.000000 0.000000 0.000000 0.000000 0.000000 0.034961
#
#
# Mechanical properties :
#
#
# Convention : Reuss Voigt Hill
#
# Bulk Modulus (GPa) = 47.90969 73.05544 60.48257
# Shear Modulus (GPa) = 23.49643 30.61322 27.05482
#
# Velocity S-wave (km/s) = 3.47372 3.96505 3.72749
# Velocity P-wave (km/s) = 6.37913 7.64723 7.04178
#
# Compressibility (1/GPa) = 0.02087260
#
# Stress axis : x y z
#
# Youngs Moduli (GPa) = 80.04532 109.88706 42.17600
#
# Poissons Ratio (x) = 0.59391 0.15057
# Poissons Ratio (y) = 0.43263 0.13668
# Poissons Ratio (z) = 0.28576 0.35610
#
# Static dielectric constant tensor:
#      x y z
#    x 3.923060 0.000000 0.000000 
#    y 0.000000 5.175650 0.000000 
#    z 0.000000 0.000000 3.349220 
# 
# 
# High freq. dielectric constant tensor:
#      x y z
#    x 1.754530 0.000000 0.000000 
#    y 0.000000 1.757250 0.000000 
#    z 0.000000 0.000000 1.735460 
# 
# From -- ./inp_files/10689.got.cif
#   From: 2010.03.12/outbox.cif.g09.slc.cpg/sg47_6_cif.got.tgz:10689.got - 2010.04.14 03:12:58.
