data_PCOD8194796
_publ_section_title
;
Structure prediction by ZEFSAII (Michael W. Deem and Ramdas Pophale) SiO2 
 PCOD8194796
Probable space group: P M M M
;
_chemical_formula_sum "Si O2"
_cell_formula_units_Z 52
_cell_length_a 8.927258
_cell_length_b 13.739290
_cell_length_c 26.789173
_cell_angle_alpha 90.000000
_cell_angle_beta 90.000000
_cell_angle_gamma 90.000000
_cell_volume 3285.804223
_symmetry_space_group_name_H-M "P M M M"
_symmetry_group_IT_number 47
_symmetry_cell_setting 'orthorhombic'
loop_
_space_group_symop_operation_xyz
x,y,z
-x,-y,z
x,-y,-z
-x,y,-z
-x,-y,-z
x,y,-z
-x,y,z
x,-y,z
loop_
_atom_site_type_symbol
_atom_site_label
_atom_site_fract_x
_atom_site_fract_y
_atom_site_fract_z
Si Si1 0.672316 0.111449 0.614677
Si Si2 0.825205 0.271692 0.556310
Si Si3 0.176771 0.393268 0.649213
Si Si4 0.323276 0.887773 0.800403
Si Si5 0.822429 0.794386 0.706536
Si Si6 0.330890 0.116206 0.000000
Si Si7 0.831736 0.884451 0.098389
O O1 0.500000 0.137792 0.625467
O O2 0.733781 0.174073 0.568489
O O3 0.766270 0.130798 0.664747
O O4 0.691520 0.000000 0.599096
O O5 0.789827 0.305534 0.500000
O O6 0.773755 0.356763 0.594147
O O7 0.000000 0.247969 0.563822
O O8 0.249153 0.500000 0.659333
O O9 0.227981 0.315138 0.690877
O O10 0.000000 0.402640 0.650709
O O11 0.500000 0.875123 0.800412
O O12 0.252266 0.818907 0.758904
O O13 0.260739 0.850840 0.853304
O O14 0.277717 0.000000 0.790354
O O15 0.000000 0.803899 0.711251
O O16 0.247605 0.157582 0.951062
O O17 0.500000 0.155734 0.000000
O O18 0.329570 0.000000 0.000000
O O19 0.000000 0.842658 0.101576
O O20 0.834642 0.000000 0.095295
#
# Coordination Sequence:
#
# PCOD8194796 Si02
#       7
#     8   8   8   8   8   4   8
#     4  10  20  32  45  61  83 113 144 170 201 243
#     4   9  18  31  47  68  89 108 134 168 204 242
#     4   8  15  29  48  68  87 106 131 165 206 252
#     4  10  19  29  41  59  85 116 147 178 214 254
#     4  10  19  30  46  66  85 107 137 173 211 250
#     4   9  15  23  35  51  75 109 148 187 224 259
#     4   9  16  25  37  54  77 108 148 189 222 251
#
# _framework density 15.825654
#
# number of rings (size 3 to 8) (size 9 to 14) (size 15 to 20)
#    0.000    2.692    0.000    3.462    0.000    7.692 
#    0.000    3.077    0.000   11.538    0.000    4.308 
#    0.000    0.000    0.000    0.692    0.000   14.385 
#
# Total GULP energy -644684.053286 kJ/mol
# GULP energy per Si atom -12397.770256 kJ/mol
# Density = 1.578963 g / cm^3
# Si number density = 15.825654 Si / 1000 Ang^3
#
#
#
# Elastic Constant Matrix: (Units=GPa)
#
#
# Indices 1 2 3 4 5 6 
#
# 1 79.5057 32.4228 48.5044 0.0000 0.0000 0.0000
# 2 32.4228 80.7653 47.4093 0.0000 0.0000 0.0000
# 3 48.5044 47.4093 137.9414 0.0000 0.0000 0.0000
# 4 0.0000 0.0000 0.0000 12.1531 0.0000 0.0000
# 5 0.0000 0.0000 0.0000 0.0000 25.0443 0.0000
# 6 0.0000 0.0000 0.0000 0.0000 0.0000 8.1110
#
#
#
# Elastic Compliance Matrix: (Units=1/GPa)
#
#
# Indices 1 2 3 4 5 6 
#
# 1 0.017064 -0.004169 -0.004567 0.000000 0.000000 0.000000
# 2 -0.004169 0.016530 -0.004215 0.000000 0.000000 0.000000
# 3 -0.004567 -0.004215 0.010304 0.000000 0.000000 0.000000
# 4 0.000000 0.000000 0.000000 0.082284 0.000000 0.000000
# 5 0.000000 0.000000 0.000000 0.000000 0.039929 0.000000
# 6 0.000000 0.000000 0.000000 0.000000 0.000000 0.123289
#
#
# Mechanical properties :
#
#
# Convention : Reuss Voigt Hill
#
# Bulk Modulus (GPa) = 55.57216 61.65393 58.61305
# Shear Modulus (GPa) = 15.56171 20.38675 17.97423
#
# Velocity S-wave (km/s) = 3.13920 3.59306 3.37377
# Velocity P-wave (km/s) = 6.95204 7.50041 7.23143
#
# Compressibility (1/GPa) = 0.01799462
#
# Stress axis : x y z
#
# Youngs Moduli (GPa) = 58.60139 60.49784 97.04824
#
# Poissons Ratio (x) = 0.25224 0.44326
# Poissons Ratio (y) = 0.24433 0.40906
# Poissons Ratio (z) = 0.26766 0.25500
#
# Static dielectric constant tensor:
#      x y z
#    x 3.058270 0.000000 0.000000 
#    y 0.000000 2.908740 0.000000 
#    z 0.000000 0.000000 3.086820 
# 
# 
# High freq. dielectric constant tensor:
#      x y z
#    x 1.611210 0.000000 0.000000 
#    y 0.000000 1.560490 0.000000 
#    z 0.000000 0.000000 1.609710 
# 
# From -- ./inp_files/33383.got.cif
#   From: 2010.03.12/outbox.cif.g09.slc.cpg/sg47_17_cif.got.tgz:33383.got - 2010.04.14 03:12:58.
