data_PCOD8194401
_publ_section_title
;
Structure prediction by ZEFSAII (Michael W. Deem and Ramdas Pophale) SiO2 
 PCOD8194401
Probable space group: P M M M
;
_chemical_formula_sum "Si O2"
_cell_formula_units_Z 64
_cell_length_a 19.783710
_cell_length_b 8.852424
_cell_length_c 20.060615
_cell_angle_alpha 90.000000
_cell_angle_beta 90.000000
_cell_angle_gamma 90.000000
_cell_volume 3513.291519
_symmetry_space_group_name_H-M "P M M M"
_symmetry_group_IT_number 47
_symmetry_cell_setting 'orthorhombic'
loop_
_space_group_symop_operation_xyz
x,y,z
-x,-y,z
x,-y,-z
-x,y,-z
-x,-y,-z
x,y,-z
-x,y,z
x,-y,z
loop_
_atom_site_type_symbol
_atom_site_label
_atom_site_fract_x
_atom_site_fract_y
_atom_site_fract_z
Si Si1 0.921017 0.174091 0.075378
Si Si2 0.574829 0.826932 0.873229
Si Si3 0.572099 0.671688 0.397954
Si Si4 0.182655 0.678088 0.171218
Si Si5 0.699337 0.673160 0.073397
Si Si6 0.379584 0.671337 0.744925
Si Si7 0.242766 0.178007 0.705959
Si Si8 0.718779 0.677666 0.426128
O O1 0.883423 0.272312 0.130907
O O2 0.000000 0.196864 0.087980
O O3 0.900341 0.000000 0.084285
O O4 0.902553 0.227220 0.000000
O O5 0.500000 0.807156 0.904804
O O6 0.631058 0.770768 0.924855
O O7 0.577566 0.727270 0.806908
O O8 0.588843 0.000000 0.854704
O O9 0.500000 0.747212 0.421661
O O10 0.571253 0.500000 0.422975
O O11 0.571827 0.680711 0.318236
O O12 0.641560 0.745354 0.425797
O O13 0.180286 0.500000 0.180821
O O14 0.247855 0.730628 0.128467
O O15 0.185531 0.755078 0.244393
O O16 0.680136 0.500000 0.087004
O O17 0.731711 0.693458 0.000000
O O18 0.353729 0.500000 0.756656
O O19 0.314833 0.777216 0.735643
O O20 0.235463 0.242851 0.630295
O O21 0.233988 0.000000 0.702481
O O22 0.749596 0.706586 0.500000
O O23 0.715984 0.500000 0.408690
#
# Coordination Sequence:
#
# PCOD8194401 Si02
#       8
#     8   8   8   8   8   8   8   8
#     4   9  19  36  57  84 121 161 193 219 255 308
#     4  11  23  35  48  68  93 123 162 212 273 334
#     4   8  14  24  41  66  91 116 153 201 252 310
#     4  11  21  35  57  83 109 140 181 227 266 308
#     4  10  22  38  54  72  95 128 171 218 267 319
#     4  10  18  31  49  69  92 122 162 209 263 320
#     4  11  21  33  52  76 102 133 172 218 268 319
#     4   9  18  32  49  70  99 134 171 215 267 322
#
# _framework density 18.216536999999999
#
# number of rings (size 3 to 8) (size 9 to 14) (size 15 to 20)
#    0.000    2.125    1.250    4.125    0.000    4.000 
#    0.000    3.125    0.000    3.375    0.000    3.500 
#    0.000    0.500    0.000    5.250    0.000    2.250 
#
# Total GULP energy -793208.640493 kJ/mol
# GULP energy per Si atom -12393.885008 kJ/mol
# Density = 1.817508 g / cm^3
# Si number density = 18.216537 Si / 1000 Ang^3
#
#
#
# Elastic Constant Matrix: (Units=GPa)
#
#
# Indices 1 2 3 4 5 6 
#
# 1 56.2508 30.8820 36.0748 0.0000 0.0000 0.0000
# 2 30.8820 83.4640 45.8791 0.0000 0.0000 0.0000
# 3 36.0748 45.8791 123.8764 0.0000 0.0000 0.0000
# 4 0.0000 0.0000 0.0000 22.4316 0.0000 0.0000
# 5 0.0000 0.0000 0.0000 0.0000 14.8014 0.0000
# 6 0.0000 0.0000 0.0000 0.0000 0.0000 23.5436
#
#
#
# Elastic Compliance Matrix: (Units=1/GPa)
#
#
# Indices 1 2 3 4 5 6 
#
# 1 0.024315 -0.006409 -0.004707 0.000000 0.000000 0.000000
# 2 -0.006409 0.016733 -0.004331 0.000000 0.000000 0.000000
# 3 -0.004707 -0.004331 0.011047 0.000000 0.000000 0.000000
# 4 0.000000 0.000000 0.000000 0.044580 0.000000 0.000000
# 5 0.000000 0.000000 0.000000 0.000000 0.067561 0.000000
# 6 0.000000 0.000000 0.000000 0.000000 0.000000 0.042474
#
#
# Mechanical properties :
#
#
# Convention : Reuss Voigt Hill
#
# Bulk Modulus (GPa) = 47.16735 54.36255 50.76495
# Shear Modulus (GPa) = 20.43547 22.20569 21.32058
#
# Velocity S-wave (km/s) = 3.35298 3.49518 3.42482
# Velocity P-wave (km/s) = 6.39834 6.79674 6.60054
#
# Compressibility (1/GPa) = 0.02120110
#
# Stress axis : x y z
#
# Youngs Moduli (GPa) = 41.12690 59.76121 90.51921
#
# Poissons Ratio (x) = 0.38302 0.42609
# Poissons Ratio (y) = 0.26359 0.39203
# Poissons Ratio (z) = 0.19359 0.25882
#
# Static dielectric constant tensor:
#      x y z
#    x 3.055300 0.000000 0.000000 
#    y 0.000000 3.228720 0.000000 
#    z 0.000000 0.000000 3.458660 
# 
# 
# High freq. dielectric constant tensor:
#      x y z
#    x 1.664260 0.000000 0.000000 
#    y 0.000000 1.692000 0.000000 
#    z 0.000000 0.000000 1.710490 
# 
# From -- ./inp_files/31336.got.cif
#   From: 2010.03.12/outbox.cif.g09.slc.cpg/sg47_16_cif.got.tgz:31336.got - 2010.04.14 03:12:58.
