data_PCOD8194098
_publ_section_title
;
Structure prediction by ZEFSAII (Michael W. Deem and Ramdas Pophale) SiO2 
 PCOD8194098
Probable space group: P M M M
;
_chemical_formula_sum "Si O2"
_cell_formula_units_Z 40
_cell_length_a 20.279071
_cell_length_b 9.587646
_cell_length_c 11.675328
_cell_angle_alpha 90.000000
_cell_angle_beta 90.000000
_cell_angle_gamma 90.000000
_cell_volume 2270.017140
_symmetry_space_group_name_H-M "P M M M"
_symmetry_group_IT_number 47
_symmetry_cell_setting 'orthorhombic'
loop_
_space_group_symop_operation_xyz
x,y,z
-x,-y,z
x,-y,-z
-x,y,-z
-x,-y,-z
x,y,-z
-x,y,z
x,-y,z
loop_
_atom_site_type_symbol
_atom_site_label
_atom_site_fract_x
_atom_site_fract_y
_atom_site_fract_z
Si Si1 0.370748 0.334921 0.248297
Si Si2 0.136474 0.158826 0.770308
Si Si3 0.000000 0.834072 0.869654
Si Si4 0.659500 0.663401 0.000000
Si Si5 0.217090 0.152208 0.000000
Si Si6 0.500000 0.333543 0.629307
Si Si7 0.236751 0.662437 0.634289
O O1 0.370964 0.500000 0.263563
O O2 0.378364 0.289903 0.115125
O O3 0.434424 0.271171 0.311528
O O4 0.302434 0.278249 0.302351
O O5 0.062959 0.215788 0.795431
O O6 0.172378 0.168473 0.890371
O O7 0.172561 0.254536 0.676611
O O8 0.135475 0.000000 0.723905
O O9 0.000000 0.000000 0.880791
O O10 0.000000 0.772122 0.000000
O O11 0.670328 0.500000 0.000000
O O12 0.731588 0.724960 0.000000
O O13 0.252074 0.000000 0.000000
O O14 0.500000 0.500000 0.637364
O O15 0.500000 0.280731 0.500000
O O16 0.246464 0.687312 0.500000
O O17 0.226169 0.500000 0.662815
#
# Coordination Sequence:
#
# PCOD8194098 Si02
#       7
#     8   8   4   4   4   4   8
#     4   9  17  28  45  70  98 129 163 201 248 295
#     4  10  19  32  53  78 101 127 162 205 248 294
#     4   9  16  30  52  77 102 126 157 200 251 300
#     4  10  18  29  47  73 103 129 156 202 254 296
#     4  10  18  29  49  77 103 127 158 198 246 300
#     4   9  16  27  43  65  97 133 166 202 243 290
#     4  10  20  34  51  71  99 135 171 205 243 291
#
# _framework density 17.621013000000001
#
# number of rings (size 3 to 8) (size 9 to 14) (size 15 to 20)
#    0.000    2.400    3.000    0.600    0.000    3.200 
#    0.000    3.000    0.000    3.600    0.000    3.500 
#    0.000    4.800    0.000    0.000    0.000    0.000 
#
# Total GULP energy -495843.676118 kJ/mol
# GULP energy per Si atom -12396.091903 kJ/mol
# Density = 1.758091 g / cm^3
# Si number density = 17.621013 Si / 1000 Ang^3
#
#
#
# Elastic Constant Matrix: (Units=GPa)
#
#
# Indices 1 2 3 4 5 6 
#
# 1 147.3367 30.1736 69.7057 0.0000 0.0000 0.0000
# 2 30.1736 27.4549 34.8512 0.0000 0.0000 0.0000
# 3 69.7057 34.8512 125.3721 0.0000 0.0000 0.0000
# 4 0.0000 0.0000 0.0000 22.8936 0.0000 0.0000
# 5 0.0000 0.0000 0.0000 0.0000 12.8824 0.0000
# 6 0.0000 0.0000 0.0000 0.0000 0.0000 10.4500
#
#
#
# Elastic Compliance Matrix: (Units=1/GPa)
#
#
# Indices 1 2 3 4 5 6 
#
# 1 0.009802 -0.005957 -0.003794 0.000000 0.000000 0.000000
# 2 -0.005957 0.059904 -0.013341 0.000000 0.000000 0.000000
# 3 -0.003794 -0.013341 0.013794 0.000000 0.000000 0.000000
# 4 0.000000 0.000000 0.000000 0.043680 0.000000 0.000000
# 5 0.000000 0.000000 0.000000 0.000000 0.077625 0.000000
# 6 0.000000 0.000000 0.000000 0.000000 0.000000 0.095694
#
#
# Mechanical properties :
#
#
# Convention : Reuss Voigt Hill
#
# Bulk Modulus (GPa) = 26.79661 63.29164 45.04412
# Shear Modulus (GPa) = 13.92290 20.27410 17.09850
#
# Velocity S-wave (km/s) = 2.81398 3.39568 3.11842
# Velocity P-wave (km/s) = 5.07919 7.16731 6.21162
#
# Compressibility (1/GPa) = 0.03731816
#
# Stress axis : x y z
#
# Youngs Moduli (GPa) = 102.02005 16.69332 72.49465
#
# Poissons Ratio (x) = 0.09943 0.27504
# Poissons Ratio (y) = 0.60769 0.96712
# Poissons Ratio (z) = 0.38706 0.22270
#
# Static dielectric constant tensor:
#      x y z
#    x 3.481020 0.000000 0.000000 
#    y 0.000000 2.931400 0.000000 
#    z 0.000000 0.000000 3.404460 
# 
# 
# High freq. dielectric constant tensor:
#      x y z
#    x 1.685100 0.000000 0.000000 
#    y 0.000000 1.629750 0.000000 
#    z 0.000000 0.000000 1.689280 
# 
# From -- ./inp_files/18982.got.cif
#   From: 2010.03.12/outbox.cif.g09.slc.cpg/sg47_10_cif.got.tgz:18982.got - 2010.04.14 03:12:58.
