data_PCOD8194371
_publ_section_title
;
Structure prediction by ZEFSAII (Michael W. Deem and Ramdas Pophale) SiO2 
 PCOD8194371
Probable space group: P M M M
;
_chemical_formula_sum "Si O2"
_cell_formula_units_Z 48
_cell_length_a 14.402840
_cell_length_b 8.880218
_cell_length_c 20.768660
_cell_angle_alpha 90.000000
_cell_angle_beta 90.000000
_cell_angle_gamma 90.000000
_cell_volume 2656.319070
_symmetry_space_group_name_H-M "P M M M"
_symmetry_group_IT_number 47
_symmetry_cell_setting 'orthorhombic'
loop_
_space_group_symop_operation_xyz
x,y,z
-x,-y,z
x,-y,-z
-x,y,-z
-x,-y,-z
x,y,-z
-x,y,z
x,-y,z
loop_
_atom_site_type_symbol
_atom_site_label
_atom_site_fract_x
_atom_site_fract_y
_atom_site_fract_z
Si Si1 0.604676 0.678904 0.570657
Si Si2 0.282241 0.327413 0.927316
Si Si3 0.393721 0.177874 0.814680
Si Si4 0.104832 0.175547 0.116788
Si Si5 0.292510 0.675385 0.694539
Si Si6 0.102400 0.671717 0.250244
O O1 0.636489 0.738958 0.500000
O O2 0.500000 0.733684 0.585074
O O3 0.608464 0.500000 0.570070
O O4 0.671270 0.743153 0.626728
O O5 0.283111 0.500000 0.904592
O O6 0.347971 0.233367 0.880648
O O7 0.176575 0.267838 0.926427
O O8 0.320072 0.310802 0.000000
O O9 0.500000 0.232436 0.813108
O O10 0.341246 0.242995 0.753457
O O11 0.385686 0.000000 0.812564
O O12 0.120017 0.217022 0.191198
O O13 0.000000 0.215907 0.094909
O O14 0.125191 0.000000 0.108240
O O15 0.317617 0.500000 0.699906
O O16 0.181389 0.702883 0.696483
O O17 0.110375 0.500000 0.224792
O O18 0.000000 0.700241 0.280641
#
# Coordination Sequence:
#
# PCOD8194371 Si02
#       6
#     8   8   8   8   8   8
#     4   8  14  25  43  71 105 137 173 218 262 304
#     4  11  24  40  57  77 102 135 174 215 260 310
#     4  11  24  39  55  77 104 133 168 215 268 317
#     4  10  20  34  54  79 106 136 170 210 258 311
#     4  10  18  30  53  79 102 135 176 216 258 306
#     4   9  17  29  47  73 104 135 169 211 258 306
#
# _framework density 18.070119999999999
#
# number of rings (size 3 to 8) (size 9 to 14) (size 15 to 20)
#    0.000    2.167    1.667    2.500    0.000    5.000 
#    0.000    3.333    0.000    1.000    0.000    5.833 
#    0.000    0.000    0.000    5.667    0.000    6.167 
#
# Total GULP energy -595085.578883 kJ/mol
# GULP energy per Si atom -12397.616227 kJ/mol
# Density = 1.802899 g / cm^3
# Si number density = 18.070120 Si / 1000 Ang^3
#
#
#
# Elastic Constant Matrix: (Units=GPa)
#
#
# Indices 1 2 3 4 5 6 
#
# 1 124.6705 29.2684 65.1493 0.0000 0.0000 0.0000
# 2 29.2684 41.7841 22.0245 0.0000 0.0000 0.0000
# 3 65.1493 22.0245 115.7715 0.0000 0.0000 0.0000
# 4 0.0000 0.0000 0.0000 -1.7738 0.0000 0.0000
# 5 0.0000 0.0000 0.0000 0.0000 30.2083 0.0000
# 6 0.0000 0.0000 0.0000 0.0000 0.0000 23.6239
#
#
#
# Elastic Compliance Matrix: (Units=1/GPa)
#
#
# Indices 1 2 3 4 5 6 
#
# 1 0.012433 -0.005580 -0.005935 0.000000 0.000000 0.000000
# 2 -0.005580 0.029105 -0.002397 0.000000 0.000000 0.000000
# 3 -0.005935 -0.002397 0.012433 0.000000 0.000000 0.000000
# 4 0.000000 0.000000 0.000000 -0.563754 0.000000 0.000000
# 5 0.000000 0.000000 0.000000 0.000000 0.033103 0.000000
# 6 0.000000 0.000000 0.000000 0.000000 0.000000 0.042330
#
#
# Mechanical properties :
#
#
# Convention : Reuss Voigt Hill
#
# Bulk Modulus (GPa) = 38.24500 57.23450 47.73975
# Shear Modulus (GPa) = -12.56880 21.46393 4.44757
#
# Velocity S-wave (km/s) = -2.64020 3.45021 1.57055
# Velocity P-wave (km/s) = 3.45203 6.90030 5.45576
#
# Compressibility (1/GPa) = 0.02614721
#
# Stress axis : x y z
#
# Youngs Moduli (GPa) = 80.43421 34.35870 80.42911
#
# Poissons Ratio (x) = 0.19174 0.47732
# Poissons Ratio (y) = 0.44886 0.19276
# Poissons Ratio (z) = 0.47735 0.08234
#
# Static dielectric constant tensor:
#      x y z
#    x 3.641560 0.000000 0.000000 
#    y 0.000000 3.217940 0.000000 
#    z 0.000000 0.000000 3.404570 
# 
# 
# High freq. dielectric constant tensor:
#      x y z
#    x 1.707100 0.000000 0.000000 
#    y 0.000000 1.686380 0.000000 
#    z 0.000000 0.000000 1.683020 
# 
# From -- ./inp_files/6766.got.cif
#   From: 2010.03.12/outbox.cif.g09.slc.cpg/sg47_4_cif.got.tgz:6766.got - 2010.04.14 03:12:58.
