data_PCOD8194580
_publ_section_title
;
Structure prediction by ZEFSAII (Michael W. Deem and Ramdas Pophale) SiO2 
 PCOD8194580
Probable space group: P M M M
;
_chemical_formula_sum "Si O2"
_cell_formula_units_Z 48
_cell_length_a 27.756334
_cell_length_b 9.561988
_cell_length_c 9.723646
_cell_angle_alpha 90.000000
_cell_angle_beta 90.000000
_cell_angle_gamma 90.000000
_cell_volume 2580.711390
_symmetry_space_group_name_H-M "P M M M"
_symmetry_group_IT_number 47
_symmetry_cell_setting 'orthorhombic'
loop_
_space_group_symop_operation_xyz
x,y,z
-x,-y,z
x,-y,-z
-x,y,-z
-x,-y,-z
x,y,-z
-x,y,z
x,-y,z
loop_
_atom_site_type_symbol
_atom_site_label
_atom_site_fract_x
_atom_site_fract_y
_atom_site_fract_z
Si Si1 0.556118 0.500000 0.344467
Si Si2 0.117764 0.334155 0.251056
Si Si3 0.392714 0.721482 0.835127
Si Si4 0.446490 0.000000 0.840520
Si Si5 0.793996 0.162811 0.659767
Si Si6 0.699355 0.662241 0.657216
Si Si7 0.053685 0.664976 0.000000
Si Si8 0.053245 0.665100 0.500000
O O1 0.500000 0.500000 0.365755
O O2 0.579847 0.500000 0.500000
O O3 0.570719 0.629105 0.251203
O O4 0.130074 0.500000 0.253207
O O5 0.166675 0.245300 0.250662
O O6 0.085419 0.285289 0.125871
O O7 0.083983 0.284063 0.372912
O O8 0.412786 0.872508 0.799504
O O9 0.340097 0.700946 0.771144
O O10 0.392174 0.688471 0.000000
O O11 0.500000 0.000000 0.768387
O O12 0.457226 0.000000 0.000000
O O13 0.807375 0.178775 0.500000
O O14 0.743509 0.236547 0.691272
O O15 0.791346 0.000000 0.703408
O O16 0.681226 0.688190 0.500000
O O17 0.714525 0.500000 0.674598
O O18 0.047069 0.500000 0.000000
O O19 0.000000 0.733011 0.000000
O O20 0.047031 0.500000 0.500000
O O21 0.000000 0.734182 0.500000
#
# Coordination Sequence:
#
# PCOD8194580 Si02
#       8
#     4   8   8   4   8   8   4   4
#     4  11  23  39  61  91 127 161 199 245 296 345
#     4  10  18  32  55  81 112 146 185 233 284 337
#     4  11  22  38  62  90 121 157 199 245 293 351
#     4   9  20  38  59  85 121 161 197 235 284 345
#     4  10  21  37  58  83 110 147 193 240 289 345
#     4  10  21  38  60  84 114 150 189 239 296 351
#     4   9  18  32  53  83 117 149 185 231 286 339
#     4   9  16  26  49  83 111 139 181 227 270 327
#
# _framework density 18.599523000000001
#
# number of rings (size 3 to 8) (size 9 to 14) (size 15 to 20)
#    0.000    2.000    1.667    2.250    1.167    4.000 
#    1.500    1.667    0.000    6.000    0.000    0.000 
#    0.000    0.000    0.000    0.000    0.000    0.000 
#
# Total GULP energy -594798.884514 kJ/mol
# GULP energy per Si atom -12391.643427 kJ/mol
# Density = 1.855719 g / cm^3
# Si number density = 18.599523 Si / 1000 Ang^3
#
#
#
# Elastic Constant Matrix: (Units=GPa)
#
#
# Indices 1 2 3 4 5 6 
#
# 1 128.9113 59.1337 58.7591 0.0000 0.0000 0.0000
# 2 59.1337 120.3490 44.2322 0.0000 0.0000 0.0000
# 3 58.7591 44.2322 129.3691 0.0000 0.0000 0.0000
# 4 0.0000 0.0000 0.0000 20.3918 0.0000 0.0000
# 5 0.0000 0.0000 0.0000 0.0000 67.2339 0.0000
# 6 0.0000 0.0000 0.0000 0.0000 0.0000 26.0314
#
#
#
# Elastic Compliance Matrix: (Units=1/GPa)
#
#
# Indices 1 2 3 4 5 6 
#
# 1 0.011398 -0.004229 -0.003731 0.000000 0.000000 0.000000
# 2 -0.004229 0.011073 -0.001865 0.000000 0.000000 0.000000
# 3 -0.003731 -0.001865 0.010062 0.000000 0.000000 0.000000
# 4 0.000000 0.000000 0.000000 0.049039 0.000000 0.000000
# 5 0.000000 0.000000 0.000000 0.000000 0.014873 0.000000
# 6 0.000000 0.000000 0.000000 0.000000 0.000000 0.038415
#
#
# Mechanical properties :
#
#
# Convention : Reuss Voigt Hill
#
# Bulk Modulus (GPa) = 77.62456 78.09770 77.86113
# Shear Modulus (GPa) = 31.48525 37.16504 34.32515
#
# Velocity S-wave (km/s) = 4.11883 4.47494 4.30057
# Velocity P-wave (km/s) = 8.02776 8.29339 8.16166
#
# Compressibility (1/GPa) = 0.01288252
#
# Stress axis : x y z
#
# Youngs Moduli (GPa) = 87.73608 90.31319 99.38360
#
# Poissons Ratio (x) = 0.38194 0.37079
# Poissons Ratio (y) = 0.37105 0.18534
# Poissons Ratio (z) = 0.32733 0.16843
#
# Static dielectric constant tensor:
#      x y z
#    x 3.518320 0.000000 0.000000 
#    y 0.000000 2.442410 0.000000 
#    z 0.000000 0.000000 4.044830 
# 
# 
# High freq. dielectric constant tensor:
#      x y z
#    x 1.735810 0.000000 0.000000 
#    y 0.000000 1.706480 0.000000 
#    z 0.000000 0.000000 1.716640 
# 
# From -- ./inp_files/14006.got.cif
#   From: 2010.03.12/outbox.cif.g09.slc.cpg/sg47_8_cif.got.tgz:14006.got - 2010.04.14 03:12:58.
