data_PCOD8194157
_publ_section_title
;
Structure prediction by ZEFSAII (Michael W. Deem and Ramdas Pophale) SiO2 
 PCOD8194157
Probable space group: P M M M
;
_chemical_formula_sum "Si O2"
_cell_formula_units_Z 52
_cell_length_a 7.895768
_cell_length_b 14.305283
_cell_length_c 24.431141
_cell_angle_alpha 90.000000
_cell_angle_beta 90.000000
_cell_angle_gamma 90.000000
_cell_volume 2759.526589
_symmetry_space_group_name_H-M "P M M M"
_symmetry_group_IT_number 47
_symmetry_cell_setting 'orthorhombic'
loop_
_space_group_symop_operation_xyz
x,y,z
-x,-y,z
x,-y,-z
-x,y,-z
-x,-y,-z
x,y,-z
-x,y,z
x,-y,z
loop_
_atom_site_type_symbol
_atom_site_label
_atom_site_fract_x
_atom_site_fract_y
_atom_site_fract_z
Si Si1 0.199744 0.603628 0.060731
Si Si2 0.699335 0.104784 0.338537
Si Si3 0.299274 0.606538 0.730393
Si Si4 0.701616 0.101273 0.214125
Si Si5 0.810073 0.294881 0.376587
Si Si6 0.697835 0.712962 0.835714
Si Si7 0.500000 0.392862 0.435294
O O1 0.269908 0.500000 0.076002
O O2 0.260917 0.680406 0.103411
O O3 0.000000 0.600542 0.060891
O O4 0.265246 0.631581 0.000000
O O5 0.500000 0.121107 0.342177
O O6 0.762104 0.118348 0.276235
O O7 0.787948 0.182363 0.376602
O O8 0.746998 0.000000 0.358990
O O9 0.500000 0.618528 0.723246
O O10 0.242334 0.500000 0.723512
O O11 0.208140 0.668471 0.685098
O O12 0.235038 0.640452 0.790080
O O13 0.500000 0.100526 0.213356
O O14 0.775632 0.183691 0.175472
O O15 0.769244 0.000000 0.193377
O O16 0.670647 0.343165 0.414831
O O17 0.000000 0.317980 0.398120
O O18 0.500000 0.720348 0.828436
O O19 0.500000 0.500000 0.413875
O O20 0.500000 0.388618 0.500000
#
# Coordination Sequence:
#
# PCOD8194157 Si02
#       7
#     8   8   8   8   8   8   4
#     4   9  19  35  50  64  91 134 179 223 272 326
#     4   9  16  32  59  86 118 160 196 229 283 350
#     4  10  19  32  50  76 115 152 179 221 285 345
#     4   8  14  26  47  75 107 143 178 213 264 333
#     4  12  23  37  62  92 122 155 195 242 295 350
#     4  10  18  29  50  77 104 134 172 222 275 327
#     4  11  26  48  69  87 117 161 205 251 291 330
#
# _framework density 18.843813000000001
#
# number of rings (size 3 to 8) (size 9 to 14) (size 15 to 20)
#    0.000    2.231    3.077    2.308    0.000    3.692 
#    0.000    1.538    0.000    1.846    0.000    4.308 
#    0.000    0.000    0.000    0.000    0.000    0.000 
#
# Total GULP energy -644512.622144 kJ/mol
# GULP energy per Si atom -12394.473503 kJ/mol
# Density = 1.880092 g / cm^3
# Si number density = 18.843813 Si / 1000 Ang^3
#
#
#
# Elastic Constant Matrix: (Units=GPa)
#
#
# Indices 1 2 3 4 5 6 
#
# 1 61.2828 39.3216 23.4912 0.0000 0.0000 0.0000
# 2 39.3216 155.3801 50.2567 0.0000 0.0000 0.0000
# 3 23.4912 50.2567 75.0882 0.0000 0.0000 0.0000
# 4 0.0000 0.0000 0.0000 24.7436 0.0000 0.0000
# 5 0.0000 0.0000 0.0000 0.0000 -1.1961 0.0000
# 6 0.0000 0.0000 0.0000 0.0000 0.0000 13.3163
#
#
#
# Elastic Compliance Matrix: (Units=1/GPa)
#
#
# Indices 1 2 3 4 5 6 
#
# 1 0.020260 -0.003927 -0.003710 0.000000 0.000000 0.000000
# 2 -0.003927 0.008975 -0.004779 0.000000 0.000000 0.000000
# 3 -0.003710 -0.004779 0.017677 0.000000 0.000000 0.000000
# 4 0.000000 0.000000 0.000000 0.040414 0.000000 0.000000
# 5 0.000000 0.000000 0.000000 0.000000 -0.836052 0.000000
# 6 0.000000 0.000000 0.000000 0.000000 0.000000 0.075096
#
#
# Mechanical properties :
#
#
# Convention : Reuss Voigt Hill
#
# Bulk Modulus (GPa) = 45.28869 57.54335 51.41602
# Shear Modulus (GPa) = -7.79497 19.28486 5.74494
#
# Velocity S-wave (km/s) = -2.03608 3.20254 1.74795
# Velocity P-wave (km/s) = 4.30795 6.65420 5.60521
#
# Compressibility (1/GPa) = 0.02208057
#
# Stress axis : x y z
#
# Youngs Moduli (GPa) = 49.35917 111.41733 56.57207
#
# Poissons Ratio (x) = 0.43755 0.20987
# Poissons Ratio (y) = 0.19384 0.27033
# Poissons Ratio (z) = 0.18311 0.53242
#
# Static dielectric constant tensor:
#      x y z
#    x 3.220250 0.000000 0.000000 
#    y 0.000000 -0.838730 0.000000 
#    z 0.000000 0.000000 4.985540 
# 
# 
# High freq. dielectric constant tensor:
#      x y z
#    x 1.712690 0.000000 0.000000 
#    y 0.000000 1.745620 0.000000 
#    z 0.000000 0.000000 1.696580 
# 
# From -- ./inp_files/31982.got.cif
#   From: 2010.03.12/outbox.cif.g09.slc.cpg/sg47_16_cif.got.tgz:31982.got - 2010.04.14 03:12:58.
