data_PCOD8194554
_publ_section_title
;
Structure prediction by ZEFSAII (Michael W. Deem and Ramdas Pophale) SiO2 
 PCOD8194554
Probable space group: P M M M
;
_chemical_formula_sum "Si O2"
_cell_formula_units_Z 52
_cell_length_a 12.041014
_cell_length_b 27.268947
_cell_length_c 9.124887
_cell_angle_alpha 90.000000
_cell_angle_beta 90.000000
_cell_angle_gamma 90.000000
_cell_volume 2996.118072
_symmetry_space_group_name_H-M "P M M M"
_symmetry_group_IT_number 47
_symmetry_cell_setting 'orthorhombic'
loop_
_space_group_symop_operation_xyz
x,y,z
-x,-y,z
x,-y,-z
-x,y,-z
-x,-y,-z
x,y,-z
-x,y,z
x,-y,z
loop_
_atom_site_type_symbol
_atom_site_label
_atom_site_fract_x
_atom_site_fract_y
_atom_site_fract_z
Si Si1 0.000000 0.555040 0.826711
Si Si2 0.369513 0.500000 0.672691
Si Si3 0.376963 0.320451 0.826296
Si Si4 0.500000 0.944775 0.325604
Si Si5 0.630003 0.788402 0.168219
Si Si6 0.759668 0.413051 0.825813
Si Si7 0.705774 0.881166 0.327360
Si Si8 0.869521 0.944970 0.834856
O O1 0.888413 0.583047 0.774669
O O2 0.000000 0.500000 0.760568
O O3 0.000000 0.551702 0.000000
O O4 0.500000 0.500000 0.707897
O O5 0.346276 0.500000 0.500000
O O6 0.314934 0.547386 0.744662
O O7 0.500000 0.334064 0.764296
O O8 0.341191 0.266255 0.772415
O O9 0.285679 0.359973 0.775366
O O10 0.385182 0.318928 0.000000
O O11 0.500000 0.946701 0.500000
O O12 0.606945 0.915615 0.267094
O O13 0.500000 0.000000 0.261023
O O14 0.500000 0.798661 0.187773
O O15 0.699064 0.826682 0.263322
O O16 0.666105 0.794248 0.000000
O O17 0.748131 0.421234 0.000000
O O18 0.702598 0.876603 0.500000
O O19 0.819534 0.905857 0.276886
O O20 0.000000 0.938798 0.826660
O O21 0.835056 0.000000 0.787270
O O22 0.827594 0.934620 0.000000
#
# Coordination Sequence:
#
# PCOD8194554 Si02
#       8
#     4   4   8   4   8   8   8   8
#     4   9  16  28  48  78 106 128 162 210 247 280
#     4  11  23  34  45  70 108 137 162 203 256 303
#     4   8  15  28  49  75  96 122 167 216 255 293
#     4   9  18  30  43  67 105 137 161 198 243 286
#     4   9  17  31  50  71  99 133 168 209 255 301
#     4  10  18  32  54  75  99 133 172 209 247 295
#     4  11  20  31  50  75 104 136 170 205 246 299
#     4   9  19  36  55  74  98 129 166 209 255 302
#
# _framework density 17.355789999999999
#
# number of rings (size 3 to 8) (size 9 to 14) (size 15 to 20)
#    0.000    2.538    1.538    3.000    0.000    2.462 
#    0.000    2.308    1.692    2.769    0.000    0.000 
#    0.000    0.000    0.000    0.000    0.000    0.000 
#
# Total GULP energy -644665.339400 kJ/mol
# GULP energy per Si atom -12397.410373 kJ/mol
# Density = 1.731629 g / cm^3
# Si number density = 17.355790 Si / 1000 Ang^3
#
#
#
# Elastic Constant Matrix: (Units=GPa)
#
#
# Indices 1 2 3 4 5 6 
#
# 1 101.6917 73.6368 33.9941 0.0000 0.0000 0.0000
# 2 73.6368 156.1117 41.8699 0.0000 0.0000 0.0000
# 3 33.9941 41.8699 49.9497 0.0000 0.0000 0.0000
# 4 0.0000 0.0000 0.0000 12.1333 0.0000 0.0000
# 5 0.0000 0.0000 0.0000 0.0000 19.1760 0.0000
# 6 0.0000 0.0000 0.0000 0.0000 0.0000 27.3900
#
#
#
# Elastic Compliance Matrix: (Units=1/GPa)
#
#
# Indices 1 2 3 4 5 6 
#
# 1 0.016203 -0.006044 -0.005961 0.000000 0.000000 0.000000
# 2 -0.006044 0.010518 -0.004703 0.000000 0.000000 0.000000
# 3 -0.005961 -0.004703 0.028019 0.000000 0.000000 0.000000
# 4 0.000000 0.000000 0.000000 0.082418 0.000000 0.000000
# 5 0.000000 0.000000 0.000000 0.000000 0.052148 0.000000
# 6 0.000000 0.000000 0.000000 0.000000 0.000000 0.036510
#
#
# Mechanical properties :
#
#
# Convention : Reuss Voigt Hill
#
# Bulk Modulus (GPa) = 46.89540 67.41719 57.15629
# Shear Modulus (GPa) = 18.77296 22.29001 20.53149
#
# Velocity S-wave (km/s) = 3.29242 3.58760 3.44317
# Velocity P-wave (km/s) = 6.44454 7.48930 6.98648
#
# Compressibility (1/GPa) = 0.02132405
#
# Stress axis : x y z
#
# Youngs Moduli (GPa) = 61.71758 95.07453 35.68969
#
# Poissons Ratio (x) = 0.57464 0.21274
# Poissons Ratio (y) = 0.37303 0.16786
# Poissons Ratio (z) = 0.36788 0.44716
#
# Static dielectric constant tensor:
#      x y z
#    x 3.249400 0.000000 0.000000 
#    y 0.000000 3.472760 0.000000 
#    z 0.000000 0.000000 2.926640 
# 
# 
# High freq. dielectric constant tensor:
#      x y z
#    x 1.661270 0.000000 0.000000 
#    y 0.000000 1.676690 0.000000 
#    z 0.000000 0.000000 1.639290 
# 
# From -- ./inp_files/4639.got.cif
#   From: 2010.03.12/outbox.cif.g09.slc.cpg/sg47_3_cif.got.tgz:4639.got - 2010.04.14 03:12:58.
