data_PCOD8194475
_publ_section_title
;
Structure prediction by ZEFSAII (Michael W. Deem and Ramdas Pophale) SiO2 
 PCOD8194475
Probable space group: P M M M
;
_chemical_formula_sum "Si O2"
_cell_formula_units_Z 48
_cell_length_a 8.797302
_cell_length_b 29.097755
_cell_length_c 9.855743
_cell_angle_alpha 90.000000
_cell_angle_beta 90.000000
_cell_angle_gamma 90.000000
_cell_volume 2522.890225
_symmetry_space_group_name_H-M "P M M M"
_symmetry_group_IT_number 47
_symmetry_cell_setting 'orthorhombic'
loop_
_space_group_symop_operation_xyz
x,y,z
-x,-y,z
x,-y,-z
-x,y,-z
-x,-y,-z
x,y,-z
-x,y,z
x,-y,z
loop_
_atom_site_type_symbol
_atom_site_label
_atom_site_fract_x
_atom_site_fract_y
_atom_site_fract_z
Si Si1 0.179203 0.873874 0.657280
Si Si2 0.679673 0.796657 0.154789
Si Si3 0.823006 0.700437 0.843856
Si Si4 0.319585 0.448513 0.500000
Si Si5 0.680181 0.389644 0.750832
Si Si6 0.680534 0.448854 0.000000
Si Si7 0.324413 0.053740 0.153908
O O1 0.234693 0.875009 0.500000
O O2 0.254570 0.832188 0.737704
O O3 0.224629 0.920747 0.733444
O O4 0.000000 0.867897 0.663312
O O5 0.500000 0.797749 0.164152
O O6 0.737620 0.746710 0.198676
O O7 0.732733 0.808238 0.000000
O O8 0.760354 0.659735 0.750019
O O9 0.000000 0.707738 0.817212
O O10 0.787563 0.688154 0.000000
O O11 0.249334 0.500000 0.500000
O O12 0.500000 0.452935 0.500000
O O13 0.261721 0.419161 0.374454
O O14 0.500000 0.381663 0.752722
O O15 0.739684 0.420372 0.873417
O O16 0.751503 0.500000 0.000000
O O17 0.500000 0.452835 0.000000
O O18 0.500000 0.067298 0.174714
O O19 0.299160 0.000000 0.176752
O O20 0.275328 0.067396 0.000000
#
# Coordination Sequence:
#
# PCOD8194475 Si02
#       7
#     8   8   8   4   8   4   8
#     4  11  24  39  55  82 121 158 192 232 282 339
#     4  10  21  38  62  87 109 139 185 236 283 334
#     4  10  20  35  56  81 109 139 175 221 275 330
#     4   9  18  32  51  77 107 137 173 219 266 313
#     4  10  18  31  52  77 105 136 175 219 264 318
#     4   9  16  26  47  77 103 131 171 219 264 309
#     4   9  19  37  61  88 117 152 198 247 289 332
#
# _framework density 19.025798000000002
#
# number of rings (size 3 to 8) (size 9 to 14) (size 15 to 20)
#    0.000    2.167    0.833    3.000    0.000    8.000 
#    1.500    2.917    0.000    3.000    0.000    0.000 
#    0.000    0.000    0.000    0.000    0.000    0.000 
#
# Total GULP energy -595161.838975 kJ/mol
# GULP energy per Si atom -12399.204979 kJ/mol
# Density = 1.898249 g / cm^3
# Si number density = 19.025798 Si / 1000 Ang^3
#
#
#
# Elastic Constant Matrix: (Units=GPa)
#
#
# Indices 1 2 3 4 5 6 
#
# 1 57.0505 41.7350 42.9055 0.0000 0.0000 0.0000
# 2 41.7350 140.5901 80.5800 0.0000 0.0000 0.0000
# 3 42.9055 80.5800 146.6058 0.0000 0.0000 0.0000
# 4 0.0000 0.0000 0.0000 26.1498 0.0000 0.0000
# 5 0.0000 0.0000 0.0000 0.0000 29.5308 0.0000
# 6 0.0000 0.0000 0.0000 0.0000 0.0000 -12.4573
#
#
#
# Elastic Compliance Matrix: (Units=1/GPa)
#
#
# Indices 1 2 3 4 5 6 
#
# 1 0.024347 -0.004589 -0.004603 0.000000 0.000000 0.000000
# 2 -0.004589 0.011249 -0.004840 0.000000 0.000000 0.000000
# 3 -0.004603 -0.004840 0.010828 0.000000 0.000000 0.000000
# 4 0.000000 0.000000 0.000000 0.038241 0.000000 0.000000
# 5 0.000000 0.000000 0.000000 0.000000 0.033863 0.000000
# 6 0.000000 0.000000 0.000000 0.000000 0.000000 -0.080274
#
#
# Mechanical properties :
#
#
# Convention : Reuss Voigt Hill
#
# Bulk Modulus (GPa) = 54.46504 74.96527 64.71515
# Shear Modulus (GPa) = 69.02270 20.57971 44.80120
#
# Velocity S-wave (km/s) = 6.02970 3.29245 4.85785
# Velocity P-wave (km/s) = 8.78438 7.34446 8.09650
#
# Compressibility (1/GPa) = 0.01836040
#
# Stress axis : x y z
#
# Youngs Moduli (GPa) = 41.07212 88.89444 92.35074
#
# Poissons Ratio (x) = 0.40798 0.42509
# Poissons Ratio (y) = 0.18850 0.44697
# Poissons Ratio (z) = 0.18905 0.43024
#
# Static dielectric constant tensor:
#      x y z
#    x 3.260890 0.000000 0.000000 
#    y 0.000000 3.612550 0.000000 
#    z 0.000000 0.000000 3.608240 
# 
# 
# High freq. dielectric constant tensor:
#      x y z
#    x 1.719870 0.000000 0.000000 
#    y 0.000000 1.756020 0.000000 
#    z 0.000000 0.000000 1.734610 
# 
# From -- ./inp_files/2566.got.cif
#   From: 2010.03.12/outbox.cif.g09.slc.cpg/sg47_2_cif.got.tgz:2566.got - 2010.04.14 03:12:58.
