data_PCOD8194736
_publ_section_title
;
Structure prediction by ZEFSAII (Michael W. Deem and Ramdas Pophale) SiO2 
 PCOD8194736
Probable space group: P M M M
;
_chemical_formula_sum "Si O2"
_cell_formula_units_Z 52
_cell_length_a 11.539508
_cell_length_b 8.888451
_cell_length_c 27.850712
_cell_angle_alpha 90.000000
_cell_angle_beta 90.000000
_cell_angle_gamma 90.000000
_cell_volume 2856.601616
_symmetry_space_group_name_H-M "P M M M"
_symmetry_group_IT_number 47
_symmetry_cell_setting 'orthorhombic'
loop_
_space_group_symop_operation_xyz
x,y,z
-x,-y,z
x,-y,-z
-x,y,-z
-x,-y,-z
x,y,-z
-x,y,z
x,-y,z
loop_
_atom_site_type_symbol
_atom_site_label
_atom_site_fract_x
_atom_site_fract_y
_atom_site_fract_z
Si Si1 0.000000 0.678166 0.707673
Si Si2 0.000000 0.320784 0.400763
Si Si3 0.363485 0.669882 0.500000
Si Si4 0.367304 0.824849 0.317274
Si Si5 0.137363 0.668976 0.052483
Si Si6 0.866251 0.823680 0.147649
Si Si7 0.238529 0.821312 0.586348
Si Si8 0.225698 0.678241 0.238636
O O1 0.887351 0.741480 0.734104
O O2 0.000000 0.500000 0.708673
O O3 0.000000 0.737646 0.653747
O O4 0.114209 0.252603 0.425094
O O5 0.000000 0.500000 0.405977
O O6 0.312293 0.500000 0.500000
O O7 0.500000 0.663771 0.500000
O O8 0.325848 0.759906 0.546955
O O9 0.500000 0.788316 0.330431
O O10 0.286839 0.770875 0.361515
O O11 0.335895 0.736477 0.268488
O O12 0.349041 0.000000 0.307294
O O13 0.181407 0.500000 0.063362
O O14 0.180060 0.779095 0.094707
O O15 0.000000 0.670830 0.050730
O O16 0.184623 0.722373 0.000000
O O17 0.780064 0.743749 0.185067
O O18 0.000000 0.769958 0.155070
O O19 0.855585 0.000000 0.154178
O O20 0.229701 0.000000 0.582388
O O21 0.230245 0.500000 0.235650
#
# Coordination Sequence:
#
# PCOD8194736 Si02
#       8
#     4   4   4   8   8   8   8   8
#     4   9  18  31  50  76 106 138 171 212 259 305
#     4  11  21  38  60  87 119 146 179 220 267 316
#     4  11  25  44  65  88 113 145 185 227 270 315
#     4  10  22  39  57  79 108 140 174 214 262 314
#     4   8  14  25  40  58  85 126 172 214 257 307
#     4  10  19  28  41  66  98 133 172 214 262 313
#     4  11  23  40  63  89 115 145 180 219 267 321
#     4  11  20  33  52  75 103 137 177 218 260 310
#
# _framework density 18.203448000000002
#
# number of rings (size 3 to 8) (size 9 to 14) (size 15 to 20)
#    0.000    1.923    2.308    2.769    0.000    3.385 
#    0.000    3.077    0.000    0.000    0.000    0.000 
#    0.000    0.615    0.000    6.462    0.000    3.077 
#
# Total GULP energy -644802.571685 kJ/mol
# GULP energy per Si atom -12400.049455 kJ/mol
# Density = 1.816202 g / cm^3
# Si number density = 18.203448 Si / 1000 Ang^3
#
#
#
# Elastic Constant Matrix: (Units=GPa)
#
#
# Indices 1 2 3 4 5 6 
#
# 1 69.6381 33.5250 29.0507 0.0000 0.0000 0.0000
# 2 33.5250 86.2600 49.5218 0.0000 0.0000 0.0000
# 3 29.0507 49.5218 120.0875 0.0000 0.0000 0.0000
# 4 0.0000 0.0000 0.0000 33.6936 0.0000 0.0000
# 5 0.0000 0.0000 0.0000 0.0000 11.3599 0.0000
# 6 0.0000 0.0000 0.0000 0.0000 0.0000 23.4220
#
#
#
# Elastic Compliance Matrix: (Units=1/GPa)
#
#
# Indices 1 2 3 4 5 6 
#
# 1 0.017999 -0.005890 -0.001925 0.000000 0.000000 0.000000
# 2 -0.005890 0.017116 -0.005634 0.000000 0.000000 0.000000
# 3 -0.001925 -0.005634 0.011116 0.000000 0.000000 0.000000
# 4 0.000000 0.000000 0.000000 0.029679 0.000000 0.000000
# 5 0.000000 0.000000 0.000000 0.000000 0.088029 0.000000
# 6 0.000000 0.000000 0.000000 0.000000 0.000000 0.042695
#
#
# Mechanical properties :
#
#
# Convention : Reuss Voigt Hill
#
# Bulk Modulus (GPa) = 51.72333 55.57561 53.64947
# Shear Modulus (GPa) = 20.83539 24.62096 22.72818
#
# Velocity S-wave (km/s) = 3.38684 3.68168 3.53734
# Velocity P-wave (km/s) = 6.61589 6.97636 6.79851
#
# Compressibility (1/GPa) = 0.01933363
#
# Stress axis : x y z
#
# Youngs Moduli (GPa) = 55.55992 58.42424 89.95906
#
# Poissons Ratio (x) = 0.34411 0.17319
# Poissons Ratio (y) = 0.32724 0.50679
# Poissons Ratio (z) = 0.10696 0.32914
#
# Static dielectric constant tensor:
#      x y z
#    x 3.091540 0.000000 0.000000 
#    y 0.000000 3.287150 0.000000 
#    z 0.000000 0.000000 3.608280 
# 
# 
# High freq. dielectric constant tensor:
#      x y z
#    x 1.666290 0.000000 0.000000 
#    y 0.000000 1.706420 0.000000 
#    z 0.000000 0.000000 1.713240 
# 
# From -- ./inp_files/33608.got.cif
#   From: 2010.03.12/outbox.cif.g09.slc.cpg/sg47_17_cif.got.tgz:33608.got - 2010.04.14 03:12:58.
