data_PCOD8194460
_publ_section_title
;
Structure prediction by ZEFSAII (Michael W. Deem and Ramdas Pophale) SiO2 
 PCOD8194460
Probable space group: P M M M
;
_chemical_formula_sum "Si O2"
_cell_formula_units_Z 64
_cell_length_a 20.844288
_cell_length_b 19.478520
_cell_length_c 9.363576
_cell_angle_alpha 90.000000
_cell_angle_beta 90.000000
_cell_angle_gamma 90.000000
_cell_volume 3801.760556
_symmetry_space_group_name_H-M "P M M M"
_symmetry_group_IT_number 47
_symmetry_cell_setting 'orthorhombic'
loop_
_space_group_symop_operation_xyz
x,y,z
-x,-y,z
x,-y,-z
-x,y,-z
-x,-y,-z
x,y,-z
-x,y,z
x,-y,z
loop_
_atom_site_type_symbol
_atom_site_label
_atom_site_fract_x
_atom_site_fract_y
_atom_site_fract_z
Si Si1 0.571934 0.196900 0.836370
Si Si2 0.188985 0.784650 0.167833
Si Si3 0.274227 0.422300 0.666470
Si Si4 0.071526 0.301573 0.832353
Si Si5 0.626436 0.077740 0.665649
Si Si6 0.756477 0.924032 0.164915
Si Si7 0.126533 0.421795 0.664031
Si Si8 0.685730 0.704240 0.168640
O O1 0.500000 0.226524 0.819460
O O2 0.576753 0.128697 0.740680
O O3 0.622197 0.254403 0.784823
O O4 0.586485 0.176464 0.000000
O O5 0.123538 0.752424 0.231625
O O6 0.191909 0.865648 0.207907
O O7 0.252073 0.745692 0.226400
O O8 0.187469 0.775177 0.000000
O O9 0.283825 0.407170 0.500000
O O10 0.295910 0.500000 0.702511
O O11 0.200243 0.412053 0.710420
O O12 0.317489 0.369943 0.756782
O O13 0.081190 0.375226 0.760522
O O14 0.000000 0.274259 0.797477
O O15 0.081024 0.311832 0.000000
O O16 0.632829 0.096829 0.500000
O O17 0.695235 0.087051 0.737462
O O18 0.601232 0.000000 0.685689
O O19 0.786550 0.000000 0.189111
O O20 0.735165 0.914324 0.000000
O O21 0.117576 0.400434 0.500000
O O22 0.105001 0.500000 0.687813
O O23 0.688244 0.692903 0.000000
#
# Coordination Sequence:
#
# PCOD8194460 Si02
#       8
#     8   8   8   8   8   8   8   8
#     4  10  21  36  52  71  97 129 164 201 240 284
#     4   9  16  29  48  71  95 120 157 201 237 275
#     4   9  18  32  50  74 101 126 156 196 240 285
#     4  10  20  32  46  66  95 129 159 192 236 282
#     4  10  20  32  47  71 103 133 161 196 238 284
#     4   9  16  29  51  73  94 124 162 201 240 282
#     4   9  18  32  48  67  94 126 158 193 232 275
#     4  10  18  31  52  75  96 122 159 201 241 281
#
# _framework density 16.834306000000002
#
# number of rings (size 3 to 8) (size 9 to 14) (size 15 to 20)
#    0.000    2.500    2.500    1.125    0.000    2.750 
#    0.000    4.375    0.000    0.750    0.000    5.250 
#    0.000    0.000    0.000    4.250    0.000    4.500 
#
# Total GULP energy -793444.509671 kJ/mol
# GULP energy per Si atom -12397.570464 kJ/mol
# Density = 1.679599 g / cm^3
# Si number density = 16.834306 Si / 1000 Ang^3
#
#
#
# Elastic Constant Matrix: (Units=GPa)
#
#
# Indices 1 2 3 4 5 6 
#
# 1 106.3703 64.8361 33.3943 0.0000 0.0000 0.0000
# 2 64.8361 120.9771 41.2814 0.0000 0.0000 0.0000
# 3 33.3943 41.2814 48.9083 0.0000 0.0000 0.0000
# 4 0.0000 0.0000 0.0000 23.9488 0.0000 0.0000
# 5 0.0000 0.0000 0.0000 0.0000 13.2956 0.0000
# 6 0.0000 0.0000 0.0000 0.0000 0.0000 24.4370
#
#
#
# Elastic Compliance Matrix: (Units=1/GPa)
#
#
# Indices 1 2 3 4 5 6 
#
# 1 0.014711 -0.006260 -0.004761 0.000000 0.000000 0.000000
# 2 -0.006260 0.014273 -0.007774 0.000000 0.000000 0.000000
# 3 -0.004761 -0.007774 0.030259 0.000000 0.000000 0.000000
# 4 0.000000 0.000000 0.000000 0.041756 0.000000 0.000000
# 5 0.000000 0.000000 0.000000 0.000000 0.075213 0.000000
# 6 0.000000 0.000000 0.000000 0.000000 0.000000 0.040922
#
#
# Mechanical properties :
#
#
# Convention : Reuss Voigt Hill
#
# Bulk Modulus (GPa) = 46.17976 61.69770 53.93873
# Shear Modulus (GPa) = 19.08830 21.45255 20.27043
#
# Velocity S-wave (km/s) = 3.37099 3.57366 3.47380
# Velocity P-wave (km/s) = 6.53015 7.33195 6.94264
#
# Compressibility (1/GPa) = 0.02165451
#
# Stress axis : x y z
#
# Youngs Moduli (GPa) = 67.97470 70.06056 33.04832
#
# Poissons Ratio (x) = 0.43855 0.15735
# Poissons Ratio (y) = 0.42550 0.25690
# Poissons Ratio (z) = 0.32365 0.54462
#
# Static dielectric constant tensor:
#      x y z
#    x 3.080520 0.000000 0.000000 
#    y 0.000000 3.284910 0.000000 
#    z 0.000000 0.000000 3.015060 
# 
# 
# High freq. dielectric constant tensor:
#      x y z
#    x 1.624420 0.000000 0.000000 
#    y 0.000000 1.650830 0.000000 
#    z 0.000000 0.000000 1.635440 
# 
# From -- ./inp_files/9927.got.cif
#   From: 2010.03.12/outbox.cif.g09.slc.cpg/sg47_5_cif.got.tgz:9927.got - 2010.04.14 03:12:58.
