data_PCOD8194520
_publ_section_title
;
Structure prediction by ZEFSAII (Michael W. Deem and Ramdas Pophale) SiO2 
 PCOD8194520
Probable space group: P M M M
;
_chemical_formula_sum "Si O2"
_cell_formula_units_Z 56
_cell_length_a 9.194212
_cell_length_b 20.280200
_cell_length_c 16.983254
_cell_angle_alpha 90.000000
_cell_angle_beta 90.000000
_cell_angle_gamma 90.000000
_cell_volume 3166.705323
_symmetry_space_group_name_H-M "P M M M"
_symmetry_group_IT_number 47
_symmetry_cell_setting 'orthorhombic'
loop_
_space_group_symop_operation_xyz
x,y,z
-x,-y,z
x,-y,-z
-x,y,-z
-x,-y,-z
x,y,-z
-x,y,z
x,-y,z
loop_
_atom_site_type_symbol
_atom_site_label
_atom_site_fract_x
_atom_site_fract_y
_atom_site_fract_z
Si Si1 0.829932 0.118267 0.153684
Si Si2 0.665397 0.117765 0.000000
Si Si3 0.333040 0.423789 0.590529
Si Si4 0.663606 0.274773 0.000000
Si Si5 0.665519 0.073827 0.302816
Si Si6 0.329746 0.194506 0.409900
Si Si7 0.832761 0.728676 0.151035
Si Si8 0.170672 0.687510 0.677119
O O1 0.771330 0.079527 0.228712
O O2 0.795275 0.195105 0.166324
O O3 0.000000 0.104473 0.143500
O O4 0.747796 0.090607 0.076792
O O5 0.672194 0.196346 0.000000
O O6 0.500000 0.091927 0.000000
O O7 0.304269 0.404618 0.500000
O O8 0.500000 0.408722 0.612223
O O9 0.296347 0.500000 0.605020
O O10 0.227757 0.381929 0.645544
O O11 0.740859 0.301547 0.921098
O O12 0.500000 0.301383 0.000000
O O13 0.500000 0.088047 0.275319
O O14 0.711764 0.124779 0.370683
O O15 0.680129 0.000000 0.337593
O O16 0.278988 0.191088 0.500000
O O17 0.500000 0.209670 0.403123
O O18 0.246018 0.252666 0.367189
O O19 0.792911 0.689454 0.230159
O O20 0.000000 0.720514 0.127487
O O21 0.000000 0.693532 0.662049
#
# Coordination Sequence:
#
# PCOD8194520 Si02
#       8
#     8   4   8   4   8   8   8   8
#     4  10  18  32  51  72  99 132 167 205 254 312
#     4   9  17  29  48  74 101 128 162 205 252 303
#     4   9  19  36  55  76 107 146 182 215 256 306
#     4   9  17  27  45  74 101 130 169 208 248 296
#     4  10  21  36  53  72  96 129 170 217 266 313
#     4  10  21  36  54  75 100 132 170 214 264 314
#     4   9  18  31  47  70 104 138 166 203 253 304
#     4  11  21  33  52  81 110 139 174 213 256 303
#
# _framework density 17.683994999999999
#
# number of rings (size 3 to 8) (size 9 to 14) (size 15 to 20)
#    0.000    2.286    1.429    2.143    0.000    6.571 
#    0.000    2.500    0.000    2.143    0.000    2.500 
#    0.000    4.000    0.000    0.000    0.000    0.000 
#
# Total GULP energy -694509.838058 kJ/mol
# GULP energy per Si atom -12401.961394 kJ/mol
# Density = 1.764375 g / cm^3
# Si number density = 17.683995 Si / 1000 Ang^3
#
#
#
# Elastic Constant Matrix: (Units=GPa)
#
#
# Indices 1 2 3 4 5 6 
#
# 1 83.5580 35.7772 61.4606 0.0000 0.0000 0.0000
# 2 35.7772 71.0948 47.8467 0.0000 0.0000 0.0000
# 3 61.4606 47.8467 125.3846 0.0000 0.0000 0.0000
# 4 0.0000 0.0000 0.0000 15.7522 0.0000 0.0000
# 5 0.0000 0.0000 0.0000 0.0000 32.6462 0.0000
# 6 0.0000 0.0000 0.0000 0.0000 0.0000 19.6564
#
#
#
# Elastic Compliance Matrix: (Units=1/GPa)
#
#
# Indices 1 2 3 4 5 6 
#
# 1 0.019780 -0.004613 -0.007935 0.000000 0.000000 0.000000
# 2 -0.004613 0.020002 -0.005371 0.000000 0.000000 0.000000
# 3 -0.007935 -0.005371 0.013915 0.000000 0.000000 0.000000
# 4 0.000000 0.000000 0.000000 0.063483 0.000000 0.000000
# 5 0.000000 0.000000 0.000000 0.000000 0.030631 0.000000
# 6 0.000000 0.000000 0.000000 0.000000 0.000000 0.050874
#
#
# Mechanical properties :
#
#
# Convention : Reuss Voigt Hill
#
# Bulk Modulus (GPa) = 56.00096 63.35627 59.67862
# Shear Modulus (GPa) = 20.79195 22.60782 21.69989
#
# Velocity S-wave (km/s) = 3.43264 3.57940 3.50679
# Velocity P-wave (km/s) = 6.88818 7.27925 7.08641
#
# Compressibility (1/GPa) = 0.01785684
#
# Stress axis : x y z
#
# Youngs Moduli (GPa) = 50.55700 49.99407 71.86604
#
# Poissons Ratio (x) = 0.23065 0.57026
# Poissons Ratio (y) = 0.23324 0.38603
# Poissons Ratio (z) = 0.40117 0.26854
#
# Static dielectric constant tensor:
#      x y z
#    x 3.312840 0.000000 0.000000 
#    y 0.000000 3.016130 0.000000 
#    z 0.000000 0.000000 3.387450 
# 
# 
# High freq. dielectric constant tensor:
#      x y z
#    x 1.688580 0.000000 0.000000 
#    y 0.000000 1.653300 0.000000 
#    z 0.000000 0.000000 1.688680 
# 
# From -- ./inp_files/21651.got.cif
#   From: 2010.03.12/outbox.cif.g09.slc.cpg/sg47_11_cif.got.tgz:21651.got - 2010.04.14 03:12:58.
