data_PCOD8194951
_publ_section_title
;
Structure prediction by ZEFSAII (Michael W. Deem and Ramdas Pophale) SiO2 
 PCOD8194951
Probable space group: P M M M
;
_chemical_formula_sum "Si O2"
_cell_formula_units_Z 64
_cell_length_a 9.489412
_cell_length_b 14.377838
_cell_length_c 25.808820
_cell_angle_alpha 90.000000
_cell_angle_beta 90.000000
_cell_angle_gamma 90.000000
_cell_volume 3521.283870
_symmetry_space_group_name_H-M "P M M M"
_symmetry_group_IT_number 47
_symmetry_cell_setting 'orthorhombic'
loop_
_space_group_symop_operation_xyz
x,y,z
-x,-y,z
x,-y,-z
-x,y,-z
-x,-y,-z
x,y,-z
-x,y,z
x,-y,z
loop_
_atom_site_type_symbol
_atom_site_label
_atom_site_fract_x
_atom_site_fract_y
_atom_site_fract_z
Si Si1 0.664434 0.209320 0.656306
Si Si2 0.153196 0.610151 0.794814
Si Si3 0.160766 0.109752 0.861931
Si Si4 0.667387 0.104803 0.443141
Si Si5 0.163211 0.107532 0.744181
Si Si6 0.338073 0.227305 0.057837
Si Si7 0.164518 0.392955 0.089546
Si Si8 0.337922 0.602884 0.700788
O O1 0.500000 0.183962 0.661760
O O2 0.727259 0.171260 0.602051
O O3 0.742808 0.165597 0.704876
O O4 0.687314 0.321447 0.655591
O O5 0.144764 0.500000 0.797472
O O6 0.193937 0.644239 0.852053
O O7 0.263962 0.642808 0.752183
O O8 0.000000 0.650701 0.779009
O O9 0.193025 0.142245 0.802913
O O10 0.264652 0.158530 0.901886
O O11 0.000000 0.136015 0.876272
O O12 0.183594 0.000000 0.866172
O O13 0.723167 0.137042 0.500000
O O14 0.500000 0.108388 0.443472
O O15 0.719100 0.000000 0.431749
O O16 0.000000 0.121995 0.730184
O O17 0.205181 0.000000 0.738757
O O18 0.500000 0.241311 0.074698
O O19 0.260956 0.327425 0.054517
O O20 0.329120 0.184102 0.000000
O O21 0.210704 0.500000 0.081684
O O22 0.000000 0.381760 0.075417
O O23 0.500000 0.595349 0.715529
O O24 0.281037 0.500000 0.684004
#
# Coordination Sequence:
#
# PCOD8194951 Si02
#       8
#     8   8   8   8   8   8   8   8
#     4  10  19  29  47  75 102 133 174 213 248 295
#     4   8  15  29  48  69  92 121 161 204 242 286
#     4   9  20  40  62  80 100 131 170 210 255 310
#     4   8  14  26  45  69  97 129 168 216 262 300
#     4   9  19  35  53  76 106 133 157 195 252 310
#     4  11  25  40  54  77 107 136 168 210 260 313
#     4   9  19  36  57  79 102 132 172 215 255 300
#     4   9  18  30  42  63 100 138 167 201 248 296
#
# _framework density 18.175189
#
# number of rings (size 3 to 8) (size 9 to 14) (size 15 to 20)
#    0.000    2.875    0.000    2.625    1.750    4.250 
#    0.000    5.000    0.000    0.750    0.000    4.375 
#    0.000    0.000    0.000    4.250    0.000    4.625 
#
# Total GULP energy -793221.874793 kJ/mol
# GULP energy per Si atom -12394.091794 kJ/mol
# Density = 1.813382 g / cm^3
# Si number density = 18.175189 Si / 1000 Ang^3
#
#
#
# Elastic Constant Matrix: (Units=GPa)
#
#
# Indices 1 2 3 4 5 6 
#
# 1 66.0438 41.7765 49.8039 0.0000 0.0000 0.0000
# 2 41.7765 69.3278 59.8635 0.0000 0.0000 0.0000
# 3 49.8039 59.8635 120.1049 0.0000 0.0000 0.0000
# 4 0.0000 0.0000 0.0000 27.7860 0.0000 0.0000
# 5 0.0000 0.0000 0.0000 0.0000 -25.5208 0.0000
# 6 0.0000 0.0000 0.0000 0.0000 0.0000 21.8043
#
#
#
# Elastic Compliance Matrix: (Units=1/GPa)
#
#
# Indices 1 2 3 4 5 6 
#
# 1 0.026237 -0.011263 -0.005266 0.000000 0.000000 0.000000
# 2 -0.011263 0.030158 -0.010361 0.000000 0.000000 0.000000
# 3 -0.005266 -0.010361 0.015674 0.000000 0.000000 0.000000
# 4 0.000000 0.000000 0.000000 0.035989 0.000000 0.000000
# 5 0.000000 0.000000 0.000000 0.000000 -0.039184 0.000000
# 6 0.000000 0.000000 0.000000 0.000000 0.000000 0.045863
#
#
# Mechanical properties :
#
#
# Convention : Reuss Voigt Hill
#
# Bulk Modulus (GPa) = 54.67871 62.04047 58.35959
# Shear Modulus (GPa) = 28.63460 11.74939 20.19200
#
# Velocity S-wave (km/s) = 3.97353 2.54530 3.33673
# Velocity P-wave (km/s) = 7.15553 6.54575 6.85742
#
# Compressibility (1/GPa) = 0.01828865
#
# Stress axis : x y z
#
# Youngs Moduli (GPa) = 38.11387 33.15862 63.80081
#
# Poissons Ratio (x) = 0.37348 0.33596
# Poissons Ratio (y) = 0.42929 0.66104
# Poissons Ratio (z) = 0.20070 0.34356
#
# Static dielectric constant tensor:
#      x y z
#    x 3.239990 0.000000 0.000000 
#    y 0.000000 3.452130 0.000000 
#    z 0.000000 0.000000 3.480040 
# 
# 
# High freq. dielectric constant tensor:
#      x y z
#    x 1.683940 0.000000 0.000000 
#    y 0.000000 1.708160 0.000000 
#    z 0.000000 0.000000 1.690500 
# 
# From -- ./inp_files/32118.got.cif
#   From: 2010.03.12/outbox.cif.g09.slc.cpg/sg47_17_cif.got.tgz:32118.got - 2010.04.14 03:12:58.
