data_PCOD8194267
_publ_section_title
;
Structure prediction by ZEFSAII (Michael W. Deem and Ramdas Pophale) SiO2 
 PCOD8194267
Probable space group: P M M M
;
_chemical_formula_sum "Si O2"
_cell_formula_units_Z 40
_cell_length_a 9.196117
_cell_length_b 12.609193
_cell_length_c 19.143250
_cell_angle_alpha 90.000000
_cell_angle_beta 90.000000
_cell_angle_gamma 90.000000
_cell_volume 2219.767310
_symmetry_space_group_name_H-M "P M M M"
_symmetry_group_IT_number 47
_symmetry_cell_setting 'orthorhombic'
loop_
_space_group_symop_operation_xyz
x,y,z
-x,-y,z
x,-y,-z
-x,y,-z
-x,-y,-z
x,y,-z
-x,y,z
x,-y,z
loop_
_atom_site_type_symbol
_atom_site_label
_atom_site_fract_x
_atom_site_fract_y
_atom_site_fract_z
Si Si1 0.827239 0.193289 0.828723
Si Si2 0.164827 0.500000 0.583071
Si Si3 0.330229 0.878446 0.692396
Si Si4 0.172834 0.617860 0.077675
Si Si5 0.331263 0.706676 0.420127
Si Si6 0.827598 0.000000 0.922321
O O1 0.755400 0.178733 0.754023
O O2 0.769629 0.302344 0.863148
O O3 0.000000 0.191006 0.819003
O O4 0.772505 0.102056 0.880700
O O5 0.173146 0.500000 0.500000
O O6 0.243230 0.393709 0.610998
O O7 0.000000 0.500000 0.610861
O O8 0.500000 0.874602 0.710034
O O9 0.293719 0.813285 0.622300
O O10 0.277900 0.000000 0.682273
O O11 0.227764 0.500000 0.097046
O O12 0.000000 0.621962 0.076313
O O13 0.229384 0.649625 0.000000
O O14 0.286639 0.729889 0.500000
O O15 0.500000 0.676994 0.414022
O O16 0.000000 0.000000 0.927864
O O17 0.759481 0.000000 0.000000
#
# Coordination Sequence:
#
# PCOD8194267 Si02
#       6
#     8   4   8   8   8   4
#     4  10  18  30  49  72  99 131 165 204 249 300
#     4   9  17  31  53  81 109 131 156 201 256 301
#     4  10  21  36  52  71 101 137 169 209 259 302
#     4   8  14  26  46  72  99 125 158 204 250 290
#     4   9  18  34  56  78 100 132 174 212 247 296
#     4   9  16  26  45  73  96 121 166 214 249 287
#
# _framework density 18.019908000000001
#
# number of rings (size 3 to 8) (size 9 to 14) (size 15 to 20)
#    0.000    2.800    1.000    1.500    0.000    4.800 
#    1.800    2.000    0.000    3.000    0.000    5.600 
#    0.000    0.000    0.000    0.000    0.000    0.000 
#
# Total GULP energy -495888.587073 kJ/mol
# GULP energy per Si atom -12397.214677 kJ/mol
# Density = 1.797889 g / cm^3
# Si number density = 18.019908 Si / 1000 Ang^3
#
#
#
# Elastic Constant Matrix: (Units=GPa)
#
#
# Indices 1 2 3 4 5 6 
#
# 1 38.1759 40.7100 34.0907 0.0000 0.0000 0.0000
# 2 40.7100 161.8583 78.9442 0.0000 0.0000 0.0000
# 3 34.0907 78.9442 111.0938 0.0000 0.0000 0.0000
# 4 0.0000 0.0000 0.0000 20.0176 0.0000 0.0000
# 5 0.0000 0.0000 0.0000 0.0000 19.3450 0.0000
# 6 0.0000 0.0000 0.0000 0.0000 0.0000 16.1055
#
#
#
# Elastic Compliance Matrix: (Units=1/GPa)
#
#
# Indices 1 2 3 4 5 6 
#
# 1 0.039769 -0.006199 -0.007799 0.000000 0.000000 0.000000
# 2 -0.006199 0.010422 -0.005503 0.000000 0.000000 0.000000
# 3 -0.007799 -0.005503 0.015305 0.000000 0.000000 0.000000
# 4 0.000000 0.000000 0.000000 0.049956 0.000000 0.000000
# 5 0.000000 0.000000 0.000000 0.000000 0.051693 0.000000
# 6 0.000000 0.000000 0.000000 0.000000 0.000000 0.062091
#
#
# Mechanical properties :
#
#
# Convention : Reuss Voigt Hill
#
# Bulk Modulus (GPa) = 37.74449 68.73530 53.23990
# Shear Modulus (GPa) = 18.04604 21.58582 19.81593
#
# Velocity S-wave (km/s) = 3.16800 3.46481 3.31972
# Velocity P-wave (km/s) = 5.86286 7.36433 6.65607
#
# Compressibility (1/GPa) = 0.02649393
#
# Stress axis : x y z
#
# Youngs Moduli (GPa) = 25.14514 95.95463 65.33648
#
# Poissons Ratio (x) = 0.59481 0.50955
# Poissons Ratio (y) = 0.15587 0.35958
# Poissons Ratio (z) = 0.19610 0.52808
#
# Static dielectric constant tensor:
#      x y z
#    x 2.991220 0.000000 0.000000 
#    y 0.000000 3.640350 0.000000 
#    z 0.000000 0.000000 3.311550 
# 
# 
# High freq. dielectric constant tensor:
#      x y z
#    x 1.657050 0.000000 0.000000 
#    y 0.000000 1.711430 0.000000 
#    z 0.000000 0.000000 1.689730 
# 
# From -- ./inp_files/10709.got.cif
#   From: 2010.03.12/outbox.cif.g09.slc.cpg/sg47_6_cif.got.tgz:10709.got - 2010.04.14 03:12:58.
