data_PCOD8194922
_publ_section_title
;
Structure prediction by ZEFSAII (Michael W. Deem and Ramdas Pophale) SiO2 
 PCOD8194922
Probable space group: P M M M
;
_chemical_formula_sum "Si O2"
_cell_formula_units_Z 64
_cell_length_a 18.906715
_cell_length_b 23.184247
_cell_length_c 9.366195
_cell_angle_alpha 90.000000
_cell_angle_beta 90.000000
_cell_angle_gamma 90.000000
_cell_volume 4105.558720
_symmetry_space_group_name_H-M "P M M M"
_symmetry_group_IT_number 47
_symmetry_cell_setting 'orthorhombic'
loop_
_space_group_symop_operation_xyz
x,y,z
-x,-y,z
x,-y,-z
-x,y,-z
-x,-y,-z
x,y,-z
-x,y,z
x,-y,z
loop_
_atom_site_type_symbol
_atom_site_label
_atom_site_fract_x
_atom_site_fract_y
_atom_site_fract_z
Si Si1 0.778364 0.565832 0.165346
Si Si2 0.418857 0.066604 0.336646
Si Si3 0.223155 0.780734 0.336842
Si Si4 0.661213 0.160761 0.833425
Si Si5 0.922058 0.379204 0.835220
Si Si6 0.581772 0.277267 0.834578
Si Si7 0.301669 0.662603 0.666181
Si Si8 0.078065 0.736018 0.664610
O O1 0.758876 0.500000 0.199297
O O2 0.861530 0.574516 0.202026
O O3 0.729704 0.605466 0.263246
O O4 0.763808 0.580961 0.000000
O O5 0.407002 0.085904 0.500000
O O6 0.500000 0.076910 0.292300
O O7 0.368748 0.102680 0.233855
O O8 0.398516 0.000000 0.317248
O O9 0.239052 0.798349 0.500000
O O10 0.262355 0.825638 0.234404
O O11 0.248633 0.715549 0.307146
O O12 0.139079 0.783056 0.301623
O O13 0.607437 0.212643 0.799379
O O14 0.671917 0.150646 0.000000
O O15 0.906222 0.321113 0.751667
O O16 0.000000 0.404409 0.795210
O O17 0.919386 0.362125 0.000000
O O18 0.500000 0.281514 0.793506
O O19 0.623175 0.323463 0.738992
O O20 0.595410 0.291750 0.000000
O O21 0.314421 0.650687 0.500000
O O22 0.083295 0.717829 0.500000
O O23 0.000000 0.761684 0.700673
#
# Coordination Sequence:
#
# PCOD8194922 Si02
#       8
#     8   8   8   8   8   8   8   8
#     4  10  20  32  46  63  85 115 148 181 220 269
#     4   9  18  32  48  66  93 131 167 194 223 260
#     4   9  17  29  44  64  90 120 152 185 226 271
#     4  10  19  29  45  70  97 124 155 191 225 258
#     4   9  17  28  43  63  86 113 146 183 220 260
#     4   9  18  32  49  69  93 119 144 176 222 271
#     4  10  19  31  47  67  88 112 144 181 223 268
#     4   9  16  27  44  64  88 118 150 184 223 268
#
# _framework density 15.588621
#
# number of rings (size 3 to 8) (size 9 to 14) (size 15 to 20)
#    0.000    2.625    1.250    1.500    0.000    3.250 
#    0.000    1.875    0.000    0.375    0.000    5.250 
#    0.000    0.500    0.000    5.750    0.000    1.625 
#
# Total GULP energy -793504.866516 kJ/mol
# GULP energy per Si atom -12398.513539 kJ/mol
# Density = 1.555314 g / cm^3
# Si number density = 15.588621 Si / 1000 Ang^3
#
#
#
# Elastic Constant Matrix: (Units=GPa)
#
#
# Indices 1 2 3 4 5 6 
#
# 1 105.9979 45.3911 52.2667 0.0000 0.0000 0.0000
# 2 45.3911 68.4132 45.9466 0.0000 0.0000 0.0000
# 3 52.2667 45.9466 76.3189 0.0000 0.0000 0.0000
# 4 0.0000 0.0000 0.0000 25.6602 0.0000 0.0000
# 5 0.0000 0.0000 0.0000 0.0000 21.8704 0.0000
# 6 0.0000 0.0000 0.0000 0.0000 0.0000 24.3187
#
#
#
# Elastic Compliance Matrix: (Units=1/GPa)
#
#
# Indices 1 2 3 4 5 6 
#
# 1 0.015280 -0.005221 -0.007321 0.000000 0.000000 0.000000
# 2 -0.005221 0.026323 -0.012272 0.000000 0.000000 0.000000
# 3 -0.007321 -0.012272 0.025505 0.000000 0.000000 0.000000
# 4 0.000000 0.000000 0.000000 0.038971 0.000000 0.000000
# 5 0.000000 0.000000 0.000000 0.000000 0.045724 0.000000
# 6 0.000000 0.000000 0.000000 0.000000 0.000000 0.041121
#
#
# Mechanical properties :
#
#
# Convention : Reuss Voigt Hill
#
# Bulk Modulus (GPa) = 57.20888 59.77098 58.48993
# Shear Modulus (GPa) = 20.13068 21.51157 20.82112
#
# Velocity S-wave (km/s) = 3.59746 3.71880 3.65864
# Velocity P-wave (km/s) = 7.35081 7.54091 7.44647
#
# Compressibility (1/GPa) = 0.01747980
#
# Stress axis : x y z
#
# Youngs Moduli (GPa) = 65.44528 37.98985 39.20850
#
# Poissons Ratio (x) = 0.19835 0.28705
# Poissons Ratio (y) = 0.34170 0.48115
# Poissons Ratio (z) = 0.47913 0.46620
#
# Static dielectric constant tensor:
#      x y z
#    x 3.130400 0.000000 0.000000 
#    y 0.000000 2.669730 0.000000 
#    z 0.000000 0.000000 3.016130 
# 
# 
# High freq. dielectric constant tensor:
#      x y z
#    x 1.599460 0.000000 0.000000 
#    y 0.000000 1.560280 0.000000 
#    z 0.000000 0.000000 1.604780 
# 
# From -- ./inp_files/10194.got.cif
#   From: 2010.03.12/outbox.cif.g09.slc.cpg/sg47_6_cif.got.tgz:10194.got - 2010.04.14 03:12:58.
