data_PCOD8194591
_publ_section_title
;
Structure prediction by ZEFSAII (Michael W. Deem and Ramdas Pophale) SiO2 
 PCOD8194591
Probable space group: P M M M
;
_chemical_formula_sum "Si O2"
_cell_formula_units_Z 48
_cell_length_a 8.847673
_cell_length_b 15.114553
_cell_length_c 19.101653
_cell_angle_alpha 90.000000
_cell_angle_beta 90.000000
_cell_angle_gamma 90.000000
_cell_volume 2554.437743
_symmetry_space_group_name_H-M "P M M M"
_symmetry_group_IT_number 47
_symmetry_cell_setting 'orthorhombic'
loop_
_space_group_symop_operation_xyz
x,y,z
-x,-y,z
x,-y,-z
-x,y,-z
-x,-y,-z
x,y,-z
-x,y,z
x,-y,z
loop_
_atom_site_type_symbol
_atom_site_label
_atom_site_fract_x
_atom_site_fract_y
_atom_site_fract_z
Si Si1 0.179021 0.152970 0.669646
Si Si2 0.679427 0.245077 0.079040
Si Si3 0.323776 0.000000 0.417942
Si Si4 0.679569 0.598477 0.824472
Si Si5 0.176175 0.897879 0.175267
Si Si6 0.320609 0.500000 0.421841
Si Si7 0.320551 0.661407 0.672433
O O1 0.234515 0.127577 0.747531
O O2 0.236593 0.249848 0.649959
O O3 0.000000 0.146746 0.664091
O O4 0.249822 0.086983 0.614045
O O5 0.500000 0.244236 0.080448
O O6 0.741295 0.333585 0.117161
O O7 0.735751 0.157636 0.117516
O O8 0.741782 0.245480 0.000000
O O9 0.500000 0.000000 0.400495
O O10 0.291437 0.000000 0.500000
O O11 0.500000 0.594883 0.825308
O O12 0.744449 0.500000 0.839419
O O13 0.734976 0.632085 0.749113
O O14 0.000000 0.876954 0.168308
O O15 0.212108 0.000000 0.160781
O O16 0.500000 0.500000 0.423492
O O17 0.252520 0.500000 0.500000
O O18 0.264888 0.412818 0.381751
O O19 0.500000 0.676072 0.670237
#
# Coordination Sequence:
#
# PCOD8194591 Si02
#       7
#     8   8   4   8   8   4   8
#     4  11  22  38  60  87 117 150 188 233 284 339
#     4  10  21  35  53  82 115 144 181 234 290 336
#     4  11  25  43  63  89 118 149 188 233 281 336
#     4   9  16  29  52  80 108 143 188 233 279 334
#     4  10  21  38  58  80 107 145 190 228 272 336
#     4   9  18  32  53  83 116 146 183 236 285 328
#     4  10  18  32  56  83 110 148 193 235 282 337
#
# _framework density 18.790828000000001
#
# number of rings (size 3 to 8) (size 9 to 14) (size 15 to 20)
#    0.000    2.000    3.333    0.750    0.000    3.333 
#    0.000    5.417    0.000    2.000    0.000    1.167 
#    0.000    0.000    0.000    0.000    0.000    0.000 
#
# Total GULP energy -595304.313366 kJ/mol
# GULP energy per Si atom -12402.173195 kJ/mol
# Density = 1.874806 g / cm^3
# Si number density = 18.790828 Si / 1000 Ang^3
#
#
#
# Elastic Constant Matrix: (Units=GPa)
#
#
# Indices 1 2 3 4 5 6 
#
# 1 37.0753 37.5576 42.8328 0.0000 0.0000 0.0000
# 2 37.5576 169.3333 87.8448 0.0000 0.0000 0.0000
# 3 42.8328 87.8448 158.7342 0.0000 0.0000 0.0000
# 4 0.0000 0.0000 0.0000 36.3381 0.0000 0.0000
# 5 0.0000 0.0000 0.0000 0.0000 20.6259 0.0000
# 6 0.0000 0.0000 0.0000 0.0000 0.0000 -1.8984
#
#
#
# Elastic Compliance Matrix: (Units=1/GPa)
#
#
# Indices 1 2 3 4 5 6 
#
# 1 0.041793 -0.004796 -0.008623 0.000000 0.000000 0.000000
# 2 -0.004796 0.008834 -0.003595 0.000000 0.000000 0.000000
# 3 -0.008623 -0.003595 0.010616 0.000000 0.000000 0.000000
# 4 0.000000 0.000000 0.000000 0.027519 0.000000 0.000000
# 5 0.000000 0.000000 0.000000 0.000000 0.048483 0.000000
# 6 0.000000 0.000000 0.000000 0.000000 0.000000 -0.526761
#
#
# Mechanical properties :
#
#
# Convention : Reuss Voigt Hill
#
# Bulk Modulus (GPa) = 36.74428 77.95702 57.35065
# Shear Modulus (GPa) = -14.43351 24.14029 4.85339
#
# Velocity S-wave (km/s) = -2.77449 3.58814 1.60887
# Velocity P-wave (km/s) = 3.05501 7.66441 5.83422
#
# Compressibility (1/GPa) = 0.02721512
#
# Stress axis : x y z
#
# Youngs Moduli (GPa) = 23.92751 113.19811 94.19713
#
# Poissons Ratio (x) = 0.54291 0.81228
# Poissons Ratio (y) = 0.11476 0.33861
# Poissons Ratio (z) = 0.20633 0.40691
#
# Static dielectric constant tensor:
#      x y z
#    x 3.110670 0.000000 0.000000 
#    y 0.000000 3.793800 0.000000 
#    z 0.000000 0.000000 3.616410 
# 
# 
# High freq. dielectric constant tensor:
#      x y z
#    x 1.697330 0.000000 0.000000 
#    y 0.000000 1.748280 0.000000 
#    z 0.000000 0.000000 1.732160 
# 
# From -- ./inp_files/26485.got.cif
#   From: 2010.03.12/outbox.cif.g09.slc.cpg/sg47_14_cif.got.tgz:26485.got - 2010.04.14 03:12:58.
