data_PCOD8194635
_publ_section_title
;
Structure prediction by ZEFSAII (Michael W. Deem and Ramdas Pophale) SiO2 
 PCOD8194635
Probable space group: P M M M
;
_chemical_formula_sum "Si O2"
_cell_formula_units_Z 44
_cell_length_a 14.131289
_cell_length_b 15.498150
_cell_length_c 11.757586
_cell_angle_alpha 90.000000
_cell_angle_beta 90.000000
_cell_angle_gamma 90.000000
_cell_volume 2575.015231
_symmetry_space_group_name_H-M "P M M M"
_symmetry_group_IT_number 47
_symmetry_cell_setting 'orthorhombic'
loop_
_space_group_symop_operation_xyz
x,y,z
-x,-y,z
x,-y,-z
-x,y,-z
-x,-y,-z
x,y,-z
-x,y,z
x,-y,z
loop_
_atom_site_type_symbol
_atom_site_label
_atom_site_fract_x
_atom_site_fract_y
_atom_site_fract_z
Si Si1 0.103735 0.766875 0.253411
Si Si2 0.106986 0.278871 0.500000
Si Si3 0.610448 0.599041 0.276388
Si Si4 0.720003 0.398540 0.500000
Si Si5 0.000000 0.900590 0.867137
Si Si6 0.606597 0.904310 0.865007
Si Si7 0.711751 0.734243 0.134514
O O1 0.126380 0.778623 0.387489
O O2 0.094145 0.860368 0.191853
O O3 0.186447 0.714191 0.191184
O O4 0.000000 0.719703 0.238971
O O5 0.174897 0.361085 0.500000
O O6 0.000000 0.314510 0.500000
O O7 0.500000 0.609186 0.299047
O O8 0.636572 0.500000 0.247926
O O9 0.663504 0.632710 0.388929
O O10 0.640621 0.658302 0.170427
O O11 0.729666 0.500000 0.500000
O O12 0.000000 0.000000 0.841817
O O13 0.000000 0.878600 0.000000
O O14 0.500000 0.889061 0.818918
O O15 0.673826 0.827285 0.819900
O O16 0.642473 0.000000 0.825684
O O17 0.604971 0.900497 0.000000
O O18 0.721993 0.732739 0.000000
#
# Coordination Sequence:
#
# PCOD8194635 Si02
#       7
#     8   4   8   4   4   8   8
#     4   9  20  34  52  76 105 138 175 223 272 315
#     4  10  18  36  57  78 104 132 171 226 270 318
#     4  10  21  36  54  79 109 140 179 227 274 326
#     4  10  19  35  58  81 103 133 177 228 278 325
#     4   9  18  33  53  79 111 145 180 218 265 323
#     4   8  15  28  45  68  99 132 170 216 258 301
#     4  11  20  31  52  78 107 144 181 217 268 332
#
# _framework density 17.087278000000001
#
# number of rings (size 3 to 8) (size 9 to 14) (size 15 to 20)
#    0.545    1.909    1.818    1.909    0.000    3.455 
#    0.000    3.636    0.000    0.545    0.000    1.909 
#    0.000    4.364    0.000    0.000    0.000    0.000 
#
# Total GULP energy -545228.084738 kJ/mol
# GULP energy per Si atom -12391.547380 kJ/mol
# Density = 1.704839 g / cm^3
# Si number density = 17.087278 Si / 1000 Ang^3
#
#
#
# Elastic Constant Matrix: (Units=GPa)
#
#
# Indices 1 2 3 4 5 6 
#
# 1 91.1242 39.3924 42.1509 0.0000 0.0000 0.0000
# 2 39.3924 67.4084 37.4246 0.0000 0.0000 0.0000
# 3 42.1509 37.4246 92.3564 0.0000 0.0000 0.0000
# 4 0.0000 0.0000 0.0000 18.4896 0.0000 0.0000
# 5 0.0000 0.0000 0.0000 0.0000 21.4903 0.0000
# 6 0.0000 0.0000 0.0000 0.0000 0.0000 24.4392
#
#
#
# Elastic Compliance Matrix: (Units=1/GPa)
#
#
# Indices 1 2 3 4 5 6 
#
# 1 0.016037 -0.006849 -0.004544 0.000000 0.000000 0.000000
# 2 -0.006849 0.022066 -0.005816 0.000000 0.000000 0.000000
# 3 -0.004544 -0.005816 0.015258 0.000000 0.000000 0.000000
# 4 0.000000 0.000000 0.000000 0.054084 0.000000 0.000000
# 5 0.000000 0.000000 0.000000 0.000000 0.046533 0.000000
# 6 0.000000 0.000000 0.000000 0.000000 0.000000 0.040918
#
#
# Mechanical properties :
#
#
# Convention : Reuss Voigt Hill
#
# Bulk Modulus (GPa) = 52.78738 54.31389 53.55064
# Shear Modulus (GPa) = 21.21996 21.67857 21.44926
#
# Velocity S-wave (km/s) = 3.52782 3.56574 3.54683
# Velocity P-wave (km/s) = 6.89593 6.98626 6.94124
#
# Compressibility (1/GPa) = 0.01894392
#
# Stress axis : x y z
#
# Youngs Moduli (GPa) = 62.35772 45.31807 65.53927
#
# Poissons Ratio (x) = 0.31038 0.29779
# Poissons Ratio (y) = 0.42708 0.38117
# Poissons Ratio (z) = 0.28333 0.26357
#
# Static dielectric constant tensor:
#      x y z
#    x 3.304840 0.000000 0.000000 
#    y 0.000000 3.110810 0.000000 
#    z 0.000000 0.000000 3.139450 
# 
# 
# High freq. dielectric constant tensor:
#      x y z
#    x 1.666800 0.000000 0.000000 
#    y 0.000000 1.637200 0.000000 
#    z 0.000000 0.000000 1.648030 
# 
# From -- ./inp_files/6264.got.cif
#   From: 2010.03.12/outbox.cif.g09.slc.cpg/sg47_4_cif.got.tgz:6264.got - 2010.04.14 03:12:58.
