data_PCOD8194340
_publ_section_title
;
Structure prediction by ZEFSAII (Michael W. Deem and Ramdas Pophale) SiO2 
 PCOD8194340
Probable space group: P M M M
;
_chemical_formula_sum "Si O2"
_cell_formula_units_Z 52
_cell_length_a 22.899038
_cell_length_b 9.184981
_cell_length_c 14.250508
_cell_angle_alpha 90.000000
_cell_angle_beta 90.000000
_cell_angle_gamma 90.000000
_cell_volume 2997.269859
_symmetry_space_group_name_H-M "P M M M"
_symmetry_group_IT_number 47
_symmetry_cell_setting 'orthorhombic'
loop_
_space_group_symop_operation_xyz
x,y,z
-x,-y,z
x,-y,-z
-x,y,-z
-x,-y,-z
x,y,-z
-x,y,z
x,-y,z
loop_
_atom_site_type_symbol
_atom_site_label
_atom_site_fract_x
_atom_site_fract_y
_atom_site_fract_z
Si Si1 0.854833 0.830374 0.106064
Si Si2 0.000000 0.327239 0.605196
Si Si3 0.278115 0.827100 0.101950
Si Si4 0.214897 0.168841 0.391062
Si Si5 0.113230 0.673023 0.716754
Si Si6 0.333370 0.170598 0.709644
Si Si7 0.566558 0.330254 0.393842
O O1 0.788269 0.775624 0.116993
O O2 0.893325 0.736536 0.178220
O O3 0.860425 0.000000 0.131638
O O4 0.877052 0.801815 0.000000
O O5 0.942581 0.271270 0.658569
O O6 0.000000 0.500000 0.601145
O O7 0.000000 0.261980 0.500000
O O8 0.318244 0.767976 0.186262
O O9 0.277813 0.000000 0.103329
O O10 0.301161 0.771215 0.000000
O O11 0.207739 0.205889 0.500000
O O12 0.171067 0.267251 0.332481
O O13 0.280669 0.208001 0.360856
O O14 0.201636 0.000000 0.369205
O O15 0.116454 0.500000 0.721235
O O16 0.392236 0.246520 0.677459
O O17 0.345415 0.000000 0.712432
O O18 0.578013 0.276168 0.500000
O O19 0.500000 0.296957 0.365020
O O20 0.580015 0.500000 0.386416
#
# Coordination Sequence:
#
# PCOD8194340 Si02
#       7
#     8   4   8   8   8   8   8
#     4   9  17  33  56  77 102 136 167 201 253 312
#     4   9  20  38  54  69  96 138 181 213 250 305
#     4   8  14  27  49  74 100 131 162 194 241 299
#     4  10  20  33  49  73 106 135 162 206 261 311
#     4  11  21  34  54  76 100 132 172 218 258 300
#     4  10  18  30  51  77 102 127 164 209 249 293
#     4   9  19  35  51  68  97 137 174 207 247 297
#
# _framework density 17.349122000000001
#
# number of rings (size 3 to 8) (size 9 to 14) (size 15 to 20)
#    0.000    2.538    1.538    2.769    0.000    3.077 
#    0.000    2.692    0.000    6.000    0.000    3.231 
#    0.000    0.000    0.000    0.000    0.000    0.000 
#
# Total GULP energy -644704.523625 kJ/mol
# GULP energy per Si atom -12398.163916 kJ/mol
# Density = 1.730963 g / cm^3
# Si number density = 17.349122 Si / 1000 Ang^3
#
#
#
# Elastic Constant Matrix: (Units=GPa)
#
#
# Indices 1 2 3 4 5 6 
#
# 1 84.2691 35.3067 57.3074 0.0000 0.0000 0.0000
# 2 35.3067 46.8599 43.7491 0.0000 0.0000 0.0000
# 3 57.3074 43.7491 145.7213 0.0000 0.0000 0.0000
# 4 0.0000 0.0000 0.0000 25.8963 0.0000 0.0000
# 5 0.0000 0.0000 0.0000 0.0000 31.5892 0.0000
# 6 0.0000 0.0000 0.0000 0.0000 0.0000 20.5322
#
#
#
# Elastic Compliance Matrix: (Units=1/GPa)
#
#
# Indices 1 2 3 4 5 6 
#
# 1 0.019225 -0.010319 -0.004463 0.000000 0.000000 0.000000
# 2 -0.010319 0.035190 -0.006507 0.000000 0.000000 0.000000
# 3 -0.004463 -0.006507 0.010571 0.000000 0.000000 0.000000
# 4 0.000000 0.000000 0.000000 0.038616 0.000000 0.000000
# 5 0.000000 0.000000 0.000000 0.000000 0.031656 0.000000
# 6 0.000000 0.000000 0.000000 0.000000 0.000000 0.048704
#
#
# Mechanical properties :
#
#
# Convention : Reuss Voigt Hill
#
# Bulk Modulus (GPa) = 44.62432 61.06408 52.84420
# Shear Modulus (GPa) = 21.36686 24.96932 23.16809
#
# Velocity S-wave (km/s) = 3.51320 3.79783 3.65828
# Velocity P-wave (km/s) = 6.49876 7.38275 6.95482
#
# Compressibility (1/GPa) = 0.02240930
#
# Stress axis : x y z
#
# Youngs Moduli (GPa) = 52.01615 28.41744 94.59926
#
# Poissons Ratio (x) = 0.29323 0.42216
# Poissons Ratio (y) = 0.53674 0.61554
# Poissons Ratio (z) = 0.23213 0.18491
#
# Static dielectric constant tensor:
#      x y z
#    x 3.095570 0.000000 0.000000 
#    y 0.000000 2.943790 0.000000 
#    z 0.000000 0.000000 3.656320 
# 
# 
# High freq. dielectric constant tensor:
#      x y z
#    x 1.652200 0.000000 0.000000 
#    y 0.000000 1.644060 0.000000 
#    z 0.000000 0.000000 1.685450 
# 
# From -- ./inp_files/21390.got.cif
#   From: 2010.03.12/outbox.cif.g09.slc.cpg/sg47_11_cif.got.tgz:21390.got - 2010.04.14 03:12:58.
