data_PCOD8194728
_publ_section_title
;
Structure prediction by ZEFSAII (Michael W. Deem and Ramdas Pophale) SiO2 
 PCOD8194728
Probable space group: P M M M
;
_chemical_formula_sum "Si O2"
_cell_formula_units_Z 52
_cell_length_a 26.442437
_cell_length_b 9.215787
_cell_length_c 13.587590
_cell_angle_alpha 90.000000
_cell_angle_beta 90.000000
_cell_angle_gamma 90.000000
_cell_volume 3311.130827
_symmetry_space_group_name_H-M "P M M M"
_symmetry_group_IT_number 47
_symmetry_cell_setting 'orthorhombic'
loop_
_space_group_symop_operation_xyz
x,y,z
-x,-y,z
x,-y,-z
-x,y,-z
-x,-y,-z
x,y,-z
-x,y,z
x,-y,z
loop_
_atom_site_type_symbol
_atom_site_label
_atom_site_fract_x
_atom_site_fract_y
_atom_site_fract_z
Si Si1 0.500000 0.842096 0.616091
Si Si2 0.763126 0.665936 0.889727
Si Si3 0.790933 0.834216 0.610313
Si Si4 0.390591 0.172950 0.613087
Si Si5 0.852762 0.831002 0.202436
Si Si6 0.057792 0.668680 0.887234
Si Si7 0.701281 0.669591 0.702111
O O1 0.500000 0.864719 0.500000
O O2 0.553339 0.765255 0.643995
O O3 0.500000 0.000000 0.666941
O O4 0.780723 0.500000 0.875030
O O5 0.811770 0.765242 0.871986
O O6 0.718046 0.703155 0.814228
O O7 0.742750 0.693487 0.000000
O O8 0.811405 0.808722 0.500000
O O9 0.836345 0.797901 0.685190
O O10 0.743265 0.730725 0.627810
O O11 0.772550 0.000000 0.625463
O O12 0.378110 0.213628 0.500000
O O13 0.351506 0.250322 0.685200
O O14 0.388288 0.000000 0.626973
O O15 0.907213 0.760037 0.185717
O O16 0.856882 0.000000 0.180344
O O17 0.068797 0.500000 0.870668
O O18 0.000000 0.705873 0.861045
O O19 0.069377 0.711267 0.000000
O O20 0.694572 0.500000 0.681652
#
# Coordination Sequence:
#
# PCOD8194728 Si02
#       7
#     4   8   8   8   8   8   8
#     4   7  12  24  41  59  78 107 146 174 195 241
#     4   9  18  32  46  59  82 117 147 168 201 254
#     4   9  18  32  46  60  84 118 148 170 200 248
#     4   9  16  27  43  61  84 114 143 170 204 249
#     4  10  19  29  45  69  90 108 137 178 215 243
#     4   9  18  32  48  65  87 116 144 167 201 255
#     4  10  19  28  41  64  88 109 139 178 213 244
#
# _framework density 15.704604
#
# number of rings (size 3 to 8) (size 9 to 14) (size 15 to 20)
#    0.000    2.846    0.000    3.231    0.000    6.462 
#    0.000    1.154    0.000    1.846    0.000    3.769 
#    0.000    4.308    0.000    0.000    0.000    0.000 
#
# Total GULP energy -644587.525015 kJ/mol
# GULP energy per Si atom -12395.913943 kJ/mol
# Density = 1.566886 g / cm^3
# Si number density = 15.704604 Si / 1000 Ang^3
#
#
#
# Elastic Constant Matrix: (Units=GPa)
#
#
# Indices 1 2 3 4 5 6 
#
# 1 131.2276 57.3526 57.3527 0.0000 0.0000 0.0000
# 2 57.3526 63.5698 37.7369 0.0000 0.0000 0.0000
# 3 57.3527 37.7369 92.0718 0.0000 0.0000 0.0000
# 4 0.0000 0.0000 0.0000 21.6767 0.0000 0.0000
# 5 0.0000 0.0000 0.0000 0.0000 21.7710 0.0000
# 6 0.0000 0.0000 0.0000 0.0000 0.0000 19.6440
#
#
#
# Elastic Compliance Matrix: (Units=1/GPa)
#
#
# Indices 1 2 3 4 5 6 
#
# 1 0.013949 -0.009815 -0.004666 0.000000 0.000000 0.000000
# 2 -0.009815 0.027695 -0.005237 0.000000 0.000000 0.000000
# 3 -0.004666 -0.005237 0.015914 0.000000 0.000000 0.000000
# 4 0.000000 0.000000 0.000000 0.046132 0.000000 0.000000
# 5 0.000000 0.000000 0.000000 0.000000 0.045933 0.000000
# 6 0.000000 0.000000 0.000000 0.000000 0.000000 0.050906
#
#
# Mechanical properties :
#
#
# Convention : Reuss Voigt Hill
#
# Bulk Modulus (GPa) = 55.18366 65.75039 60.46702
# Shear Modulus (GPa) = 20.32456 21.58014 20.95235
#
# Velocity S-wave (km/s) = 3.60137 3.71094 3.65657
# Velocity P-wave (km/s) = 7.24624 7.76655 7.51090
#
# Compressibility (1/GPa) = 0.01812131
#
# Stress axis : x y z
#
# Youngs Moduli (GPa) = 71.68748 36.10784 62.83603
#
# Poissons Ratio (x) = 0.35440 0.29322
# Poissons Ratio (y) = 0.70361 0.32909
# Poissons Ratio (z) = 0.33453 0.18910
#
# Static dielectric constant tensor:
#      x y z
#    x 3.040760 0.000000 0.000000 
#    y 0.000000 2.951410 0.000000 
#    z 0.000000 0.000000 2.900940 
# 
# 
# High freq. dielectric constant tensor:
#      x y z
#    x 1.597040 0.000000 0.000000 
#    y 0.000000 1.600230 0.000000 
#    z 0.000000 0.000000 1.581980 
# 
# From -- ./inp_files/13388.got.cif
#   From: 2010.03.12/outbox.cif.g09.slc.cpg/sg47_7_cif.got.tgz:13388.got - 2010.04.14 03:12:58.
