data_PCOD8194940
_publ_section_title
;
Structure prediction by ZEFSAII (Michael W. Deem and Ramdas Pophale) SiO2 
 PCOD8194940
Probable space group: P M M M
;
_chemical_formula_sum "Si O2"
_cell_formula_units_Z 60
_cell_length_a 8.908183
_cell_length_b 20.929272
_cell_length_c 18.638844
_cell_angle_alpha 90.000000
_cell_angle_beta 90.000000
_cell_angle_gamma 90.000000
_cell_volume 3475.059346
_symmetry_space_group_name_H-M "P M M M"
_symmetry_group_IT_number 47
_symmetry_cell_setting 'orthorhombic'
loop_
_space_group_symop_operation_xyz
x,y,z
-x,-y,z
x,-y,-z
-x,y,-z
-x,-y,-z
x,y,-z
-x,y,z
x,-y,z
loop_
_atom_site_type_symbol
_atom_site_label
_atom_site_fract_x
_atom_site_fract_y
_atom_site_fract_z
Si Si1 0.671725 0.754372 0.582166
Si Si2 0.322060 0.000000 0.582411
Si Si3 0.327334 0.766548 0.920002
Si Si4 0.172700 0.631563 0.918659
Si Si5 0.672647 0.573587 0.788647
Si Si6 0.825911 0.319659 0.299655
Si Si7 0.171628 0.806954 0.211672
Si Si8 0.176900 0.875074 0.354878
O O1 0.685085 0.733649 0.500000
O O2 0.500000 0.768525 0.603938
O O3 0.735243 0.695504 0.628028
O O4 0.768333 0.817986 0.594512
O O5 0.261043 0.938914 0.623734
O O6 0.500000 0.000000 0.585740
O O7 0.266040 0.000000 0.500000
O O8 0.500000 0.748915 0.906911
O O9 0.229298 0.703462 0.910634
O O10 0.272330 0.817064 0.859738
O O11 0.304218 0.795573 0.000000
O O12 0.266963 0.584108 0.869041
O O13 0.000000 0.630542 0.893896
O O14 0.191485 0.607212 0.000000
O O15 0.500000 0.594991 0.785446
O O16 0.692402 0.500000 0.767696
O O17 0.767629 0.614108 0.732014
O O18 0.797901 0.263729 0.242249
O O19 0.000000 0.325472 0.319405
O O20 0.215729 0.858965 0.271939
O O21 0.000000 0.815743 0.189015
O O22 0.000000 0.883366 0.365975
#
# Coordination Sequence:
#
# PCOD8194940 Si02
#       8
#     8   4   8   8   8   8   8   8
#     4  10  20  34  54  80 108 136 167 206 253 302
#     4  11  23  37  53  77 112 149 182 213 251 302
#     4  10  19  29  46  73 102 133 168 209 259 309
#     4  10  20  33  49  69  96 131 169 209 254 305
#     4  11  23  36  51  71  96 129 168 210 258 312
#     4  10  20  34  53  75  99 129 166 209 256 306
#     4   9  18  32  50  74 101 131 170 213 256 302
#     4  10  21  35  53  78 108 143 181 216 250 295
#
# _framework density 17.265892000000001
#
# number of rings (size 3 to 8) (size 9 to 14) (size 15 to 20)
#    0.000    1.933    1.333    3.800    0.000    8.800 
#    0.000    1.333    0.000    0.400    0.000    3.267 
#    0.000    3.733    0.000    0.000    0.000    0.000 
#
# Total GULP energy -744118.932660 kJ/mol
# GULP energy per Si atom -12401.982211 kJ/mol
# Density = 1.722659 g / cm^3
# Si number density = 17.265892 Si / 1000 Ang^3
#
#
#
# Elastic Constant Matrix: (Units=GPa)
#
#
# Indices 1 2 3 4 5 6 
#
# 1 80.7421 29.9556 50.4763 0.0000 0.0000 0.0000
# 2 29.9556 75.0306 45.2114 0.0000 0.0000 0.0000
# 3 50.4763 45.2114 108.6783 0.0000 0.0000 0.0000
# 4 0.0000 0.0000 0.0000 24.4942 0.0000 0.0000
# 5 0.0000 0.0000 0.0000 0.0000 32.5818 0.0000
# 6 0.0000 0.0000 0.0000 0.0000 0.0000 26.3940
#
#
#
# Elastic Compliance Matrix: (Units=1/GPa)
#
#
# Indices 1 2 3 4 5 6 
#
# 1 0.017898 -0.002851 -0.007127 0.000000 0.000000 0.000000
# 2 -0.002851 0.018241 -0.006264 0.000000 0.000000 0.000000
# 3 -0.007127 -0.006264 0.015117 0.000000 0.000000 0.000000
# 4 0.000000 0.000000 0.000000 0.040826 0.000000 0.000000
# 5 0.000000 0.000000 0.000000 0.000000 0.030692 0.000000
# 6 0.000000 0.000000 0.000000 0.000000 0.000000 0.037887
#
#
# Mechanical properties :
#
#
# Convention : Reuss Voigt Hill
#
# Bulk Modulus (GPa) = 53.27034 57.30419 55.28726
# Shear Modulus (GPa) = 25.07473 25.94784 25.51129
#
# Velocity S-wave (km/s) = 3.81500 3.88085 3.84807
# Velocity P-wave (km/s) = 7.09405 7.30360 7.19959
#
# Compressibility (1/GPa) = 0.01877217
#
# Stress axis : x y z
#
# Youngs Moduli (GPa) = 55.87110 54.82201 66.14867
#
# Poissons Ratio (x) = 0.15632 0.47143
# Poissons Ratio (y) = 0.15931 0.41436
# Poissons Ratio (z) = 0.39818 0.34341
#
# Static dielectric constant tensor:
#      x y z
#    x 3.391320 0.000000 0.000000 
#    y 0.000000 2.956080 0.000000 
#    z 0.000000 0.000000 3.386620 
# 
# 
# High freq. dielectric constant tensor:
#      x y z
#    x 1.686060 0.000000 0.000000 
#    y 0.000000 1.627980 0.000000 
#    z 0.000000 0.000000 1.670990 
# 
# From -- ./inp_files/27006.got.cif
#   From: 2010.03.12/outbox.cif.g09.slc.cpg/sg47_14_cif.got.tgz:27006.got - 2010.04.14 03:12:58.
