data_PCOD8194497
_publ_section_title
;
Structure prediction by ZEFSAII (Michael W. Deem and Ramdas Pophale) SiO2 
 PCOD8194497
Probable space group: P M M M
;
_chemical_formula_sum "Si O2"
_cell_formula_units_Z 44
_cell_length_a 14.154186
_cell_length_b 18.135320
_cell_length_c 9.560504
_cell_angle_alpha 90.000000
_cell_angle_beta 90.000000
_cell_angle_gamma 90.000000
_cell_volume 2454.092392
_symmetry_space_group_name_H-M "P M M M"
_symmetry_group_IT_number 47
_symmetry_cell_setting 'orthorhombic'
loop_
_space_group_symop_operation_xyz
x,y,z
-x,-y,z
x,-y,-z
-x,y,-z
-x,-y,-z
x,y,-z
-x,y,z
x,-y,z
loop_
_atom_site_type_symbol
_atom_site_label
_atom_site_fract_x
_atom_site_fract_y
_atom_site_fract_z
Si Si1 0.894050 0.500000 0.665720
Si Si2 0.768822 0.082805 0.661658
Si Si3 0.894800 0.216059 0.334079
Si Si4 0.778351 0.642119 0.334077
Si Si5 0.392471 0.143104 0.840096
Si Si6 0.607382 0.686430 0.162120
O O1 0.901226 0.500000 0.500000
O O2 0.838674 0.427783 0.716858
O O3 0.000000 0.500000 0.729460
O O4 0.746925 0.098795 0.500000
O O5 0.846689 0.140323 0.718591
O O6 0.671292 0.091918 0.743516
O O7 0.807824 0.000000 0.683885
O O8 0.901673 0.217511 0.500000
O O9 0.834052 0.285474 0.281984
O O10 0.000000 0.220468 0.269365
O O11 0.761794 0.641975 0.500000
O O12 0.676965 0.638523 0.258486
O O13 0.500000 0.117856 0.817966
O O14 0.380473 0.228174 0.797242
O O15 0.361732 0.131543 0.000000
O O16 0.500000 0.661028 0.192276
O O17 0.632327 0.673680 0.000000
#
# Coordination Sequence:
#
# PCOD8194497 Si02
#       6
#     4   8   8   8   8   8
#     4   9  18  32  52  81 112 136 163 207 256 295
#     4  10  20  32  47  72 103 130 162 208 254 292
#     4   9  17  30  49  72  97 128 166 203 243 295
#     4  10  18  31  54  80 103 131 167 206 247 293
#     4   9  18  33  52  72  96 130 169 206 248 300
#     4   9  18  33  53  76 102 133 168 206 250 299
#
# _framework density 17.929236
#
# number of rings (size 3 to 8) (size 9 to 14) (size 15 to 20)
#    0.000    2.636    1.818    1.636    0.000    4.000 
#    0.000    6.364    0.000    7.091    0.000    1.273 
#    0.000    0.000    0.000    0.000    0.000    0.000 
#
# Total GULP energy -545589.449070 kJ/mol
# GULP energy per Si atom -12399.760206 kJ/mol
# Density = 1.788843 g / cm^3
# Si number density = 17.929236 Si / 1000 Ang^3
#
#
#
# Elastic Constant Matrix: (Units=GPa)
#
#
# Indices 1 2 3 4 5 6 
#
# 1 134.6774 65.9371 43.8121 0.0000 0.0000 0.0000
# 2 65.9371 119.2289 30.8030 0.0000 0.0000 0.0000
# 3 43.8121 30.8030 39.0316 0.0000 0.0000 0.0000
# 4 0.0000 0.0000 0.0000 16.7280 0.0000 0.0000
# 5 0.0000 0.0000 0.0000 0.0000 6.1279 0.0000
# 6 0.0000 0.0000 0.0000 0.0000 0.0000 26.9896
#
#
#
# Elastic Compliance Matrix: (Units=1/GPa)
#
#
# Indices 1 2 3 4 5 6 
#
# 1 0.013309 -0.004397 -0.011469 0.000000 0.000000 0.000000
# 2 -0.004397 0.011988 -0.004525 0.000000 0.000000 0.000000
# 3 -0.011469 -0.004525 0.042065 0.000000 0.000000 0.000000
# 4 0.000000 0.000000 0.000000 0.059780 0.000000 0.000000
# 5 0.000000 0.000000 0.000000 0.000000 0.163189 0.000000
# 6 0.000000 0.000000 0.000000 0.000000 0.000000 0.037051
#
#
# Mechanical properties :
#
#
# Convention : Reuss Voigt Hill
#
# Bulk Modulus (GPa) = 37.62254 63.78247 50.70251
# Shear Modulus (GPa) = 13.26177 20.12813 16.69495
#
# Velocity S-wave (km/s) = 2.72264 3.35422 3.05480
# Velocity P-wave (km/s) = 5.55996 7.11708 6.38616
#
# Compressibility (1/GPa) = 0.02657981
#
# Stress axis : x y z
#
# Youngs Moduli (GPa) = 75.13744 83.41621 23.77290
#
# Poissons Ratio (x) = 0.36680 0.27265
# Poissons Ratio (y) = 0.33040 0.10757
# Poissons Ratio (z) = 0.86173 0.37745
#
# Static dielectric constant tensor:
#      x y z
#    x 3.428400 0.000000 0.000000 
#    y 0.000000 3.301760 0.000000 
#    z 0.000000 0.000000 2.941180 
# 
# 
# High freq. dielectric constant tensor:
#      x y z
#    x 1.700050 0.000000 0.000000 
#    y 0.000000 1.689100 0.000000 
#    z 0.000000 0.000000 1.657460 
# 
# From -- ./inp_files/6129.got.cif
#   From: 2010.03.12/outbox.cif.g09.slc.cpg/sg47_4_cif.got.tgz:6129.got - 2010.04.14 03:12:58.
