data_PCOD8194126
_publ_section_title
;
Structure prediction by ZEFSAII (Michael W. Deem and Ramdas Pophale) SiO2 
 PCOD8194126
Probable space group: P M M M
;
_chemical_formula_sum "Si O2"
_cell_formula_units_Z 52
_cell_length_a 8.930485
_cell_length_b 26.337574
_cell_length_c 12.704168
_cell_angle_alpha 90.000000
_cell_angle_beta 90.000000
_cell_angle_gamma 90.000000
_cell_volume 2988.113175
_symmetry_space_group_name_H-M "P M M M"
_symmetry_group_IT_number 47
_symmetry_cell_setting 'orthorhombic'
loop_
_space_group_symop_operation_xyz
x,y,z
-x,-y,z
x,-y,-z
-x,y,-z
-x,-y,-z
x,y,-z
-x,y,z
x,-y,z
loop_
_atom_site_type_symbol
_atom_site_label
_atom_site_fract_x
_atom_site_fract_y
_atom_site_fract_z
Si Si1 0.676187 0.222368 0.617818
Si Si2 0.176856 0.500000 0.117306
Si Si3 0.177122 0.608478 0.191721
Si Si4 0.175519 0.159441 0.796422
Si Si5 0.174681 0.775139 0.000000
Si Si6 0.177837 0.055348 0.118161
Si Si7 0.322372 0.667537 0.000000
Si Si8 0.325862 0.337451 0.378155
O O1 0.732954 0.210803 0.500000
O O2 0.500000 0.216481 0.624230
O O3 0.749766 0.181979 0.693729
O O4 0.721046 0.279753 0.649063
O O5 0.229663 0.550130 0.179116
O O6 0.000000 0.500000 0.106971
O O7 0.247464 0.500000 0.000000
O O8 0.257240 0.642129 0.104234
O O9 0.225681 0.625530 0.307768
O O10 0.000000 0.614706 0.177682
O O11 0.238187 0.101901 0.811195
O O12 0.000000 0.159362 0.777412
O O13 0.217264 0.192147 0.898308
O O14 0.278215 0.726125 0.000000
O O15 0.000000 0.759664 0.000000
O O16 0.000000 0.059272 0.112413
O O17 0.226007 0.000000 0.164737
O O18 0.241863 0.060905 0.000000
O O19 0.500000 0.662186 0.000000
O O20 0.292678 0.349634 0.500000
O O21 0.500000 0.346201 0.352569
#
# Coordination Sequence:
#
# PCOD8194126 Si02
#       8
#     8   4   8   8   4   8   4   8
#     4   9  19  35  52  69  95 135 174 204 244 299
#     4   9  18  36  57  76 103 137 170 205 253 304
#     4  11  21  36  58  80 102 133 172 214 254 298
#     4  10  18  29  48  75 103 127 161 209 251 293
#     4  10  20  32  46  73 108 134 157 199 254 303
#     4   8  13  24  44  69  98 132 164 196 244 302
#     4  12  24  35  49  73 106 139 172 205 250 311
#     4   9  19  37  57  77 105 138 171 209 254 306
#
# _framework density 17.402286
#
# number of rings (size 3 to 8) (size 9 to 14) (size 15 to 20)
#    0.000    2.385    1.538    3.462    0.000    4.308 
#    0.000    3.846    0.000    3.231    0.000    4.308 
#    0.000    0.000    0.000    0.000    0.000    0.000 
#
# Total GULP energy -644672.657532 kJ/mol
# GULP energy per Si atom -12397.551106 kJ/mol
# Density = 1.736268 g / cm^3
# Si number density = 17.402286 Si / 1000 Ang^3
#
#
#
# Elastic Constant Matrix: (Units=GPa)
#
#
# Indices 1 2 3 4 5 6 
#
# 1 48.8647 43.7931 36.5775 0.0000 0.0000 0.0000
# 2 43.7931 158.1218 80.8121 0.0000 0.0000 0.0000
# 3 36.5775 80.8121 110.1851 0.0000 0.0000 0.0000
# 4 0.0000 0.0000 0.0000 12.5267 0.0000 0.0000
# 5 0.0000 0.0000 0.0000 0.0000 25.6772 0.0000
# 6 0.0000 0.0000 0.0000 0.0000 0.0000 7.9878
#
#
#
# Elastic Compliance Matrix: (Units=1/GPa)
#
#
# Indices 1 2 3 4 5 6 
#
# 1 0.029577 -0.005076 -0.006095 0.000000 0.000000 0.000000
# 2 -0.005076 0.010987 -0.006373 0.000000 0.000000 0.000000
# 3 -0.006095 -0.006373 0.015773 0.000000 0.000000 0.000000
# 4 0.000000 0.000000 0.000000 0.079829 0.000000 0.000000
# 5 0.000000 0.000000 0.000000 0.000000 0.038945 0.000000
# 6 0.000000 0.000000 0.000000 0.000000 0.000000 0.125191
#
#
# Mechanical properties :
#
#
# Convention : Reuss Voigt Hill
#
# Bulk Modulus (GPa) = 47.06391 71.05965 59.06178
# Shear Modulus (GPa) = 14.59959 19.63761 17.11860
#
# Velocity S-wave (km/s) = 2.89960 3.36288 3.13980
# Velocity P-wave (km/s) = 6.18980 7.48337 6.86711
#
# Compressibility (1/GPa) = 0.02124770
#
# Stress axis : x y z
#
# Youngs Moduli (GPa) = 33.81031 91.01370 63.39831
#
# Poissons Ratio (x) = 0.46202 0.38643
# Poissons Ratio (y) = 0.17163 0.40405
# Poissons Ratio (z) = 0.20608 0.58005
#
# Static dielectric constant tensor:
#      x y z
#    x 2.966990 0.000000 0.000000 
#    y 0.000000 3.563170 0.000000 
#    z 0.000000 0.000000 3.496120 
# 
# 
# High freq. dielectric constant tensor:
#      x y z
#    x 1.648210 0.000000 0.000000 
#    y 0.000000 1.680130 0.000000 
#    z 0.000000 0.000000 1.665400 
# 
# From -- ./inp_files/15570.got.cif
#   From: 2010.03.12/outbox.cif.g09.slc.cpg/sg47_8_cif.got.tgz:15570.got - 2010.04.14 03:12:58.
