data_PCOD8194265
_publ_section_title
;
Structure prediction by ZEFSAII (Michael W. Deem and Ramdas Pophale) SiO2 
 PCOD8194265
Probable space group: P M M M
;
_chemical_formula_sum "Si O2"
_cell_formula_units_Z 64
_cell_length_a 19.831889
_cell_length_b 9.408827
_cell_length_c 20.690891
_cell_angle_alpha 90.000000
_cell_angle_beta 90.000000
_cell_angle_gamma 90.000000
_cell_volume 3860.812930
_symmetry_space_group_name_H-M "P M M M"
_symmetry_group_IT_number 47
_symmetry_cell_setting 'orthorhombic'
loop_
_space_group_symop_operation_xyz
x,y,z
-x,-y,z
x,-y,-z
-x,y,-z
-x,-y,-z
x,y,-z
-x,y,z
x,-y,z
loop_
_atom_site_type_symbol
_atom_site_label
_atom_site_fract_x
_atom_site_fract_y
_atom_site_fract_z
Si Si1 0.160938 0.664468 0.928286
Si Si2 0.715614 0.160749 0.884631
Si Si3 0.428246 0.838586 0.127449
Si Si4 0.075551 0.831289 0.428837
Si Si5 0.301440 0.836831 0.733388
Si Si6 0.844801 0.167937 0.694295
Si Si7 0.574073 0.334603 0.256574
Si Si8 0.922148 0.667241 0.194479
O O1 0.176381 0.500000 0.919106
O O2 0.232565 0.739778 0.920801
O O3 0.106605 0.714895 0.875412
O O4 0.131940 0.696834 0.000000
O O5 0.639852 0.187533 0.914312
O O6 0.713122 0.195182 0.808487
O O7 0.739564 0.000000 0.896550
O O8 0.500000 0.823275 0.088577
O O9 0.429554 0.727085 0.184961
O O10 0.422533 0.000000 0.155857
O O11 0.098403 0.776105 0.500000
O O12 0.126047 0.775086 0.373835
O O13 0.000000 0.775933 0.413546
O O14 0.075598 0.000000 0.428880
O O15 0.234306 0.794319 0.694160
O O16 0.364638 0.744704 0.706298
O O17 0.320063 0.000000 0.721811
O O18 0.882505 0.247678 0.751459
O O19 0.856474 0.000000 0.704277
O O20 0.500000 0.311461 0.289784
O O21 0.591869 0.500000 0.252903
O O22 0.912473 0.500000 0.206244
O O23 0.000000 0.711291 0.196590
#
# Coordination Sequence:
#
# PCOD8194265 Si02
#       8
#     8   8   8   8   8   8   8   8
#     4  10  21  35  49  64  83 112 149 188 232 280
#     4   9  16  28  45  65  87 111 142 181 225 271
#     4   8  14  25  41  61  86 114 142 175 217 264
#     4   8  14  25  43  69  98 126 156 188 221 259
#     4   9  17  27  41  63  90 119 149 182 223 268
#     4  10  18  30  49  72  97 124 155 188 223 266
#     4   9  16  24  36  58  87 118 151 184 220 263
#     4  10  21  35  50  69  91 115 146 187 235 281
#
# _framework density 16.576820000000001
#
# number of rings (size 3 to 8) (size 9 to 14) (size 15 to 20)
#    0.000    2.875    1.250    1.875    0.000    4.500 
#    0.000    1.250    0.000    0.750    0.000    6.125 
#    0.000    0.500    0.000    6.250    0.000    1.125 
#
# Total GULP energy -792921.142466 kJ/mol
# GULP energy per Si atom -12389.392851 kJ/mol
# Density = 1.653909 g / cm^3
# Si number density = 16.576820 Si / 1000 Ang^3
#
#
#
# Elastic Constant Matrix: (Units=GPa)
#
#
# Indices 1 2 3 4 5 6 
#
# 1 134.4986 52.4675 51.9870 0.0000 0.0000 0.0000
# 2 52.4675 51.5674 30.7608 0.0000 0.0000 0.0000
# 3 51.9870 30.7608 80.5991 0.0000 0.0000 0.0000
# 4 0.0000 0.0000 0.0000 9.0692 0.0000 0.0000
# 5 0.0000 0.0000 0.0000 0.0000 14.9841 0.0000
# 6 0.0000 0.0000 0.0000 0.0000 0.0000 25.8423
#
#
#
# Elastic Compliance Matrix: (Units=1/GPa)
#
#
# Indices 1 2 3 4 5 6 
#
# 1 0.013470 -0.011035 -0.004477 0.000000 0.000000 0.000000
# 2 -0.011035 0.034148 -0.005915 0.000000 0.000000 0.000000
# 3 -0.004477 -0.005915 0.017552 0.000000 0.000000 0.000000
# 4 0.000000 0.000000 0.000000 0.110263 0.000000 0.000000
# 5 0.000000 0.000000 0.000000 0.000000 0.066738 0.000000
# 6 0.000000 0.000000 0.000000 0.000000 0.000000 0.038696
#
#
# Mechanical properties :
#
#
# Convention : Reuss Voigt Hill
#
# Bulk Modulus (GPa) = 44.80944 59.67731 52.24337
# Shear Modulus (GPa) = 15.09850 18.74245 16.92047
#
# Velocity S-wave (km/s) = 3.02125 3.36615 3.19835
# Velocity P-wave (km/s) = 6.26584 7.15448 6.72485
#
# Compressibility (1/GPa) = 0.02231673
#
# Stress axis : x y z
#
# Youngs Moduli (GPa) = 74.23916 29.28452 56.97272
#
# Poissons Ratio (x) = 0.32314 0.25506
# Poissons Ratio (y) = 0.81920 0.33701
# Poissons Ratio (z) = 0.33236 0.17322
#
# Static dielectric constant tensor:
#      x y z
#    x 3.644550 0.000000 0.000000 
#    y 0.000000 3.000620 0.000000 
#    z 0.000000 0.000000 2.961160 
# 
# 
# High freq. dielectric constant tensor:
#      x y z
#    x 1.656430 0.000000 0.000000 
#    y 0.000000 1.625410 0.000000 
#    z 0.000000 0.000000 1.587980 
# 
# From -- ./inp_files/30146.got.cif
#   From: 2010.03.12/outbox.cif.g09.slc.cpg/sg47_16_cif.got.tgz:30146.got - 2010.04.14 03:12:58.
