data_PCOD8194909
_publ_section_title
;
Structure prediction by ZEFSAII (Michael W. Deem and Ramdas Pophale) SiO2 
 PCOD8194909
Probable space group: P M M M
;
_chemical_formula_sum "Si O2"
_cell_formula_units_Z 64
_cell_length_a 19.695409
_cell_length_b 9.205829
_cell_length_c 20.202211
_cell_angle_alpha 90.000000
_cell_angle_beta 90.000000
_cell_angle_gamma 90.000000
_cell_volume 3662.914742
_symmetry_space_group_name_H-M "P M M M"
_symmetry_group_IT_number 47
_symmetry_cell_setting 'orthorhombic'
loop_
_space_group_symop_operation_xyz
x,y,z
-x,-y,z
x,-y,-z
-x,y,-z
-x,-y,-z
x,y,-z
-x,y,z
x,-y,z
loop_
_atom_site_type_symbol
_atom_site_label
_atom_site_fract_x
_atom_site_fract_y
_atom_site_fract_z
Si Si1 0.831987 0.332894 0.925543
Si Si2 0.921848 0.834141 0.423081
Si Si3 0.705356 0.169238 0.277223
Si Si4 0.574833 0.336697 0.721538
Si Si5 0.162579 0.672558 0.682541
Si Si6 0.703863 0.831701 0.878187
Si Si7 0.924347 0.327684 0.192514
Si Si8 0.574476 0.337118 0.878747
O O1 0.815008 0.500000 0.909017
O O2 0.763438 0.243314 0.918533
O O3 0.888993 0.273410 0.875151
O O4 0.860289 0.315155 0.000000
O O5 0.906130 0.811268 0.500000
O O6 0.874969 0.722781 0.383618
O O7 0.000000 0.797191 0.407674
O O8 0.905875 0.000000 0.402329
O O9 0.632946 0.227619 0.304362
O O10 0.763761 0.254831 0.315661
O O11 0.713223 0.200646 0.199395
O O12 0.710459 0.000000 0.293827
O O13 0.500000 0.287509 0.695538
O O14 0.590822 0.500000 0.696603
O O15 0.574111 0.334321 0.800115
O O16 0.170967 0.500000 0.682384
O O17 0.119046 0.728276 0.745281
O O18 0.632495 0.769841 0.905542
O O19 0.705266 0.000000 0.894429
O O20 0.929091 0.500000 0.193770
O O21 0.000000 0.260186 0.195983
O O22 0.500000 0.286940 0.904718
O O23 0.590059 0.500000 0.903914
#
# Coordination Sequence:
#
# PCOD8194909 Si02
#       8
#     8   8   8   8   8   8   8   8
#     4  10  20  34  52  70  90 122 162 203 250 305
#     4   9  19  36  55  75 104 141 174 205 246 298
#     4  10  19  29  44  68  98 132 169 205 247 299
#     4   8  14  25  41  63  93 128 163 200 246 295
#     4  11  20  31  51  76 105 136 167 210 252 290
#     4  10  19  30  46  67  94 125 158 200 246 295
#     4   9  18  32  50  74  99 121 153 201 253 298
#     4   8  14  25  43  66  91 120 154 192 236 290
#
# _framework density 17.472422999999999
#
# number of rings (size 3 to 8) (size 9 to 14) (size 15 to 20)
#    0.000    2.625    1.250    2.625    0.000    3.000 
#    0.000    4.375    0.000    1.500    0.000    3.500 
#    0.000    0.500    0.000    5.250    0.000    2.500 
#
# Total GULP energy -793478.991768 kJ/mol
# GULP energy per Si atom -12398.109246 kJ/mol
# Density = 1.743266 g / cm^3
# Si number density = 17.472423 Si / 1000 Ang^3
#
#
#
# Elastic Constant Matrix: (Units=GPa)
#
#
# Indices 1 2 3 4 5 6 
#
# 1 140.0249 56.1496 40.9153 0.0000 0.0000 0.0000
# 2 56.1496 80.1481 30.7303 0.0000 0.0000 0.0000
# 3 40.9153 30.7303 55.6159 0.0000 0.0000 0.0000
# 4 0.0000 0.0000 0.0000 18.6901 0.0000 0.0000
# 5 0.0000 0.0000 0.0000 0.0000 17.0079 0.0000
# 6 0.0000 0.0000 0.0000 0.0000 0.0000 23.0548
#
#
#
# Elastic Compliance Matrix: (Units=1/GPa)
#
#
# Indices 1 2 3 4 5 6 
#
# 1 0.010856 -0.005765 -0.004801 0.000000 0.000000 0.000000
# 2 -0.005765 0.018892 -0.006198 0.000000 0.000000 0.000000
# 3 -0.004801 -0.006198 0.024937 0.000000 0.000000 0.000000
# 4 0.000000 0.000000 0.000000 0.053504 0.000000 0.000000
# 5 0.000000 0.000000 0.000000 0.000000 0.058796 0.000000
# 6 0.000000 0.000000 0.000000 0.000000 0.000000 0.043375
#
#
# Mechanical properties :
#
#
# Convention : Reuss Voigt Hill
#
# Bulk Modulus (GPa) = 47.26392 59.04214 53.15303
# Shear Modulus (GPa) = 19.92503 21.61679 20.77091
#
# Velocity S-wave (km/s) = 3.38060 3.52119 3.45161
# Velocity P-wave (km/s) = 6.50748 7.09906 6.80970
#
# Compressibility (1/GPa) = 0.02115779
#
# Stress axis : x y z
#
# Youngs Moduli (GPa) = 92.11384 52.93329 40.10068
#
# Poissons Ratio (x) = 0.30514 0.19254
# Poissons Ratio (y) = 0.53100 0.24853
# Poissons Ratio (z) = 0.44228 0.32806
#
# Static dielectric constant tensor:
#      x y z
#    x 3.547350 0.000000 0.000000 
#    y 0.000000 3.147560 0.000000 
#    z 0.000000 0.000000 2.865780 
# 
# 
# High freq. dielectric constant tensor:
#      x y z
#    x 1.686190 0.000000 0.000000 
#    y 0.000000 1.664770 0.000000 
#    z 0.000000 0.000000 1.630030 
# 
# From -- ./inp_files/9986.got.cif
#   From: 2010.03.12/outbox.cif.g09.slc.cpg/sg47_5_cif.got.tgz:9986.got - 2010.04.14 03:12:58.
