data_PCOD8194217
_publ_section_title
;
Structure prediction by ZEFSAII (Michael W. Deem and Ramdas Pophale) SiO2 
 PCOD8194217
Probable space group: P M M M
;
_chemical_formula_sum "Si O2"
_cell_formula_units_Z 64
_cell_length_a 23.565895
_cell_length_b 19.021788
_cell_length_c 8.927233
_cell_angle_alpha 90.000000
_cell_angle_beta 90.000000
_cell_angle_gamma 90.000000
_cell_volume 4001.770196
_symmetry_space_group_name_H-M "P M M M"
_symmetry_group_IT_number 47
_symmetry_cell_setting 'orthorhombic'
loop_
_space_group_symop_operation_xyz
x,y,z
-x,-y,z
x,-y,-z
-x,y,-z
-x,-y,-z
x,y,-z
-x,y,z
x,-y,z
loop_
_atom_site_type_symbol
_atom_site_label
_atom_site_fract_x
_atom_site_fract_y
_atom_site_fract_z
Si Si1 0.118974 0.420258 0.172519
Si Si2 0.764827 0.920504 0.675847
Si Si3 0.062876 0.293129 0.677748
Si Si4 0.565521 0.080803 0.672317
Si Si5 0.336630 0.158846 0.823354
Si Si6 0.167847 0.209489 0.676016
Si Si7 0.249334 0.421117 0.824821
Si Si8 0.718837 0.285800 0.323027
O O1 0.098311 0.500000 0.196638
O O2 0.079126 0.371229 0.271673
O O3 0.184033 0.412725 0.224703
O O4 0.112954 0.398220 0.000000
O O5 0.751415 0.912048 0.500000
O O6 0.709030 0.897183 0.763506
O O7 0.818400 0.871216 0.721765
O O8 0.780916 0.000000 0.718593
O O9 0.063442 0.291808 0.500000
O O10 0.108368 0.236869 0.745798
O O11 0.000000 0.273752 0.737824
O O12 0.582658 0.093775 0.500000
O O13 0.500000 0.099429 0.698433
O O14 0.601383 0.131368 0.779264
O O15 0.577424 0.000000 0.715383
O O16 0.328294 0.235844 0.751285
O O17 0.331110 0.165216 0.000000
O O18 0.162727 0.216448 0.500000
O O19 0.219561 0.258238 0.731301
O O20 0.270328 0.500000 0.786014
O O21 0.287937 0.365740 0.734017
O O22 0.255978 0.406324 0.000000
O O23 0.711133 0.282477 0.500000
#
# Coordination Sequence:
#
# PCOD8194217 Si02
#       8
#     8   8   8   8   8   8   8   8
#     4   9  18  31  45  61  84 113 143 177 218 268
#     4   9  17  30  48  66  86 114 148 187 229 276
#     4  10  19  30  44  61  82 109 145 189 228 266
#     4   9  18  33  51  69  94 132 172 202 228 264
#     4  11  21  30  44  69 100 127 154 193 234 271
#     4   8  15  28  43  61  82 107 140 179 227 274
#     4   9  17  29  45  66  92 119 146 182 231 280
#     4  10  18  30  48  66  88 120 157 192 226 271
#
# _framework density 15.992922
#
# number of rings (size 3 to 8) (size 9 to 14) (size 15 to 20)
#    0.000    2.625    1.250    3.750    0.000    3.250 
#    0.000    3.125    0.000    0.375    0.000    2.625 
#    0.000    0.500    0.000    9.625    0.000    7.750 
#
# Total GULP energy -793395.180475 kJ/mol
# GULP energy per Si atom -12396.799695 kJ/mol
# Density = 1.595652 g / cm^3
# Si number density = 15.992922 Si / 1000 Ang^3
#
#
#
# Elastic Constant Matrix: (Units=GPa)
#
#
# Indices 1 2 3 4 5 6 
#
# 1 76.4500 51.1544 29.3346 0.0000 0.0000 0.0000
# 2 51.1544 120.8771 41.3369 0.0000 0.0000 0.0000
# 3 29.3346 41.3369 57.4964 0.0000 0.0000 0.0000
# 4 0.0000 0.0000 0.0000 22.1638 0.0000 0.0000
# 5 0.0000 0.0000 0.0000 0.0000 16.1989 0.0000
# 6 0.0000 0.0000 0.0000 0.0000 0.0000 25.4260
#
#
#
# Elastic Compliance Matrix: (Units=1/GPa)
#
#
# Indices 1 2 3 4 5 6 
#
# 1 0.019392 -0.006396 -0.005296 0.000000 0.000000 0.000000
# 2 -0.006396 0.013079 -0.006140 0.000000 0.000000 0.000000
# 3 -0.005296 -0.006140 0.024509 0.000000 0.000000 0.000000
# 4 0.000000 0.000000 0.000000 0.045119 0.000000 0.000000
# 5 0.000000 0.000000 0.000000 0.000000 0.061733 0.000000
# 6 0.000000 0.000000 0.000000 0.000000 0.000000 0.039330
#
#
# Mechanical properties :
#
#
# Convention : Reuss Voigt Hill
#
# Bulk Modulus (GPa) = 46.91110 55.38613 51.14862
# Shear Modulus (GPa) = 20.33104 21.62425 20.97764
#
# Velocity S-wave (km/s) = 3.56933 3.68110 3.62565
# Velocity P-wave (km/s) = 6.81050 7.26458 7.04120
#
# Compressibility (1/GPa) = 0.02131692
#
# Stress axis : x y z
#
# Youngs Moduli (GPa) = 51.56811 76.45717 40.80171
#
# Poissons Ratio (x) = 0.48898 0.21607
# Poissons Ratio (y) = 0.32980 0.25053
# Poissons Ratio (z) = 0.27309 0.46947
#
# Static dielectric constant tensor:
#      x y z
#    x 2.966200 0.000000 0.000000 
#    y 0.000000 3.145770 0.000000 
#    z 0.000000 0.000000 2.860540 
# 
# 
# High freq. dielectric constant tensor:
#      x y z
#    x 1.583330 0.000000 0.000000 
#    y 0.000000 1.613880 0.000000 
#    z 0.000000 0.000000 1.603600 
# 
# From -- ./inp_files/11803.got.cif
#   From: 2010.03.12/outbox.cif.g09.slc.cpg/sg47_6_cif.got.tgz:11803.got - 2010.04.14 03:12:58.
