data_PCOD8194325
_publ_section_title
;
Structure prediction by ZEFSAII (Michael W. Deem and Ramdas Pophale) SiO2 
 PCOD8194325
Probable space group: P M M M
;
_chemical_formula_sum "Si O2"
_cell_formula_units_Z 52
_cell_length_a 22.922303
_cell_length_b 9.370812
_cell_length_c 12.817647
_cell_angle_alpha 90.000000
_cell_angle_beta 90.000000
_cell_angle_gamma 90.000000
_cell_volume 2753.238164
_symmetry_space_group_name_H-M "P M M M"
_symmetry_group_IT_number 47
_symmetry_cell_setting 'orthorhombic'
loop_
_space_group_symop_operation_xyz
x,y,z
-x,-y,z
x,-y,-z
-x,y,-z
-x,-y,-z
x,y,-z
-x,y,z
x,-y,z
loop_
_atom_site_type_symbol
_atom_site_label
_atom_site_fract_x
_atom_site_fract_y
_atom_site_fract_z
Si Si1 0.265211 0.157421 0.619079
Si Si2 0.064391 0.668137 0.500000
Si Si3 0.564390 0.835509 0.233100
Si Si4 0.680268 0.166956 0.118852
Si Si5 0.792512 0.334872 0.118412
Si Si6 0.154893 0.334722 0.671044
Si Si7 0.371540 0.660457 0.376672
O O1 0.283244 0.137596 0.500000
O O2 0.205515 0.241852 0.621813
O O3 0.318065 0.245947 0.672535
O O4 0.260517 0.000000 0.671972
O O5 0.057754 0.500000 0.500000
O O6 0.096846 0.714483 0.391791
O O7 0.000000 0.739438 0.500000
O O8 0.500000 0.811621 0.182998
O O9 0.616093 0.784089 0.156673
O O10 0.569567 0.737029 0.336473
O O11 0.572369 0.000000 0.265095
O O12 0.737467 0.246820 0.166464
O O13 0.689189 0.000000 0.136019
O O14 0.681489 0.213316 0.000000
O O15 0.774429 0.500000 0.116601
O O16 0.845947 0.310922 0.202046
O O17 0.810866 0.286246 0.000000
O O18 0.167721 0.500000 0.645708
O O19 0.371232 0.657689 0.500000
O O20 0.366461 0.500000 0.332868
#
# Coordination Sequence:
#
# PCOD8194325 Si02
#       7
#     8   4   8   8   8   8   8
#     4  10  19  30  47  73 102 127 156 201 258 310
#     4   9  18  32  51  77 107 141 182 219 248 283
#     4  10  21  35  50  69  93 123 161 205 253 304
#     4   9  18  33  52  73  97 125 158 199 248 302
#     4   9  18  31  48  73 102 130 161 203 258 308
#     4  10  18  30  51  74 101 137 174 211 246 293
#     4  10  21  35  50  68  93 126 163 204 249 301
#
# _framework density 18.886852000000001
#
# number of rings (size 3 to 8) (size 9 to 14) (size 15 to 20)
#    0.000    2.385    0.769    1.846    0.000    6.154 
#    0.000    3.077    0.000    1.385    0.000    6.462 
#    0.000    0.000    0.000    5.231    0.000    5.538 
#
# Total GULP energy -644244.236651 kJ/mol
# GULP energy per Si atom -12389.312243 kJ/mol
# Density = 1.884386 g / cm^3
# Si number density = 18.886852 Si / 1000 Ang^3
#
#
#
# Elastic Constant Matrix: (Units=GPa)
#
#
# Indices 1 2 3 4 5 6 
#
# 1 123.1149 33.1381 59.2259 0.0000 0.0000 0.0000
# 2 33.1381 66.4732 19.4901 0.0000 0.0000 0.0000
# 3 59.2259 19.4901 84.5366 0.0000 0.0000 0.0000
# 4 0.0000 0.0000 0.0000 18.5985 0.0000 0.0000
# 5 0.0000 0.0000 0.0000 0.0000 23.6327 0.0000
# 6 0.0000 0.0000 0.0000 0.0000 0.0000 14.0193
#
#
#
# Elastic Compliance Matrix: (Units=1/GPa)
#
#
# Indices 1 2 3 4 5 6 
#
# 1 0.013246 -0.004164 -0.008320 0.000000 0.000000 0.000000
# 2 -0.004164 0.017443 -0.001104 0.000000 0.000000 0.000000
# 3 -0.008320 -0.001104 0.017913 0.000000 0.000000 0.000000
# 4 0.000000 0.000000 0.000000 0.053768 0.000000 0.000000
# 5 0.000000 0.000000 0.000000 0.000000 0.042314 0.000000
# 6 0.000000 0.000000 0.000000 0.000000 0.000000 0.071330
#
#
# Mechanical properties :
#
#
# Convention : Reuss Voigt Hill
#
# Bulk Modulus (GPa) = 46.67367 55.31477 50.99422
# Shear Modulus (GPa) = 19.97352 22.06815 21.02084
#
# Velocity S-wave (km/s) = 3.25551 3.42195 3.33977
# Velocity P-wave (km/s) = 6.23675 6.70552 6.47538
#
# Compressibility (1/GPa) = 0.02142535
#
# Stress axis : x y z
#
# Youngs Moduli (GPa) = 75.49686 57.32894 55.82643
#
# Poissons Ratio (x) = 0.23870 0.46447
# Poissons Ratio (y) = 0.31435 0.06166
# Poissons Ratio (z) = 0.62812 0.06332
#
# Static dielectric constant tensor:
#      x y z
#    x 3.419080 0.000000 0.000000 
#    y 0.000000 3.520060 0.000000 
#    z 0.000000 0.000000 3.755310 
# 
# 
# High freq. dielectric constant tensor:
#      x y z
#    x 1.697270 0.000000 0.000000 
#    y 0.000000 1.727020 0.000000 
#    z 0.000000 0.000000 1.746810 
# 
# From -- ./inp_files/25007.got.cif
#   From: 2010.03.12/outbox.cif.g09.slc.cpg/sg47_13_cif.got.tgz:25007.got - 2010.04.14 03:12:58.
