data_PCOD8194210
_publ_section_title
;
Structure prediction by ZEFSAII (Michael W. Deem and Ramdas Pophale) SiO2 
 PCOD8194210
Probable space group: P M M M
;
_chemical_formula_sum "Si O2"
_cell_formula_units_Z 52
_cell_length_a 17.972144
_cell_length_b 17.849966
_cell_length_c 9.180034
_cell_angle_alpha 90.000000
_cell_angle_beta 90.000000
_cell_angle_gamma 90.000000
_cell_volume 2944.974730
_symmetry_space_group_name_H-M "P M M M"
_symmetry_group_IT_number 47
_symmetry_cell_setting 'orthorhombic'
loop_
_space_group_symop_operation_xyz
x,y,z
-x,-y,z
x,-y,-z
-x,y,-z
-x,-y,-z
x,y,-z
-x,y,z
x,-y,z
loop_
_atom_site_type_symbol
_atom_site_label
_atom_site_fract_x
_atom_site_fract_y
_atom_site_fract_z
Si Si1 0.412003 0.000000 0.333582
Si Si2 0.221528 0.583138 0.330484
Si Si3 0.082376 0.360510 0.832367
Si Si4 0.839742 0.084447 0.833628
Si Si5 0.329669 0.129338 0.168538
Si Si6 0.711328 0.732470 0.661723
Si Si7 0.880883 0.781094 0.338298
O O1 0.384894 0.075067 0.254076
O O2 0.500000 0.000000 0.328484
O O3 0.382652 0.000000 0.500000
O O4 0.203165 0.597615 0.500000
O O5 0.255007 0.500000 0.304550
O O6 0.143440 0.588075 0.245795
O O7 0.282121 0.645950 0.279921
O O8 0.077072 0.278816 0.760425
O O9 0.000000 0.397388 0.819172
O O10 0.106121 0.351451 0.000000
O O11 0.752440 0.097458 0.809285
O O12 0.890284 0.137193 0.732907
O O13 0.859122 0.000000 0.789641
O O14 0.860493 0.101378 0.000000
O O15 0.336385 0.214436 0.231418
O O16 0.353046 0.131474 0.000000
O O17 0.675258 0.734789 0.500000
O O18 0.794511 0.762311 0.655362
O O19 0.915706 0.781807 0.500000
#
# Coordination Sequence:
#
# PCOD8194210 Si02
#       7
#     4   8   8   8   8   8   8
#     4  11  23  35  47  67  99 137 170 199 230 261
#     4   9  18  32  49  70  95 121 151 189 234 281
#     4  10  20  32  45  61  83 115 152 187 228 281
#     4   9  16  27  43  65  90 113 141 181 229 276
#     4  10  18  30  47  68  93 124 162 195 225 266
#     4   8  15  28  45  66  91 120 151 187 231 275
#     4   9  17  28  43  63  83 108 144 186 231 275
#
# _framework density 17.657197
#
# number of rings (size 3 to 8) (size 9 to 14) (size 15 to 20)
#    0.000    2.692    0.769    2.538    0.000    7.077 
#    0.000    1.538    0.000    0.462    0.000    3.231 
#    0.000    0.615    0.000    7.077    0.000    2.000 
#
# Total GULP energy -644530.401987 kJ/mol
# GULP energy per Si atom -12394.815423 kJ/mol
# Density = 1.761701 g / cm^3
# Si number density = 17.657197 Si / 1000 Ang^3
#
#
#
# Elastic Constant Matrix: (Units=GPa)
#
#
# Indices 1 2 3 4 5 6 
#
# 1 24.4342 28.3545 25.2588 0.0000 0.0000 0.0000
# 2 28.3545 136.6383 55.5287 0.0000 0.0000 0.0000
# 3 25.2588 55.5287 107.6999 0.0000 0.0000 0.0000
# 4 0.0000 0.0000 0.0000 25.8430 0.0000 0.0000
# 5 0.0000 0.0000 0.0000 0.0000 15.9017 0.0000
# 6 0.0000 0.0000 0.0000 0.0000 0.0000 7.8614
#
#
#
# Elastic Compliance Matrix: (Units=1/GPa)
#
#
# Indices 1 2 3 4 5 6 
#
# 1 0.061222 -0.008690 -0.009878 0.000000 0.000000 0.000000
# 2 -0.008690 0.010492 -0.003371 0.000000 0.000000 0.000000
# 3 -0.009878 -0.003371 0.013340 0.000000 0.000000 0.000000
# 4 0.000000 0.000000 0.000000 0.038695 0.000000 0.000000
# 5 0.000000 0.000000 0.000000 0.000000 0.062886 0.000000
# 6 0.000000 0.000000 0.000000 0.000000 0.000000 0.127203
#
#
# Mechanical properties :
#
#
# Convention : Reuss Voigt Hill
#
# Bulk Modulus (GPa) = 24.28660 54.11740 39.20200
# Shear Modulus (GPa) = 13.46103 20.56325 17.01214
#
# Velocity S-wave (km/s) = 2.76407 3.41630 3.10734
# Velocity P-wave (km/s) = 4.89603 6.80271 5.92655
#
# Compressibility (1/GPa) = 0.04117496
#
# Stress axis : x y z
#
# Youngs Moduli (GPa) = 16.33404 95.30990 74.96264
#
# Poissons Ratio (x) = 0.82826 0.74046
# Poissons Ratio (y) = 0.14195 0.25273
# Poissons Ratio (z) = 0.16134 0.32133
#
# Static dielectric constant tensor:
#      x y z
#    x 2.732670 0.000000 0.000000 
#    y 0.000000 3.569120 0.000000 
#    z 0.000000 0.000000 3.477480 
# 
# 
# High freq. dielectric constant tensor:
#      x y z
#    x 1.617580 0.000000 0.000000 
#    y 0.000000 1.689840 0.000000 
#    z 0.000000 0.000000 1.692280 
# 
# From -- ./inp_files/9522.got.cif
#   From: 2010.03.12/outbox.cif.g09.slc.cpg/sg47_5_cif.got.tgz:9522.got - 2010.04.14 03:12:58.
