data_PCOD8194970
_publ_section_title
;
Structure prediction by ZEFSAII (Michael W. Deem and Ramdas Pophale) SiO2 
 PCOD8194970
Probable space group: P M M M
;
_chemical_formula_sum "Si O2"
_cell_formula_units_Z 52
_cell_length_a 15.452060
_cell_length_b 27.348690
_cell_length_c 8.901245
_cell_angle_alpha 90.000000
_cell_angle_beta 90.000000
_cell_angle_gamma 90.000000
_cell_volume 3761.609158
_symmetry_space_group_name_H-M "P M M M"
_symmetry_group_IT_number 47
_symmetry_cell_setting 'orthorhombic'
loop_
_space_group_symop_operation_xyz
x,y,z
-x,-y,z
x,-y,-z
-x,y,-z
-x,-y,-z
x,y,-z
-x,y,z
x,-y,z
loop_
_atom_site_type_symbol
_atom_site_label
_atom_site_fract_x
_atom_site_fract_y
_atom_site_fract_z
Si Si1 0.500000 0.945350 0.178520
Si Si2 0.666783 0.112895 0.821334
Si Si3 0.396747 0.597043 0.669399
Si Si4 0.602795 0.693503 0.831221
Si Si5 0.000000 0.942062 0.830892
Si Si6 0.175390 0.942832 0.676080
Si Si7 0.603160 0.500000 0.830721
Si Si8 0.399710 0.792492 0.676798
O O1 0.584751 0.917826 0.238383
O O2 0.500000 0.000000 0.245428
O O3 0.500000 0.946721 0.000000
O O4 0.751921 0.087691 0.759610
O O5 0.659294 0.167449 0.757970
O O6 0.670434 0.114610 0.000000
O O7 0.361661 0.598353 0.500000
O O8 0.500000 0.597291 0.671588
O O9 0.359706 0.644309 0.756131
O O10 0.360894 0.548158 0.748121
O O11 0.500000 0.690592 0.833347
O O12 0.633063 0.739963 0.734414
O O13 0.639400 0.698025 0.000000
O O14 0.915771 0.923992 0.741231
O O15 0.000000 0.000000 0.837057
O O16 0.000000 0.920421 0.000000
O O17 0.177860 0.931981 0.500000
O O18 0.189907 0.000000 0.710482
O O19 0.500000 0.500000 0.828453
O O20 0.638438 0.500000 0.000000
O O21 0.385611 0.795388 0.500000
O O22 0.500000 0.800898 0.720853
#
# Coordination Sequence:
#
# PCOD8194970 Si02
#       8
#     4   8   8   8   4   8   4   8
#     4   9  18  30  43  59  79 103 131 162 193 226
#     4  11  20  31  46  62  82 106 135 165 195 232
#     4   9  15  22  31  44  61  81 106 138 180 225
#     4   9  16  25  37  50  64  84 115 150 185 225
#     4   9  17  31  51  71  87 105 129 155 185 226
#     4  10  20  33  48  67  89 109 128 155 193 235
#     4   9  15  21  29  41  59  81 105 135 175 222
#     4  10  19  30  42  55  74  98 126 160 198 234
#
# _framework density 13.823869999999999
#
# number of rings (size 3 to 8) (size 9 to 14) (size 15 to 20)
#    0.000    2.385    0.769    3.231    0.000    7.692 
#    0.000    0.000    0.000    1.846    0.000    0.000 
#    0.000    0.000    0.000    0.000    0.000    0.000 
#
# Total GULP energy -644814.601691 kJ/mol
# GULP energy per Si atom -12400.280802 kJ/mol
# Density = 1.379241 g / cm^3
# Si number density = 13.823870 Si / 1000 Ang^3
#
#
#
# Elastic Constant Matrix: (Units=GPa)
#
#
# Indices 1 2 3 4 5 6 
#
# 1 57.9658 35.5314 30.9136 0.0000 0.0000 0.0000
# 2 35.5314 111.3208 51.8863 0.0000 0.0000 0.0000
# 3 30.9136 51.8863 102.1519 0.0000 0.0000 0.0000
# 4 0.0000 0.0000 0.0000 27.8235 0.0000 0.0000
# 5 0.0000 0.0000 0.0000 0.0000 15.7434 0.0000
# 6 0.0000 0.0000 0.0000 0.0000 0.0000 2.4805
#
#
#
# Elastic Compliance Matrix: (Units=1/GPa)
#
#
# Indices 1 2 3 4 5 6 
#
# 1 0.022736 -0.005306 -0.004185 0.000000 0.000000 0.000000
# 2 -0.005306 0.013008 -0.005001 0.000000 0.000000 0.000000
# 3 -0.004185 -0.005001 0.013596 0.000000 0.000000 0.000000
# 4 0.000000 0.000000 0.000000 0.035941 0.000000 0.000000
# 5 0.000000 0.000000 0.000000 0.000000 0.063519 0.000000
# 6 0.000000 0.000000 0.000000 0.000000 0.000000 0.403139
#
#
# Mechanical properties :
#
#
# Convention : Reuss Voigt Hill
#
# Bulk Modulus (GPa) = 49.12897 56.45566 52.79232
# Shear Modulus (GPa) = 8.50761 19.41662 13.96212
#
# Velocity S-wave (km/s) = 2.48348 3.75183 3.18150
# Velocity P-wave (km/s) = 6.62117 7.72633 7.19500
#
# Compressibility (1/GPa) = 0.02035459
#
# Stress axis : x y z
#
# Youngs Moduli (GPa) = 43.98283 76.87721 73.54967
#
# Poissons Ratio (x) = 0.40792 0.30783
# Poissons Ratio (y) = 0.23338 0.36784
# Poissons Ratio (z) = 0.18408 0.38449
#
# Static dielectric constant tensor:
#      x y z
#    x 2.333640 0.000000 0.000000 
#    y 0.000000 2.808380 0.000000 
#    z 0.000000 0.000000 2.870880 
# 
# 
# High freq. dielectric constant tensor:
#      x y z
#    x 1.459190 0.000000 0.000000 
#    y 0.000000 1.526730 0.000000 
#    z 0.000000 0.000000 1.545550 
# 
# From -- ./inp_files/8081.got.cif
#   From: 2010.03.12/outbox.cif.g09.slc.cpg/sg47_5_cif.got.tgz:8081.got - 2010.04.14 03:12:58.
