data_PCOD8194431
_publ_section_title
;
Structure prediction by ZEFSAII (Michael W. Deem and Ramdas Pophale) SiO2 
 PCOD8194431
Probable space group: P M M M
;
_chemical_formula_sum "Si O2"
_cell_formula_units_Z 52
_cell_length_a 7.892839
_cell_length_b 14.667286
_cell_length_c 24.870388
_cell_angle_alpha 90.000000
_cell_angle_beta 90.000000
_cell_angle_gamma 90.000000
_cell_volume 2879.158443
_symmetry_space_group_name_H-M "P M M M"
_symmetry_group_IT_number 47
_symmetry_cell_setting 'orthorhombic'
loop_
_space_group_symop_operation_xyz
x,y,z
-x,-y,z
x,-y,-z
-x,y,-z
-x,-y,-z
x,y,-z
-x,y,z
x,-y,z
loop_
_atom_site_type_symbol
_atom_site_label
_atom_site_fract_x
_atom_site_fract_y
_atom_site_fract_z
Si Si1 0.000000 0.391802 0.439990
Si Si2 0.196462 0.399147 0.158898
Si Si3 0.796792 0.708146 0.262427
Si Si4 0.699907 0.281731 0.940269
Si Si5 0.308844 0.605721 0.367228
Si Si6 0.193275 0.901850 0.233140
Si Si7 0.303528 0.100662 0.115236
O O1 0.170511 0.357589 0.409970
O O2 0.000000 0.500000 0.443278
O O3 0.000000 0.349904 0.500000
O O4 0.281028 0.500000 0.158554
O O5 0.271986 0.339157 0.207737
O O6 0.222467 0.352305 0.101517
O O7 0.000000 0.410006 0.169795
O O8 0.709854 0.659240 0.312033
O O9 0.729355 0.813216 0.262743
O O10 0.000000 0.702907 0.266613
O O11 0.500000 0.291730 0.938265
O O12 0.754385 0.177852 0.926702
O O13 0.768767 0.304252 0.000000
O O14 0.500000 0.620081 0.389917
O O15 0.273753 0.500000 0.354821
O O16 0.198401 0.885274 0.169443
O O17 0.000000 0.908755 0.250839
O O18 0.282651 0.000000 0.247792
O O19 0.500000 0.111657 0.130354
O O20 0.268128 0.000000 0.090404
#
# Coordination Sequence:
#
# PCOD8194431 Si02
#       7
#     4   8   8   8   8   8   8
#     4   9  18  34  54  76 111 155 190 224 262 299
#     4  10  21  35  51  70  90 119 158 199 249 306
#     4  10  18  31  51  72 102 136 164 206 260 310
#     4  10  21  35  49  66  89 117 154 201 248 300
#     4  10  20  32  50  79 111 145 186 226 261 300
#     4   9  17  29  48  73  98 125 157 195 247 310
#     4   9  17  30  48  68  90 116 148 190 243 304
#
# _framework density 18.060832999999999
#
# number of rings (size 3 to 8) (size 9 to 14) (size 15 to 20)
#    0.000    2.385    2.308    0.462    0.000    3.385 
#    0.000    4.615    0.000    0.000    0.000    3.231 
#    0.000    1.231    0.000    1.385    0.000    0.154 
#
# Total GULP energy -644450.096734 kJ/mol
# GULP energy per Si atom -12393.271091 kJ/mol
# Density = 1.801973 g / cm^3
# Si number density = 18.060833 Si / 1000 Ang^3
#
#
#
# Elastic Constant Matrix: (Units=GPa)
#
#
# Indices 1 2 3 4 5 6 
#
# 1 50.5598 28.3941 31.0508 0.0000 0.0000 0.0000
# 2 28.3941 125.4482 52.9029 0.0000 0.0000 0.0000
# 3 31.0508 52.9029 113.0703 0.0000 0.0000 0.0000
# 4 0.0000 0.0000 0.0000 -2.0665 0.0000 0.0000
# 5 0.0000 0.0000 0.0000 0.0000 14.5610 0.0000
# 6 0.0000 0.0000 0.0000 0.0000 0.0000 16.3461
#
#
#
# Elastic Compliance Matrix: (Units=1/GPa)
#
#
# Indices 1 2 3 4 5 6 
#
# 1 0.024923 -0.003432 -0.005239 0.000000 0.000000 0.000000
# 2 -0.003432 0.010403 -0.003925 0.000000 0.000000 0.000000
# 3 -0.005239 -0.003925 0.012119 0.000000 0.000000 0.000000
# 4 0.000000 0.000000 0.000000 -0.483908 0.000000 0.000000
# 5 0.000000 0.000000 0.000000 0.000000 0.068676 0.000000
# 6 0.000000 0.000000 0.000000 0.000000 0.000000 0.061177
#
#
# Mechanical properties :
#
#
# Convention : Reuss Voigt Hill
#
# Bulk Modulus (GPa) = 44.93463 57.08596 51.01030
# Shear Modulus (GPa) = -18.24818 17.55017 -0.34901
#
# Velocity S-wave (km/s) = -3.18209 3.12063 -0.44007
# Velocity P-wave (km/s) = 3.38123 6.68286 5.29591
#
# Compressibility (1/GPa) = 0.02225455
#
# Stress axis : x y z
#
# Youngs Moduli (GPa) = 40.12336 96.12194 82.51457
#
# Poissons Ratio (x) = 0.32989 0.43225
# Poissons Ratio (y) = 0.13770 0.32387
# Poissons Ratio (z) = 0.21019 0.37728
#
# Static dielectric constant tensor:
#      x y z
#    x 3.264250 0.000000 0.000000 
#    y 0.000000 3.661830 0.000000 
#    z 0.000000 0.000000 3.179140 
# 
# 
# High freq. dielectric constant tensor:
#      x y z
#    x 1.690920 0.000000 0.000000 
#    y 0.000000 1.699230 0.000000 
#    z 0.000000 0.000000 1.662100 
# 
# From -- ./inp_files/25406.got.cif
#   From: 2010.03.12/outbox.cif.g09.slc.cpg/sg47_13_cif.got.tgz:25406.got - 2010.04.14 03:12:58.
