data_PCOD8194825
_publ_section_title
;
Structure prediction by ZEFSAII (Michael W. Deem and Ramdas Pophale) SiO2 
 PCOD8194825
Probable space group: P M M M
;
_chemical_formula_sum "Si O2"
_cell_formula_units_Z 52
_cell_length_a 26.625255
_cell_length_b 9.267831
_cell_length_c 13.644058
_cell_angle_alpha 90.000000
_cell_angle_beta 90.000000
_cell_angle_gamma 90.000000
_cell_volume 3366.785426
_symmetry_space_group_name_H-M "P M M M"
_symmetry_group_IT_number 47
_symmetry_cell_setting 'orthorhombic'
loop_
_space_group_symop_operation_xyz
x,y,z
-x,-y,z
x,-y,-z
-x,y,-z
-x,-y,-z
x,y,-z
-x,y,z
x,-y,z
loop_
_atom_site_type_symbol
_atom_site_label
_atom_site_fract_x
_atom_site_fract_y
_atom_site_fract_z
Si Si1 0.054904 0.837052 0.116465
Si Si2 0.149792 0.331609 0.888383
Si Si3 0.340822 0.167994 0.110750
Si Si4 0.398930 0.168633 0.703317
Si Si5 0.252693 0.329041 0.787292
Si Si6 0.295787 0.830740 0.611877
Si Si7 0.500000 0.827414 0.388039
O O1 0.100331 0.741547 0.158897
O O2 0.000000 0.781908 0.153752
O O3 0.063378 0.000000 0.152330
O O4 0.055624 0.828356 0.000000
O O5 0.140023 0.500000 0.884856
O O6 0.197617 0.286988 0.824504
O O7 0.159149 0.279837 0.000000
O O8 0.386857 0.209043 0.183366
O O9 0.292411 0.262354 0.136787
O O10 0.326454 0.000000 0.124740
O O11 0.358023 0.201497 0.000000
O O12 0.352683 0.219610 0.635242
O O13 0.451009 0.239417 0.666713
O O14 0.405782 0.000000 0.690592
O O15 0.260932 0.500000 0.782883
O O16 0.258138 0.260169 0.679608
O O17 0.282920 0.794807 0.500000
O O18 0.289424 0.000000 0.635192
O O19 0.500000 0.773925 0.500000
O O20 0.500000 0.000000 0.383918
#
# Coordination Sequence:
#
# PCOD8194825 Si02
#       7
#     8   8   8   8   8   8   4
#     4   8  14  24  37  54  77 106 140 174 204 235
#     4   9  17  27  38  55  81 111 140 170 204 240
#     4   9  17  29  43  58  80 111 143 173 207 248
#     4   8  14  24  38  59  84 107 133 165 203 250
#     4  10  19  29  42  62  86 109 138 176 211 246
#     4   9  17  30  46  62  83 110 137 167 206 252
#     4   9  14  20  35  59  84 107 131 165 212 259
#
# _framework density 15.445
#
# number of rings (size 3 to 8) (size 9 to 14) (size 15 to 20)
#    0.000    3.154    0.000    2.769    0.000    4.615 
#    0.000    3.462    0.000    2.308    0.000    8.615 
#    0.000   20.308    0.000    6.769    0.000    5.231 
#
# Total GULP energy -644473.708028 kJ/mol
# GULP energy per Si atom -12393.725154 kJ/mol
# Density = 1.540985 g / cm^3
# Si number density = 15.445000 Si / 1000 Ang^3
#
#
#
# Elastic Constant Matrix: (Units=GPa)
#
#
# Indices 1 2 3 4 5 6 
#
# 1 144.8755 46.7358 62.9889 0.0000 0.0000 0.0000
# 2 46.7358 40.6094 32.6656 0.0000 0.0000 0.0000
# 3 62.9889 32.6656 106.5460 0.0000 0.0000 0.0000
# 4 0.0000 0.0000 0.0000 16.6246 0.0000 0.0000
# 5 0.0000 0.0000 0.0000 0.0000 17.7359 0.0000
# 6 0.0000 0.0000 0.0000 0.0000 0.0000 9.2541
#
#
#
# Elastic Compliance Matrix: (Units=1/GPa)
#
#
# Indices 1 2 3 4 5 6 
#
# 1 0.012040 -0.010793 -0.003809 0.000000 0.000000 0.000000
# 2 -0.010793 0.042360 -0.006606 0.000000 0.000000 0.000000
# 3 -0.003809 -0.006606 0.013663 0.000000 0.000000 0.000000
# 4 0.000000 0.000000 0.000000 0.060152 0.000000 0.000000
# 5 0.000000 0.000000 0.000000 0.000000 0.056383 0.000000
# 6 0.000000 0.000000 0.000000 0.000000 0.000000 0.108060
#
#
# Mechanical properties :
#
#
# Convention : Reuss Voigt Hill
#
# Bulk Modulus (GPa) = 38.99164 64.09017 51.54090
# Shear Modulus (GPa) = 14.55082 18.69895 16.62488
#
# Velocity S-wave (km/s) = 3.07270 3.48326 3.28440
# Velocity P-wave (km/s) = 6.15540 7.60021 6.91564
#
# Compressibility (1/GPa) = 0.02564652
#
# Stress axis : x y z
#
# Youngs Moduli (GPa) = 83.05466 23.60728 73.19008
#
# Poissons Ratio (x) = 0.25478 0.27880
# Poissons Ratio (y) = 0.89638 0.48353
# Poissons Ratio (z) = 0.31637 0.15596
#
# Static dielectric constant tensor:
#      x y z
#    x 3.188730 0.000000 0.000000 
#    y 0.000000 2.768300 0.000000 
#    z 0.000000 0.000000 2.924730 
# 
# 
# High freq. dielectric constant tensor:
#      x y z
#    x 1.589370 0.000000 0.000000 
#    y 0.000000 1.569840 0.000000 
#    z 0.000000 0.000000 1.569540 
# 
# From -- ./inp_files/21792.got.cif
#   From: 2010.03.12/outbox.cif.g09.slc.cpg/sg47_11_cif.got.tgz:21792.got - 2010.04.14 03:12:58.
