data_PCOD8194363
_publ_section_title
;
Structure prediction by ZEFSAII (Michael W. Deem and Ramdas Pophale) SiO2 
 PCOD8194363
Probable space group: P M M M
;
_chemical_formula_sum "Si O2"
_cell_formula_units_Z 48
_cell_length_a 20.572447
_cell_length_b 9.388838
_cell_length_c 14.365401
_cell_angle_alpha 90.000000
_cell_angle_beta 90.000000
_cell_angle_gamma 90.000000
_cell_volume 2774.696915
_symmetry_space_group_name_H-M "P M M M"
_symmetry_group_IT_number 47
_symmetry_cell_setting 'orthorhombic'
loop_
_space_group_symop_operation_xyz
x,y,z
-x,-y,z
x,-y,-z
-x,y,-z
-x,-y,-z
x,y,-z
-x,y,z
x,-y,z
loop_
_atom_site_type_symbol
_atom_site_label
_atom_site_fract_x
_atom_site_fract_y
_atom_site_fract_z
Si Si1 0.743788 0.838263 0.896517
Si Si2 0.188873 0.169124 0.604274
Si Si3 0.574379 0.666096 0.394282
Si Si4 0.681961 0.835421 0.708414
Si Si5 0.872966 0.665374 0.106097
Si Si6 0.072649 0.835701 0.733023
O O1 0.688514 0.810711 0.819469
O O2 0.802133 0.731023 0.877724
O O3 0.770437 0.000000 0.885484
O O4 0.714174 0.814641 0.000000
O O5 0.188223 0.233155 0.500000
O O6 0.253385 0.223049 0.657088
O O7 0.124646 0.223501 0.658236
O O8 0.188075 0.000000 0.600535
O O9 0.591392 0.710129 0.500000
O O10 0.500000 0.705091 0.371937
O O11 0.586712 0.500000 0.379752
O O12 0.619082 0.750917 0.323474
O O13 0.671261 0.000000 0.683540
O O14 0.869864 0.500000 0.132409
O O15 0.923736 0.744815 0.172415
O O16 0.896080 0.687691 0.000000
O O17 0.000000 0.818498 0.691563
O O18 0.087531 0.000000 0.757171
#
# Coordination Sequence:
#
# PCOD8194363 Si02
#       6
#     8   8   8   8   8   8
#     4   9  17  31  52  76 103 132 162 200 246 296
#     4   9  17  30  48  73 102 126 157 206 254 292
#     4   9  19  35  52  73 105 141 172 203 243 292
#     4  10  18  30  52  79 104 130 163 206 251 292
#     4  10  20  33  50  72  98 127 160 204 257 304
#     4  10  20  34  51  70  95 131 171 206 247 301
#
# _framework density 17.299188000000001
#
# number of rings (size 3 to 8) (size 9 to 14) (size 15 to 20)
#    0.000    2.500    1.667    1.500    0.000    4.000 
#    0.000    4.167    0.000    1.000    0.000    4.667 
#    0.000    0.000    0.000    0.000    0.000    0.000 
#
# Total GULP energy -595148.354862 kJ/mol
# GULP energy per Si atom -12398.924060 kJ/mol
# Density = 1.725981 g / cm^3
# Si number density = 17.299188 Si / 1000 Ang^3
#
#
#
# Elastic Constant Matrix: (Units=GPa)
#
#
# Indices 1 2 3 4 5 6 
#
# 1 107.6701 39.1078 63.4230 0.0000 0.0000 0.0000
# 2 39.1078 55.0552 40.1656 0.0000 0.0000 0.0000
# 3 63.4230 40.1656 121.4801 0.0000 0.0000 0.0000
# 4 0.0000 0.0000 0.0000 21.2148 0.0000 0.0000
# 5 0.0000 0.0000 0.0000 0.0000 28.0629 0.0000
# 6 0.0000 0.0000 0.0000 0.0000 0.0000 18.2592
#
#
#
# Elastic Compliance Matrix: (Units=1/GPa)
#
#
# Indices 1 2 3 4 5 6 
#
# 1 0.014996 -0.006511 -0.005677 0.000000 0.000000 0.000000
# 2 -0.006511 0.026765 -0.005450 0.000000 0.000000 0.000000
# 3 -0.005677 -0.005450 0.012997 0.000000 0.000000 0.000000
# 4 0.000000 0.000000 0.000000 0.047137 0.000000 0.000000
# 5 0.000000 0.000000 0.000000 0.000000 0.035634 0.000000
# 6 0.000000 0.000000 0.000000 0.000000 0.000000 0.054767
#
#
# Mechanical properties :
#
#
# Convention : Reuss Voigt Hill
#
# Bulk Modulus (GPa) = 51.32652 63.28869 57.30760
# Shear Modulus (GPa) = 21.36148 22.94133 22.15141
#
# Velocity S-wave (km/s) = 3.51782 3.64559 3.58227
# Velocity P-wave (km/s) = 6.79959 7.37459 7.09292
#
# Compressibility (1/GPa) = 0.01948311
#
# Stress axis : x y z
#
# Youngs Moduli (GPa) = 66.68278 37.36262 76.93844
#
# Poissons Ratio (x) = 0.24327 0.43675
# Poissons Ratio (y) = 0.43418 0.41931
# Poissons Ratio (z) = 0.37853 0.20363
#
# Static dielectric constant tensor:
#      x y z
#    x 3.027800 0.000000 0.000000 
#    y 0.000000 3.057800 0.000000 
#    z 0.000000 0.000000 3.450060 
# 
# 
# High freq. dielectric constant tensor:
#      x y z
#    x 1.650290 0.000000 0.000000 
#    y 0.000000 1.648580 0.000000 
#    z 0.000000 0.000000 1.673140 
# 
# From -- ./inp_files/6349.got.cif
#   From: 2010.03.12/outbox.cif.g09.slc.cpg/sg47_4_cif.got.tgz:6349.got - 2010.04.14 03:12:58.
