data_PCOD8194025
_publ_section_title
;
Structure prediction by ZEFSAII (Michael W. Deem and Ramdas Pophale) SiO2 
 PCOD8194025
Probable space group: P M M M
;
_chemical_formula_sum "Si O2"
_cell_formula_units_Z 60
_cell_length_a 14.565731
_cell_length_b 15.704644
_cell_length_c 13.829458
_cell_angle_alpha 90.000000
_cell_angle_beta 90.000000
_cell_angle_gamma 90.000000
_cell_volume 3163.483262
_symmetry_space_group_name_H-M "P M M M"
_symmetry_group_IT_number 47
_symmetry_cell_setting 'orthorhombic'
loop_
_space_group_symop_operation_xyz
x,y,z
-x,-y,z
x,-y,-z
-x,y,-z
-x,-y,-z
x,y,-z
-x,y,z
x,-y,z
loop_
_atom_site_type_symbol
_atom_site_label
_atom_site_fract_x
_atom_site_fract_y
_atom_site_fract_z
Si Si1 0.396391 0.666952 0.613148
Si Si2 0.102446 0.253522 0.386377
Si Si3 0.273305 0.650150 0.108338
Si Si4 0.597890 0.500000 0.886766
Si Si5 0.397556 0.811468 0.895285
Si Si6 0.398142 0.144232 0.688545
Si Si7 0.211267 0.907841 0.386951
Si Si8 0.784033 0.401310 0.301813
O O1 0.374316 0.681401 0.500000
O O2 0.500000 0.630037 0.625728
O O3 0.386968 0.755829 0.668845
O O4 0.321140 0.604434 0.659948
O O5 0.097321 0.240345 0.500000
O O6 0.158268 0.172909 0.339567
O O7 0.150939 0.343811 0.368324
O O8 0.000000 0.253908 0.341765
O O9 0.348998 0.583552 0.144765
O O10 0.318396 0.741782 0.109262
O O11 0.198623 0.637787 0.193220
O O12 0.234504 0.629412 0.000000
O O13 0.500000 0.500000 0.833326
O O14 0.583502 0.500000 0.000000
O O15 0.500000 0.769717 0.888728
O O16 0.384894 0.873781 0.803940
O O17 0.388204 0.859048 0.000000
O O18 0.500000 0.113383 0.655588
O O19 0.320340 0.093603 0.632461
O O20 0.195550 0.903829 0.500000
O O21 0.174354 0.000000 0.348212
O O22 0.814788 0.500000 0.306282
#
# Coordination Sequence:
#
# PCOD8194025 Si02
#       8
#     8   8   8   4   8   8   8   8
#     4  10  20  33  48  68 101 147 190 223 257 303
#     4  10  22  41  62  82 106 134 170 222 279 332
#     4  10  18  29  44  67 100 137 177 226 277 316
#     4   9  16  24  36  58  92 133 174 218 264 305
#     4   9  16  26  43  67  97 139 190 233 266 304
#     4  10  18  30  50  76 111 151 182 214 259 310
#     4  10  20  35  58  86 112 138 172 215 266 325
#     4  12  23  35  53  78 106 144 186 227 269 317
#
# _framework density 18.966435000000001
#
# number of rings (size 3 to 8) (size 9 to 14) (size 15 to 20)
#    0.000    1.933    3.333    1.200    0.000    5.067 
#    0.000    3.333    0.000    0.800    0.000    2.800 
#    0.000    0.000    0.000    5.600    0.000    0.267 
#
# Total GULP energy -743353.608131 kJ/mol
# GULP energy per Si atom -12389.226802 kJ/mol
# Density = 1.892327 g / cm^3
# Si number density = 18.966435 Si / 1000 Ang^3
#
#
#
# Elastic Constant Matrix: (Units=GPa)
#
#
# Indices 1 2 3 4 5 6 
#
# 1 86.5837 38.0688 14.6001 0.0000 0.0000 0.0000
# 2 38.0688 80.5810 9.4341 0.0000 0.0000 0.0000
# 3 14.6001 9.4341 61.0277 0.0000 0.0000 0.0000
# 4 0.0000 0.0000 0.0000 9.9123 0.0000 0.0000
# 5 0.0000 0.0000 0.0000 0.0000 12.9222 0.0000
# 6 0.0000 0.0000 0.0000 0.0000 0.0000 9.1501
#
#
#
# Elastic Compliance Matrix: (Units=1/GPa)
#
#
# Indices 1 2 3 4 5 6 
#
# 1 0.014952 -0.006767 -0.002531 0.000000 0.000000 0.000000
# 2 -0.006767 0.015702 -0.000808 0.000000 0.000000 0.000000
# 3 -0.002531 -0.000808 0.017116 0.000000 0.000000 0.000000
# 4 0.000000 0.000000 0.000000 0.100884 0.000000 0.000000
# 5 0.000000 0.000000 0.000000 0.000000 0.077386 0.000000
# 6 0.000000 0.000000 0.000000 0.000000 0.000000 0.109288
#
#
# Mechanical properties :
#
#
# Convention : Reuss Voigt Hill
#
# Bulk Modulus (GPa) = 36.28865 39.15536 37.72201
# Shear Modulus (GPa) = 13.70890 17.46957 15.58923
#
# Velocity S-wave (km/s) = 2.69141 3.03822 2.87006
# Velocity P-wave (km/s) = 5.36962 5.74431 5.56012
#
# Compressibility (1/GPa) = 0.02755682
#
# Stress axis : x y z
#
# Youngs Moduli (GPa) = 66.88201 63.68788 58.42342
#
# Poissons Ratio (x) = 0.43100 0.14786
# Poissons Ratio (y) = 0.45261 0.04722
# Poissons Ratio (z) = 0.16927 0.05148
#
# Static dielectric constant tensor:
#      x y z
#    x 3.394800 0.000000 0.000000 
#    y 0.000000 3.293950 0.000000 
#    z 0.000000 0.000000 3.730080 
# 
# 
# High freq. dielectric constant tensor:
#      x y z
#    x 1.699920 0.000000 0.000000 
#    y 0.000000 1.715130 0.000000 
#    z 0.000000 0.000000 1.737780 
# 
# From -- ./inp_files/23906.got.cif
#   From: 2010.03.12/outbox.cif.g09.slc.cpg/sg47_12_cif.got.tgz:23906.got - 2010.04.14 03:12:58.
