data_PCOD8194960
_publ_section_title
;
Structure prediction by ZEFSAII (Michael W. Deem and Ramdas Pophale) SiO2 
 PCOD8194960
Probable space group: P M M M
;
_chemical_formula_sum "Si O2"
_cell_formula_units_Z 48
_cell_length_a 8.884843
_cell_length_b 22.129935
_cell_length_c 18.612979
_cell_angle_alpha 90.000000
_cell_angle_beta 90.000000
_cell_angle_gamma 90.000000
_cell_volume 3659.702508
_symmetry_space_group_name_H-M "P M M M"
_symmetry_group_IT_number 47
_symmetry_cell_setting 'orthorhombic'
loop_
_space_group_symop_operation_xyz
x,y,z
-x,-y,z
x,-y,-z
-x,y,-z
-x,-y,-z
x,y,-z
-x,y,z
x,-y,z
loop_
_atom_site_type_symbol
_atom_site_label
_atom_site_fract_x
_atom_site_fract_y
_atom_site_fract_z
Si Si1 0.673577 0.428615 0.500000
Si Si2 0.675125 0.241948 0.584273
Si Si3 0.330121 0.000000 0.585748
Si Si4 0.820274 0.567875 0.229679
Si Si5 0.178664 0.638608 0.631530
Si Si6 0.831349 0.428203 0.076046
Si Si7 0.169257 0.119746 0.414583
O O1 0.692261 0.500000 0.500000
O O2 0.500000 0.408159 0.500000
O O3 0.751949 0.402635 0.570053
O O4 0.706122 0.251372 0.500000
O O5 0.500000 0.245603 0.602312
O O6 0.763497 0.293149 0.627352
O O7 0.736742 0.177644 0.611444
O O8 0.246685 0.940693 0.616133
O O9 0.500000 0.000000 0.614846
O O10 0.328364 0.000000 0.500000
O O11 0.760929 0.500000 0.245984
O O12 0.765111 0.612168 0.292399
O O13 0.755773 0.592430 0.152014
O O14 0.000000 0.566735 0.225393
O O15 0.000000 0.637307 0.623746
O O16 0.837571 0.500000 0.079640
O O17 0.000000 0.402117 0.072855
O O18 0.749744 0.408287 0.000000
O O19 0.168056 0.117081 0.500000
O O20 0.000000 0.123965 0.384334
#
# Coordination Sequence:
#
# PCOD8194960 Si02
#       7
#     4   8   4   8   8   8   8
#     4  11  23  35  43  51  65  86 115 152 191 229
#     4  10  19  30  41  51  67  90 118 151 186 221
#     4   9  15  23  35  53  75  95 113 135 174 217
#     4   8  14  23  34  51  72  90 111 142 179 218
#     4  11  20  29  42  55  69  89 117 151 187 223
#     4   7   9  15  29  48  70  93 110 126 159 210
#     4   9  16  25  38  54  71  89 114 145 178 214
#
# _framework density 13.115819
#
# number of rings (size 3 to 8) (size 9 to 14) (size 15 to 20)
#    0.000    2.833    0.833    4.000    0.000    5.000 
#    0.000    0.000    0.000    0.000    0.000    0.000 
#    0.000    2.667    0.000   18.833    0.000   15.333 
#
# Total GULP energy -594711.338264 kJ/mol
# GULP energy per Si atom -12389.819547 kJ/mol
# Density = 1.308597 g / cm^3
# Si number density = 13.115819 Si / 1000 Ang^3
#
#
#
# Elastic Constant Matrix: (Units=GPa)
#
#
# Indices 1 2 3 4 5 6 
#
# 1 61.8855 34.6506 27.4119 0.0000 0.0000 0.0000
# 2 34.6506 89.5974 42.7619 0.0000 0.0000 0.0000
# 3 27.4119 42.7619 94.7539 0.0000 0.0000 0.0000
# 4 0.0000 0.0000 0.0000 2.9644 0.0000 0.0000
# 5 0.0000 0.0000 0.0000 0.0000 0.0039 0.0000
# 6 0.0000 0.0000 0.0000 0.0000 0.0000 21.1771
#
#
#
# Elastic Compliance Matrix: (Units=1/GPa)
#
#
# Indices 1 2 3 4 5 6 
#
# 1 0.021325 -0.006758 -0.003119 0.000000 0.000000 0.000000
# 2 -0.006758 0.016367 -0.005431 0.000000 0.000000 0.000000
# 3 -0.003119 -0.005431 0.013907 0.000000 0.000000 0.000000
# 4 0.000000 0.000000 0.000000 0.337340 0.000000 0.000000
# 5 0.000000 0.000000 0.000000 0.000000256.897725 0.000000
# 6 0.000000 0.000000 0.000000 0.000000 0.000000 0.047221
#
#
# Mechanical properties :
#
#
# Convention : Reuss Voigt Hill
#
# Bulk Modulus (GPa) = 47.66143 50.65394 49.15768
# Shear Modulus (GPa) = 0.01943 14.25658 7.13800
#
# Velocity S-wave (km/s) = 0.12184 3.30051 2.33540
# Velocity P-wave (km/s) = 6.03635 7.29581 6.69576
#
# Compressibility (1/GPa) = 0.02098133
#
# Stress axis : x y z
#
# Youngs Moduli (GPa) = 46.89433 61.09928 71.90617
#
# Poissons Ratio (x) = 0.41293 0.22428
# Poissons Ratio (y) = 0.31693 0.39053
# Poissons Ratio (z) = 0.14627 0.33184
#
# Static dielectric constant tensor:
#      x y z
#    x 2.566790 0.000000 0.000000 
#    y 0.000000 2.608180 0.000000 
#    z 0.000000 0.000000 2.763490 
# 
# 
# High freq. dielectric constant tensor:
#      x y z
#    x 1.490100 0.000000 0.000000 
#    y 0.000000 1.482000 0.000000 
#    z 0.000000 0.000000 1.462730 
# 
# From -- ./inp_files/26908.got.cif
#   From: 2010.03.12/outbox.cif.g09.slc.cpg/sg47_14_cif.got.tgz:26908.got - 2010.04.14 03:12:58.
