data_PCOD8194443
_publ_section_title
;
Structure prediction by ZEFSAII (Michael W. Deem and Ramdas Pophale) SiO2 
 PCOD8194443
Probable space group: P M M M
;
_chemical_formula_sum "Si O2"
_cell_formula_units_Z 52
_cell_length_a 22.984244
_cell_length_b 14.103643
_cell_length_c 9.224611
_cell_angle_alpha 90.000000
_cell_angle_beta 90.000000
_cell_angle_gamma 90.000000
_cell_volume 2990.264403
_symmetry_space_group_name_H-M "P M M M"
_symmetry_group_IT_number 47
_symmetry_cell_setting 'orthorhombic'
loop_
_space_group_symop_operation_xyz
x,y,z
-x,-y,z
x,-y,-z
-x,y,-z
-x,-y,-z
x,y,-z
-x,y,z
x,-y,z
loop_
_atom_site_type_symbol
_atom_site_label
_atom_site_fract_x
_atom_site_fract_y
_atom_site_fract_z
Si Si1 0.162240 0.277654 0.328179
Si Si2 0.726303 0.606107 0.672222
Si Si3 0.386555 0.282167 0.672073
Si Si4 0.932526 0.391399 0.833627
Si Si5 0.788669 0.891702 0.832862
Si Si6 0.345018 0.892604 0.168931
Si Si7 0.500000 0.393106 0.672312
O O1 0.159481 0.272038 0.500000
O O2 0.216163 0.340956 0.272146
O O3 0.102941 0.322574 0.270705
O O4 0.169550 0.172243 0.265509
O O5 0.725253 0.602554 0.500000
O O6 0.726258 0.500000 0.736725
O O7 0.669443 0.660428 0.729500
O O8 0.386537 0.271742 0.500000
O O9 0.386103 0.177396 0.740295
O O10 0.443213 0.337776 0.728192
O O11 0.919032 0.500000 0.791698
O O12 0.000000 0.368759 0.808994
O O13 0.915125 0.372598 0.000000
O O14 0.721901 0.877800 0.784208
O O15 0.807825 0.000000 0.808653
O O16 0.796232 0.862700 0.000000
O O17 0.364420 0.000000 0.204104
O O18 0.352623 0.870963 0.000000
O O19 0.500000 0.500000 0.735542
O O20 0.500000 0.397851 0.500000
#
# Coordination Sequence:
#
# PCOD8194443 Si02
#       7
#     8   8   8   8   8   8   4
#     4  11  20  30  49  79 109 134 164 208 262 310
#     4   9  17  28  43  68 102 132 158 197 250 302
#     4  10  18  31  51  74  98 129 170 213 251 294
#     4   9  19  36  55  74 101 141 183 215 245 290
#     4   9  18  33  52  73 100 135 172 209 252 307
#     4   9  18  33  52  73  99 131 165 205 256 309
#     4   9  18  32  52  75  98 132 175 211 248 299
#
# _framework density 17.389765000000001
#
# number of rings (size 3 to 8) (size 9 to 14) (size 15 to 20)
#    0.000    2.538    1.538    2.769    0.000    3.692 
#    0.000    3.077    0.000    6.000    0.000    3.231 
#    0.000    0.000    0.000    0.000    0.000    0.000 
#
# Total GULP energy -644858.028625 kJ/mol
# GULP energy per Si atom -12401.115935 kJ/mol
# Density = 1.735019 g / cm^3
# Si number density = 17.389765 Si / 1000 Ang^3
#
#
#
# Elastic Constant Matrix: (Units=GPa)
#
#
# Indices 1 2 3 4 5 6 
#
# 1 94.8001 60.3442 38.3247 0.0000 0.0000 0.0000
# 2 60.3442 134.7652 50.6762 0.0000 0.0000 0.0000
# 3 38.3247 50.6762 53.1563 0.0000 0.0000 0.0000
# 4 0.0000 0.0000 0.0000 27.8467 0.0000 0.0000
# 5 0.0000 0.0000 0.0000 0.0000 21.9007 0.0000
# 6 0.0000 0.0000 0.0000 0.0000 0.0000 33.0715
#
#
#
# Elastic Compliance Matrix: (Units=1/GPa)
#
#
# Indices 1 2 3 4 5 6 
#
# 1 0.016498 -0.004543 -0.007564 0.000000 0.000000 0.000000
# 2 -0.004543 0.012818 -0.008944 0.000000 0.000000 0.000000
# 3 -0.007564 -0.008944 0.032793 0.000000 0.000000 0.000000
# 4 0.000000 0.000000 0.000000 0.035911 0.000000 0.000000
# 5 0.000000 0.000000 0.000000 0.000000 0.045661 0.000000
# 6 0.000000 0.000000 0.000000 0.000000 0.000000 0.030238
#
#
# Mechanical properties :
#
#
# Convention : Reuss Voigt Hill
#
# Bulk Modulus (GPa) = 49.98384 64.60130 57.29257
# Shear Modulus (GPa) = 22.45280 25.45555 23.95418
#
# Velocity S-wave (km/s) = 3.59716 3.83015 3.71548
# Velocity P-wave (km/s) = 6.78663 7.53589 7.17106
#
# Compressibility (1/GPa) = 0.02000647
#
# Stress axis : x y z
#
# Youngs Moduli (GPa) = 60.61262 78.01496 30.49462
#
# Poissons Ratio (x) = 0.35444 0.23065
# Poissons Ratio (y) = 0.27538 0.27276
# Poissons Ratio (z) = 0.45845 0.69779
#
# Static dielectric constant tensor:
#      x y z
#    x 3.127310 0.000000 0.000000 
#    y 0.000000 3.302780 0.000000 
#    z 0.000000 0.000000 2.913120 
# 
# 
# High freq. dielectric constant tensor:
#      x y z
#    x 1.657400 0.000000 0.000000 
#    y 0.000000 1.679880 0.000000 
#    z 0.000000 0.000000 1.647460 
# 
# From -- ./inp_files/10979.got.cif
#   From: 2010.03.12/outbox.cif.g09.slc.cpg/sg47_6_cif.got.tgz:10979.got - 2010.04.14 03:12:58.
