data_PCOD8194552
_publ_section_title
;
Structure prediction by ZEFSAII (Michael W. Deem and Ramdas Pophale) SiO2 
 PCOD8194552
Probable space group: P M M M
;
_chemical_formula_sum "Si O2"
_cell_formula_units_Z 44
_cell_length_a 14.560858
_cell_length_b 17.910487
_cell_length_c 9.221009
_cell_angle_alpha 90.000000
_cell_angle_beta 90.000000
_cell_angle_gamma 90.000000
_cell_volume 2404.765913
_symmetry_space_group_name_H-M "P M M M"
_symmetry_group_IT_number 47
_symmetry_cell_setting 'orthorhombic'
loop_
_space_group_symop_operation_xyz
x,y,z
-x,-y,z
x,-y,-z
-x,y,-z
-x,-y,-z
x,y,-z
-x,y,z
x,-y,z
loop_
_atom_site_type_symbol
_atom_site_label
_atom_site_fract_x
_atom_site_fract_y
_atom_site_fract_z
Si Si1 0.897955 0.282655 0.672053
Si Si2 0.399862 0.411356 0.162283
Si Si3 0.775318 0.415715 0.671120
Si Si4 0.205893 0.864357 0.672657
Si Si5 0.891441 0.000000 0.830553
Si Si6 0.599857 0.084076 0.671725
O O1 0.903242 0.282238 0.500000
O O2 0.856138 0.361419 0.726003
O O3 0.834269 0.214773 0.724777
O O4 0.000000 0.274504 0.738619
O O5 0.500000 0.381533 0.214591
O O6 0.401398 0.500000 0.164322
O O7 0.320251 0.382707 0.268104
O O8 0.379617 0.382486 0.000000
O O9 0.766161 0.414342 0.500000
O O10 0.796113 0.500000 0.726650
O O11 0.195623 0.876594 0.500000
O O12 0.149206 0.927444 0.753992
O O13 0.313298 0.866163 0.721980
O O14 0.000000 0.000000 0.807274
O O15 0.865302 0.000000 0.000000
O O16 0.597281 0.082180 0.500000
O O17 0.500000 0.114630 0.728538
O O18 0.614961 0.000000 0.730573
#
# Coordination Sequence:
#
# PCOD8194552 Si02
#       6
#     8   8   8   8   4   8
#     4   9  18  31  47  70  98 125 159 207 251 285
#     4   8  14  26  45  68  93 122 156 194 239 291
#     4   9  17  29  46  69  96 127 163 202 247 296
#     4  10  18  32  54  75  94 124 166 203 235 280
#     4  11  23  35  48  71 102 130 157 195 244 293
#     4   8  13  23  43  72  99 119 146 188 233 274
#
# _framework density 18.296997999999999
#
# number of rings (size 3 to 8) (size 9 to 14) (size 15 to 20)
#    0.000    3.000    0.909    1.909    0.000    2.182 
#    0.000    5.455    0.000    6.000    0.000    2.545 
#    0.000    0.000    0.000    0.000    0.000    0.000 
#
# Total GULP energy -545204.411627 kJ/mol
# GULP energy per Si atom -12391.009355 kJ/mol
# Density = 1.825535 g / cm^3
# Si number density = 18.296998 Si / 1000 Ang^3
#
#
#
# Elastic Constant Matrix: (Units=GPa)
#
#
# Indices 1 2 3 4 5 6 
#
# 1 188.0813 82.4228 27.2539 0.0000 0.0000 0.0000
# 2 82.4228 107.2610 23.6094 0.0000 0.0000 0.0000
# 3 27.2539 23.6094 26.8355 0.0000 0.0000 0.0000
# 4 0.0000 0.0000 0.0000 7.3155 0.0000 0.0000
# 5 0.0000 0.0000 0.0000 0.0000 15.1947 0.0000
# 6 0.0000 0.0000 0.0000 0.0000 0.0000 30.4192
#
#
#
# Elastic Compliance Matrix: (Units=1/GPa)
#
#
# Indices 1 2 3 4 5 6 
#
# 1 0.008271 -0.005589 -0.003483 0.000000 0.000000 0.000000
# 2 -0.005589 0.015339 -0.007819 0.000000 0.000000 0.000000
# 3 -0.003483 -0.007819 0.047680 0.000000 0.000000 0.000000
# 4 0.000000 0.000000 0.000000 0.136696 0.000000 0.000000
# 5 0.000000 0.000000 0.000000 0.000000 0.065812 0.000000
# 6 0.000000 0.000000 0.000000 0.000000 0.000000 0.032874
#
#
# Mechanical properties :
#
#
# Convention : Reuss Voigt Hill
#
# Bulk Modulus (GPa) = 26.66043 65.41667 46.03855
# Shear Modulus (GPa) = 14.16609 23.17866 18.67238
#
# Velocity S-wave (km/s) = 2.78552 3.56308 3.19802
# Velocity P-wave (km/s) = 4.99480 7.26345 6.23321
#
# Compressibility (1/GPa) = 0.03750877
#
# Stress axis : x y z
#
# Youngs Moduli (GPa) = 120.90835 65.19435 20.97320
#
# Poissons Ratio (x) = 0.36437 0.07304
# Poissons Ratio (y) = 0.67575 0.16398
# Poissons Ratio (z) = 0.42108 0.50974
#
# Static dielectric constant tensor:
#      x y z
#    x 4.041940 0.000000 0.000000 
#    y 0.000000 3.318240 0.000000 
#    z 0.000000 0.000000 3.003370 
# 
# 
# High freq. dielectric constant tensor:
#      x y z
#    x 1.729310 0.000000 0.000000 
#    y 0.000000 1.686570 0.000000 
#    z 0.000000 0.000000 1.660580 
# 
# From -- ./inp_files/6162.got.cif
#   From: 2010.03.12/outbox.cif.g09.slc.cpg/sg47_4_cif.got.tgz:6162.got - 2010.04.14 03:12:58.
