data_PCOD8194582
_publ_section_title
;
Structure prediction by ZEFSAII (Michael W. Deem and Ramdas Pophale) SiO2 
 PCOD8194582
Probable space group: P M M M
;
_chemical_formula_sum "Si O2"
_cell_formula_units_Z 52
_cell_length_a 19.352326
_cell_length_b 7.623991
_cell_length_c 16.003082
_cell_angle_alpha 90.000000
_cell_angle_beta 90.000000
_cell_angle_gamma 90.000000
_cell_volume 2361.126072
_symmetry_space_group_name_H-M "P M M M"
_symmetry_group_IT_number 47
_symmetry_cell_setting 'orthorhombic'
loop_
_space_group_symop_operation_xyz
x,y,z
-x,-y,z
x,-y,-z
-x,y,-z
-x,-y,-z
x,y,-z
-x,y,z
x,-y,z
loop_
_atom_site_type_symbol
_atom_site_label
_atom_site_fract_x
_atom_site_fract_y
_atom_site_fract_z
Si Si1 0.923688 0.797110 0.240398
Si Si2 0.846562 0.706521 0.593477
Si Si3 0.419974 0.500000 0.901148
Si Si4 0.684776 0.801977 0.860032
Si Si5 0.425659 0.292422 0.407355
Si Si6 0.830943 0.207462 0.090890
Si Si7 0.292056 0.291942 0.680615
O O1 0.897528 0.776544 0.335353
O O2 0.874280 0.708868 0.168883
O O3 0.000000 0.710908 0.234227
O O4 0.929544 0.000000 0.219489
O O5 0.863443 0.781862 0.500000
O O6 0.853704 0.500000 0.591063
O O7 0.768826 0.762127 0.617592
O O8 0.500000 0.500000 0.869157
O O9 0.381225 0.325917 0.868024
O O10 0.418227 0.500000 0.000000
O O11 0.750556 0.731244 0.912394
O O12 0.717006 0.806131 0.767490
O O13 0.662296 0.000000 0.886196
O O14 0.421717 0.213204 0.500000
O O15 0.500000 0.242210 0.366803
O O16 0.417268 0.500000 0.412281
O O17 0.363699 0.213944 0.354060
O O18 0.830857 0.000000 0.102221
O O19 0.863131 0.261130 0.000000
O O20 0.294069 0.500000 0.695112
#
# Coordination Sequence:
#
# PCOD8194582 Si02
#       7
#     8   8   4   8   8   8   8
#     4  10  21  37  58  85 117 153 197 251 312 378
#     4  10  21  36  56  82 116 163 214 260 308 367
#     4  11  26  46  66  92 126 166 213 260 312 376
#     4  11  22  39  64  94 125 160 207 260 313 373
#     4   8  14  25  44  73 107 143 185 234 289 348
#     4   9  18  35  61  90 119 152 194 247 309 378
#     4  10  18  32  55  84 116 154 198 253 306 367
#
# _framework density 22.023389999999999
#
# number of rings (size 3 to 8) (size 9 to 14) (size 15 to 20)
#    0.000    2.231    2.308    1.385    0.000    4.923 
#    0.000    3.846    0.000    1.385    0.000    2.154 
#    0.000    0.000    0.000    0.000    0.000    0.000 
#
# Total GULP energy -644297.188465 kJ/mol
# GULP energy per Si atom -12390.330547 kJ/mol
# Density = 2.197326 g / cm^3
# Si number density = 22.023390 Si / 1000 Ang^3
#
#
#
# Elastic Constant Matrix: (Units=GPa)
#
#
# Indices 1 2 3 4 5 6 
#
# 1 164.3933 30.8022 60.4999 0.0000 0.0000 0.0000
# 2 30.8022 52.5172 9.3932 0.0000 0.0000 0.0000
# 3 60.4999 9.3932 144.7650 0.0000 0.0000 0.0000
# 4 0.0000 0.0000 0.0000 16.6331 0.0000 0.0000
# 5 0.0000 0.0000 0.0000 0.0000 35.4829 0.0000
# 6 0.0000 0.0000 0.0000 0.0000 0.0000 18.2181
#
#
#
# Elastic Compliance Matrix: (Units=1/GPa)
#
#
# Indices 1 2 3 4 5 6 
#
# 1 0.007988 -0.004136 -0.003070 0.000000 0.000000 0.000000
# 2 -0.004136 0.021406 0.000339 0.000000 0.000000 0.000000
# 3 -0.003070 0.000339 0.008169 0.000000 0.000000 0.000000
# 4 0.000000 0.000000 0.000000 0.060121 0.000000 0.000000
# 5 0.000000 0.000000 0.000000 0.000000 0.028183 0.000000
# 6 0.000000 0.000000 0.000000 0.000000 0.000000 0.054890
#
#
# Mechanical properties :
#
#
# Convention : Reuss Voigt Hill
#
# Bulk Modulus (GPa) = 41.96334 62.56289 52.26311
# Shear Modulus (GPa) = 24.69959 31.46551 28.08255
#
# Velocity S-wave (km/s) = 3.35254 3.78396 3.57476
# Velocity P-wave (km/s) = 5.83792 6.89639 6.38912
#
# Compressibility (1/GPa) = 0.02383032
#
# Stress axis : x y z
#
# Youngs Moduli (GPa) = 125.19322 46.71504 122.41914
#
# Poissons Ratio (x) = 0.19320 0.37581
# Poissons Ratio (y) = 0.51778 -0.04156
# Poissons Ratio (z) = 0.38432 -0.01586
#
# Static dielectric constant tensor:
#      x y z
#    x 4.269110 0.000000 0.000000 
#    y 0.000000 3.539280 0.000000 
#    z 0.000000 0.000000 5.030770 
# 
# 
# High freq. dielectric constant tensor:
#      x y z
#    x 1.864040 0.000000 0.000000 
#    y 0.000000 1.832410 0.000000 
#    z 0.000000 0.000000 1.873200 
# 
# From -- ./inp_files/25014.got.cif
#   From: 2010.03.12/outbox.cif.g09.slc.cpg/sg47_13_cif.got.tgz:25014.got - 2010.04.14 03:12:58.
