data_PCOD8194159
_publ_section_title
;
Structure prediction by ZEFSAII (Michael W. Deem and Ramdas Pophale) SiO2 
 PCOD8194159
Probable space group: P M M M
;
_chemical_formula_sum "Si O2"
_cell_formula_units_Z 52
_cell_length_a 9.626182
_cell_length_b 27.501656
_cell_length_c 11.431281
_cell_angle_alpha 90.000000
_cell_angle_beta 90.000000
_cell_angle_gamma 90.000000
_cell_volume 3026.270989
_symmetry_space_group_name_H-M "P M M M"
_symmetry_group_IT_number 47
_symmetry_cell_setting 'orthorhombic'
loop_
_space_group_symop_operation_xyz
x,y,z
-x,-y,z
x,-y,-z
-x,y,-z
-x,-y,-z
x,y,-z
-x,y,z
x,-y,z
loop_
_atom_site_type_symbol
_atom_site_label
_atom_site_fract_x
_atom_site_fract_y
_atom_site_fract_z
Si Si1 0.659323 0.174034 0.634722
Si Si2 0.834875 0.000000 0.867264
Si Si3 0.344285 0.554060 0.360885
Si Si4 0.844023 0.838266 0.000000
Si Si5 0.156781 0.640681 0.638719
Si Si6 0.839287 0.898511 0.230499
Si Si7 0.343337 0.745646 0.000000
Si Si8 0.659954 0.723651 0.744204
O O1 0.686581 0.187309 0.500000
O O2 0.500000 0.159866 0.657200
O O3 0.751296 0.127354 0.668100
O O4 0.700464 0.221013 0.711957
O O5 0.785851 0.046683 0.792462
O O6 0.000000 0.000000 0.879663
O O7 0.772807 0.000000 0.000000
O O8 0.342802 0.555677 0.500000
O O9 0.500000 0.566486 0.316189
O O10 0.300796 0.500000 0.317967
O O11 0.236221 0.593373 0.309541
O O12 0.812696 0.870659 0.888873
O O13 0.749090 0.792302 0.000000
O O14 0.000000 0.818589 0.000000
O O15 0.153025 0.638195 0.500000
O O16 0.238096 0.688804 0.674564
O O17 0.000000 0.641646 0.689208
O O18 0.000000 0.897739 0.268610
O O19 0.316205 0.714322 0.882782
O O20 0.500000 0.765182 0.000000
O O21 0.500000 0.713154 0.707843
#
# Coordination Sequence:
#
# PCOD8194159 Si02
#       8
#     8   4   8   4   8   8   4   8
#     4  10  21  36  53  72  97 132 168 201 242 291
#     4   9  16  30  52  77 102 126 157 198 243 292
#     4   8  14  26  45  68  95 130 170 208 246 289
#     4  10  18  29  50  78 102 123 151 194 249 296
#     4  10  20  31  45  70 103 136 168 203 243 287
#     4  10  19  32  53  78 101 127 159 198 244 292
#     4  10  20  34  53  75  96 123 160 204 247 291
#     4  10  20  34  52  72  95 126 163 202 245 293
#
# _framework density 17.182863999999999
#
# number of rings (size 3 to 8) (size 9 to 14) (size 15 to 20)
#    0.000    2.385    2.308    1.385    0.000    3.385 
#    0.000    2.308    0.000    2.769    0.000    0.538 
#    0.000    4.308    0.000    0.000    0.000    0.000 
#
# Total GULP energy -644679.429216 kJ/mol
# GULP energy per Si atom -12397.681331 kJ/mol
# Density = 1.714375 g / cm^3
# Si number density = 17.182864 Si / 1000 Ang^3
#
#
#
# Elastic Constant Matrix: (Units=GPa)
#
#
# Indices 1 2 3 4 5 6 
#
# 1 86.4404 59.1272 19.9902 0.0000 0.0000 0.0000
# 2 59.1272 103.7087 14.4424 0.0000 0.0000 0.0000
# 3 19.9902 14.4424 48.8562 0.0000 0.0000 0.0000
# 4 0.0000 0.0000 0.0000 14.1373 0.0000 0.0000
# 5 0.0000 0.0000 0.0000 0.0000 22.0467 0.0000
# 6 0.0000 0.0000 0.0000 0.0000 0.0000 29.5592
#
#
#
# Elastic Compliance Matrix: (Units=1/GPa)
#
#
# Indices 1 2 3 4 5 6 
#
# 1 0.020088 -0.010751 -0.005041 0.000000 0.000000 0.000000
# 2 -0.010751 0.015810 -0.000275 0.000000 0.000000 0.000000
# 3 -0.005041 -0.000275 0.022612 0.000000 0.000000 0.000000
# 4 0.000000 0.000000 0.000000 0.070735 0.000000 0.000000
# 5 0.000000 0.000000 0.000000 0.000000 0.045358 0.000000
# 6 0.000000 0.000000 0.000000 0.000000 0.000000 0.033830
#
#
# Mechanical properties :
#
#
# Convention : Reuss Voigt Hill
#
# Bulk Modulus (GPa) = 37.91236 47.34720 42.62978
# Shear Modulus (GPa) = 20.05131 22.84503 21.44817
#
# Velocity S-wave (km/s) = 3.41975 3.65022 3.53686
# Velocity P-wave (km/s) = 6.14043 6.73648 6.44535
#
# Compressibility (1/GPa) = 0.02637662
#
# Stress axis : x y z
#
# Youngs Moduli (GPa) = 49.77999 63.25104 44.22395
#
# Poissons Ratio (x) = 0.68000 0.22295
# Poissons Ratio (y) = 0.53518 0.01215
# Poissons Ratio (z) = 0.25096 0.01738
#
# Static dielectric constant tensor:
#      x y z
#    x 3.272530 0.000000 0.000000 
#    y 0.000000 4.016650 0.000000 
#    z 0.000000 0.000000 3.062580 
# 
# 
# High freq. dielectric constant tensor:
#      x y z
#    x 1.657660 0.000000 0.000000 
#    y 0.000000 1.661870 0.000000 
#    z 0.000000 0.000000 1.635670 
# 
# From -- ./inp_files/15518.got.cif
#   From: 2010.03.12/outbox.cif.g09.slc.cpg/sg47_8_cif.got.tgz:15518.got - 2010.04.14 03:12:58.
