data_PCOD8194683
_publ_section_title
;
Structure prediction by ZEFSAII (Michael W. Deem and Ramdas Pophale) SiO2 
 PCOD8194683
Probable space group: P M M M
;
_chemical_formula_sum "Si O2"
_cell_formula_units_Z 56
_cell_length_a 13.724872
_cell_length_b 9.152312
_cell_length_c 29.529478
_cell_angle_alpha 90.000000
_cell_angle_beta 90.000000
_cell_angle_gamma 90.000000
_cell_volume 3709.325024
_symmetry_space_group_name_H-M "P M M M"
_symmetry_group_IT_number 47
_symmetry_cell_setting 'orthorhombic'
loop_
_space_group_symop_operation_xyz
x,y,z
-x,-y,z
x,-y,-z
-x,y,-z
-x,-y,-z
x,y,-z
-x,y,z
x,-y,z
loop_
_atom_site_type_symbol
_atom_site_label
_atom_site_fract_x
_atom_site_fract_y
_atom_site_fract_z
Si Si1 0.886303 0.170968 0.233196
Si Si2 0.890962 0.673576 0.952064
Si Si3 0.611567 0.171506 0.361452
Si Si4 0.220484 0.328123 0.313938
Si Si5 0.109579 0.670930 0.595339
Si Si6 0.116053 0.664113 0.855332
Si Si7 0.723444 0.169280 0.449719
O O1 0.822482 0.256019 0.269389
O O2 0.850738 0.225911 0.183998
O O3 0.000000 0.207588 0.240912
O O4 0.865583 0.000000 0.237111
O O5 0.895598 0.500000 0.949953
O O6 0.841292 0.722759 0.904217
O O7 0.000000 0.737546 0.953991
O O8 0.838208 0.721942 0.000000
O O9 0.500000 0.217677 0.355240
O O10 0.673878 0.260173 0.324679
O O11 0.643424 0.216237 0.412518
O O12 0.627170 0.000000 0.353213
O O13 0.231868 0.500000 0.306251
O O14 0.147459 0.290153 0.354681
O O15 0.114279 0.500000 0.586341
O O16 0.175343 0.747001 0.557565
O O17 0.000000 0.730754 0.590980
O O18 0.153983 0.500000 0.844294
O O19 0.000000 0.661087 0.859438
O O20 0.683064 0.206127 0.500000
O O21 0.747902 0.000000 0.444832
#
# Coordination Sequence:
#
# PCOD8194683 Si02
#       7
#     8   8   8   8   8   8   8
#     4  10  19  28  39  57  82 110 138 170 208 248
#     4   7   9  14  26  44  64  88 124 170 211 241
#     4   9  18  33  51  68  86 107 130 159 197 240
#     4  10  19  31  47  64  82 104 134 170 204 242
#     4   9  18  31  45  61  82 109 138 166 197 233
#     4   8  13  21  33  49  70  98 133 171 208 244
#     4   9  18  31  46  66  89 110 134 162 191 227
#
# _framework density 15.097085999999999
#
# number of rings (size 3 to 8) (size 9 to 14) (size 15 to 20)
#    0.000    3.143    0.000    2.571    0.000    3.429 
#    0.000    2.857    0.000    0.429    0.000    7.000 
#    0.000    0.000    0.000    0.000    0.000    0.714 
#
# Total GULP energy -693869.751700 kJ/mol
# GULP energy per Si atom -12390.531280 kJ/mol
# Density = 1.506272 g / cm^3
# Si number density = 15.097086 Si / 1000 Ang^3
#
#
#
# Elastic Constant Matrix: (Units=GPa)
#
#
# Indices 1 2 3 4 5 6 
#
# 1 70.5838 31.7300 39.7192 0.0000 0.0000 0.0000
# 2 31.7300 47.8943 42.7058 0.0000 0.0000 0.0000
# 3 39.7192 42.7058 125.8827 0.0000 0.0000 0.0000
# 4 0.0000 0.0000 0.0000 17.6167 0.0000 0.0000
# 5 0.0000 0.0000 0.0000 0.0000 8.5428 0.0000
# 6 0.0000 0.0000 0.0000 0.0000 0.0000 17.2949
#
#
#
# Elastic Compliance Matrix: (Units=1/GPa)
#
#
# Indices 1 2 3 4 5 6 
#
# 1 0.020801 -0.011367 -0.002707 0.000000 0.000000 0.000000
# 2 -0.011367 0.036146 -0.008676 0.000000 0.000000 0.000000
# 3 -0.002707 -0.008676 0.011741 0.000000 0.000000 0.000000
# 4 0.000000 0.000000 0.000000 0.056764 0.000000 0.000000
# 5 0.000000 0.000000 0.000000 0.000000 0.117057 0.000000
# 6 0.000000 0.000000 0.000000 0.000000 0.000000 0.057820
#
#
# Mechanical properties :
#
#
# Convention : Reuss Voigt Hill
#
# Bulk Modulus (GPa) = 43.12485 52.51897 47.82191
# Shear Modulus (GPa) = 14.14193 17.37127 15.75660
#
# Velocity S-wave (km/s) = 3.06393 3.39578 3.23412
# Velocity P-wave (km/s) = 6.41435 7.08789 6.75951
#
# Compressibility (1/GPa) = 0.02318848
#
# Stress axis : x y z
#
# Youngs Moduli (GPa) = 48.07568 27.66562 85.16880
#
# Poissons Ratio (x) = 0.31447 0.23055
# Poissons Ratio (y) = 0.54646 0.73893
# Poissons Ratio (z) = 0.13014 0.24003
#
# Static dielectric constant tensor:
#      x y z
#    x 2.602680 0.000000 0.000000 
#    y 0.000000 2.816000 0.000000 
#    z 0.000000 0.000000 3.284760 
# 
# 
# High freq. dielectric constant tensor:
#      x y z
#    x 1.523820 0.000000 0.000000 
#    y 0.000000 1.569120 0.000000 
#    z 0.000000 0.000000 1.589060 
# 
# From -- ./inp_files/14227.got.cif
#   From: 2010.03.12/outbox.cif.g09.slc.cpg/sg47_8_cif.got.tgz:14227.got - 2010.04.14 03:12:58.
