data_PCOD8194912
_publ_section_title
;
Structure prediction by ZEFSAII (Michael W. Deem and Ramdas Pophale) SiO2 
 PCOD8194912
Probable space group: P M M M
;
_chemical_formula_sum "Si O2"
_cell_formula_units_Z 44
_cell_length_a 13.319024
_cell_length_b 19.925435
_cell_length_c 9.211415
_cell_angle_alpha 90.000000
_cell_angle_beta 90.000000
_cell_angle_gamma 90.000000
_cell_volume 2444.592989
_symmetry_space_group_name_H-M "P M M M"
_symmetry_group_IT_number 47
_symmetry_cell_setting 'orthorhombic'
loop_
_space_group_symop_operation_xyz
x,y,z
-x,-y,z
x,-y,-z
-x,y,-z
-x,-y,-z
x,y,-z
-x,y,z
x,-y,z
loop_
_atom_site_type_symbol
_atom_site_label
_atom_site_fract_x
_atom_site_fract_y
_atom_site_fract_z
Si Si1 0.777326 0.103806 0.170739
Si Si2 0.388064 0.000000 0.171401
Si Si3 0.614615 0.422714 0.666772
Si Si4 0.886724 0.765203 0.171527
Si Si5 0.882855 0.500000 0.337700
Si Si6 0.113695 0.000000 0.344254
Si Si7 0.795349 0.625188 0.172763
O O1 0.799749 0.180852 0.217324
O O2 0.671516 0.068475 0.219767
O O3 0.865472 0.065216 0.249978
O O4 0.789419 0.094361 0.000000
O O5 0.500000 0.000000 0.241768
O O6 0.398881 0.000000 0.000000
O O7 0.627752 0.400651 0.500000
O O8 0.500000 0.414310 0.715966
O O9 0.649373 0.500000 0.686573
O O10 0.680483 0.375494 0.770999
O O11 0.847755 0.693449 0.226310
O O12 0.000000 0.779245 0.234339
O O13 0.894960 0.764836 0.000000
O O14 0.833197 0.500000 0.500000
O O15 0.853787 0.565388 0.248435
O O16 0.000000 0.500000 0.356708
O O17 0.172777 0.000000 0.500000
O O18 0.000000 0.000000 0.384710
O O19 0.797849 0.616904 0.000000
#
# Coordination Sequence:
#
# PCOD8194912 Si02
#       7
#     8   4   8   8   4   4   8
#     4   9  17  31  52  73  95 134 179 206 238 301
#     4   8  14  26  48  79 106 127 161 210 252 284
#     4   9  18  34  55  75  98 131 168 208 257 312
#     4   9  18  32  49  72 104 137 170 211 257 306
#     4  11  23  37  52  71  98 135 179 220 260 321
#     4  10  19  29  44  71 104 129 155 204 260 296
#     4  11  21  33  52  78 104 131 167 220 278 321
#
# _framework density 17.998906999999999
#
# number of rings (size 3 to 8) (size 9 to 14) (size 15 to 20)
#    0.000    2.455    0.909    3.273    0.000    3.273 
#    0.000    3.636    0.000   12.000    0.000    0.000 
#    0.000    0.000    0.000    0.000    0.000    0.000 
#
# Total GULP energy -545103.980122 kJ/mol
# GULP energy per Si atom -12388.726821 kJ/mol
# Density = 1.795794 g / cm^3
# Si number density = 17.998907 Si / 1000 Ang^3
#
#
#
# Elastic Constant Matrix: (Units=GPa)
#
#
# Indices 1 2 3 4 5 6 
#
# 1 122.6176 66.7958 29.1615 0.0000 0.0000 0.0000
# 2 66.7958 144.5334 35.5727 0.0000 0.0000 0.0000
# 3 29.1615 35.5727 55.9654 0.0000 0.0000 0.0000
# 4 0.0000 0.0000 0.0000 -98.7666 0.0000 0.0000
# 5 0.0000 0.0000 0.0000 0.0000 22.1156 0.0000
# 6 0.0000 0.0000 0.0000 0.0000 0.0000 67.2444
#
#
#
# Elastic Compliance Matrix: (Units=1/GPa)
#
#
# Indices 1 2 3 4 5 6 
#
# 1 0.011322 -0.004482 -0.003051 0.000000 0.000000 0.000000
# 2 -0.004482 0.009976 -0.004006 0.000000 0.000000 0.000000
# 3 -0.003051 -0.004006 0.022004 0.000000 0.000000 0.000000
# 4 0.000000 0.000000 0.000000 -0.010125 0.000000 0.000000
# 5 0.000000 0.000000 0.000000 0.000000 0.045217 0.000000
# 6 0.000000 0.000000 0.000000 0.000000 0.000000 0.014871
#
#
# Mechanical properties :
#
#
# Convention : Reuss Voigt Hill
#
# Bulk Modulus (GPa) = 49.44226 65.13072 57.28649
# Shear Modulus (GPa) = 40.62255 10.89109 25.75682
#
# Velocity S-wave (km/s) = 4.75589 2.46254 3.78699
# Velocity P-wave (km/s) = 7.59521 6.65958 7.14273
#
# Compressibility (1/GPa) = 0.02022561
#
# Stress axis : x y z
#
# Youngs Moduli (GPa) = 88.31990 100.24152 45.44620
#
# Poissons Ratio (x) = 0.44926 0.13866
# Poissons Ratio (y) = 0.39583 0.18204
# Poissons Ratio (z) = 0.26947 0.40153
#
# Static dielectric constant tensor:
#      x y z
#    x 3.568450 0.000000 0.000000 
#    y 0.000000 3.994600 0.000000 
#    z 0.000000 0.000000 3.107870 
# 
# 
# High freq. dielectric constant tensor:
#      x y z
#    x 1.700810 0.000000 0.000000 
#    y 0.000000 1.686900 0.000000 
#    z 0.000000 0.000000 1.676000 
# 
# From -- ./inp_files/6238.got.cif
#   From: 2010.03.12/outbox.cif.g09.slc.cpg/sg47_4_cif.got.tgz:6238.got - 2010.04.14 03:12:58.
