data_PCOD8194768
_publ_section_title
;
Structure prediction by ZEFSAII (Michael W. Deem and Ramdas Pophale) SiO2 
 PCOD8194768
Probable space group: P M M M
;
_chemical_formula_sum "Si O2"
_cell_formula_units_Z 44
_cell_length_a 12.566416
_cell_length_b 9.056232
_cell_length_c 25.263871
_cell_angle_alpha 90.000000
_cell_angle_beta 90.000000
_cell_angle_gamma 90.000000
_cell_volume 2875.139143
_symmetry_space_group_name_H-M "P M M M"
_symmetry_group_IT_number 47
_symmetry_cell_setting 'orthorhombic'
loop_
_space_group_symop_operation_xyz
x,y,z
-x,-y,z
x,-y,-z
-x,y,-z
-x,-y,-z
x,y,-z
-x,y,z
x,-y,z
loop_
_atom_site_type_symbol
_atom_site_label
_atom_site_fract_x
_atom_site_fract_y
_atom_site_fract_z
Si Si1 0.376719 0.830516 0.060708
Si Si2 0.880791 0.675496 0.443956
Si Si3 0.876292 0.172795 0.226955
Si Si4 0.798436 0.325205 0.125330
Si Si5 0.873045 0.666033 0.669060
Si Si6 0.000000 0.324543 0.940740
O O1 0.500000 0.805172 0.073650
O O2 0.311168 0.723442 0.098636
O O3 0.344807 0.000000 0.071318
O O4 0.352661 0.788390 0.000000
O O5 0.823173 0.724110 0.500000
O O6 0.885450 0.500000 0.441167
O O7 0.826963 0.726326 0.388051
O O8 0.000000 0.739477 0.446367
O O9 0.806633 0.254403 0.183059
O O10 0.834465 0.226909 0.284136
O O11 0.000000 0.214906 0.219184
O O12 0.856840 0.000000 0.222447
O O13 0.800958 0.500000 0.131281
O O14 0.895793 0.266303 0.089458
O O15 0.832270 0.500000 0.681130
O O16 0.000000 0.665954 0.664881
O O17 0.000000 0.500000 0.942792
O O18 0.000000 0.258419 0.000000
#
# Coordination Sequence:
#
# PCOD8194768 Si02
#       6
#     8   8   8   8   8   4
#     4   9  19  36  54  70  90 114 138 167 206 253
#     4   7   9  14  26  45  66  88 120 165 210 246
#     4  10  19  29  40  55  80 111 143 175 210 255
#     4  11  20  31  48  67  89 113 141 177 213 252
#     4   8  13  21  34  50  69  96 132 171 209 247
#     4   9  18  30  43  63  89 111 130 163 212 253
#
# _framework density 15.303607
#
# number of rings (size 3 to 8) (size 9 to 14) (size 15 to 20)
#    0.000    3.000    0.909    3.818    0.000    2.182 
#    0.000    0.909    0.000    2.727    0.000    3.818 
#    0.000    0.000    0.000    0.000    0.000    0.909 
#
# Total GULP energy -545136.885972 kJ/mol
# GULP energy per Si atom -12389.474681 kJ/mol
# Density = 1.526878 g / cm^3
# Si number density = 15.303607 Si / 1000 Ang^3
#
#
#
# Elastic Constant Matrix: (Units=GPa)
#
#
# Indices 1 2 3 4 5 6 
#
# 1 39.0094 21.4439 36.7390 0.0000 0.0000 0.0000
# 2 21.4439 56.0562 47.4641 0.0000 0.0000 0.0000
# 3 36.7390 47.4641 156.7889 0.0000 0.0000 0.0000
# 4 0.0000 0.0000 0.0000 15.8203 0.0000 0.0000
# 5 0.0000 0.0000 0.0000 0.0000 9.5783 0.0000
# 6 0.0000 0.0000 0.0000 0.0000 0.0000 16.4917
#
#
#
# Elastic Compliance Matrix: (Units=1/GPa)
#
#
# Indices 1 2 3 4 5 6 
#
# 1 0.035913 -0.008892 -0.005723 0.000000 0.000000 0.000000
# 2 -0.008892 0.026190 -0.005845 0.000000 0.000000 0.000000
# 3 -0.005723 -0.005845 0.009488 0.000000 0.000000 0.000000
# 4 0.000000 0.000000 0.000000 0.063210 0.000000 0.000000
# 5 0.000000 0.000000 0.000000 0.000000 0.104402 0.000000
# 6 0.000000 0.000000 0.000000 0.000000 0.000000 0.060637
#
#
# Mechanical properties :
#
#
# Convention : Reuss Voigt Hill
#
# Bulk Modulus (GPa) = 32.60423 51.46094 42.03259
# Shear Modulus (GPa) = 14.24564 18.12523 16.18544
#
# Velocity S-wave (km/s) = 3.05432 3.44521 3.25564
# Velocity P-wave (km/s) = 5.81289 7.03745 6.45428
#
# Compressibility (1/GPa) = 0.03067086
#
# Stress axis : x y z
#
# Youngs Moduli (GPa) = 27.84483 38.18284 105.39157
#
# Poissons Ratio (x) = 0.33954 0.60319
# Poissons Ratio (y) = 0.24761 0.61598
# Poissons Ratio (z) = 0.15936 0.22317
#
# Static dielectric constant tensor:
#      x y z
#    x 2.431850 0.000000 0.000000 
#    y 0.000000 2.716960 0.000000 
#    z 0.000000 0.000000 3.432030 
# 
# 
# High freq. dielectric constant tensor:
#      x y z
#    x 1.515540 0.000000 0.000000 
#    y 0.000000 1.569120 0.000000 
#    z 0.000000 0.000000 1.609220 
# 
# From -- ./inp_files/15391.got.cif
#   From: 2010.03.12/outbox.cif.g09.slc.cpg/sg47_8_cif.got.tgz:15391.got - 2010.04.14 03:12:58.
