data_PCOD8194663
_publ_section_title
;
Structure prediction by ZEFSAII (Michael W. Deem and Ramdas Pophale) SiO2 
 PCOD8194663
Probable space group: P M M M
;
_chemical_formula_sum "Si O2"
_cell_formula_units_Z 64
_cell_length_a 19.245624
_cell_length_b 9.148380
_cell_length_c 23.501844
_cell_angle_alpha 90.000000
_cell_angle_beta 90.000000
_cell_angle_gamma 90.000000
_cell_volume 4137.882286
_symmetry_space_group_name_H-M "P M M M"
_symmetry_group_IT_number 47
_symmetry_cell_setting 'orthorhombic'
loop_
_space_group_symop_operation_xyz
x,y,z
-x,-y,z
x,-y,-z
-x,y,-z
-x,-y,-z
x,y,-z
-x,y,z
x,-y,z
loop_
_atom_site_type_symbol
_atom_site_label
_atom_site_fract_x
_atom_site_fract_y
_atom_site_fract_z
Si Si1 0.920592 0.329688 0.935067
Si Si2 0.854560 0.170638 0.834178
Si Si3 0.283344 0.827621 0.434931
Si Si4 0.078140 0.332282 0.268060
Si Si5 0.575722 0.826674 0.618927
Si Si6 0.722358 0.829218 0.766259
Si Si7 0.574171 0.172536 0.252468
Si Si8 0.209717 0.328959 0.337401
O O1 0.909510 0.500000 0.923619
O O2 0.868597 0.240266 0.895357
O O3 0.000000 0.285905 0.921515
O O4 0.902384 0.290289 0.000000
O O5 0.905755 0.234834 0.786797
O O6 0.774379 0.205959 0.818051
O O7 0.868971 0.000000 0.837968
O O8 0.268193 0.787445 0.500000
O O9 0.360413 0.767301 0.418927
O O10 0.224878 0.747947 0.397368
O O11 0.278067 0.000000 0.423905
O O12 0.087022 0.500000 0.248684
O O13 0.129581 0.296689 0.320358
O O14 0.000000 0.299268 0.288927
O O15 0.500000 0.772990 0.595461
O O16 0.585062 0.769581 0.683353
O O17 0.577510 0.000000 0.617488
O O18 0.643001 0.784369 0.783997
O O19 0.741046 0.737067 0.710855
O O20 0.726809 0.000000 0.749439
O O21 0.500000 0.235186 0.227944
O O22 0.567723 0.000000 0.254076
O O23 0.224766 0.500000 0.342750
#
# Coordination Sequence:
#
# PCOD8194663 Si02
#       8
#     8   8   8   8   8   8   8   8
#     4   9  18  32  47  61  83 121 161 187 207 237
#     4  10  19  27  41  68  96 118 140 173 216 253
#     4  10  19  30  45  62  81 107 136 168 208 253
#     4   9  18  32  48  64  83 109 140 173 208 249
#     4   8  13  22  39  62  82 102 135 174 202 231
#     4   9  16  28  44  62  88 115 139 171 210 251
#     4   8  12  20  39  62  81 107 142 174 201 236
#     4  10  19  30  45  63  82 105 134 169 210 253
#
# _framework density 15.466849
#
# number of rings (size 3 to 8) (size 9 to 14) (size 15 to 20)
#    0.000    2.875    1.250    2.250    0.000    3.750 
#    0.000    1.875    0.000    1.875    0.000    3.500 
#    0.000    0.500    0.000    6.250    0.000    1.000 
#
# Total GULP energy -793087.556872 kJ/mol
# GULP energy per Si atom -12391.993076 kJ/mol
# Density = 1.543165 g / cm^3
# Si number density = 15.466849 Si / 1000 Ang^3
#
#
#
# Elastic Constant Matrix: (Units=GPa)
#
#
# Indices 1 2 3 4 5 6 
#
# 1 140.8236 39.6378 63.3992 0.0000 0.0000 0.0000
# 2 39.6378 44.8429 39.6830 0.0000 0.0000 0.0000
# 3 63.3992 39.6830 89.7145 0.0000 0.0000 0.0000
# 4 0.0000 0.0000 0.0000 23.5309 0.0000 0.0000
# 5 0.0000 0.0000 0.0000 0.0000 23.0211 0.0000
# 6 0.0000 0.0000 0.0000 0.0000 0.0000 13.8905
#
#
#
# Elastic Compliance Matrix: (Units=1/GPa)
#
#
# Indices 1 2 3 4 5 6 
#
# 1 0.010978 -0.004664 -0.005695 0.000000 0.000000 0.000000
# 2 -0.004664 0.038625 -0.013789 0.000000 0.000000 0.000000
# 3 -0.005695 -0.013789 0.021270 0.000000 0.000000 0.000000
# 4 0.000000 0.000000 0.000000 0.042497 0.000000 0.000000
# 5 0.000000 0.000000 0.000000 0.000000 0.043438 0.000000
# 6 0.000000 0.000000 0.000000 0.000000 0.000000 0.071992
#
#
# Mechanical properties :
#
#
# Convention : Reuss Voigt Hill
#
# Bulk Modulus (GPa) = 44.29188 62.31344 53.30266
# Shear Modulus (GPa) = 17.56724 20.93255 19.24989
#
# Velocity S-wave (km/s) = 3.37382 3.68282 3.53170
# Velocity P-wave (km/s) = 6.62387 7.64592 7.15317
#
# Compressibility (1/GPa) = 0.02257750
#
# Stress axis : x y z
#
# Youngs Moduli (GPa) = 91.09449 25.88998 47.01490
#
# Poissons Ratio (x) = 0.12075 0.26773
# Poissons Ratio (y) = 0.42487 0.64828
# Poissons Ratio (z) = 0.51875 0.35699
#
# Static dielectric constant tensor:
#      x y z
#    x 3.341580 0.000000 0.000000 
#    y 0.000000 2.777820 0.000000 
#    z 0.000000 0.000000 2.730320 
# 
# 
# High freq. dielectric constant tensor:
#      x y z
#    x 1.600390 0.000000 0.000000 
#    y 0.000000 1.573730 0.000000 
#    z 0.000000 0.000000 1.557100 
# 
# From -- ./inp_files/11779.got.cif
#   From: 2010.03.12/outbox.cif.g09.slc.cpg/sg47_6_cif.got.tgz:11779.got - 2010.04.14 03:12:58.
