data_PCOD8194449
_publ_section_title
;
Structure prediction by ZEFSAII (Michael W. Deem and Ramdas Pophale) SiO2 
 PCOD8194449
Probable space group: P M M M
;
_chemical_formula_sum "Si O2"
_cell_formula_units_Z 64
_cell_length_a 9.204648
_cell_length_b 14.478044
_cell_length_c 31.180506
_cell_angle_alpha 90.000000
_cell_angle_beta 90.000000
_cell_angle_gamma 90.000000
_cell_volume 4155.279447
_symmetry_space_group_name_H-M "P M M M"
_symmetry_group_IT_number 47
_symmetry_cell_setting 'orthorhombic'
loop_
_space_group_symop_operation_xyz
x,y,z
-x,-y,z
x,-y,-z
-x,y,-z
-x,-y,-z
x,y,-z
-x,y,z
x,-y,z
loop_
_atom_site_type_symbol
_atom_site_label
_atom_site_fract_x
_atom_site_fract_y
_atom_site_fract_z
Si Si1 0.827624 0.294933 0.297177
Si Si2 0.169654 0.294025 0.451486
Si Si3 0.828053 0.099550 0.676154
Si Si4 0.836726 0.390170 0.952798
Si Si5 0.172213 0.899979 0.579656
Si Si6 0.169027 0.393052 0.789079
Si Si7 0.336897 0.610141 0.872199
Si Si8 0.331087 0.608600 0.375854
O O1 0.779355 0.187024 0.295344
O O2 0.775652 0.338797 0.252601
O O3 0.748865 0.344404 0.336193
O O4 0.000000 0.307018 0.303831
O O5 0.195493 0.327904 0.500000
O O6 0.224768 0.187356 0.448198
O O7 0.261904 0.358838 0.420516
O O8 0.000000 0.301184 0.438726
O O9 0.769126 0.114352 0.627974
O O10 0.000000 0.096206 0.674610
O O11 0.770284 0.000000 0.694272
O O12 0.836054 0.500000 0.950345
O O13 0.735483 0.348756 0.915415
O O14 0.000000 0.353632 0.945468
O O15 0.780290 0.358670 0.000000
O O16 0.000000 0.902723 0.579529
O O17 0.229387 0.000000 0.561894
O O18 0.204896 0.500000 0.781299
O O19 0.252542 0.353533 0.830400
O O20 0.000000 0.376858 0.797624
O O21 0.500000 0.647788 0.870088
O O22 0.331747 0.500000 0.873324
O O23 0.500000 0.635753 0.375152
O O24 0.308062 0.500000 0.371800
#
# Coordination Sequence:
#
# PCOD8194449 Si02
#       8
#     8   8   8   8   8   8   8   8
#     4  10  18  31  52  72  88 109 141 177 208 244
#     4  10  20  34  53  74  91 110 140 173 201 236
#     4   8  13  23  44  72  95 111 129 161 205 247
#     4   8  13  21  33  48  67  95 133 177 221 259
#     4   8  13  24  45  73  99 115 129 158 201 243
#     4   9  17  27  39  57  80 107 139 175 213 246
#     4   9  16  24  34  49  72 103 137 175 216 255
#     4  11  24  38  50  65  87 115 142 171 211 252
#
# _framework density 15.402093000000001
#
# number of rings (size 3 to 8) (size 9 to 14) (size 15 to 20)
#    0.000    2.875    1.250    2.250    0.000    4.500 
#    0.000    5.000    0.000    1.500    0.000    0.875 
#    0.000    0.000    0.000    0.000    0.000    0.625 
#
# Total GULP energy -793092.437283 kJ/mol
# GULP energy per Si atom -12392.069333 kJ/mol
# Density = 1.536704 g / cm^3
# Si number density = 15.402093 Si / 1000 Ang^3
#
#
#
# Elastic Constant Matrix: (Units=GPa)
#
#
# Indices 1 2 3 4 5 6 
#
# 1 56.8283 28.9142 50.8808 0.0000 0.0000 0.0000
# 2 28.9142 66.5772 44.2534 0.0000 0.0000 0.0000
# 3 50.8808 44.2534 125.9098 0.0000 0.0000 0.0000
# 4 0.0000 0.0000 0.0000 4.4456 0.0000 0.0000
# 5 0.0000 0.0000 0.0000 0.0000 11.5829 0.0000
# 6 0.0000 0.0000 0.0000 0.0000 0.0000 7.1480
#
#
#
# Elastic Compliance Matrix: (Units=1/GPa)
#
#
# Indices 1 2 3 4 5 6 
#
# 1 0.029514 -0.006381 -0.009684 0.000000 0.000000 0.000000
# 2 -0.006381 0.020978 -0.004795 0.000000 0.000000 0.000000
# 3 -0.009684 -0.004795 0.013541 0.000000 0.000000 0.000000
# 4 0.000000 0.000000 0.000000 0.224941 0.000000 0.000000
# 5 0.000000 0.000000 0.000000 0.000000 0.086334 0.000000
# 6 0.000000 0.000000 0.000000 0.000000 0.000000 0.139900
#
#
# Mechanical properties :
#
#
# Convention : Reuss Voigt Hill
#
# Bulk Modulus (GPa) = 44.81528 55.26803 50.04165
# Shear Modulus (GPa) = 8.85950 12.98641 10.92296
#
# Velocity S-wave (km/s) = 2.40096 2.90687 2.66594
# Velocity P-wave (km/s) = 6.07011 6.87225 6.48360
#
# Compressibility (1/GPa) = 0.02231382
#
# Stress axis : x y z
#
# Youngs Moduli (GPa) = 33.88213 47.66817 73.85101
#
# Poissons Ratio (x) = 0.30417 0.71518
# Poissons Ratio (y) = 0.21620 0.35409
# Poissons Ratio (z) = 0.32812 0.22855
#
# Static dielectric constant tensor:
#      x y z
#    x 2.801480 0.000000 0.000000 
#    y 0.000000 3.031320 0.000000 
#    z 0.000000 0.000000 3.052620 
# 
# 
# High freq. dielectric constant tensor:
#      x y z
#    x 1.568040 0.000000 0.000000 
#    y 0.000000 1.557760 0.000000 
#    z 0.000000 0.000000 1.585120 
# 
# From -- ./inp_files/34472.got.cif
#   From: 2010.03.12/outbox.cif.g09.slc.cpg/sg47_18_cif.got.tgz:34472.got - 2010.04.14 03:12:58.
