data_PCOD8194382
_publ_section_title
;
Structure prediction by ZEFSAII (Michael W. Deem and Ramdas Pophale) SiO2 
 PCOD8194382
Probable space group: P M M M
;
_chemical_formula_sum "Si O2"
_cell_formula_units_Z 52
_cell_length_a 9.576547
_cell_length_b 21.523701
_cell_length_c 15.531372
_cell_angle_alpha 90.000000
_cell_angle_beta 90.000000
_cell_angle_gamma 90.000000
_cell_volume 3201.368863
_symmetry_space_group_name_H-M "P M M M"
_symmetry_group_IT_number 47
_symmetry_cell_setting 'orthorhombic'
loop_
_space_group_symop_operation_xyz
x,y,z
-x,-y,z
x,-y,-z
-x,y,-z
-x,-y,-z
x,y,-z
-x,y,z
x,-y,z
loop_
_atom_site_type_symbol
_atom_site_label
_atom_site_fract_x
_atom_site_fract_y
_atom_site_fract_z
Si Si1 0.840272 0.348256 0.841644
Si Si2 0.662648 0.726592 0.500000
Si Si3 0.662365 0.165719 0.762929
Si Si4 0.842998 0.150982 0.500000
Si Si5 0.847665 0.788418 0.097847
Si Si6 0.834051 0.570794 0.000000
Si Si7 0.662415 0.700826 0.310636
Si Si8 0.840197 0.071402 0.333113
O O1 0.828766 0.284941 0.893911
O O2 0.751129 0.344221 0.752459
O O3 0.000000 0.363764 0.815143
O O4 0.779297 0.398546 0.910215
O O5 0.500000 0.743707 0.500000
O O6 0.740475 0.791529 0.500000
O O7 0.698614 0.688039 0.412098
O O8 0.500000 0.152285 0.765789
O O9 0.719528 0.177103 0.858117
O O10 0.699052 0.226492 0.705475
O O11 0.738223 0.103375 0.734159
O O12 0.814120 0.106403 0.421172
O O13 0.000000 0.177731 0.500000
O O14 0.000000 0.806915 0.137301
O O15 0.841971 0.808647 0.000000
O O16 0.782900 0.500000 0.000000
O O17 0.000000 0.577926 0.000000
O O18 0.500000 0.687970 0.291072
O O19 0.000000 0.077600 0.302144
O O20 0.797000 0.000000 0.344013
#
# Coordination Sequence:
#
# PCOD8194382 Si02
#       8
#     8   4   8   4   8   4   8   8
#     4   9  16  28  46  70  98 127 160 194 224 270
#     4  10  18  31  47  65  95 127 156 192 240 291
#     4  10  19  30  45  66  90 116 150 190 235 282
#     4  10  19  30  46  66  88 115 151 191 230 276
#     4   9  16  28  47  68  92 120 150 184 227 277
#     4   9  16  28  49  77 107 137 164 191 230 275
#     4   9  18  30  45  65  93 127 157 193 238 281
#     4  10  20  33  47  63  86 117 152 189 231 281
#
# _framework density 16.243051999999999
#
# number of rings (size 3 to 8) (size 9 to 14) (size 15 to 20)
#    0.000    2.538    2.308    0.692    0.000    2.769 
#    0.000    0.385    0.000    2.769    0.000    3.769 
#    0.000    4.308    0.000    0.000    0.000    0.000 
#
# Total GULP energy -644443.681206 kJ/mol
# GULP energy per Si atom -12393.147715 kJ/mol
# Density = 1.620608 g / cm^3
# Si number density = 16.243052 Si / 1000 Ang^3
#
#
#
# Elastic Constant Matrix: (Units=GPa)
#
#
# Indices 1 2 3 4 5 6 
#
# 1 64.7512 38.2973 51.6585 0.0000 0.0000 0.0000
# 2 38.2973 67.9480 47.6621 0.0000 0.0000 0.0000
# 3 51.6585 47.6621 117.6206 0.0000 0.0000 0.0000
# 4 0.0000 0.0000 0.0000 36.6601 0.0000 0.0000
# 5 0.0000 0.0000 0.0000 0.0000 26.1903 0.0000
# 6 0.0000 0.0000 0.0000 0.0000 0.0000 13.1350
#
#
#
# Elastic Compliance Matrix: (Units=1/GPa)
#
#
# Indices 1 2 3 4 5 6 
#
# 1 0.027884 -0.009955 -0.008212 0.000000 0.000000 0.000000
# 2 -0.009955 0.024116 -0.005400 0.000000 0.000000 0.000000
# 3 -0.008212 -0.005400 0.014297 0.000000 0.000000 0.000000
# 4 0.000000 0.000000 0.000000 0.027278 0.000000 0.000000
# 5 0.000000 0.000000 0.000000 0.000000 0.038182 0.000000
# 6 0.000000 0.000000 0.000000 0.000000 0.000000 0.076133
#
#
# Mechanical properties :
#
#
# Convention : Reuss Voigt Hill
#
# Bulk Modulus (GPa) = 52.18841 58.39506 55.29174
# Shear Modulus (GPa) = 19.12695 22.71053 20.91874
#
# Velocity S-wave (km/s) = 3.43526 3.74327 3.59257
# Velocity P-wave (km/s) = 6.92345 7.39673 7.16400
#
# Compressibility (1/GPa) = 0.01916134
#
# Stress axis : x y z
#
# Youngs Moduli (GPa) = 35.86329 41.46613 69.94559
#
# Poissons Ratio (x) = 0.41282 0.57441
# Poissons Ratio (y) = 0.35704 0.37770
# Poissons Ratio (z) = 0.29452 0.22391
#
# Static dielectric constant tensor:
#      x y z
#    x 3.091300 0.000000 0.000000 
#    y 0.000000 2.846090 0.000000 
#    z 0.000000 0.000000 3.165100 
# 
# 
# High freq. dielectric constant tensor:
#      x y z
#    x 1.619800 0.000000 0.000000 
#    y 0.000000 1.584610 0.000000 
#    z 0.000000 0.000000 1.629160 
# 
# From -- ./inp_files/21831.got.cif
#   From: 2010.03.12/outbox.cif.g09.slc.cpg/sg47_11_cif.got.tgz:21831.got - 2010.04.14 03:12:58.
