data_PCOD8194167
_publ_section_title
;
Structure prediction by ZEFSAII (Michael W. Deem and Ramdas Pophale) SiO2 
 PCOD8194167
Probable space group: P M M M
;
_chemical_formula_sum "Si O2"
_cell_formula_units_Z 56
_cell_length_a 12.695290
_cell_length_b 23.796651
_cell_length_c 12.632344
_cell_angle_alpha 90.000000
_cell_angle_beta 90.000000
_cell_angle_gamma 90.000000
_cell_volume 3816.299154
_symmetry_space_group_name_H-M "P M M M"
_symmetry_group_IT_number 47
_symmetry_cell_setting 'orthorhombic'
loop_
_space_group_symop_operation_xyz
x,y,z
-x,-y,z
x,-y,-z
-x,y,-z
-x,-y,-z
x,y,-z
-x,y,z
x,-y,z
loop_
_atom_site_type_symbol
_atom_site_label
_atom_site_fract_x
_atom_site_fract_y
_atom_site_fract_z
Si Si1 0.375107 0.940612 0.381570
Si Si2 0.876409 0.674043 0.500000
Si Si3 0.878797 0.669414 0.121973
Si Si4 0.252070 0.714617 0.304735
Si Si5 0.621743 0.181067 0.373724
Si Si6 0.746213 0.436743 0.119765
Si Si7 0.755094 0.437393 0.500000
Si Si8 0.377642 0.395791 0.691114
O O1 0.329500 0.942742 0.500000
O O2 0.500000 0.938572 0.387107
O O3 0.339829 0.880912 0.331186
O O4 0.339605 0.000000 0.323981
O O5 0.831551 0.704881 0.602704
O O6 0.848812 0.607871 0.500000
O O7 0.000000 0.681116 0.500000
O O8 0.808464 0.711059 0.192773
O O9 0.843515 0.605034 0.143276
O O10 0.000000 0.674260 0.155707
O O11 0.861933 0.686526 0.000000
O O12 0.304342 0.775467 0.312863
O O13 0.345368 0.669351 0.313594
O O14 0.636397 0.186208 0.500000
O O15 0.500000 0.192162 0.343901
O O16 0.787114 0.500000 0.140059
O O17 0.648009 0.422091 0.194587
O O18 0.705204 0.429340 0.000000
O O19 0.804303 0.500000 0.500000
O O20 0.683588 0.430921 0.396744
O O21 0.500000 0.400851 0.667609
#
# Coordination Sequence:
#
# PCOD8194167 Si02
#       8
#     8   4   8   8   8   8   4   8
#     4   7  10  17  30  52  84 118 146 169 192 221
#     4  10  20  32  45  60  79 102 124 164 219 254
#     4   9  18  32  48  62  78 103 132 168 216 258
#     4  10  18  30  43  62  85 106 136 172 198 241
#     4   9  15  23  39  62  89 120 147 168 193 230
#     4   9  18  31  46  64  81  96 123 163 204 252
#     4  10  21  33  44  59  75  97 133 167 195 240
#     4  10  20  31  43  58  80 108 132 159 195 233
#
# _framework density 14.673902
#
# number of rings (size 3 to 8) (size 9 to 14) (size 15 to 20)
#    0.000    2.857    0.714    2.786    0.000    2.143 
#    0.000    2.143    0.000    6.429    0.000    0.000 
#    0.000    3.429    0.000    5.143    0.000    0.286 
#
# Total GULP energy -693942.271914 kJ/mol
# GULP energy per Si atom -12391.826284 kJ/mol
# Density = 1.464050 g / cm^3
# Si number density = 14.673902 Si / 1000 Ang^3
#
#
#
# Elastic Constant Matrix: (Units=GPa)
#
#
# Indices 1 2 3 4 5 6 
#
# 1 63.6836 42.4280 24.1142 0.0000 0.0000 0.0000
# 2 42.4280 137.1998 35.3732 0.0000 0.0000 0.0000
# 3 24.1142 35.3732 59.2360 0.0000 0.0000 0.0000
# 4 0.0000 0.0000 0.0000 10.7749 0.0000 0.0000
# 5 0.0000 0.0000 0.0000 0.0000 14.5220 0.0000
# 6 0.0000 0.0000 0.0000 0.0000 0.0000 13.3687
#
#
#
# Elastic Compliance Matrix: (Units=1/GPa)
#
#
# Indices 1 2 3 4 5 6 
#
# 1 0.021232 -0.005127 -0.005582 0.000000 0.000000 0.000000
# 2 -0.005127 0.009853 -0.003797 0.000000 0.000000 0.000000
# 3 -0.005582 -0.003797 0.021421 0.000000 0.000000 0.000000
# 4 0.000000 0.000000 0.000000 0.092808 0.000000 0.000000
# 5 0.000000 0.000000 0.000000 0.000000 0.068861 0.000000
# 6 0.000000 0.000000 0.000000 0.000000 0.000000 0.074802
#
#
# Mechanical properties :
#
#
# Convention : Reuss Voigt Hill
#
# Bulk Modulus (GPa) = 42.56135 51.55001 47.05568
# Shear Modulus (GPa) = 15.34596 18.28005 16.81300
#
# Velocity S-wave (km/s) = 3.23739 3.53335 3.38860
# Velocity P-wave (km/s) = 6.56064 7.20089 6.88821
#
# Compressibility (1/GPa) = 0.02349550
#
# Stress axis : x y z
#
# Youngs Moduli (GPa) = 47.09927 101.49292 46.68289
#
# Poissons Ratio (x) = 0.52032 0.26057
# Poissons Ratio (y) = 0.24146 0.17724
# Poissons Ratio (z) = 0.26290 0.38534
#
# Static dielectric constant tensor:
#      x y z
#    x 2.587120 0.000000 0.000000 
#    y 0.000000 3.088780 0.000000 
#    z 0.000000 0.000000 2.828270 
# 
# 
# High freq. dielectric constant tensor:
#      x y z
#    x 1.536640 0.000000 0.000000 
#    y 0.000000 1.556140 0.000000 
#    z 0.000000 0.000000 1.544210 
# 
# From -- ./inp_files/16764.got.cif
#   From: 2010.03.12/outbox.cif.g09.slc.cpg/sg47_9_cif.got.tgz:16764.got - 2010.04.14 03:12:58.
