data_PCOD8194625
_publ_section_title
;
Structure prediction by ZEFSAII (Michael W. Deem and Ramdas Pophale) SiO2 
 PCOD8194625
Probable space group: P M M M
;
_chemical_formula_sum "Si O2"
_cell_formula_units_Z 64
_cell_length_a 15.358108
_cell_length_b 23.737657
_cell_length_c 9.226179
_cell_angle_alpha 90.000000
_cell_angle_beta 90.000000
_cell_angle_gamma 90.000000
_cell_volume 3363.546559
_symmetry_space_group_name_H-M "P M M M"
_symmetry_group_IT_number 47
_symmetry_cell_setting 'orthorhombic'
loop_
_space_group_symop_operation_xyz
x,y,z
-x,-y,z
x,-y,-z
-x,y,-z
-x,-y,-z
x,y,-z
-x,y,z
x,-y,z
loop_
_atom_site_type_symbol
_atom_site_label
_atom_site_fract_x
_atom_site_fract_y
_atom_site_fract_z
Si Si1 0.146865 0.750022 0.169579
Si Si2 0.747959 0.066099 0.668233
Si Si3 0.401114 0.371847 0.830788
Si Si4 0.096155 0.642370 0.666586
Si Si5 0.098446 0.125088 0.167102
Si Si6 0.656059 0.748621 0.171400
Si Si7 0.598505 0.868821 0.169285
Si Si8 0.252206 0.564364 0.670781
O O1 0.095378 0.700882 0.248633
O O2 0.102670 0.809207 0.208268
O O3 0.245399 0.751072 0.227760
O O4 0.142883 0.737351 0.000000
O O5 0.745306 0.082013 0.500000
O O6 0.837106 0.089553 0.734106
O O7 0.663130 0.091405 0.743848
O O8 0.746191 0.000000 0.694617
O O9 0.500000 0.390866 0.803110
O O10 0.388841 0.308247 0.769549
O O11 0.339594 0.414633 0.746803
O O12 0.377041 0.374234 0.000000
O O13 0.116195 0.655783 0.500000
O O14 0.168860 0.599573 0.727783
O O15 0.000000 0.614960 0.684779
O O16 0.000000 0.103694 0.193691
O O17 0.126340 0.116839 0.000000
O O18 0.606733 0.804495 0.226698
O O19 0.651918 0.747961 0.000000
O O20 0.500000 0.889545 0.196332
O O21 0.623499 0.872177 0.000000
O O22 0.264546 0.570998 0.500000
O O23 0.235794 0.500000 0.715022
#
# Coordination Sequence:
#
# PCOD8194625 Si02
#       8
#     8   8   8   8   8   8   8   8
#     4  10  18  33  59  86 114 146 177 217 274 335
#     4  11  25  42  58  79 113 155 193 232 279 331
#     4  10  20  35  57  84 112 142 177 219 270 328
#     4  10  21  36  55  81 111 143 182 227 274 326
#     4  10  21  38  61  88 115 145 185 232 280 332
#     4   9  16  31  57  86 114 142 173 217 274 330
#     4  10  20  37  63  90 114 144 186 233 278 330
#     4  10  22  39  56  75 104 144 188 232 275 319
#
# _framework density 19.027535
#
# number of rings (size 3 to 8) (size 9 to 14) (size 15 to 20)
#    0.000    2.000    2.500    1.125    0.000    5.750 
#    0.000    5.625    0.000    1.500    0.000    1.750 
#    0.000    0.000    0.000    0.000    0.000    0.000 
#
# Total GULP energy -793661.858471 kJ/mol
# GULP energy per Si atom -12400.966539 kJ/mol
# Density = 1.898423 g / cm^3
# Si number density = 19.027535 Si / 1000 Ang^3
#
#
#
# Elastic Constant Matrix: (Units=GPa)
#
#
# Indices 1 2 3 4 5 6 
#
# 1 128.0035 56.2236 47.2624 0.0000 0.0000 0.0000
# 2 56.2236 108.5469 54.0935 0.0000 0.0000 0.0000
# 3 47.2624 54.0935 58.7258 0.0000 0.0000 0.0000
# 4 0.0000 0.0000 0.0000 28.8869 0.0000 0.0000
# 5 0.0000 0.0000 0.0000 0.0000 24.9963 0.0000
# 6 0.0000 0.0000 0.0000 0.0000 0.0000 8.8833
#
#
#
# Elastic Compliance Matrix: (Units=1/GPa)
#
#
# Indices 1 2 3 4 5 6 
#
# 1 0.011465 -0.002477 -0.006945 0.000000 0.000000 0.000000
# 2 -0.002477 0.017565 -0.014186 0.000000 0.000000 0.000000
# 3 -0.006945 -0.014186 0.035684 0.000000 0.000000 0.000000
# 4 0.000000 0.000000 0.000000 0.034618 0.000000 0.000000
# 5 0.000000 0.000000 0.000000 0.000000 0.040006 0.000000
# 6 0.000000 0.000000 0.000000 0.000000 0.000000 0.112571
#
#
# Mechanical properties :
#
#
# Convention : Reuss Voigt Hill
#
# Bulk Modulus (GPa) = 57.14896 67.82615 62.48755
# Shear Modulus (GPa) = 16.39573 21.73308 19.06440
#
# Velocity S-wave (km/s) = 2.93863 3.38330 3.16877
# Velocity P-wave (km/s) = 6.45090 7.14045 6.80441
#
# Compressibility (1/GPa) = 0.01749813
#
# Stress axis : x y z
#
# Youngs Moduli (GPa) = 87.22472 56.93062 28.02361
#
# Poissons Ratio (x) = 0.14104 0.19461
# Poissons Ratio (y) = 0.21610 0.39754
# Poissons Ratio (z) = 0.60575 0.80761
#
# Static dielectric constant tensor:
#      x y z
#    x 3.628230 0.000000 0.000000 
#    y 0.000000 3.517280 0.000000 
#    z 0.000000 0.000000 3.267580 
# 
# 
# High freq. dielectric constant tensor:
#      x y z
#    x 1.755400 0.000000 0.000000 
#    y 0.000000 1.738110 0.000000 
#    z 0.000000 0.000000 1.714530 
# 
# From -- ./inp_files/7795.got.cif
#   From: 2010.03.12/outbox.cif.g09.slc.cpg/sg47_4_cif.got.tgz:7795.got - 2010.04.14 03:12:58.
