data_PCOD8194828
_publ_section_title
;
Structure prediction by ZEFSAII (Michael W. Deem and Ramdas Pophale) SiO2 
 PCOD8194828
Probable space group: P M M M
;
_chemical_formula_sum "Si O2"
_cell_formula_units_Z 64
_cell_length_a 23.664574
_cell_length_b 19.000863
_cell_length_c 9.212048
_cell_angle_alpha 90.000000
_cell_angle_beta 90.000000
_cell_angle_gamma 90.000000
_cell_volume 4142.172773
_symmetry_space_group_name_H-M "P M M M"
_symmetry_group_IT_number 47
_symmetry_cell_setting 'orthorhombic'
loop_
_space_group_symop_operation_xyz
x,y,z
-x,-y,z
x,-y,-z
-x,y,-z
-x,-y,-z
x,y,-z
-x,y,z
x,-y,z
loop_
_atom_site_type_symbol
_atom_site_label
_atom_site_fract_x
_atom_site_fract_y
_atom_site_fract_z
Si Si1 0.435009 0.419620 0.168738
Si Si2 0.876773 0.076382 0.172343
Si Si3 0.062151 0.213011 0.172010
Si Si4 0.728924 0.787867 0.669940
Si Si5 0.337555 0.650612 0.669500
Si Si6 0.252484 0.920867 0.169750
Si Si7 0.828023 0.287773 0.168516
Si Si8 0.238690 0.421207 0.166447
O O1 0.500000 0.404046 0.205731
O O2 0.419772 0.500000 0.210635
O O3 0.398134 0.364884 0.260482
O O4 0.422832 0.407145 0.000000
O O5 0.916172 0.138170 0.235955
O O6 0.812243 0.087272 0.221351
O O7 0.898696 0.000000 0.228138
O O8 0.878270 0.077829 0.000000
O O9 0.107033 0.273697 0.215738
O O10 0.000000 0.230237 0.237423
O O11 0.057693 0.207606 0.000000
O O12 0.738373 0.797506 0.500000
O O13 0.679566 0.731327 0.702800
O O14 0.711533 0.862795 0.740961
O O15 0.787296 0.761754 0.739440
O O16 0.340924 0.635758 0.500000
O O17 0.291733 0.597374 0.734607
O O18 0.274126 0.000000 0.205663
O O19 0.259407 0.905348 0.000000
O O20 0.814092 0.369592 0.198188
O O21 0.819166 0.267398 0.000000
O O22 0.218039 0.500000 0.201896
O O23 0.258650 0.413952 0.000000
#
# Coordination Sequence:
#
# PCOD8194828 Si02
#       8
#     8   8   8   8   8   8   8   8
#     4   9  18  32  48  66  91 124 158 186 211 245
#     4   8  13  21  34  54  78 100 126 163 202 243
#     4   9  15  22  36  57  77 100 133 172 212 254
#     4  10  19  29  42  62  88 114 142 176 214 256
#     4  10  20  30  42  65  93 118 146 181 216 250
#     4   9  16  27  44  63  83 110 144 177 210 254
#     4   9  16  28  43  57  78 105 135 173 215 260
#     4   9  17  28  43  61  80 107 141 176 217 263
#
# _framework density 15.450829000000001
#
# number of rings (size 3 to 8) (size 9 to 14) (size 15 to 20)
#    0.000    2.875    1.250    2.250    0.000    4.250 
#    0.000    1.875    0.000    0.750    0.000    2.625 
#    0.000    2.500    0.000   11.750    0.000   10.500 
#
# Total GULP energy -793240.144246 kJ/mol
# GULP energy per Si atom -12394.377254 kJ/mol
# Density = 1.541566 g / cm^3
# Si number density = 15.450829 Si / 1000 Ang^3
#
#
#
# Elastic Constant Matrix: (Units=GPa)
#
#
# Indices 1 2 3 4 5 6 
#
# 1 88.2258 59.4283 36.5702 0.0000 0.0000 0.0000
# 2 59.4283 127.4005 48.0350 0.0000 0.0000 0.0000
# 3 36.5702 48.0350 53.3446 0.0000 0.0000 0.0000
# 4 0.0000 0.0000 0.0000 18.5928 0.0000 0.0000
# 5 0.0000 0.0000 0.0000 0.0000 6.9003 0.0000
# 6 0.0000 0.0000 0.0000 0.0000 0.0000 23.1862
#
#
#
# Elastic Compliance Matrix: (Units=1/GPa)
#
#
# Indices 1 2 3 4 5 6 
#
# 1 0.018245 -0.005745 -0.007334 0.000000 0.000000 0.000000
# 2 -0.005745 0.013693 -0.008392 0.000000 0.000000 0.000000
# 3 -0.007334 -0.008392 0.031330 0.000000 0.000000 0.000000
# 4 0.000000 0.000000 0.000000 0.053784 0.000000 0.000000
# 5 0.000000 0.000000 0.000000 0.000000 0.144921 0.000000
# 6 0.000000 0.000000 0.000000 0.000000 0.000000 0.043129
#
#
# Mechanical properties :
#
#
# Convention : Reuss Voigt Hill
#
# Bulk Modulus (GPa) = 49.19786 61.89312 55.54549
# Shear Modulus (GPa) = 14.09167 18.06504 16.07835
#
# Velocity S-wave (km/s) = 3.02327 3.42306 3.22936
# Velocity P-wave (km/s) = 6.64060 7.46781 7.06632
#
# Compressibility (1/GPa) = 0.02032609
#
# Stress axis : x y z
#
# Youngs Moduli (GPa) = 54.81086 73.02878 31.91802
#
# Poissons Ratio (x) = 0.41957 0.23409
# Poissons Ratio (y) = 0.31490 0.26784
# Poissons Ratio (z) = 0.40199 0.61283
#
# Static dielectric constant tensor:
#      x y z
#    x 2.846050 0.000000 0.000000 
#    y 0.000000 3.172150 0.000000 
#    z 0.000000 0.000000 2.760310 
# 
# 
# High freq. dielectric constant tensor:
#      x y z
#    x 1.560550 0.000000 0.000000 
#    y 0.000000 1.595570 0.000000 
#    z 0.000000 0.000000 1.569910 
# 
# From -- ./inp_files/12917.got.cif
#   From: 2010.03.12/outbox.cif.g09.slc.cpg/sg47_7_cif.got.tgz:12917.got - 2010.04.14 03:12:58.
