data_PCOD8194557
_publ_section_title
;
Structure prediction by ZEFSAII (Michael W. Deem and Ramdas Pophale) SiO2 
 PCOD8194557
Probable space group: P M M M
;
_chemical_formula_sum "Si O2"
_cell_formula_units_Z 40
_cell_length_a 12.011842
_cell_length_b 8.261779
_cell_length_c 20.731631
_cell_angle_alpha 90.000000
_cell_angle_beta 90.000000
_cell_angle_gamma 90.000000
_cell_volume 2057.390143
_symmetry_space_group_name_H-M "P M M M"
_symmetry_group_IT_number 47
_symmetry_cell_setting 'orthorhombic'
loop_
_space_group_symop_operation_xyz
x,y,z
-x,-y,z
x,-y,-z
-x,y,-z
-x,-y,-z
x,y,-z
-x,y,z
x,-y,z
loop_
_atom_site_type_symbol
_atom_site_label
_atom_site_fract_x
_atom_site_fract_y
_atom_site_fract_z
Si Si1 0.625663 0.692514 0.688499
Si Si2 0.000000 0.185285 0.744868
Si Si3 0.772890 0.813963 0.571335
Si Si4 0.777339 0.687753 0.199224
Si Si5 0.126075 0.693059 0.928956
Si Si6 0.000000 0.684830 0.609889
O O1 0.500000 0.758742 0.686412
O O2 0.629480 0.500000 0.690453
O O3 0.688253 0.748421 0.624545
O O4 0.682732 0.764910 0.754162
O O5 0.105394 0.285061 0.767704
O O6 0.000000 0.188219 0.668109
O O7 0.000000 0.000000 0.769423
O O8 0.718742 0.793620 0.500000
O O9 0.888590 0.716248 0.569264
O O10 0.798435 0.000000 0.586795
O O11 0.750973 0.500000 0.193263
O O12 0.788263 0.760560 0.126003
O O13 0.124926 0.500000 0.927071
O O14 0.000000 0.755292 0.914781
O O15 0.164706 0.753635 0.000000
O O16 0.000000 0.500000 0.634422
#
# Coordination Sequence:
#
# PCOD8194557 Si02
#       6
#     8   4   8   8   8   4
#     4  10  22  38  56  78 103 138 187 236 274 314
#     4  12  22  31  50  81 112 139 172 217 268 320
#     4  11  24  40  58  82 111 141 174 218 271 324
#     4  10  18  32  54  76 104 142 181 220 267 320
#     4   8  13  22  42  75 108 137 174 216 260 316
#     4  12  23  37  58  84 113 143 174 210 261 326
#
# _framework density 19.442107
#
# number of rings (size 3 to 8) (size 9 to 14) (size 15 to 20)
#    0.000    1.800    3.000    3.300    0.000    3.600 
#    0.000    2.000    0.000    1.800    0.000    4.200 
#    0.000    0.000    0.000    3.600    0.000    4.000 
#
# Total GULP energy -495636.317233 kJ/mol
# GULP energy per Si atom -12390.907931 kJ/mol
# Density = 1.939786 g / cm^3
# Si number density = 19.442107 Si / 1000 Ang^3
#
#
#
# Elastic Constant Matrix: (Units=GPa)
#
#
# Indices 1 2 3 4 5 6 
#
# 1 136.8710 14.5392 81.0823 0.0000 0.0000 0.0000
# 2 14.5392 30.3401 12.4275 0.0000 0.0000 0.0000
# 3 81.0823 12.4275 180.0860 0.0000 0.0000 0.0000
# 4 0.0000 0.0000 0.0000 4.8285 0.0000 0.0000
# 5 0.0000 0.0000 0.0000 0.0000 13.3039 0.0000
# 6 0.0000 0.0000 0.0000 0.0000 0.0000 7.4430
#
#
#
# Elastic Compliance Matrix: (Units=1/GPa)
#
#
# Indices 1 2 3 4 5 6 
#
# 1 0.010241 -0.003107 -0.004396 0.000000 0.000000 0.000000
# 2 -0.003107 0.034861 -0.001007 0.000000 0.000000 0.000000
# 3 -0.004396 -0.001007 0.007602 0.000000 0.000000 0.000000
# 4 0.000000 0.000000 0.000000 0.207105 0.000000 0.000000
# 5 0.000000 0.000000 0.000000 0.000000 0.075166 0.000000
# 6 0.000000 0.000000 0.000000 0.000000 0.000000 0.134355
#
#
# Mechanical properties :
#
#
# Convention : Reuss Voigt Hill
#
# Bulk Modulus (GPa) = 28.02426 62.59945 45.31185
# Shear Modulus (GPa) = 10.03526 21.06495 15.55010
#
# Velocity S-wave (km/s) = 2.27438 3.29518 2.83117
# Velocity P-wave (km/s) = 4.61980 6.83706 5.83472
#
# Compressibility (1/GPa) = 0.03568337
#
# Stress axis : x y z
#
# Youngs Moduli (GPa) = 97.65116 28.68551 131.54756
#
# Poissons Ratio (x) = 0.08911 0.57833
# Poissons Ratio (y) = 0.30336 0.13247
# Poissons Ratio (z) = 0.42931 0.02889
#
# Static dielectric constant tensor:
#      x y z
#    x 3.580100 0.000000 0.000000 
#    y 0.000000 3.227170 0.000000 
#    z 0.000000 0.000000 4.106480 
# 
# 
# High freq. dielectric constant tensor:
#      x y z
#    x 1.723570 0.000000 0.000000 
#    y 0.000000 1.729810 0.000000 
#    z 0.000000 0.000000 1.776850 
# 
# From -- ./inp_files/4110.got.cif
#   From: 2010.03.12/outbox.cif.g09.slc.cpg/sg47_3_cif.got.tgz:4110.got - 2010.04.14 03:12:58.
