data_PCOD8194085
_publ_section_title
;
Structure prediction by ZEFSAII (Michael W. Deem and Ramdas Pophale) SiO2 
 PCOD8194085
Probable space group: P M M M
;
_chemical_formula_sum "Si O2"
_cell_formula_units_Z 56
_cell_length_a 27.108456
_cell_length_b 9.859340
_cell_length_c 13.358766
_cell_angle_alpha 90.000000
_cell_angle_beta 90.000000
_cell_angle_gamma 90.000000
_cell_volume 3570.417221
_symmetry_space_group_name_H-M "P M M M"
_symmetry_group_IT_number 47
_symmetry_cell_setting 'orthorhombic'
loop_
_space_group_symop_operation_xyz
x,y,z
-x,-y,z
x,-y,-z
-x,y,-z
-x,-y,-z
x,y,-z
-x,y,z
x,-y,z
loop_
_atom_site_type_symbol
_atom_site_label
_atom_site_fract_x
_atom_site_fract_y
_atom_site_fract_z
Si Si1 0.055970 0.661222 0.611077
Si Si2 0.216133 0.656265 0.116526
Si Si3 0.500000 0.160794 0.889608
Si Si4 0.111633 0.339480 0.195061
Si Si5 0.404542 0.841274 0.230037
Si Si6 0.305102 0.154968 0.883887
Si Si7 0.443619 0.347622 0.384557
Si Si8 0.943984 0.338357 0.000000
O O1 0.073113 0.712102 0.500000
O O2 0.058049 0.500000 0.612800
O O3 0.090897 0.720594 0.699611
O O4 0.000000 0.709750 0.631605
O O5 0.230528 0.500000 0.134540
O O6 0.169024 0.698936 0.182846
O O7 0.261153 0.748869 0.153452
O O8 0.203429 0.681352 0.000000
O O9 0.450619 0.210985 0.835307
O O10 0.500000 0.000000 0.896100
O O11 0.500000 0.224993 0.000000
O O12 0.104881 0.500000 0.194761
O O13 0.081764 0.279421 0.100150
O O14 0.354313 0.804975 0.174207
O O15 0.406211 0.756236 0.332006
O O16 0.408485 0.000000 0.254645
O O17 0.289713 0.000000 0.862795
O O18 0.316387 0.178818 0.000000
O O19 0.429623 0.344190 0.500000
O O20 0.500000 0.300112 0.368065
O O21 0.436449 0.500000 0.342639
O O22 0.940047 0.500000 0.000000
O O23 0.000000 0.287992 0.000000
#
# Coordination Sequence:
#
# PCOD8194085 Si02
#       8
#     8   8   4   8   8   8   8   4
#     4   8  13  20  30  47  75 111 143 168 204 258
#     4   9  16  27  42  60  82 110 146 185 220 255
#     4   9  16  26  42  65  92 116 137 167 214 265
#     4   9  14  21  33  51  77 107 139 176 214 254
#     4  10  18  29  47  70  90 113 147 185 220 259
#     4   9  18  31  46  65  90 118 149 183 219 263
#     4   9  18  32  48  66  91 121 147 174 214 263
#     4   9  14  18  28  50  79 107 131 164 217 268
#
# _framework density 15.684441
#
# number of rings (size 3 to 8) (size 9 to 14) (size 15 to 20)
#    0.000    3.000    1.429    1.714    0.000    4.286 
#    0.000    0.714    0.000    2.571    0.000    2.000 
#    0.000    2.857    0.000    1.571    0.000    1.429 
#
# Total GULP energy -694149.481601 kJ/mol
# GULP energy per Si atom -12395.526457 kJ/mol
# Density = 1.564874 g / cm^3
# Si number density = 15.684441 Si / 1000 Ang^3
#
#
#
# Elastic Constant Matrix: (Units=GPa)
#
#
# Indices 1 2 3 4 5 6 
#
# 1 125.9279 45.1290 67.9955 0.0000 0.0000 0.0000
# 2 45.1290 39.1153 34.0269 0.0000 0.0000 0.0000
# 3 67.9955 34.0269 102.5202 0.0000 0.0000 0.0000
# 4 0.0000 0.0000 0.0000 14.9622 0.0000 0.0000
# 5 0.0000 0.0000 0.0000 0.0000 25.9131 0.0000
# 6 0.0000 0.0000 0.0000 0.0000 0.0000 11.8331
#
#
#
# Elastic Compliance Matrix: (Units=1/GPa)
#
#
# Indices 1 2 3 4 5 6 
#
# 1 0.015991 -0.012967 -0.006302 0.000000 0.000000 0.000000
# 2 -0.012967 0.046459 -0.006819 0.000000 0.000000 0.000000
# 3 -0.006302 -0.006819 0.016197 0.000000 0.000000 0.000000
# 4 0.000000 0.000000 0.000000 0.066835 0.000000 0.000000
# 5 0.000000 0.000000 0.000000 0.000000 0.038590 0.000000
# 6 0.000000 0.000000 0.000000 0.000000 0.000000 0.084508
#
#
# Mechanical properties :
#
#
# Convention : Reuss Voigt Hill
#
# Bulk Modulus (GPa) = 37.77921 62.42957 50.10439
# Shear Modulus (GPa) = 15.17076 18.56916 16.86996
#
# Velocity S-wave (km/s) = 3.11344 3.44455 3.28317
# Velocity P-wave (km/s) = 6.08802 7.46390 6.81079
#
# Compressibility (1/GPa) = 0.02646959
#
# Stress axis : x y z
#
# Youngs Moduli (GPa) = 62.53550 21.52453 61.73891
#
# Poissons Ratio (x) = 0.27911 0.38907
# Poissons Ratio (y) = 0.81092 0.42102
# Poissons Ratio (z) = 0.39409 0.14678
#
# Static dielectric constant tensor:
#      x y z
#    x 2.984740 0.000000 0.000000 
#    y 0.000000 2.606620 0.000000 
#    z 0.000000 0.000000 3.126810 
# 
# 
# High freq. dielectric constant tensor:
#      x y z
#    x 1.596790 0.000000 0.000000 
#    y 0.000000 1.555900 0.000000 
#    z 0.000000 0.000000 1.597330 
# 
# From -- ./inp_files/25821.got.cif
#   From: 2010.03.12/outbox.cif.g09.slc.cpg/sg47_13_cif.got.tgz:25821.got - 2010.04.14 03:12:58.
