data_PCOD8194295
_publ_section_title
;
Structure prediction by ZEFSAII (Michael W. Deem and Ramdas Pophale) SiO2 
 PCOD8194295
Probable space group: P M M M
;
_chemical_formula_sum "Si O2"
_cell_formula_units_Z 52
_cell_length_a 7.905294
_cell_length_b 14.549861
_cell_length_c 25.163298
_cell_angle_alpha 90.000000
_cell_angle_beta 90.000000
_cell_angle_gamma 90.000000
_cell_volume 2894.305909
_symmetry_space_group_name_H-M "P M M M"
_symmetry_group_IT_number 47
_symmetry_cell_setting 'orthorhombic'
loop_
_space_group_symop_operation_xyz
x,y,z
-x,-y,z
x,-y,-z
-x,y,-z
-x,-y,-z
x,y,-z
-x,y,z
x,-y,z
loop_
_atom_site_type_symbol
_atom_site_label
_atom_site_fract_x
_atom_site_fract_y
_atom_site_fract_z
Si Si1 0.305174 0.215524 0.057799
Si Si2 0.802150 0.602652 0.104824
Si Si3 0.500000 0.108798 0.559194
Si Si4 0.303080 0.101737 0.844714
Si Si5 0.194333 0.892019 0.633094
Si Si6 0.799199 0.599391 0.775014
Si Si7 0.801249 0.207203 0.259026
O O1 0.500000 0.188954 0.055075
O O2 0.290936 0.324329 0.067915
O O3 0.218356 0.157711 0.105913
O O4 0.222187 0.192430 0.000000
O O5 0.761889 0.500000 0.083918
O O6 0.734294 0.613637 0.164984
O O7 0.000000 0.623194 0.102653
O O8 0.500000 0.151668 0.500000
O O9 0.673271 0.140892 0.588123
O O10 0.500000 0.000000 0.555884
O O11 0.500000 0.092775 0.855675
O O12 0.280543 0.153341 0.789380
O O13 0.220457 0.000000 0.841704
O O14 0.251668 0.839512 0.686031
O O15 0.000000 0.867806 0.616439
O O16 0.211282 0.000000 0.644315
O O17 0.731291 0.500000 0.753078
O O18 0.736421 0.686390 0.740118
O O19 0.000000 0.595658 0.775373
O O20 0.000000 0.202774 0.250582
#
# Coordination Sequence:
#
# PCOD8194295 Si02
#       7
#     8   8   4   8   8   8   8
#     4  10  21  35  48  64  87 114 149 194 241 289
#     4   9  17  31  50  69  88 112 145 184 229 285
#     4   9  18  32  50  72 101 143 184 212 246 287
#     4  10  21  34  48  66  86 116 156 194 239 292
#     4   9  18  30  45  72 106 137 172 212 251 291
#     4   8  14  26  46  70  94 120 149 184 232 290
#     4  10  18  30  50  73  98 125 154 194 243 291
#
# _framework density 17.966311000000001
#
# number of rings (size 3 to 8) (size 9 to 14) (size 15 to 20)
#    0.000    2.692    1.538    1.385    1.077    2.462 
#    0.000    4.615    0.000    0.462    0.000    2.154 
#    0.000    1.231    0.000    6.000    0.000    0.154 
#
# Total GULP energy -644366.158194 kJ/mol
# GULP energy per Si atom -12391.656888 kJ/mol
# Density = 1.792542 g / cm^3
# Si number density = 17.966311 Si / 1000 Ang^3
#
#
#
# Elastic Constant Matrix: (Units=GPa)
#
#
# Indices 1 2 3 4 5 6 
#
# 1 42.4179 19.0531 39.1880 0.0000 0.0000 0.0000
# 2 19.0531 116.7697 62.2870 0.0000 0.0000 0.0000
# 3 39.1880 62.2870 134.0025 0.0000 0.0000 0.0000
# 4 0.0000 0.0000 0.0000 14.5740 0.0000 0.0000
# 5 0.0000 0.0000 0.0000 0.0000 17.0963 0.0000
# 6 0.0000 0.0000 0.0000 0.0000 0.0000 15.4808
#
#
#
# Elastic Compliance Matrix: (Units=1/GPa)
#
#
# Indices 1 2 3 4 5 6 
#
# 1 0.032310 -0.000308 -0.009306 0.000000 0.000000 0.000000
# 2 -0.000308 0.011390 -0.005204 0.000000 0.000000 0.000000
# 3 -0.009306 -0.005204 0.012603 0.000000 0.000000 0.000000
# 4 0.000000 0.000000 0.000000 0.068615 0.000000 0.000000
# 5 0.000000 0.000000 0.000000 0.000000 0.058492 0.000000
# 6 0.000000 0.000000 0.000000 0.000000 0.000000 0.064596
#
#
# Mechanical properties :
#
#
# Convention : Reuss Voigt Hill
#
# Bulk Modulus (GPa) = 37.49908 59.36072 48.42990
# Shear Modulus (GPa) = 17.45002 20.94103 19.19552
#
# Velocity S-wave (km/s) = 3.11989 3.41775 3.27221
# Velocity P-wave (km/s) = 5.82198 6.97757 6.42580
#
# Compressibility (1/GPa) = 0.02666732
#
# Stress axis : x y z
#
# Youngs Moduli (GPa) = 30.94970 87.79485 79.34637
#
# Poissons Ratio (x) = 0.02706 0.73837
# Poissons Ratio (y) = 0.00954 0.41294
# Poissons Ratio (z) = 0.28801 0.45691
#
# Static dielectric constant tensor:
#      x y z
#    x 3.128030 0.000000 0.000000 
#    y 0.000000 3.675340 0.000000 
#    z 0.000000 0.000000 3.298400 
# 
# 
# High freq. dielectric constant tensor:
#      x y z
#    x 1.679390 0.000000 0.000000 
#    y 0.000000 1.691210 0.000000 
#    z 0.000000 0.000000 1.664830 
# 
# From -- ./inp_files/11026.got.cif
#   From: 2010.03.12/outbox.cif.g09.slc.cpg/sg47_6_cif.got.tgz:11026.got - 2010.04.14 03:12:58.
