data_PCOD8194323
_publ_section_title
;
Structure prediction by ZEFSAII (Michael W. Deem and Ramdas Pophale) SiO2 
 PCOD8194323
Probable space group: P M M M
;
_chemical_formula_sum "Si O2"
_cell_formula_units_Z 52
_cell_length_a 9.318105
_cell_length_b 12.708847
_cell_length_c 22.770669
_cell_angle_alpha 90.000000
_cell_angle_beta 90.000000
_cell_angle_gamma 90.000000
_cell_volume 2696.556607
_symmetry_space_group_name_H-M "P M M M"
_symmetry_group_IT_number 47
_symmetry_cell_setting 'orthorhombic'
loop_
_space_group_symop_operation_xyz
x,y,z
-x,-y,z
x,-y,-z
-x,y,-z
-x,-y,-z
x,y,-z
-x,y,z
x,-y,z
loop_
_atom_site_type_symbol
_atom_site_label
_atom_site_fract_x
_atom_site_fract_y
_atom_site_fract_z
Si Si1 0.163897 0.178597 0.565067
Si Si2 0.169697 0.500000 0.935006
Si Si3 0.166070 0.329032 0.843959
Si Si4 0.837978 0.617819 0.625395
Si Si5 0.833968 0.119444 0.210914
Si Si6 0.342446 0.379858 0.732183
Si Si7 0.340628 0.879256 0.676719
O O1 0.218407 0.146156 0.500000
O O2 0.173651 0.305857 0.569453
O O3 0.259163 0.125674 0.614841
O O4 0.000000 0.141010 0.573827
O O5 0.219316 0.391681 0.902122
O O6 0.000000 0.500000 0.940925
O O7 0.239938 0.500000 0.000000
O O8 0.190661 0.201160 0.843874
O O9 0.251706 0.377827 0.790702
O O10 0.000000 0.355261 0.833931
O O11 0.790824 0.500000 0.606891
O O12 0.737731 0.672174 0.675819
O O13 0.000000 0.616189 0.650485
O O14 0.743875 0.167647 0.266148
O O15 0.000000 0.120305 0.230355
O O16 0.789228 0.000000 0.192315
O O17 0.500000 0.328876 0.741435
O O18 0.357535 0.500000 0.713260
O O19 0.500000 0.828633 0.671503
O O20 0.354495 0.000000 0.693249
#
# Coordination Sequence:
#
# PCOD8194323 Si02
#       7
#     8   4   8   8   8   8   8
#     4  10  21  35  50  69  92 122 163 206 248 297
#     4   9  18  32  51  77 107 141 180 213 240 277
#     4  10  18  30  51  74 100 135 172 208 242 288
#     4   9  18  32  49  68  93 125 159 198 244 297
#     4   9  18  32  51  76 103 130 162 204 255 303
#     4  10  19  29  44  70 101 127 156 200 254 304
#     4  10  21  36  53  73  97 125 158 200 251 303
#
# _framework density 19.283852
#
# number of rings (size 3 to 8) (size 9 to 14) (size 15 to 20)
#    0.000    2.385    0.769    1.846    0.000    7.385 
#    0.000    3.077    0.000    1.385    0.000    6.462 
#    0.000    0.000    0.000    5.231    0.000    5.538 
#
# Total GULP energy -644267.635170 kJ/mol
# GULP energy per Si atom -12389.762215 kJ/mol
# Density = 1.923996 g / cm^3
# Si number density = 19.283852 Si / 1000 Ang^3
#
#
#
# Elastic Constant Matrix: (Units=GPa)
#
#
# Indices 1 2 3 4 5 6 
#
# 1 70.8220 18.0950 36.9978 0.0000 0.0000 0.0000
# 2 18.0950 84.8408 47.1834 0.0000 0.0000 0.0000
# 3 36.9978 47.1834 119.6544 0.0000 0.0000 0.0000
# 4 0.0000 0.0000 0.0000 22.7742 0.0000 0.0000
# 5 0.0000 0.0000 0.0000 0.0000 3.0050 0.0000
# 6 0.0000 0.0000 0.0000 0.0000 0.0000 13.2068
#
#
#
# Elastic Compliance Matrix: (Units=1/GPa)
#
#
# Indices 1 2 3 4 5 6 
#
# 1 0.016893 -0.000894 -0.004871 0.000000 0.000000 0.000000
# 2 -0.000894 0.015145 -0.005696 0.000000 0.000000 0.000000
# 3 -0.004871 -0.005696 0.012109 0.000000 0.000000 0.000000
# 4 0.000000 0.000000 0.000000 0.043909 0.000000 0.000000
# 5 0.000000 0.000000 0.000000 0.000000 0.332781 0.000000
# 6 0.000000 0.000000 0.000000 0.000000 0.000000 0.075719
#
#
# Mechanical properties :
#
#
# Convention : Reuss Voigt Hill
#
# Bulk Modulus (GPa) = 47.11153 53.31885 50.21519
# Shear Modulus (GPa) = 9.49572 19.33325 14.41448
#
# Velocity S-wave (km/s) = 2.22146 3.16976 2.73699
# Velocity P-wave (km/s) = 5.57346 6.41140 6.00706
#
# Compressibility (1/GPa) = 0.02122623
#
# Stress axis : x y z
#
# Youngs Moduli (GPa) = 59.19652 66.02794 82.57986
#
# Poissons Ratio (x) = 0.05903 0.40223
# Poissons Ratio (y) = 0.05293 0.47035
# Poissons Ratio (z) = 0.28834 0.37608
#
# Static dielectric constant tensor:
#      x y z
#    x 3.678140 0.000000 0.000000 
#    y 0.000000 3.878740 0.000000 
#    z 0.000000 0.000000 3.287880 
# 
# 
# High freq. dielectric constant tensor:
#      x y z
#    x 1.738500 0.000000 0.000000 
#    y 0.000000 1.776260 0.000000 
#    z 0.000000 0.000000 1.703800 
# 
# From -- ./inp_files/21447.got.cif
#   From: 2010.03.12/outbox.cif.g09.slc.cpg/sg47_11_cif.got.tgz:21447.got - 2010.04.14 03:12:58.
