data_PCOD8194861
_publ_section_title
;
Structure prediction by ZEFSAII (Michael W. Deem and Ramdas Pophale) SiO2 
 PCOD8194861
Probable space group: P M M M
;
_chemical_formula_sum "Si O2"
_cell_formula_units_Z 64
_cell_length_a 14.445466
_cell_length_b 28.794643
_cell_length_c 9.620471
_cell_angle_alpha 90.000000
_cell_angle_beta 90.000000
_cell_angle_gamma 90.000000
_cell_volume 4001.654504
_symmetry_space_group_name_H-M "P M M M"
_symmetry_group_IT_number 47
_symmetry_cell_setting 'orthorhombic'
loop_
_space_group_symop_operation_xyz
x,y,z
-x,-y,z
x,-y,-z
-x,y,-z
-x,-y,-z
x,y,-z
-x,y,z
x,-y,z
loop_
_atom_site_type_symbol
_atom_site_label
_atom_site_fract_x
_atom_site_fract_y
_atom_site_fract_z
Si Si1 0.396528 0.604287 0.659779
Si Si2 0.108102 0.261141 0.662906
Si Si3 0.393280 0.863869 0.162535
Si Si4 0.393692 0.309143 0.159867
Si Si5 0.222438 0.449338 0.337494
Si Si6 0.897035 0.365398 0.665288
Si Si7 0.267313 0.222736 0.837348
Si Si8 0.609823 0.051156 0.344341
O O1 0.390647 0.620102 0.500000
O O2 0.500000 0.589302 0.702386
O O3 0.360854 0.647583 0.748718
O O4 0.331055 0.560246 0.688026
O O5 0.128811 0.254549 0.500000
O O6 0.133419 0.313738 0.712646
O O7 0.171887 0.225710 0.750427
O O8 0.000000 0.250792 0.693550
O O9 0.500000 0.852180 0.204102
O O10 0.325842 0.822262 0.207137
O O11 0.354150 0.909509 0.239649
O O12 0.387048 0.873771 0.000000
O O13 0.500000 0.295986 0.191528
O O14 0.331532 0.265899 0.202254
O O15 0.380300 0.322944 0.000000
O O16 0.199503 0.451189 0.500000
O O17 0.198213 0.500000 0.271708
O O18 0.165384 0.406661 0.269458
O O19 0.892841 0.366353 0.500000
O O20 0.000000 0.375480 0.718884
O O21 0.242571 0.221695 0.000000
O O22 0.644763 0.062721 0.500000
O O23 0.500000 0.050374 0.341250
O O24 0.646827 0.000000 0.299010
#
# Coordination Sequence:
#
# PCOD8194861 Si02
#       8
#     8   8   8   8   8   8   8   8
#     4   9  17  28  41  57  77 102 134 169 200 234
#     4   9  18  32  48  64  83 110 142 174 211 256
#     4   9  17  28  41  60  89 122 153 183 216 256
#     4   9  17  29  44  61  83 112 143 172 205 248
#     4   9  16  24  36  56  79 101 125 156 198 245
#     4   8  14  25  40  57  77 100 126 158 197 243
#     4  10  19  29  43  64  89 115 142 176 217 255
#     4   8  14  25  40  58  83 117 156 194 225 250
#
# _framework density 15.993385
#
# number of rings (size 3 to 8) (size 9 to 14) (size 15 to 20)
#    0.000    3.125    0.000    2.250    0.000    4.500 
#    0.000    3.750    0.000    4.125    0.000    1.750 
#    0.000    0.500    0.000   16.250    0.000   13.000 
#
# Total GULP energy -793172.168077 kJ/mol
# GULP energy per Si atom -12393.315126 kJ/mol
# Density = 1.595698 g / cm^3
# Si number density = 15.993385 Si / 1000 Ang^3
#
#
#
# Elastic Constant Matrix: (Units=GPa)
#
#
# Indices 1 2 3 4 5 6 
#
# 1 73.4446 54.3066 30.2765 0.0000 0.0000 0.0000
# 2 54.3066 110.9250 40.8753 0.0000 0.0000 0.0000
# 3 30.2765 40.8753 38.1969 0.0000 0.0000 0.0000
# 4 0.0000 0.0000 0.0000 19.8029 0.0000 0.0000
# 5 0.0000 0.0000 0.0000 0.0000 19.4638 0.0000
# 6 0.0000 0.0000 0.0000 0.0000 0.0000 17.3204
#
#
#
# Elastic Compliance Matrix: (Units=1/GPa)
#
#
# Indices 1 2 3 4 5 6 
#
# 1 0.023639 -0.007708 -0.010489 0.000000 0.000000 0.000000
# 2 -0.007708 0.017398 -0.012508 0.000000 0.000000 0.000000
# 3 -0.010489 -0.012508 0.047879 0.000000 0.000000 0.000000
# 4 0.000000 0.000000 0.000000 0.050498 0.000000 0.000000
# 5 0.000000 0.000000 0.000000 0.000000 0.051377 0.000000
# 6 0.000000 0.000000 0.000000 0.000000 0.000000 0.057736
#
#
# Mechanical properties :
#
#
# Convention : Reuss Voigt Hill
#
# Bulk Modulus (GPa) = 36.35537 52.60926 44.48232
# Shear Modulus (GPa) = 15.66877 17.79128 16.73003
#
# Velocity S-wave (km/s) = 3.13342 3.33891 3.23779
# Velocity P-wave (km/s) = 5.98932 6.91594 6.46924
#
# Compressibility (1/GPa) = 0.02750625
#
# Stress axis : x y z
#
# Youngs Moduli (GPa) = 42.30269 57.47761 20.88587
#
# Poissons Ratio (x) = 0.44305 0.21907
# Poissons Ratio (y) = 0.32608 0.26124
# Poissons Ratio (z) = 0.44370 0.71894
#
# Static dielectric constant tensor:
#      x y z
#    x 2.979580 0.000000 0.000000 
#    y 0.000000 3.206920 0.000000 
#    z 0.000000 0.000000 2.810390 
# 
# 
# High freq. dielectric constant tensor:
#      x y z
#    x 1.598280 0.000000 0.000000 
#    y 0.000000 1.606070 0.000000 
#    z 0.000000 0.000000 1.586520 
# 
# From -- ./inp_files/8254.got.cif
#   From: 2010.03.12/outbox.cif.g09.slc.cpg/sg47_5_cif.got.tgz:8254.got - 2010.04.14 03:12:58.
