data_PCOD8194172
_publ_section_title
;
Structure prediction by ZEFSAII (Michael W. Deem and Ramdas Pophale) SiO2 
 PCOD8194172
Probable space group: P M M M
;
_chemical_formula_sum "Si O2"
_cell_formula_units_Z 52
_cell_length_a 12.819629
_cell_length_b 7.718136
_cell_length_c 28.094835
_cell_angle_alpha 90.000000
_cell_angle_beta 90.000000
_cell_angle_gamma 90.000000
_cell_volume 2779.805243
_symmetry_space_group_name_H-M "P M M M"
_symmetry_group_IT_number 47
_symmetry_cell_setting 'orthorhombic'
loop_
_space_group_symop_operation_xyz
x,y,z
-x,-y,z
x,-y,-z
-x,y,-z
-x,-y,-z
x,y,-z
-x,y,z
x,-y,z
loop_
_atom_site_type_symbol
_atom_site_label
_atom_site_fract_x
_atom_site_fract_y
_atom_site_fract_z
Si Si1 0.882281 0.793727 0.051946
Si Si2 0.383443 0.297163 0.315284
Si Si3 0.000000 0.294676 0.794793
Si Si4 0.122690 0.000000 0.444654
Si Si5 0.203518 0.201168 0.851796
Si Si6 0.000000 0.703381 0.311538
Si Si7 0.385470 0.800161 0.211092
Si Si8 0.810280 0.295092 0.377764
O O1 0.812017 0.717422 0.095151
O O2 0.000000 0.723656 0.058266
O O3 0.884209 0.000000 0.054816
O O4 0.838657 0.734242 0.000000
O O5 0.500000 0.232363 0.329509
O O6 0.382084 0.500000 0.307146
O O7 0.346865 0.215087 0.265480
O O8 0.302951 0.246345 0.356668
O O9 0.899231 0.224408 0.821032
O O10 0.000000 0.500000 0.794871
O O11 0.000000 0.216517 0.741312
O O12 0.173267 0.823689 0.423968
O O13 0.148587 0.000000 0.500000
O O14 0.000000 0.000000 0.434403
O O15 0.301815 0.289747 0.824604
O O16 0.226900 0.000000 0.857302
O O17 0.103224 0.762464 0.339411
O O18 0.000000 0.500000 0.306397
O O19 0.500000 0.711819 0.205139
O O20 0.394072 0.000000 0.197977
O O21 0.819167 0.500000 0.390993
#
# Coordination Sequence:
#
# PCOD8194172 Si02
#       8
#     8   8   4   4   8   4   8   8
#     4   8  13  23  42  63  83 113 159 209 248 295
#     4   9  18  33  54  78 104 138 177 210 246 305
#     4  11  21  31  44  68 102 128 154 197 252 308
#     4  11  24  40  59  87 113 141 188 227 261 318
#     4  10  18  30  45  65  93 125 163 200 246 309
#     4   9  18  32  48  70 102 139 167 198 250 306
#     4   9  18  30  45  70 101 132 164 203 249 295
#     4  10  20  37  57  80 112 143 176 222 270 310
#
# _framework density 18.706344999999999
#
# number of rings (size 3 to 8) (size 9 to 14) (size 15 to 20)
#    0.000    2.538    1.538    1.615    1.077    2.154 
#    2.769    0.769    0.000    2.308    0.000    5.385 
#    0.000    0.000    0.000    5.231    0.000    5.538 
#
# Total GULP energy -644423.145175 kJ/mol
# GULP energy per Si atom -12392.752792 kJ/mol
# Density = 1.866377 g / cm^3
# Si number density = 18.706345 Si / 1000 Ang^3
#
#
#
# Elastic Constant Matrix: (Units=GPa)
#
#
# Indices 1 2 3 4 5 6 
#
# 1 125.7024 20.5003 82.9233 0.0000 0.0000 0.0000
# 2 20.5003 37.6274 35.2963 0.0000 0.0000 0.0000
# 3 82.9233 35.2963 159.8288 0.0000 0.0000 0.0000
# 4 0.0000 0.0000 0.0000 -10.7452 0.0000 0.0000
# 5 0.0000 0.0000 0.0000 0.0000 27.2261 0.0000
# 6 0.0000 0.0000 0.0000 0.0000 0.0000 -0.5064
#
#
#
# Elastic Compliance Matrix: (Units=1/GPa)
#
#
# Indices 1 2 3 4 5 6 
#
# 1 0.012118 -0.000889 -0.006091 0.000000 0.000000 0.000000
# 2 -0.000889 0.033586 -0.006956 0.000000 0.000000 0.000000
# 3 -0.006091 -0.006956 0.010953 0.000000 0.000000 0.000000
# 4 0.000000 0.000000 0.000000 -0.093065 0.000000 0.000000
# 5 0.000000 0.000000 0.000000 0.000000 0.036729 0.000000
# 6 0.000000 0.000000 0.000000 0.000000 0.000000 -1.974753
#
#
# Mechanical properties :
#
#
# Convention : Reuss Voigt Hill
#
# Bulk Modulus (GPa) = 34.73951 66.73317 50.73634
# Shear Modulus (GPa) = -2.58136 15.49083 6.45473
#
# Velocity S-wave (km/s) = -1.17598 2.88080 1.85958
# Velocity P-wave (km/s) = 4.09480 6.84229 5.63845
#
# Compressibility (1/GPa) = 0.02878567
#
# Stress axis : x y z
#
# Youngs Moduli (GPa) = 82.51926 29.77472 91.29887
#
# Poissons Ratio (x) = 0.02646 0.55611
# Poissons Ratio (y) = 0.07333 0.63507
# Poissons Ratio (z) = 0.50263 0.20711
#
# Static dielectric constant tensor:
#      x y z
#    x 3.851440 0.000000 0.000000 
#    y 0.000000 3.217750 0.000000 
#    z 0.000000 0.000000 3.592760 
# 
# 
# High freq. dielectric constant tensor:
#      x y z
#    x 1.717090 0.000000 0.000000 
#    y 0.000000 1.709490 0.000000 
#    z 0.000000 0.000000 1.715410 
# 
# From -- ./inp_files/33640.got.cif
#   From: 2010.03.12/outbox.cif.g09.slc.cpg/sg47_17_cif.got.tgz:33640.got - 2010.04.14 03:12:58.
