data_PCOD8194141
_publ_section_title
;
Structure prediction by ZEFSAII (Michael W. Deem and Ramdas Pophale) SiO2 
 PCOD8194141
Probable space group: P M M M
;
_chemical_formula_sum "Si O2"
_cell_formula_units_Z 64
_cell_length_a 19.936529
_cell_length_b 9.413822
_cell_length_c 20.055777
_cell_angle_alpha 90.000000
_cell_angle_beta 90.000000
_cell_angle_gamma 90.000000
_cell_volume 3764.046874
_symmetry_space_group_name_H-M "P M M M"
_symmetry_group_IT_number 47
_symmetry_cell_setting 'orthorhombic'
loop_
_space_group_symop_operation_xyz
x,y,z
-x,-y,z
x,-y,-z
-x,y,-z
-x,-y,-z
x,y,-z
-x,y,z
x,-y,z
loop_
_atom_site_type_symbol
_atom_site_label
_atom_site_fract_x
_atom_site_fract_y
_atom_site_fract_z
Si Si1 0.172656 0.168927 0.689354
Si Si2 0.257850 0.339690 0.896050
Si Si3 0.073794 0.160145 0.196217
Si Si4 0.891541 0.663540 0.073808
Si Si5 0.925126 0.831362 0.574826
Si Si6 0.573774 0.664399 0.801982
Si Si7 0.383383 0.835198 0.074389
Si Si8 0.711286 0.660845 0.744460
O O1 0.128316 0.220129 0.752217
O O2 0.132707 0.225751 0.624320
O O3 0.246341 0.240818 0.693610
O O4 0.182246 0.000000 0.687617
O O5 0.278345 0.500000 0.916882
O O6 0.186613 0.297747 0.925526
O O7 0.308835 0.227778 0.927129
O O8 0.254765 0.326806 0.816430
O O9 0.069309 0.246569 0.128027
O O10 0.000000 0.166560 0.229984
O O11 0.093333 0.000000 0.177591
O O12 0.902593 0.500000 0.092329
O O13 0.919910 0.697086 0.000000
O O14 0.906632 0.781587 0.500000
O O15 0.000000 0.774665 0.593810
O O16 0.926668 0.000000 0.579357
O O17 0.500000 0.683357 0.768611
O O18 0.587766 0.500000 0.820666
O O19 0.573112 0.752086 0.870809
O O20 0.633141 0.713502 0.751383
O O21 0.380605 0.000000 0.094940
O O22 0.414717 0.818152 0.000000
O O23 0.713592 0.500000 0.717106
#
# Coordination Sequence:
#
# PCOD8194141 Si02
#       8
#     8   8   8   8   8   8   8   8
#     4  10  18  29  49  74  97 123 157 194 229 270
#     4   9  17  31  48  63  82 111 149 191 234 283
#     4  10  21  34  46  63  89 119 150 188 235 285
#     4  10  20  33  48  63  80 107 148 198 245 286
#     4   8  14  26  46  73 104 136 168 198 225 259
#     4   9  19  35  51  65  85 118 156 191 230 280
#     4  10  20  30  42  64  91 115 142 182 235 292
#     4   9  17  30  49  70  91 115 147 189 233 276
#
# _framework density 17.002976
#
# number of rings (size 3 to 8) (size 9 to 14) (size 15 to 20)
#    0.000    2.625    1.250    2.250    0.000    6.750 
#    0.000    2.500    0.000    1.500    0.000    0.875 
#    0.000    0.500    0.000    6.250    0.000    0.000 
#
# Total GULP energy -793185.745143 kJ/mol
# GULP energy per Si atom -12393.527268 kJ/mol
# Density = 1.696428 g / cm^3
# Si number density = 17.002976 Si / 1000 Ang^3
#
#
#
# Elastic Constant Matrix: (Units=GPa)
#
#
# Indices 1 2 3 4 5 6 
#
# 1 115.4873 35.6928 48.3703 0.0000 0.0000 0.0000
# 2 35.6928 49.8438 26.3740 0.0000 0.0000 0.0000
# 3 48.3703 26.3740 74.3099 0.0000 0.0000 0.0000
# 4 0.0000 0.0000 0.0000 10.3664 0.0000 0.0000
# 5 0.0000 0.0000 0.0000 0.0000 18.4942 0.0000
# 6 0.0000 0.0000 0.0000 0.0000 0.0000 22.0673
#
#
#
# Elastic Compliance Matrix: (Units=1/GPa)
#
#
# Indices 1 2 3 4 5 6 
#
# 1 0.013241 -0.006059 -0.006468 0.000000 0.000000 0.000000
# 2 -0.006059 0.027474 -0.005807 0.000000 0.000000 0.000000
# 3 -0.006468 -0.005807 0.019729 0.000000 0.000000 0.000000
# 4 0.000000 0.000000 0.000000 0.096466 0.000000 0.000000
# 5 0.000000 0.000000 0.000000 0.000000 0.054071 0.000000
# 6 0.000000 0.000000 0.000000 0.000000 0.000000 0.045316
#
#
# Mechanical properties :
#
#
# Convention : Reuss Voigt Hill
#
# Bulk Modulus (GPa) = 42.06155 51.16835 46.61495
# Shear Modulus (GPa) = 16.61736 18.79917 17.70826
#
# Velocity S-wave (km/s) = 3.12960 3.32872 3.23070
# Velocity P-wave (km/s) = 6.15229 6.70321 6.43365
#
# Compressibility (1/GPa) = 0.02377468
#
# Stress axis : x y z
#
# Youngs Moduli (GPa) = 75.52445 36.39769 50.68773
#
# Poissons Ratio (x) = 0.22053 0.32786
# Poissons Ratio (y) = 0.45760 0.29435
# Poissons Ratio (z) = 0.48852 0.21137
#
# Static dielectric constant tensor:
#      x y z
#    x 3.248870 0.000000 0.000000 
#    y 0.000000 3.012010 0.000000 
#    z 0.000000 0.000000 3.007460 
# 
# 
# High freq. dielectric constant tensor:
#      x y z
#    x 1.657550 0.000000 0.000000 
#    y 0.000000 1.638730 0.000000 
#    z 0.000000 0.000000 1.615930 
# 
# From -- ./inp_files/31506.got.cif
#   From: 2010.03.12/outbox.cif.g09.slc.cpg/sg47_16_cif.got.tgz:31506.got - 2010.04.14 03:12:58.
