data_PCOD8194143
_publ_section_title
;
Structure prediction by ZEFSAII (Michael W. Deem and Ramdas Pophale) SiO2 
 PCOD8194143
Probable space group: P M M M
;
_chemical_formula_sum "Si O2"
_cell_formula_units_Z 52
_cell_length_a 15.617582
_cell_length_b 19.307255
_cell_length_c 9.407623
_cell_angle_alpha 90.000000
_cell_angle_beta 90.000000
_cell_angle_gamma 90.000000
_cell_volume 2836.705382
_symmetry_space_group_name_H-M "P M M M"
_symmetry_group_IT_number 47
_symmetry_cell_setting 'orthorhombic'
loop_
_space_group_symop_operation_xyz
x,y,z
-x,-y,z
x,-y,-z
-x,y,-z
-x,-y,-z
x,y,-z
-x,y,z
x,-y,z
loop_
_atom_site_type_symbol
_atom_site_label
_atom_site_fract_x
_atom_site_fract_y
_atom_site_fract_z
Si Si1 0.306344 0.295458 0.668783
Si Si2 0.136878 0.308862 0.161250
Si Si3 0.760383 0.079001 0.331878
Si Si4 0.000000 0.579806 0.168642
Si Si5 0.093948 0.155546 0.160283
Si Si6 0.594814 0.574978 0.668260
Si Si7 0.404130 0.840439 0.668215
O O1 0.296056 0.294736 0.500000
O O2 0.214102 0.291517 0.735609
O O3 0.346117 0.365725 0.731880
O O4 0.367823 0.233454 0.719771
O O5 0.082521 0.238508 0.167820
O O6 0.083142 0.375722 0.217964
O O7 0.167948 0.323394 0.000000
O O8 0.768583 0.088918 0.500000
O O9 0.833399 0.126306 0.263538
O O10 0.664846 0.101917 0.281689
O O11 0.773905 0.000000 0.284857
O O12 0.000000 0.500000 0.229583
O O13 0.000000 0.576998 0.000000
O O14 0.000000 0.125014 0.201347
O O15 0.118676 0.133208 0.000000
O O16 0.589112 0.583487 0.500000
O O17 0.500000 0.582103 0.732941
O O18 0.633865 0.500000 0.709013
O O19 0.412218 0.841303 0.500000
O O20 0.500000 0.853445 0.732819
#
# Coordination Sequence:
#
# PCOD8194143 Si02
#       7
#     8   8   8   4   8   8   8
#     4  10  18  29  49  75 100 128 167 211 254 301
#     4  10  19  33  53  75  99 131 169 209 253 301
#     4  10  21  36  54  80 111 138 169 214 266 316
#     4   9  18  34  55  77 102 135 176 216 255 309
#     4  10  20  36  58  79 102 136 176 214 255 311
#     4   8  14  25  42  66  96 128 161 199 243 290
#     4   9  17  30  50  76 104 136 175 215 255 306
#
# _framework density 18.331126000000001
#
# number of rings (size 3 to 8) (size 9 to 14) (size 15 to 20)
#    0.000    2.538    2.308    0.923    0.000    3.692 
#    0.000    3.462    0.000    3.692    0.000    2.154 
#    0.000    0.000    0.000    0.000    0.000    0.000 
#
# Total GULP energy -644305.552853 kJ/mol
# GULP energy per Si atom -12390.491401 kJ/mol
# Density = 1.828940 g / cm^3
# Si number density = 18.331126 Si / 1000 Ang^3
#
#
#
# Elastic Constant Matrix: (Units=GPa)
#
#
# Indices 1 2 3 4 5 6 
#
# 1 129.6048 49.9885 29.0344 0.0000 0.0000 0.0000
# 2 49.9885 113.8827 23.9930 0.0000 0.0000 0.0000
# 3 29.0344 23.9930 26.0688 0.0000 0.0000 0.0000
# 4 0.0000 0.0000 0.0000 17.2295 0.0000 0.0000
# 5 0.0000 0.0000 0.0000 0.0000 -112.1088 0.0000
# 6 0.0000 0.0000 0.0000 0.0000 0.0000 25.5329
#
#
#
# Elastic Compliance Matrix: (Units=1/GPa)
#
#
# Indices 1 2 3 4 5 6 
#
# 1 0.010944 -0.002774 -0.009637 0.000000 0.000000 0.000000
# 2 -0.002774 0.011596 -0.007584 0.000000 0.000000 0.000000
# 3 -0.009637 -0.007584 0.056073 0.000000 0.000000 0.000000
# 4 0.000000 0.000000 0.000000 0.058040 0.000000 0.000000
# 5 0.000000 0.000000 0.000000 0.000000 -0.008920 0.000000
# 6 0.000000 0.000000 0.000000 0.000000 0.000000 0.039165
#
#
# Mechanical properties :
#
#
# Convention : Reuss Voigt Hill
#
# Bulk Modulus (GPa) = 25.88966 52.84314 39.36640
# Shear Modulus (GPa) = 22.75193 -2.76660 9.99267
#
# Velocity S-wave (km/s) = 3.52684 -1.22984 2.33731
# Velocity P-wave (km/s) = 5.54426 5.18391 5.36711
#
# Compressibility (1/GPa) = 0.03862546
#
# Stress axis : x y z
#
# Youngs Moduli (GPa) = 91.37078 86.23502 17.83404
#
# Poissons Ratio (x) = 0.23920 0.17186
# Poissons Ratio (y) = 0.25344 0.13524
# Poissons Ratio (z) = 0.88050 0.65396
#
# Static dielectric constant tensor:
#      x y z
#    x 3.569800 0.000000 0.000000 
#    y 0.000000 3.667040 0.000000 
#    z 0.000000 0.000000 2.884410 
# 
# 
# High freq. dielectric constant tensor:
#      x y z
#    x 1.718050 0.000000 0.000000 
#    y 0.000000 1.719600 0.000000 
#    z 0.000000 0.000000 1.656950 
# 
# From -- ./inp_files/7072.got.cif
#   From: 2010.03.12/outbox.cif.g09.slc.cpg/sg47_4_cif.got.tgz:7072.got - 2010.04.14 03:12:58.
