data_PCOD8194100
_publ_section_title
;
Structure prediction by ZEFSAII (Michael W. Deem and Ramdas Pophale) SiO2 
 PCOD8194100
Probable space group: P M M M
;
_chemical_formula_sum "Si O2"
_cell_formula_units_Z 64
_cell_length_a 9.012942
_cell_length_b 14.183456
_cell_length_c 31.375502
_cell_angle_alpha 90.000000
_cell_angle_beta 90.000000
_cell_angle_gamma 90.000000
_cell_volume 4010.876828
_symmetry_space_group_name_H-M "P M M M"
_symmetry_group_IT_number 47
_symmetry_cell_setting 'orthorhombic'
loop_
_space_group_symop_operation_xyz
x,y,z
-x,-y,z
x,-y,-z
-x,y,-z
-x,-y,-z
x,y,-z
-x,y,z
x,-y,z
loop_
_atom_site_type_symbol
_atom_site_label
_atom_site_fract_x
_atom_site_fract_y
_atom_site_fract_z
Si Si1 0.673356 0.110311 0.790383
Si Si2 0.830834 0.604636 0.828800
Si Si3 0.668002 0.111990 0.453582
Si Si4 0.823933 0.894076 0.953294
Si Si5 0.327099 0.393127 0.741183
Si Si6 0.176175 0.216517 0.712474
Si Si7 0.174733 0.893001 0.629381
Si Si8 0.173275 0.795643 0.869478
O O1 0.500000 0.133937 0.787589
O O2 0.757417 0.163312 0.752801
O O3 0.735483 0.145158 0.835279
O O4 0.704927 0.000000 0.785726
O O5 0.802839 0.500000 0.848181
O O6 0.721760 0.623999 0.789720
O O7 0.799153 0.683355 0.864574
O O8 0.000000 0.613433 0.811967
O O9 0.726488 0.148278 0.500000
O O10 0.500000 0.145876 0.447092
O O11 0.763482 0.152803 0.414397
O O12 0.678305 0.000000 0.453193
O O13 0.766565 0.824249 0.916284
O O14 0.000000 0.893498 0.954075
O O15 0.767047 0.000000 0.943614
O O16 0.764629 0.861137 0.000000
O O17 0.500000 0.369879 0.737772
O O18 0.292043 0.500000 0.726950
O O19 0.235576 0.323583 0.710589
O O20 0.232388 0.166522 0.669458
O O21 0.000000 0.215377 0.716313
O O22 0.000000 0.890039 0.626288
O O23 0.232137 0.000000 0.635444
O O24 0.000000 0.820874 0.863945
#
# Coordination Sequence:
#
# PCOD8194100 Si02
#       8
#     8   8   8   8   8   8   8   8
#     4  11  23  34  44  63  92 123 153 188 228 269
#     4   9  17  29  45  66  90 115 146 184 227 272
#     4   8  14  25  41  61  85 115 153 194 232 269
#     4   8  14  25  42  65  90 114 146 189 230 269
#     4  10  20  33  49  68  90 117 151 191 232 273
#     4  11  21  33  48  66  91 124 158 191 227 271
#     4   9  18  30  43  62  89 122 158 192 226 266
#     4  10  18  29  48  69  87 115 152 189 227 270
#
# _framework density 15.956611000000001
#
# number of rings (size 3 to 8) (size 9 to 14) (size 15 to 20)
#    0.000    2.500    1.250    2.625    0.000    4.000 
#    0.000    2.500    0.000    0.750    0.000    4.375 
#    0.000    0.500    0.000    9.750    0.000    8.875 
#
# Total GULP energy -793332.209378 kJ/mol
# GULP energy per Si atom -12395.815772 kJ/mol
# Density = 1.592029 g / cm^3
# Si number density = 15.956611 Si / 1000 Ang^3
#
#
#
# Elastic Constant Matrix: (Units=GPa)
#
#
# Indices 1 2 3 4 5 6 
#
# 1 49.8312 33.9109 36.9585 0.0000 0.0000 0.0000
# 2 33.9109 91.4981 58.9586 0.0000 0.0000 0.0000
# 3 36.9585 58.9586 133.1900 0.0000 0.0000 0.0000
# 4 0.0000 0.0000 0.0000 9.8844 0.0000 0.0000
# 5 0.0000 0.0000 0.0000 0.0000 1.5622 0.0000
# 6 0.0000 0.0000 0.0000 0.0000 0.0000 20.1385
#
#
#
# Elastic Compliance Matrix: (Units=1/GPa)
#
#
# Indices 1 2 3 4 5 6 
#
# 1 0.028681 -0.007697 -0.004552 0.000000 0.000000 0.000000
# 2 -0.007697 0.017356 -0.005547 0.000000 0.000000 0.000000
# 3 -0.004552 -0.005547 0.011227 0.000000 0.000000 0.000000
# 4 0.000000 0.000000 0.000000 0.101169 0.000000 0.000000
# 5 0.000000 0.000000 0.000000 0.000000 0.640114 0.000000
# 6 0.000000 0.000000 0.000000 0.000000 0.000000 0.049656
#
#
# Mechanical properties :
#
#
# Convention : Reuss Voigt Hill
#
# Bulk Modulus (GPa) = 46.14069 59.35281 52.74675
# Shear Modulus (GPa) = 5.61155 15.96312 10.78734
#
# Velocity S-wave (km/s) = 1.87734 3.16635 2.60290
# Velocity P-wave (km/s) = 5.80330 7.11652 6.49320
#
# Compressibility (1/GPa) = 0.02167284
#
# Stress axis : x y z
#
# Youngs Moduli (GPa) = 34.86584 57.61600 89.07401
#
# Poissons Ratio (x) = 0.44347 0.40542
# Poissons Ratio (y) = 0.26836 0.49411
# Poissons Ratio (z) = 0.15869 0.31961
#
# Static dielectric constant tensor:
#      x y z
#    x 2.969710 0.000000 0.000000 
#    y 0.000000 3.121880 0.000000 
#    z 0.000000 0.000000 3.298300 
# 
# 
# High freq. dielectric constant tensor:
#      x y z
#    x 1.605800 0.000000 0.000000 
#    y 0.000000 1.596260 0.000000 
#    z 0.000000 0.000000 1.602710 
# 
# From -- ./inp_files/34413.got.cif
#   From: 2010.03.12/outbox.cif.g09.slc.cpg/sg47_18_cif.got.tgz:34413.got - 2010.04.14 03:12:58.
