data_PCOD8194832
_publ_section_title
;
Structure prediction by ZEFSAII (Michael W. Deem and Ramdas Pophale) SiO2 
 PCOD8194832
Probable space group: P M M M
;
_chemical_formula_sum "Si O2"
_cell_formula_units_Z 56
_cell_length_a 25.778465
_cell_length_b 14.375233
_cell_length_c 9.269207
_cell_angle_alpha 90.000000
_cell_angle_beta 90.000000
_cell_angle_gamma 90.000000
_cell_volume 3434.903393
_symmetry_space_group_name_H-M "P M M M"
_symmetry_group_IT_number 47
_symmetry_cell_setting 'orthorhombic'
loop_
_space_group_symop_operation_xyz
x,y,z
-x,-y,z
x,-y,-z
-x,y,-z
-x,-y,-z
x,y,-z
-x,y,z
x,-y,z
loop_
_atom_site_type_symbol
_atom_site_label
_atom_site_fract_x
_atom_site_fract_y
_atom_site_fract_z
Si Si1 0.939973 0.893311 0.833828
Si Si2 0.758894 0.890770 0.168034
Si Si3 0.655420 0.210375 0.170499
Si Si4 0.298642 0.397555 0.830906
Si Si5 0.805970 0.603188 0.334591
Si Si6 0.852596 0.794206 0.331472
Si Si7 0.442990 0.105047 0.171709
O O1 0.907330 0.825412 0.732927
O O2 0.000000 0.874271 0.801147
O O3 0.925731 0.000000 0.798560
O O4 0.926963 0.871973 0.000000
O O5 0.705513 0.845868 0.226773
O O6 0.806316 0.849543 0.256776
O O7 0.755690 0.000000 0.195208
O O8 0.767670 0.867407 0.000000
O O9 0.659860 0.319072 0.215591
O O10 0.602219 0.170065 0.238793
O O11 0.652703 0.198203 0.000000
O O12 0.319381 0.500000 0.785264
O O13 0.244181 0.374423 0.759059
O O14 0.288257 0.392277 0.000000
O O15 0.788069 0.607269 0.500000
O O16 0.828556 0.500000 0.297377
O O17 0.848209 0.683054 0.302727
O O18 0.851303 0.817570 0.500000
O O19 0.500000 0.138793 0.225489
O O20 0.432780 0.000000 0.224488
O O21 0.441607 0.108466 0.000000
#
# Coordination Sequence:
#
# PCOD8194832 Si02
#       7
#     8   8   8   8   8   8   8
#     4   9  19  36  55  72  92 123 160 190 217 257
#     4  10  19  29  42  62  90 123 152 178 218 274
#     4   9  15  24  38  57  83 114 147 185 225 266
#     4   9  16  26  42  63  85 111 146 186 225 268
#     4   9  18  32  47  64  90 122 153 184 220 267
#     4  11  21  31  47  71  96 120 148 186 229 269
#     4   8  13  21  34  53  78 111 151 189 222 261
#
# _framework density 16.303224
#
# number of rings (size 3 to 8) (size 9 to 14) (size 15 to 20)
#    0.000    2.714    1.429    2.143    0.000    4.857 
#    0.000    0.714    0.000    0.857    0.000    6.000 
#    0.000    2.286    0.000   11.429    0.000   10.857 
#
# Total GULP energy -694105.180646 kJ/mol
# GULP energy per Si atom -12394.735369 kJ/mol
# Density = 1.626612 g / cm^3
# Si number density = 16.303224 Si / 1000 Ang^3
#
#
#
# Elastic Constant Matrix: (Units=GPa)
#
#
# Indices 1 2 3 4 5 6 
#
# 1 113.4256 75.2013 36.4292 0.0000 0.0000 0.0000
# 2 75.2013 125.9762 39.9565 0.0000 0.0000 0.0000
# 3 36.4292 39.9565 39.7198 0.0000 0.0000 0.0000
# 4 0.0000 0.0000 0.0000 18.3652 0.0000 0.0000
# 5 0.0000 0.0000 0.0000 0.0000 -2.4319 0.0000
# 6 0.0000 0.0000 0.0000 0.0000 0.0000 23.2862
#
#
#
# Elastic Compliance Matrix: (Units=1/GPa)
#
#
# Indices 1 2 3 4 5 6 
#
# 1 0.015953 -0.007170 -0.007418 0.000000 0.000000 0.000000
# 2 -0.007170 0.014880 -0.008393 0.000000 0.000000 0.000000
# 3 -0.007418 -0.008393 0.040423 0.000000 0.000000 0.000000
# 4 0.000000 0.000000 0.000000 0.054451 0.000000 0.000000
# 5 0.000000 0.000000 0.000000 0.000000 -0.411207 0.000000
# 6 0.000000 0.000000 0.000000 0.000000 0.000000 0.042944
#
#
# Mechanical properties :
#
#
# Convention : Reuss Voigt Hill
#
# Bulk Modulus (GPa) = 39.53591 64.69952 52.11772
# Shear Modulus (GPa) = -26.57274 16.34620 -5.11327
#
# Velocity S-wave (km/s) = -4.04159 3.16988 -1.77290
# Velocity P-wave (km/s) = 1.58863 7.29169 5.27695
#
# Compressibility (1/GPa) = 0.02529346
#
# Stress axis : x y z
#
# Youngs Moduli (GPa) = 62.68554 67.20381 24.73845
#
# Poissons Ratio (x) = 0.48185 0.18352
# Poissons Ratio (y) = 0.44946 0.20762
# Poissons Ratio (z) = 0.46502 0.56403
#
# Static dielectric constant tensor:
#      x y z
#    x 3.136830 0.000000 0.000000 
#    y 0.000000 3.392860 0.000000 
#    z 0.000000 0.000000 2.845560 
# 
# 
# High freq. dielectric constant tensor:
#      x y z
#    x 1.611760 0.000000 0.000000 
#    y 0.000000 1.635220 0.000000 
#    z 0.000000 0.000000 1.598020 
# 
# From -- ./inp_files/14207.got.cif
#   From: 2010.03.12/outbox.cif.g09.slc.cpg/sg47_8_cif.got.tgz:14207.got - 2010.04.14 03:12:58.
