data_PCOD8194783
_publ_section_title
;
Structure prediction by ZEFSAII (Michael W. Deem and Ramdas Pophale) SiO2 
 PCOD8194783
Probable space group: P M M M
;
_chemical_formula_sum "Si O2"
_cell_formula_units_Z 44
_cell_length_a 11.273022
_cell_length_b 15.881314
_cell_length_c 16.378710
_cell_angle_alpha 90.000000
_cell_angle_beta 90.000000
_cell_angle_gamma 90.000000
_cell_volume 2932.287037
_symmetry_space_group_name_H-M "P M M M"
_symmetry_group_IT_number 47
_symmetry_cell_setting 'orthorhombic'
loop_
_space_group_symop_operation_xyz
x,y,z
-x,-y,z
x,-y,-z
-x,y,-z
-x,-y,-z
x,y,-z
-x,y,z
x,-y,z
loop_
_atom_site_type_symbol
_atom_site_label
_atom_site_fract_x
_atom_site_fract_y
_atom_site_fract_z
Si Si1 0.000000 0.140854 0.412314
Si Si2 0.000000 0.595082 0.597568
Si Si3 0.636912 0.833274 0.320606
Si Si4 0.804550 0.720332 0.591096
Si Si5 0.000000 0.906707 0.229799
Si Si6 0.358972 0.000000 0.591935
Si Si7 0.749246 0.100498 0.168359
Si Si8 0.634499 0.900684 0.000000
O O1 0.114613 0.198280 0.412158
O O2 0.000000 0.089519 0.500000
O O3 0.000000 0.087515 0.328747
O O4 0.880314 0.642064 0.628313
O O5 0.000000 0.500000 0.630920
O O6 0.000000 0.600040 0.500000
O O7 0.500000 0.823034 0.340805
O O8 0.695958 0.745589 0.350151
O O9 0.656525 0.850026 0.225219
O O10 0.691791 0.915348 0.366610
O O11 0.757327 0.698244 0.500000
O O12 0.119130 0.864700 0.192309
O O13 0.000000 0.000000 0.194438
O O14 0.500000 0.000000 0.598593
O O15 0.312669 0.000000 0.500000
O O16 0.737957 0.000000 0.181498
O O17 0.712026 0.128202 0.077650
O O18 0.500000 0.862322 0.000000
O O19 0.621210 0.000000 0.000000
#
# Coordination Sequence:
#
# PCOD8194783 Si02
#       8
#     4   4   8   8   4   4   8   4
#     4   9  16  28  41  55  80 113 144 176 213 249
#     4   8  15  30  52  69  80 105 146 187 225 270
#     4  11  19  27  41  59  86 122 156 188 223 262
#     4   9  17  28  43  63  87 111 144 186 223 259
#     4  10  19  29  41  57  79 110 147 188 231 265
#     4   9  18  28  36  50  78 119 162 192 210 242
#     4  10  19  31  44  59  80 110 154 199 235 269
#     4   9  18  31  47  61  75 102 147 200 244 275
#
# _framework density 15.005352
#
# number of rings (size 3 to 8) (size 9 to 14) (size 15 to 20)
#    0.000    2.455    2.727    2.182    0.000    2.364 
#    0.000    1.818    0.000    0.545    0.000    2.545 
#    0.000    0.000    0.000    1.636    0.000    4.182 
#
# Total GULP energy -545183.383459 kJ/mol
# GULP energy per Si atom -12390.531442 kJ/mol
# Density = 1.497120 g / cm^3
# Si number density = 15.005352 Si / 1000 Ang^3
#
#
#
# Elastic Constant Matrix: (Units=GPa)
#
#
# Indices 1 2 3 4 5 6 
#
# 1 77.7578 29.7550 38.3443 0.0000 0.0000 0.0000
# 2 29.7550 62.5643 21.9151 0.0000 0.0000 0.0000
# 3 38.3443 21.9151 105.4661 0.0000 0.0000 0.0000
# 4 0.0000 0.0000 0.0000 6.0871 0.0000 0.0000
# 5 0.0000 0.0000 0.0000 0.0000 22.1672 0.0000
# 6 0.0000 0.0000 0.0000 0.0000 0.0000 10.7704
#
#
#
# Elastic Compliance Matrix: (Units=1/GPa)
#
#
# Indices 1 2 3 4 5 6 
#
# 1 0.017975 -0.006751 -0.005132 0.000000 0.000000 0.000000
# 2 -0.006751 0.019774 -0.001654 0.000000 0.000000 0.000000
# 3 -0.005132 -0.001654 0.011691 0.000000 0.000000 0.000000
# 4 0.000000 0.000000 0.000000 0.164281 0.000000 0.000000
# 5 0.000000 0.000000 0.000000 0.000000 0.045112 0.000000
# 6 0.000000 0.000000 0.000000 0.000000 0.000000 0.092847
#
#
# Mechanical properties :
#
#
# Convention : Reuss Voigt Hill
#
# Bulk Modulus (GPa) = 44.71331 47.31301 46.01316
# Shear Modulus (GPa) = 12.94634 18.18986 15.56810
#
# Velocity S-wave (km/s) = 2.94050 3.48548 3.22452
# Velocity P-wave (km/s) = 6.43363 6.91356 6.67791
#
# Compressibility (1/GPa) = 0.02236471
#
# Stress axis : x y z
#
# Youngs Moduli (GPa) = 55.63410 50.57220 85.53275
#
# Poissons Ratio (x) = 0.34140 0.43898
# Poissons Ratio (y) = 0.37558 0.14151
# Poissons Ratio (z) = 0.28553 0.08367
#
# Static dielectric constant tensor:
#      x y z
#    x 3.119670 0.000000 0.000000 
#    y 0.000000 2.541380 0.000000 
#    z 0.000000 0.000000 2.893020 
# 
# 
# High freq. dielectric constant tensor:
#      x y z
#    x 1.583410 0.000000 0.000000 
#    y 0.000000 1.507880 0.000000 
#    z 0.000000 0.000000 1.560810 
# 
# From -- ./inp_files/22671.got.cif
#   From: 2010.03.12/outbox.cif.g09.slc.cpg/sg47_12_cif.got.tgz:22671.got - 2010.04.14 03:12:58.
