data_PCOD8194004
_publ_section_title
;
Structure prediction by ZEFSAII (Michael W. Deem and Ramdas Pophale) SiO2 
 PCOD8194004
Probable space group: P M M M
;
_chemical_formula_sum "Si O2"
_cell_formula_units_Z 64
_cell_length_a 9.531012
_cell_length_b 19.918481
_cell_length_c 20.114521
_cell_angle_alpha 90.000000
_cell_angle_beta 90.000000
_cell_angle_gamma 90.000000
_cell_volume 3818.606671
_symmetry_space_group_name_H-M "P M M M"
_symmetry_group_IT_number 47
_symmetry_cell_setting 'orthorhombic'
loop_
_space_group_symop_operation_xyz
x,y,z
-x,-y,z
x,-y,-z
-x,y,-z
-x,-y,-z
x,y,-z
-x,y,z
x,-y,z
loop_
_atom_site_type_symbol
_atom_site_label
_atom_site_fract_x
_atom_site_fract_y
_atom_site_fract_z
Si Si1 0.157389 0.367927 0.426853
Si Si2 0.659011 0.197001 0.247382
Si Si3 0.334230 0.335250 0.805961
Si Si4 0.160581 0.425309 0.289482
Si Si5 0.163301 0.925611 0.285100
Si Si6 0.339032 0.241930 0.396106
Si Si7 0.159591 0.880376 0.571706
Si Si8 0.666530 0.424817 0.926204
O O1 0.176214 0.401356 0.500000
O O2 0.180784 0.422645 0.369244
O O3 0.271698 0.310622 0.418937
O O4 0.000000 0.337368 0.420150
O O5 0.500000 0.172583 0.236093
O O6 0.700633 0.255090 0.193814
O O7 0.755109 0.130692 0.242520
O O8 0.677967 0.233272 0.317503
O O9 0.500000 0.345915 0.796538
O O10 0.259528 0.370956 0.744503
O O11 0.277823 0.369308 0.874070
O O12 0.203241 0.500000 0.266221
O O13 0.000000 0.409697 0.269697
O O14 0.201304 0.924674 0.364031
O O15 0.000000 0.911852 0.273667
O O16 0.204921 0.000000 0.259317
O O17 0.500000 0.241288 0.418257
O O18 0.260678 0.182752 0.433889
O O19 0.173890 0.919168 0.500000
O O20 0.000000 0.855305 0.581158
O O21 0.500000 0.423891 0.926951
O O22 0.718146 0.500000 0.906225
O O23 0.723282 0.406569 0.000000
#
# Coordination Sequence:
#
# PCOD8194004 Si02
#       8
#     8   8   8   8   8   8   8   8
#     4  10  20  32  45  59  78 108 146 190 241 289
#     4   9  18  30  45  66  90 116 148 184 225 270
#     4  10  18  31  51  73  96 124 158 192 225 267
#     4  10  21  34  47  65  88 115 151 195 240 283
#     4   9  18  31  46  64  86 114 147 184 229 278
#     4  10  18  29  43  61  84 108 139 183 230 276
#     4   9  17  28  42  60  82 108 139 176 222 278
#     4   8  14  25  44  73 105 133 160 189 222 262
#
# _framework density 16.760041000000001
#
# number of rings (size 3 to 8) (size 9 to 14) (size 15 to 20)
#    0.000    2.625    1.250    1.500    0.000    4.500 
#    0.000    2.500    0.000    0.375    0.000    7.000 
#    0.000    0.500    0.000    6.250    0.000    1.000 
#
# Total GULP energy -793060.600542 kJ/mol
# GULP energy per Si atom -12391.571883 kJ/mol
# Density = 1.672189 g / cm^3
# Si number density = 16.760041 Si / 1000 Ang^3
#
#
#
# Elastic Constant Matrix: (Units=GPa)
#
#
# Indices 1 2 3 4 5 6 
#
# 1 58.6001 44.6769 21.2887 0.0000 0.0000 0.0000
# 2 44.6769 113.1556 45.0733 0.0000 0.0000 0.0000
# 3 21.2887 45.0733 73.5624 0.0000 0.0000 0.0000
# 4 0.0000 0.0000 0.0000 15.6723 0.0000 0.0000
# 5 0.0000 0.0000 0.0000 0.0000 9.7621 0.0000
# 6 0.0000 0.0000 0.0000 0.0000 0.0000 22.1416
#
#
#
# Elastic Compliance Matrix: (Units=1/GPa)
#
#
# Indices 1 2 3 4 5 6 
#
# 1 0.024545 -0.009077 -0.001542 0.000000 0.000000 0.000000
# 2 -0.009077 0.015047 -0.006593 0.000000 0.000000 0.000000
# 3 -0.001542 -0.006593 0.018080 0.000000 0.000000 0.000000
# 4 0.000000 0.000000 0.000000 0.063807 0.000000 0.000000
# 5 0.000000 0.000000 0.000000 0.000000 0.102437 0.000000
# 6 0.000000 0.000000 0.000000 0.000000 0.000000 0.045164
#
#
# Mechanical properties :
#
#
# Convention : Reuss Voigt Hill
#
# Bulk Modulus (GPa) = 43.01248 51.93286 47.47267
# Shear Modulus (GPa) = 16.06409 18.46715 17.26562
#
# Velocity S-wave (km/s) = 3.09928 3.32302 3.21310
# Velocity P-wave (km/s) = 6.20700 6.76585 6.49244
#
# Compressibility (1/GPa) = 0.02324906
#
# Stress axis : x y z
#
# Youngs Moduli (GPa) = 40.74112 66.45635 55.31049
#
# Poissons Ratio (x) = 0.60323 0.08527
# Poissons Ratio (y) = 0.36981 0.36467
# Poissons Ratio (z) = 0.06281 0.43815
#
# Static dielectric constant tensor:
#      x y z
#    x 3.056580 0.000000 0.000000 
#    y 0.000000 3.122690 0.000000 
#    z 0.000000 0.000000 3.161890 
# 
# 
# High freq. dielectric constant tensor:
#      x y z
#    x 1.634470 0.000000 0.000000 
#    y 0.000000 1.632070 0.000000 
#    z 0.000000 0.000000 1.615790 
# 
# From -- ./inp_files/30124.got.cif
#   From: 2010.03.12/outbox.cif.g09.slc.cpg/sg47_16_cif.got.tgz:30124.got - 2010.04.14 03:12:58.
