data_PCOD8194735
_publ_section_title
;
Structure prediction by ZEFSAII (Michael W. Deem and Ramdas Pophale) SiO2 
 PCOD8194735
Probable space group: P M M M
;
_chemical_formula_sum "Si O2"
_cell_formula_units_Z 52
_cell_length_a 15.369087
_cell_length_b 22.291336
_cell_length_c 9.143269
_cell_angle_alpha 90.000000
_cell_angle_beta 90.000000
_cell_angle_gamma 90.000000
_cell_volume 3132.460940
_symmetry_space_group_name_H-M "P M M M"
_symmetry_group_IT_number 47
_symmetry_cell_setting 'orthorhombic'
loop_
_space_group_symop_operation_xyz
x,y,z
-x,-y,z
x,-y,-z
-x,y,-z
-x,-y,-z
x,y,-z
-x,y,z
x,-y,z
loop_
_atom_site_type_symbol
_atom_site_label
_atom_site_fract_x
_atom_site_fract_y
_atom_site_fract_z
Si Si1 0.396899 0.000000 0.665202
Si Si2 0.596611 0.566827 0.673908
Si Si3 0.397944 0.880739 0.171613
Si Si4 0.739276 0.343337 0.329045
Si Si5 0.266316 0.204167 0.672226
Si Si6 0.903877 0.798727 0.835049
Si Si7 0.905443 0.343733 0.164085
O O1 0.364413 0.941683 0.752386
O O2 0.500000 0.000000 0.659807
O O3 0.358681 0.000000 0.500000
O O4 0.595575 0.570537 0.500000
O O5 0.500000 0.580792 0.734302
O O6 0.625691 0.500000 0.723287
O O7 0.661734 0.616685 0.739098
O O8 0.500000 0.869901 0.200611
O O9 0.345888 0.826482 0.244259
O O10 0.377732 0.884691 0.000000
O O11 0.745096 0.352456 0.500000
O O12 0.723956 0.274166 0.288345
O O13 0.829508 0.369089 0.265818
O O14 0.273122 0.191907 0.500000
O O15 0.173250 0.178246 0.728729
O O16 0.904916 0.727604 0.831784
O O17 0.000000 0.822160 0.783799
O O18 0.885074 0.821488 0.000000
O O19 0.000000 0.366688 0.219902
O O20 0.889007 0.366609 0.000000
#
# Coordination Sequence:
#
# PCOD8194735 Si02
#       7
#     4   8   8   8   8   8   8
#     4   9  17  31  51  71  90 115 150 191 231 265
#     4   8  14  26  44  63  82 108 145 186 225 267
#     4  10  20  33  48  66  91 124 159 189 217 259
#     4   9  17  27  42  66  90 112 142 183 227 266
#     4  10  19  28  41  66  97 122 145 181 230 275
#     4   8  14  26  43  61  84 116 151 184 218 261
#     4   8  14  25  41  60  83 113 144 172 210 263
#
# _framework density 16.600366999999999
#
# number of rings (size 3 to 8) (size 9 to 14) (size 15 to 20)
#    0.000    3.154    0.000    2.538    0.000    3.692 
#    0.000    4.615    0.000    1.385    0.000    4.846 
#    0.000    4.308    0.000    0.000    0.000    0.000 
#
# Total GULP energy -644434.652384 kJ/mol
# GULP energy per Si atom -12392.974084 kJ/mol
# Density = 1.656258 g / cm^3
# Si number density = 16.600367 Si / 1000 Ang^3
#
#
#
# Elastic Constant Matrix: (Units=GPa)
#
#
# Indices 1 2 3 4 5 6 
#
# 1 126.0869 60.4860 55.4695 0.0000 0.0000 0.0000
# 2 60.4860 64.5381 40.3121 0.0000 0.0000 0.0000
# 3 55.4695 40.3121 74.5259 0.0000 0.0000 0.0000
# 4 0.0000 0.0000 0.0000 12.7463 0.0000 0.0000
# 5 0.0000 0.0000 0.0000 0.0000 29.4172 0.0000
# 6 0.0000 0.0000 0.0000 0.0000 0.0000 4.1832
#
#
#
# Elastic Compliance Matrix: (Units=1/GPa)
#
#
# Indices 1 2 3 4 5 6 
#
# 1 0.015858 -0.011312 -0.005685 0.000000 0.000000 0.000000
# 2 -0.011312 0.031470 -0.008603 0.000000 0.000000 0.000000
# 3 -0.005685 -0.008603 0.022303 0.000000 0.000000 0.000000
# 4 0.000000 0.000000 0.000000 0.078454 0.000000 0.000000
# 5 0.000000 0.000000 0.000000 0.000000 0.033994 0.000000
# 6 0.000000 0.000000 0.000000 0.000000 0.000000 0.239052
#
#
# Mechanical properties :
#
#
# Convention : Reuss Voigt Hill
#
# Bulk Modulus (GPa) = 54.25376 64.18734 59.22055
# Shear Modulus (GPa) = 10.44987 16.52820 13.48904
#
# Velocity S-wave (km/s) = 2.51170 3.15882 2.85366
# Velocity P-wave (km/s) = 6.41597 7.21487 6.82712
#
# Compressibility (1/GPa) = 0.01843190
#
# Stress axis : x y z
#
# Youngs Moduli (GPa) = 63.05789 31.77600 44.83755
#
# Poissons Ratio (x) = 0.35945 0.25488
# Poissons Ratio (y) = 0.71331 0.38574
# Poissons Ratio (z) = 0.35846 0.27337
#
# Static dielectric constant tensor:
#      x y z
#    x 3.515730 0.000000 0.000000 
#    y 0.000000 2.932440 0.000000 
#    z 0.000000 0.000000 3.079850 
# 
# 
# High freq. dielectric constant tensor:
#      x y z
#    x 1.643440 0.000000 0.000000 
#    y 0.000000 1.600790 0.000000 
#    z 0.000000 0.000000 1.628920 
# 
# From -- ./inp_files/4539.got.cif
#   From: 2010.03.12/outbox.cif.g09.slc.cpg/sg47_3_cif.got.tgz:4539.got - 2010.04.14 03:12:58.
