data_PCOD8194745
_publ_section_title
;
Structure prediction by ZEFSAII (Michael W. Deem and Ramdas Pophale) SiO2 
 PCOD8194745
Probable space group: P M M M
;
_chemical_formula_sum "Si O2"
_cell_formula_units_Z 52
_cell_length_a 13.316815
_cell_length_b 16.245681
_cell_length_c 13.920205
_cell_angle_alpha 90.000000
_cell_angle_beta 90.000000
_cell_angle_gamma 90.000000
_cell_volume 3011.507290
_symmetry_space_group_name_H-M "P M M M"
_symmetry_group_IT_number 47
_symmetry_cell_setting 'orthorhombic'
loop_
_space_group_symop_operation_xyz
x,y,z
-x,-y,z
x,-y,-z
-x,y,-z
-x,-y,-z
x,y,-z
-x,y,z
x,-y,z
loop_
_atom_site_type_symbol
_atom_site_label
_atom_site_fract_x
_atom_site_fract_y
_atom_site_fract_z
Si Si1 0.704568 0.089488 0.388142
Si Si2 0.114916 0.403120 0.891078
Si Si3 0.203924 0.659376 0.294592
Si Si4 0.112557 0.500000 0.613128
Si Si5 0.384943 0.258053 0.387185
Si Si6 0.115626 0.830694 0.298519
Si Si7 0.118947 0.092153 0.895361
O O1 0.688306 0.081438 0.500000
O O2 0.634633 0.164280 0.350392
O O3 0.820893 0.110345 0.367720
O O4 0.676494 0.000000 0.341673
O O5 0.124175 0.500000 0.873531
O O6 0.190937 0.356764 0.819420
O O7 0.000000 0.374892 0.871047
O O8 0.145172 0.380358 0.000000
O O9 0.170286 0.580374 0.353163
O O10 0.318839 0.679534 0.322975
O O11 0.134159 0.735859 0.325457
O O12 0.108587 0.500000 0.500000
O O13 0.000000 0.500000 0.657004
O O14 0.356445 0.266718 0.500000
O O15 0.500000 0.281399 0.369042
O O16 0.153693 0.846350 0.188822
O O17 0.000000 0.853977 0.313386
O O18 0.000000 0.089777 0.898282
O O19 0.159673 0.000000 0.874298
O O20 0.159176 0.122675 0.000000
#
# Coordination Sequence:
#
# PCOD8194745 Si02
#       7
#     8   8   8   4   8   8   8
#     4   9  18  31  47  69  95 125 163 202 243 298
#     4   9  17  30  50  75 103 135 168 201 238 285
#     4  11  20  33  51  72  99 131 169 213 256 302
#     4  11  22  34  50  72 100 135 170 202 244 303
#     4   9  19  36  55  74  97 125 163 216 270 310
#     4  10  19  28  42  66  98 133 164 198 244 297
#     4   8  14  25  40  59  87 124 162 195 228 272
#
# _framework density 17.267101
#
# number of rings (size 3 to 8) (size 9 to 14) (size 15 to 20)
#    0.000    2.538    0.769    3.231    0.000    2.769 
#    0.000    4.231    0.000    1.846    0.000    1.077 
#    0.000    0.000    0.000   16.308    0.000    0.923 
#
# Total GULP energy -644474.360643 kJ/mol
# GULP energy per Si atom -12393.737705 kJ/mol
# Density = 1.722780 g / cm^3
# Si number density = 17.267101 Si / 1000 Ang^3
#
#
#
# Elastic Constant Matrix: (Units=GPa)
#
#
# Indices 1 2 3 4 5 6 
#
# 1 91.1619 38.7813 37.9631 0.0000 0.0000 0.0000
# 2 38.7813 103.1006 33.6387 0.0000 0.0000 0.0000
# 3 37.9631 33.6387 55.2934 0.0000 0.0000 0.0000
# 4 0.0000 0.0000 0.0000 23.1195 0.0000 0.0000
# 5 0.0000 0.0000 0.0000 0.0000 18.7132 0.0000
# 6 0.0000 0.0000 0.0000 0.0000 0.0000 14.7095
#
#
#
# Elastic Compliance Matrix: (Units=1/GPa)
#
#
# Indices 1 2 3 4 5 6 
#
# 1 0.016098 -0.003056 -0.009193 0.000000 0.000000 0.000000
# 2 -0.003056 0.012681 -0.005617 0.000000 0.000000 0.000000
# 3 -0.009193 -0.005617 0.027814 0.000000 0.000000 0.000000
# 4 0.000000 0.000000 0.000000 0.043254 0.000000 0.000000
# 5 0.000000 0.000000 0.000000 0.000000 0.053438 0.000000
# 6 0.000000 0.000000 0.000000 0.000000 0.000000 0.067983
#
#
# Mechanical properties :
#
#
# Convention : Reuss Voigt Hill
#
# Bulk Modulus (GPa) = 47.93502 52.25800 50.09651
# Shear Modulus (GPa) = 18.94266 20.58663 19.76465
#
# Velocity S-wave (km/s) = 3.31575 3.45664 3.38693
# Velocity P-wave (km/s) = 6.51767 6.80157 6.66113
#
# Compressibility (1/GPa) = 0.02086157
#
# Stress axis : x y z
#
# Youngs Moduli (GPa) = 62.11991 78.85629 35.95250
#
# Poissons Ratio (x) = 0.24096 0.33053
# Poissons Ratio (y) = 0.18982 0.20194
# Poissons Ratio (z) = 0.57110 0.44293
#
# Static dielectric constant tensor:
#      x y z
#    x 2.892020 0.000000 0.000000 
#    y 0.000000 3.477990 0.000000 
#    z 0.000000 0.000000 3.435610 
# 
# 
# High freq. dielectric constant tensor:
#      x y z
#    x 1.619560 0.000000 0.000000 
#    y 0.000000 1.675800 0.000000 
#    z 0.000000 0.000000 1.662860 
# 
# From -- ./inp_files/22794.got.cif
#   From: 2010.03.12/outbox.cif.g09.slc.cpg/sg47_12_cif.got.tgz:22794.got - 2010.04.14 03:12:58.
