data_PCOD8194765
_publ_section_title
;
Structure prediction by ZEFSAII (Michael W. Deem and Ramdas Pophale) SiO2 
 PCOD8194765
Probable space group: P M M M
;
_chemical_formula_sum "Si O2"
_cell_formula_units_Z 48
_cell_length_a 22.058070
_cell_length_b 19.667884
_cell_length_c 8.141173
_cell_angle_alpha 90.000000
_cell_angle_beta 90.000000
_cell_angle_gamma 90.000000
_cell_volume 3531.930364
_symmetry_space_group_name_H-M "P M M M"
_symmetry_group_IT_number 47
_symmetry_cell_setting 'orthorhombic'
loop_
_space_group_symop_operation_xyz
x,y,z
-x,-y,z
x,-y,-z
-x,y,-z
-x,-y,-z
x,y,-z
-x,y,z
x,-y,z
loop_
_atom_site_type_symbol
_atom_site_label
_atom_site_fract_x
_atom_site_fract_y
_atom_site_fract_z
Si Si1 0.571795 0.573429 0.686941
Si Si2 0.859842 0.919385 0.682221
Si Si3 0.430600 0.714412 0.811675
Si Si4 0.267650 0.076549 0.811619
Si Si5 0.930909 0.918961 0.000000
Si Si6 0.500000 0.076621 0.695530
Si Si7 0.381304 0.847671 0.688966
O O1 0.592528 0.583401 0.500000
O O2 0.500000 0.571392 0.700874
O O3 0.596843 0.500000 0.752887
O O4 0.596199 0.638040 0.789322
O O5 0.880816 0.893141 0.500000
O O6 0.789728 0.898249 0.706211
O O7 0.900138 0.889399 0.832450
O O8 0.865431 0.000000 0.688180
O O9 0.500000 0.717747 0.746889
O O10 0.389866 0.766802 0.708730
O O11 0.426844 0.735427 0.000000
O O12 0.322970 0.127778 0.787574
O O13 0.287252 0.000000 0.759260
O O14 0.246913 0.077315 0.000000
O O15 0.000000 0.894049 0.000000
O O16 0.925966 0.000000 0.000000
O O17 0.500000 0.078518 0.500000
O O18 0.559510 0.114752 0.762841
O O19 0.500000 0.000000 0.763466
O O20 0.371615 0.866654 0.500000
#
# Coordination Sequence:
#
# PCOD8194765 Si02
#       7
#     8   8   8   8   4   4   8
#     4   8  14  25  41  58  73  90 113 138 169 218
#     4   9  16  27  42  58  77 101 127 154 187 228
#     4  10  19  29  40  54  75  96 115 145 189 238
#     4  10  19  31  44  57  74  96 125 162 200 238
#     4   9  16  26  40  60  84 103 121 149 186 228
#     4   9  18  30  41  53  68  85 114 159 203 245
#     4  11  20  30  43  56  71  93 123 158 198 242
#
# _framework density 13.590301999999999
#
# number of rings (size 3 to 8) (size 9 to 14) (size 15 to 20)
#    0.000    2.500    1.667    2.500    0.000    3.000 
#    0.000    3.333    0.000    2.000    0.000    0.000 
#    0.000    0.000    0.000    0.000    0.000    0.000 
#
# Total GULP energy -594930.663509 kJ/mol
# GULP energy per Si atom -12394.388823 kJ/mol
# Density = 1.355937 g / cm^3
# Si number density = 13.590302 Si / 1000 Ang^3
#
#
#
# Elastic Constant Matrix: (Units=GPa)
#
#
# Indices 1 2 3 4 5 6 
#
# 1 63.5022 21.3871 30.8458 0.0000 0.0000 0.0000
# 2 21.3871 69.2945 13.2144 0.0000 0.0000 0.0000
# 3 30.8458 13.2144 66.3769 0.0000 0.0000 0.0000
# 4 0.0000 0.0000 0.0000 14.6166 0.0000 0.0000
# 5 0.0000 0.0000 0.0000 0.0000 15.7794 0.0000
# 6 0.0000 0.0000 0.0000 0.0000 0.0000 3.1334
#
#
#
# Elastic Compliance Matrix: (Units=1/GPa)
#
#
# Indices 1 2 3 4 5 6 
#
# 1 0.021891 -0.005007 -0.009176 0.000000 0.000000 0.000000
# 2 -0.005007 0.016146 -0.000888 0.000000 0.000000 0.000000
# 3 -0.009176 -0.000888 0.019506 0.000000 0.000000 0.000000
# 4 0.000000 0.000000 0.000000 0.068415 0.000000 0.000000
# 5 0.000000 0.000000 0.000000 0.000000 0.063374 0.000000
# 6 0.000000 0.000000 0.000000 0.000000 0.000000 0.319144
#
#
# Mechanical properties :
#
#
# Convention : Reuss Voigt Hill
#
# Bulk Modulus (GPa) = 36.49344 36.67424 36.58384
# Shear Modulus (GPa) = 9.12824 15.62097 12.37460
#
# Velocity S-wave (km/s) = 2.59448 3.39399 3.02080
# Velocity P-wave (km/s) = 5.99049 6.51176 6.25656
#
# Compressibility (1/GPa) = 0.02740218
#
# Stress axis : x y z
#
# Youngs Moduli (GPa) = 45.68097 61.93612 51.26506
#
# Poissons Ratio (x) = 0.31009 0.47042
# Poissons Ratio (y) = 0.22870 0.04551
# Poissons Ratio (z) = 0.41918 0.05498
#
# Static dielectric constant tensor:
#      x y z
#    x 2.433680 0.000000 0.000000 
#    y 0.000000 2.974860 0.000000 
#    z 0.000000 0.000000 2.804490 
# 
# 
# High freq. dielectric constant tensor:
#      x y z
#    x 1.474210 0.000000 0.000000 
#    y 0.000000 1.483000 0.000000 
#    z 0.000000 0.000000 1.529370 
# 
# From -- ./inp_files/11431.got.cif
#   From: 2010.03.12/outbox.cif.g09.slc.cpg/sg47_6_cif.got.tgz:11431.got - 2010.04.14 03:12:58.
