data_PCOD8194425
_publ_section_title
;
Structure prediction by ZEFSAII (Michael W. Deem and Ramdas Pophale) SiO2 
 PCOD8194425
Probable space group: P M M M
;
_chemical_formula_sum "Si O2"
_cell_formula_units_Z 64
_cell_length_a 13.007813
_cell_length_b 18.104330
_cell_length_c 15.565728
_cell_angle_alpha 90.000000
_cell_angle_beta 90.000000
_cell_angle_gamma 90.000000
_cell_volume 3665.693752
_symmetry_space_group_name_H-M "P M M M"
_symmetry_group_IT_number 47
_symmetry_cell_setting 'orthorhombic'
loop_
_space_group_symop_operation_xyz
x,y,z
-x,-y,z
x,-y,-z
-x,y,-z
-x,-y,-z
x,y,-z
-x,y,z
x,-y,z
loop_
_atom_site_type_symbol
_atom_site_label
_atom_site_fract_x
_atom_site_fract_y
_atom_site_fract_z
Si Si1 0.380192 0.084754 0.262502
Si Si2 0.259241 0.301042 0.180002
Si Si3 0.882914 0.729426 0.674278
Si Si4 0.703904 0.808725 0.596687
Si Si5 0.616310 0.661543 0.659168
Si Si6 0.618098 0.177123 0.903457
Si Si7 0.192451 0.583282 0.599018
Si Si8 0.112840 0.582699 0.898564
O O1 0.500000 0.094240 0.283897
O O2 0.315679 0.126022 0.335815
O O3 0.354687 0.115484 0.167479
O O4 0.345984 0.000000 0.263525
O O5 0.172506 0.256922 0.234354
O O6 0.348943 0.330809 0.242041
O O7 0.308848 0.247617 0.109561
O O8 0.206729 0.369411 0.134209
O O9 0.820888 0.778091 0.604734
O O10 0.875529 0.641708 0.652681
O O11 0.000000 0.755917 0.676934
O O12 0.687997 0.838674 0.500000
O O13 0.625573 0.741618 0.614454
O O14 0.500000 0.633406 0.654553
O O15 0.686852 0.601862 0.610464
O O16 0.500000 0.202275 0.892876
O O17 0.637250 0.145847 0.000000
O O18 0.161421 0.590104 0.500000
O O19 0.170645 0.500000 0.632157
O O20 0.129467 0.500000 0.863633
O O21 0.000000 0.611912 0.867253
O O22 0.114877 0.583237 0.000000
#
# Coordination Sequence:
#
# PCOD8194425 Si02
#       8
#     8   8   8   8   8   8   8   8
#     4  10  20  35  55  82 114 140 166 204 248 303
#     4  10  18  31  50  74 101 132 171 215 256 303
#     4  10  20  33  52  75  99 132 175 219 264 309
#     4  10  20  34  53  77 106 139 173 214 257 300
#     4  10  19  31  48  68  96 134 174 212 252 300
#     4  10  19  33  55  81 109 141 172 205 251 303
#     4   9  19  33  46  66  97 130 170 220 266 307
#     4   9  18  32  49  70  97 128 165 215 270 314
#
# _framework density 17.459178000000001
#
# number of rings (size 3 to 8) (size 9 to 14) (size 15 to 20)
#    0.000    2.500    2.500    3.375    0.000    5.750 
#    0.000    3.125    0.000    1.500    0.000    5.250 
#    0.000    1.000    0.000    0.000    0.000    0.000 
#
# Total GULP energy -793368.223939 kJ/mol
# GULP energy per Si atom -12396.378499 kJ/mol
# Density = 1.741944 g / cm^3
# Si number density = 17.459178 Si / 1000 Ang^3
#
#
#
# Elastic Constant Matrix: (Units=GPa)
#
#
# Indices 1 2 3 4 5 6 
#
# 1 87.9710 26.3791 27.7044 0.0000 0.0000 0.0000
# 2 26.3791 93.5224 48.4321 0.0000 0.0000 0.0000
# 3 27.7044 48.4321 102.2857 0.0000 0.0000 0.0000
# 4 0.0000 0.0000 0.0000 19.7263 0.0000 0.0000
# 5 0.0000 0.0000 0.0000 0.0000 11.2924 0.0000
# 6 0.0000 0.0000 0.0000 0.0000 0.0000 18.2434
#
#
#
# Elastic Compliance Matrix: (Units=1/GPa)
#
#
# Indices 1 2 3 4 5 6 
#
# 1 0.012824 -0.002409 -0.002333 0.000000 0.000000 0.000000
# 2 -0.002409 0.014619 -0.006269 0.000000 0.000000 0.000000
# 3 -0.002333 -0.006269 0.013377 0.000000 0.000000 0.000000
# 4 0.000000 0.000000 0.000000 0.050694 0.000000 0.000000
# 5 0.000000 0.000000 0.000000 0.000000 0.088556 0.000000
# 6 0.000000 0.000000 0.000000 0.000000 0.000000 0.054814
#
#
# Mechanical properties :
#
#
# Convention : Reuss Voigt Hill
#
# Bulk Modulus (GPa) = 53.19891 54.31224 53.75558
# Shear Modulus (GPa) = 18.99893 21.93665 20.46779
#
# Velocity S-wave (km/s) = 3.30235 3.54849 3.42763
# Velocity P-wave (km/s) = 6.71396 6.92566 6.82063
#
# Compressibility (1/GPa) = 0.01879738
#
# Stress axis : x y z
#
# Youngs Moduli (GPa) = 77.97592 68.40440 74.75531
#
# Poissons Ratio (x) = 0.16480 0.17439
# Poissons Ratio (y) = 0.18786 0.46868
# Poissons Ratio (z) = 0.18190 0.42886
#
# Static dielectric constant tensor:
#      x y z
#    x 3.235880 0.000000 0.000000 
#    y 0.000000 3.097020 0.000000 
#    z 0.000000 0.000000 3.294800 
# 
# 
# High freq. dielectric constant tensor:
#      x y z
#    x 1.662200 0.000000 0.000000 
#    y 0.000000 1.648610 0.000000 
#    z 0.000000 0.000000 1.681640 
# 
# From -- ./inp_files/24085.got.cif
#   From: 2010.03.12/outbox.cif.g09.slc.cpg/sg47_13_cif.got.tgz:24085.got - 2010.04.14 03:12:58.
