data_PCOD8194152
_publ_section_title
;
Structure prediction by ZEFSAII (Michael W. Deem and Ramdas Pophale) SiO2 
 PCOD8194152
Probable space group: P M M M
;
_chemical_formula_sum "Si O2"
_cell_formula_units_Z 40
_cell_length_a 18.932388
_cell_length_b 13.827271
_cell_length_c 8.595692
_cell_angle_alpha 90.000000
_cell_angle_beta 90.000000
_cell_angle_gamma 90.000000
_cell_volume 2250.208270
_symmetry_space_group_name_H-M "P M M M"
_symmetry_group_IT_number 47
_symmetry_cell_setting 'orthorhombic'
loop_
_space_group_symop_operation_xyz
x,y,z
-x,-y,z
x,-y,-z
-x,y,-z
-x,-y,-z
x,y,-z
-x,y,z
x,-y,z
loop_
_atom_site_type_symbol
_atom_site_label
_atom_site_fract_x
_atom_site_fract_y
_atom_site_fract_z
Si Si1 0.920246 0.224516 0.818887
Si Si2 0.578249 0.391725 0.815142
Si Si3 0.204487 0.109754 0.318187
Si Si4 0.162121 0.610004 0.319231
Si Si5 0.288324 0.277689 0.182889
O O1 0.867642 0.139416 0.767798
O O2 0.904229 0.323409 0.726378
O O3 0.000000 0.191666 0.781348
O O4 0.909203 0.245391 0.000000
O O5 0.500000 0.357846 0.761113
O O6 0.593507 0.500000 0.750987
O O7 0.636634 0.316602 0.751607
O O8 0.582358 0.394810 0.000000
O O9 0.191501 0.122846 0.500000
O O10 0.269879 0.176669 0.266103
O O11 0.223313 0.000000 0.273697
O O12 0.180122 0.623835 0.500000
O O13 0.142614 0.500000 0.279002
O O14 0.229767 0.641727 0.219569
O O15 0.291048 0.258993 0.000000
#
# Coordination Sequence:
#
# PCOD8194152 Si02
#       5
#     8   8   8   8   8
#     4  10  21  35  51  72  96 121 152 195 243 286
#     4   8  14  25  43  71 105 134 158 187 227 275
#     4  10  21  36  53  71  92 122 158 195 239 290
#     4  10  20  32  47  68  96 131 165 195 230 276
#     4  10  18  29  50  75  97 124 159 200 241 279
#
# _framework density 17.776133000000002
#
# number of rings (size 3 to 8) (size 9 to 14) (size 15 to 20)
#    0.000    2.400    0.000    6.000    0.000    6.400 
#    0.000    4.000    0.000    3.000    0.000   11.200 
#    0.000    0.000    0.000    0.000    0.000    0.000 
#
# Total GULP energy -495931.556620 kJ/mol
# GULP energy per Si atom -12398.288915 kJ/mol
# Density = 1.773567 g / cm^3
# Si number density = 17.776133 Si / 1000 Ang^3
#
#
#
# Elastic Constant Matrix: (Units=GPa)
#
#
# Indices 1 2 3 4 5 6 
#
# 1 133.5165 62.3241 18.1941 0.0000 0.0000 0.0000
# 2 62.3241 130.3878 26.5834 0.0000 0.0000 0.0000
# 3 18.1941 26.5834 39.9269 0.0000 0.0000 0.0000
# 4 0.0000 0.0000 0.0000 24.4174 0.0000 0.0000
# 5 0.0000 0.0000 0.0000 0.0000 3.2043 0.0000
# 6 0.0000 0.0000 0.0000 0.0000 0.0000 19.9536
#
#
#
# Elastic Compliance Matrix: (Units=1/GPa)
#
#
# Indices 1 2 3 4 5 6 
#
# 1 0.009723 -0.004332 -0.001546 0.000000 0.000000 0.000000
# 2 -0.004332 0.010804 -0.005219 0.000000 0.000000 0.000000
# 3 -0.001546 -0.005219 0.029225 0.000000 0.000000 0.000000
# 4 0.000000 0.000000 0.000000 0.040954 0.000000 0.000000
# 5 0.000000 0.000000 0.000000 0.000000 0.312079 0.000000
# 6 0.000000 0.000000 0.000000 0.000000 0.000000 0.050116
#
#
# Mechanical properties :
#
#
# Convention : Reuss Voigt Hill
#
# Bulk Modulus (GPa) = 36.28845 57.55939 46.92392
# Shear Modulus (GPa) = 10.32454 22.63035 16.47745
#
# Velocity S-wave (km/s) = 2.41261 3.57189 3.04788
# Velocity P-wave (km/s) = 5.31219 7.03290 6.23222
#
# Compressibility (1/GPa) = 0.02755698
#
# Stress axis : x y z
#
# Youngs Moduli (GPa) = 102.85352 92.55610 34.21678
#
# Poissons Ratio (x) = 0.40096 0.05290
# Poissons Ratio (y) = 0.44557 0.17859
# Poissons Ratio (z) = 0.15902 0.48309
#
# Static dielectric constant tensor:
#      x y z
#    x 3.443510 0.000000 0.000000 
#    y 0.000000 3.326850 0.000000 
#    z 0.000000 0.000000 3.238370 
# 
# 
# High freq. dielectric constant tensor:
#      x y z
#    x 1.679910 0.000000 0.000000 
#    y 0.000000 1.678710 0.000000 
#    z 0.000000 0.000000 1.684020 
# 
# From -- ./inp_files/5968.got.cif
#   From: 2010.03.12/outbox.cif.g09.slc.cpg/sg47_3_cif.got.tgz:5968.got - 2010.04.14 03:12:58.
