data_PCOD8194769
_publ_section_title
;
Structure prediction by ZEFSAII (Michael W. Deem and Ramdas Pophale) SiO2 
 PCOD8194769
Probable space group: P M M M
;
_chemical_formula_sum "Si O2"
_cell_formula_units_Z 40
_cell_length_a 22.405946
_cell_length_b 9.072829
_cell_length_c 12.563407
_cell_angle_alpha 90.000000
_cell_angle_beta 90.000000
_cell_angle_gamma 90.000000
_cell_volume 2553.956170
_symmetry_space_group_name_H-M "P M M M"
_symmetry_group_IT_number 47
_symmetry_cell_setting 'orthorhombic'
loop_
_space_group_symop_operation_xyz
x,y,z
-x,-y,z
x,-y,-z
-x,y,-z
-x,-y,-z
x,y,-z
-x,y,z
x,-y,z
loop_
_atom_site_type_symbol
_atom_site_label
_atom_site_fract_x
_atom_site_fract_y
_atom_site_fract_z
Si Si1 0.627610 0.334756 0.373037
Si Si2 0.744391 0.827689 0.623824
Si Si3 0.068458 0.169132 0.876662
Si Si4 0.858744 0.325459 0.298267
Si Si5 0.066818 0.675125 0.500000
Si Si6 0.500000 0.324868 0.616648
O O1 0.622173 0.334408 0.500000
O O2 0.642818 0.500000 0.333130
O O3 0.679674 0.225458 0.334840
O O4 0.562811 0.280355 0.325623
O O5 0.753124 0.786217 0.500000
O O6 0.793597 0.744894 0.693333
O O7 0.749959 0.000000 0.643894
O O8 0.111198 0.276241 0.811240
O O9 0.000000 0.211037 0.852546
O O10 0.080498 0.000000 0.844651
O O11 0.083001 0.194283 0.000000
O O12 0.852207 0.500000 0.300328
O O13 0.899134 0.266793 0.395763
O O14 0.064513 0.500000 0.500000
O O15 0.000000 0.741136 0.500000
O O16 0.500000 0.500000 0.604619
O O17 0.500000 0.250739 0.500000
#
# Coordination Sequence:
#
# PCOD8194769 Si02
#       6
#     8   8   8   8   4   4
#     4   8  13  22  37  54  75 105 144 183 219 256
#     4  10  19  29  40  57  85 118 151 183 219 265
#     4   9  19  36  54  70  90 115 142 176 222 273
#     4  11  20  31  48  67  90 117 148 185 223 263
#     4   9  18  30  43  63  89 112 137 176 223 261
#     4   7  10  18  33  53  73  99 138 183 220 253
#
# _framework density 15.661975
#
# number of rings (size 3 to 8) (size 9 to 14) (size 15 to 20)
#    0.000    2.800    1.000    3.600    0.000    2.400 
#    0.000    1.500    0.000    5.400    0.000    0.000 
#    0.000    0.000    0.000    0.900    0.000   17.500 
#
# Total GULP energy -495767.239239 kJ/mol
# GULP energy per Si atom -12394.180981 kJ/mol
# Density = 1.562633 g / cm^3
# Si number density = 15.661975 Si / 1000 Ang^3
#
#
#
# Elastic Constant Matrix: (Units=GPa)
#
#
# Indices 1 2 3 4 5 6 
#
# 1 146.9795 51.5654 39.0978 0.0000 0.0000 0.0000
# 2 51.5654 65.9924 25.6335 0.0000 0.0000 0.0000
# 3 39.0978 25.6335 44.6013 0.0000 0.0000 0.0000
# 4 0.0000 0.0000 0.0000 18.6396 0.0000 0.0000
# 5 0.0000 0.0000 0.0000 0.0000 11.6415 0.0000
# 6 0.0000 0.0000 0.0000 0.0000 0.0000 22.6462
#
#
#
# Elastic Compliance Matrix: (Units=1/GPa)
#
#
# Indices 1 2 3 4 5 6 
#
# 1 0.010396 -0.005901 -0.005722 0.000000 0.000000 0.000000
# 2 -0.005901 0.022857 -0.007964 0.000000 0.000000 0.000000
# 3 -0.005722 -0.007964 0.032014 0.000000 0.000000 0.000000
# 4 0.000000 0.000000 0.000000 0.053649 0.000000 0.000000
# 5 0.000000 0.000000 0.000000 0.000000 0.085899 0.000000
# 6 0.000000 0.000000 0.000000 0.000000 0.000000 0.044158
#
#
# Mechanical properties :
#
#
# Convention : Reuss Voigt Hill
#
# Bulk Modulus (GPa) = 38.32321 54.46297 46.39309
# Shear Modulus (GPa) = 16.84381 20.00388 18.42385
#
# Velocity S-wave (km/s) = 3.28298 3.57771 3.43351
# Velocity P-wave (km/s) = 6.23640 7.20529 6.73828
#
# Compressibility (1/GPa) = 0.02609385
#
# Stress axis : x y z
#
# Youngs Moduli (GPa) = 96.19200 43.74934 31.23638
#
# Poissons Ratio (x) = 0.25815 0.17873
# Poissons Ratio (y) = 0.56759 0.24877
# Poissons Ratio (z) = 0.55040 0.34843
#
# Static dielectric constant tensor:
#      x y z
#    x 3.343840 0.000000 0.000000 
#    y 0.000000 2.821800 0.000000 
#    z 0.000000 0.000000 2.533120 
# 
# 
# High freq. dielectric constant tensor:
#      x y z
#    x 1.617820 0.000000 0.000000 
#    y 0.000000 1.590920 0.000000 
#    z 0.000000 0.000000 1.538860 
# 
# From -- ./inp_files/18962.got.cif
#   From: 2010.03.12/outbox.cif.g09.slc.cpg/sg47_10_cif.got.tgz:18962.got - 2010.04.14 03:12:58.
