data_PCOD8194366
_publ_section_title
;
Structure prediction by ZEFSAII (Michael W. Deem and Ramdas Pophale) SiO2 
 PCOD8194366
Probable space group: P M M M
;
_chemical_formula_sum "Si O2"
_cell_formula_units_Z 64
_cell_length_a 23.995581
_cell_length_b 14.395672
_cell_length_c 10.006501
_cell_angle_alpha 90.000000
_cell_angle_beta 90.000000
_cell_angle_gamma 90.000000
_cell_volume 3456.570792
_symmetry_space_group_name_H-M "P M M M"
_symmetry_group_IT_number 47
_symmetry_cell_setting 'orthorhombic'
loop_
_space_group_symop_operation_xyz
x,y,z
-x,-y,z
x,-y,-z
-x,y,-z
-x,-y,-z
x,y,-z
-x,y,z
x,-y,z
loop_
_atom_site_type_symbol
_atom_site_label
_atom_site_fract_x
_atom_site_fract_y
_atom_site_fract_z
Si Si1 0.852677 0.103283 0.658473
Si Si2 0.631710 0.600217 0.847713
Si Si3 0.744155 0.200606 0.350379
Si Si4 0.935540 0.258826 0.343697
Si Si5 0.565086 0.225185 0.155123
Si Si6 0.367189 0.891122 0.654970
Si Si7 0.752276 0.603376 0.249740
Si Si8 0.873533 0.606322 0.852028
O O1 0.847410 0.098655 0.500000
O O2 0.798151 0.154413 0.720590
O O3 0.907570 0.161227 0.697630
O O4 0.857967 0.000000 0.719554
O O5 0.616738 0.500000 0.779628
O O6 0.597075 0.684663 0.783270
O O7 0.698119 0.615600 0.842633
O O8 0.612893 0.595999 0.000000
O O9 0.742678 0.162686 0.500000
O O10 0.686900 0.163367 0.285804
O O11 0.749548 0.312610 0.355580
O O12 0.926326 0.280833 0.500000
O O13 0.906820 0.340423 0.261799
O O14 0.000000 0.252026 0.306068
O O15 0.500000 0.243438 0.169137
O O16 0.581790 0.138620 0.249273
O O17 0.581272 0.205154 0.000000
O O18 0.380149 0.865280 0.500000
O O19 0.356781 0.000000 0.670302
O O20 0.752861 0.500000 0.318159
O O21 0.807045 0.616794 0.160854
O O22 0.891506 0.500000 0.836042
O O23 0.889770 0.642941 0.000000
#
# Coordination Sequence:
#
# PCOD8194366 Si02
#       8
#     8   8   8   8   8   8   8   8
#     4   9  17  31  53  79 105 134 171 218 268 314
#     4   9  17  31  52  77 105 136 171 213 261 314
#     4  10  18  31  52  80 110 139 172 213 264 322
#     4  10  21  36  54  79 108 139 180 226 269 313
#     4  10  21  36  55  80 108 140 180 224 267 312
#     4  10  21  37  57  80 106 139 180 224 269 320
#     4  10  18  30  52  80 107 137 172 213 262 319
#     4  10  21  36  55  80 109 142 180 219 262 318
#
# _framework density 18.515460000000001
#
# number of rings (size 3 to 8) (size 9 to 14) (size 15 to 20)
#    0.000    2.250    2.500    0.750    0.000    5.250 
#    0.000    6.250    0.000    0.750    0.000    1.750 
#    0.000    0.000    0.000    0.000    0.000    0.000 
#
# Total GULP energy -793161.547447 kJ/mol
# GULP energy per Si atom -12393.149179 kJ/mol
# Density = 1.847332 g / cm^3
# Si number density = 18.515460 Si / 1000 Ang^3
#
#
#
# Elastic Constant Matrix: (Units=GPa)
#
#
# Indices 1 2 3 4 5 6 
#
# 1 119.3671 59.4945 36.8877 0.0000 0.0000 0.0000
# 2 59.4945 130.2562 39.3347 0.0000 0.0000 0.0000
# 3 36.8877 39.3347 50.3877 0.0000 0.0000 0.0000
# 4 0.0000 0.0000 0.0000 18.8403 0.0000 0.0000
# 5 0.0000 0.0000 0.0000 0.0000 21.2460 0.0000
# 6 0.0000 0.0000 0.0000 0.0000 0.0000 21.9446
#
#
#
# Elastic Compliance Matrix: (Units=1/GPa)
#
#
# Indices 1 2 3 4 5 6 
#
# 1 0.012063 -0.003720 -0.005927 0.000000 0.000000 0.000000
# 2 -0.003720 0.011192 -0.006014 0.000000 0.000000 0.000000
# 3 -0.005927 -0.006014 0.028880 0.000000 0.000000 0.000000
# 4 0.000000 0.000000 0.000000 0.053078 0.000000 0.000000
# 5 0.000000 0.000000 0.000000 0.000000 0.047068 0.000000
# 6 0.000000 0.000000 0.000000 0.000000 0.000000 0.045569
#
#
# Mechanical properties :
#
#
# Convention : Reuss Voigt Hill
#
# Bulk Modulus (GPa) = 48.04608 63.49387 55.76997
# Shear Modulus (GPa) = 21.17651 23.35911 22.26781
#
# Velocity S-wave (km/s) = 3.38556 3.55575 3.47170
# Velocity P-wave (km/s) = 6.42559 7.15714 6.80121
#
# Compressibility (1/GPa) = 0.02081335
#
# Stress axis : x y z
#
# Youngs Moduli (GPa) = 82.89576 89.34669 34.62596
#
# Poissons Ratio (x) = 0.33237 0.20524
# Poissons Ratio (y) = 0.30837 0.20824
# Poissons Ratio (z) = 0.49135 0.53732
#
# Static dielectric constant tensor:
#      x y z
#    x 3.447220 0.000000 0.000000 
#    y 0.000000 3.642840 0.000000 
#    z 0.000000 0.000000 3.027590 
# 
# 
# High freq. dielectric constant tensor:
#      x y z
#    x 1.721710 0.000000 0.000000 
#    y 0.000000 1.728690 0.000000 
#    z 0.000000 0.000000 1.673660 
# 
# From -- ./inp_files/19647.got.cif
#   From: 2010.03.12/outbox.cif.g09.slc.cpg/sg47_10_cif.got.tgz:19647.got - 2010.04.14 03:12:58.
