data_PCOD8194298
_publ_section_title
;
Structure prediction by ZEFSAII (Michael W. Deem and Ramdas Pophale) SiO2 
 PCOD8194298
Probable space group: P M M M
;
_chemical_formula_sum "Si O2"
_cell_formula_units_Z 52
_cell_length_a 19.278518
_cell_length_b 14.507994
_cell_length_c 10.098007
_cell_angle_alpha 90.000000
_cell_angle_beta 90.000000
_cell_angle_gamma 90.000000
_cell_volume 2824.338070
_symmetry_space_group_name_H-M "P M M M"
_symmetry_group_IT_number 47
_symmetry_cell_setting 'orthorhombic'
loop_
_space_group_symop_operation_xyz
x,y,z
-x,-y,z
x,-y,-z
-x,y,-z
-x,-y,-z
x,y,-z
-x,y,z
x,-y,z
loop_
_atom_site_type_symbol
_atom_site_label
_atom_site_fract_x
_atom_site_fract_y
_atom_site_fract_z
Si Si1 0.575487 0.103803 0.342297
Si Si2 0.158705 0.599049 0.147903
Si Si3 0.702446 0.787336 0.651300
Si Si4 0.312902 0.395942 0.781428
Si Si5 0.837456 0.891947 0.345633
Si Si6 0.421595 0.391230 0.000000
Si Si7 0.918998 0.223953 0.846474
O O1 0.575455 0.110251 0.500000
O O2 0.500000 0.136206 0.289158
O O3 0.634999 0.167787 0.278776
O O4 0.590458 0.000000 0.296301
O O5 0.141208 0.500000 0.218861
O O6 0.241666 0.609848 0.137132
O O7 0.120763 0.686185 0.214922
O O8 0.128994 0.595004 0.000000
O O9 0.702245 0.816358 0.500000
O O10 0.696822 0.676772 0.662709
O O11 0.772082 0.832858 0.709746
O O12 0.325366 0.500000 0.726518
O O13 0.377635 0.362233 0.870680
O O14 0.854903 0.870075 0.500000
O O15 0.900356 0.861976 0.249116
O O16 0.822416 0.000000 0.327434
O O17 0.427422 0.500000 0.000000
O O18 0.500000 0.348496 0.000000
O O19 0.000000 0.243022 0.835998
O O20 0.897649 0.203508 0.000000
#
# Coordination Sequence:
#
# PCOD8194298 Si02
#       7
#     8   8   8   8   8   4   8
#     4   8  14  26  45  68  93 122 159 204 249 290
#     4   9  16  30  53  78 103 132 169 212 257 309
#     4  10  19  31  49  74 103 133 168 212 258 309
#     4  10  18  30  50  73  99 134 170 207 250 301
#     4  10  21  37  56  78 105 140 181 222 267 323
#     4   9  18  32  50  74 102 134 177 220 252 292
#     4  10  21  36  56  82 109 137 172 220 272 320
#
# _framework density 18.411394000000001
#
# number of rings (size 3 to 8) (size 9 to 14) (size 15 to 20)
#    0.000    2.538    2.308    0.923    0.000    4.000 
#    0.000    3.077    0.000    0.462    0.000    5.385 
#    0.000    2.462    0.000    0.000    0.000    0.000 
#
# Total GULP energy -644204.979343 kJ/mol
# GULP energy per Si atom -12388.557295 kJ/mol
# Density = 1.836949 g / cm^3
# Si number density = 18.411394 Si / 1000 Ang^3
#
#
#
# Elastic Constant Matrix: (Units=GPa)
#
#
# Indices 1 2 3 4 5 6 
#
# 1 102.8187 46.5598 26.6365 0.0000 0.0000 0.0000
# 2 46.5598 105.4565 28.3235 0.0000 0.0000 0.0000
# 3 26.6365 28.3235 36.8600 0.0000 0.0000 0.0000
# 4 0.0000 0.0000 0.0000 20.1827 0.0000 0.0000
# 5 0.0000 0.0000 0.0000 0.0000 17.7709 0.0000
# 6 0.0000 0.0000 0.0000 0.0000 0.0000 30.4138
#
#
#
# Elastic Compliance Matrix: (Units=1/GPa)
#
#
# Indices 1 2 3 4 5 6 
#
# 1 0.013256 -0.004133 -0.006404 0.000000 0.000000 0.000000
# 2 -0.004133 0.013237 -0.007185 0.000000 0.000000 0.000000
# 3 -0.006404 -0.007185 0.037278 0.000000 0.000000 0.000000
# 4 0.000000 0.000000 0.000000 0.049547 0.000000 0.000000
# 5 0.000000 0.000000 0.000000 0.000000 0.056272 0.000000
# 6 0.000000 0.000000 0.000000 0.000000 0.000000 0.032880
#
#
# Mechanical properties :
#
#
# Convention : Reuss Voigt Hill
#
# Bulk Modulus (GPa) = 35.30011 49.79717 42.54864
# Shear Modulus (GPa) = 20.21374 23.24783 21.73078
#
# Velocity S-wave (km/s) = 3.31704 3.55729 3.43926
# Velocity P-wave (km/s) = 5.82108 6.63159 6.23951
#
# Compressibility (1/GPa) = 0.02832853
#
# Stress axis : x y z
#
# Youngs Moduli (GPa) = 75.43559 75.54613 26.82527
#
# Poissons Ratio (x) = 0.31222 0.17179
# Poissons Ratio (y) = 0.31176 0.19273
# Poissons Ratio (z) = 0.48308 0.54279
#
# Static dielectric constant tensor:
#      x y z
#    x 3.672860 0.000000 0.000000 
#    y 0.000000 3.455480 0.000000 
#    z 0.000000 0.000000 2.905070 
# 
# 
# High freq. dielectric constant tensor:
#      x y z
#    x 1.720660 0.000000 0.000000 
#    y 0.000000 1.717050 0.000000 
#    z 0.000000 0.000000 1.659990 
# 
# From -- ./inp_files/18559.got.cif
#   From: 2010.03.12/outbox.cif.g09.slc.cpg/sg47_10_cif.got.tgz:18559.got - 2010.04.14 03:12:58.
