data_PCOD8194096
_publ_section_title
;
Structure prediction by ZEFSAII (Michael W. Deem and Ramdas Pophale) SiO2 
 PCOD8194096
Probable space group: P M M M
;
_chemical_formula_sum "Si O2"
_cell_formula_units_Z 60
_cell_length_a 21.694958
_cell_length_b 18.238716
_cell_length_c 8.993818
_cell_angle_alpha 90.000000
_cell_angle_beta 90.000000
_cell_angle_gamma 90.000000
_cell_volume 3558.747454
_symmetry_space_group_name_H-M "P M M M"
_symmetry_group_IT_number 47
_symmetry_cell_setting 'orthorhombic'
loop_
_space_group_symop_operation_xyz
x,y,z
-x,-y,z
x,-y,-z
-x,y,-z
-x,-y,-z
x,y,-z
-x,y,z
x,-y,z
loop_
_atom_site_type_symbol
_atom_site_label
_atom_site_fract_x
_atom_site_fract_y
_atom_site_fract_z
Si Si1 0.645161 0.083955 0.836756
Si Si2 0.857453 0.370271 0.174941
Si Si3 0.785317 0.083215 0.823899
Si Si4 0.811449 0.771479 0.677346
Si Si5 0.431662 0.806983 0.675817
Si Si6 0.320770 0.286881 0.674056
Si Si7 0.721174 0.582659 0.833201
Si Si8 0.927125 0.500000 0.330155
O O1 0.714383 0.094174 0.774111
O O2 0.594103 0.114462 0.724358
O O3 0.629156 0.000000 0.852759
O O4 0.639819 0.121195 0.000000
O O5 0.857669 0.289088 0.250936
O O6 0.792683 0.409409 0.206293
O O7 0.906613 0.425030 0.248363
O O8 0.871735 0.361618 0.000000
O O9 0.825353 0.146166 0.739528
O O10 0.806840 0.000000 0.779777
O O11 0.792552 0.093503 0.000000
O O12 0.819545 0.770250 0.500000
O O13 0.741993 0.751595 0.730548
O O14 0.434798 0.803631 0.500000
O O15 0.500000 0.792370 0.742033
O O16 0.382069 0.749553 0.742826
O O17 0.323934 0.280980 0.500000
O O18 0.321353 0.371041 0.723128
O O19 0.700011 0.500000 0.811699
O O20 0.709592 0.610575 0.000000
O O21 0.902208 0.500000 0.500000
O O22 0.000000 0.500000 0.327418
#
# Coordination Sequence:
#
# PCOD8194096 Si02
#       8
#     8   8   8   8   8   8   8   4
#     4   9  18  31  45  61  83 112 148 190 234 285
#     4  10  19  33  51  73 102 137 174 206 240 284
#     4   9  17  29  45  66  93 126 161 198 247 305
#     4  10  18  29  47  71  97 125 161 207 253 296
#     4  10  20  33  46  60  82 111 147 191 236 290
#     4   9  18  30  43  64  87 112 146 185 236 290
#     4   9  17  30  48  71  94 115 145 188 231 275
#     4  11  23  37  53  77 113 151 182 211 240 271
#
# _framework density 16.859864999999999
#
# number of rings (size 3 to 8) (size 9 to 14) (size 15 to 20)
#    0.000    2.467    2.000    1.800    0.000    3.467 
#    0.000    2.667    0.000    0.400    0.000    2.800 
#    0.000    0.533    0.000    5.600    0.000    2.400 
#
# Total GULP energy -743604.705364 kJ/mol
# GULP energy per Si atom -12393.411756 kJ/mol
# Density = 1.682149 g / cm^3
# Si number density = 16.859865 Si / 1000 Ang^3
#
#
#
# Elastic Constant Matrix: (Units=GPa)
#
#
# Indices 1 2 3 4 5 6 
#
# 1 44.6423 37.2507 23.2065 0.0000 0.0000 0.0000
# 2 37.2507 111.9070 42.5428 0.0000 0.0000 0.0000
# 3 23.2065 42.5428 49.7403 0.0000 0.0000 0.0000
# 4 0.0000 0.0000 0.0000 32.6286 0.0000 0.0000
# 5 0.0000 0.0000 0.0000 0.0000 16.7583 0.0000
# 6 0.0000 0.0000 0.0000 0.0000 0.0000 19.9756
#
#
#
# Elastic Compliance Matrix: (Units=1/GPa)
#
#
# Indices 1 2 3 4 5 6 
#
# 1 0.033551 -0.007731 -0.009041 0.000000 0.000000 0.000000
# 2 -0.007731 0.015023 -0.009242 0.000000 0.000000 0.000000
# 3 -0.009041 -0.009242 0.032227 0.000000 0.000000 0.000000
# 4 0.000000 0.000000 0.000000 0.030648 0.000000 0.000000
# 5 0.000000 0.000000 0.000000 0.000000 0.059672 0.000000
# 6 0.000000 0.000000 0.000000 0.000000 0.000000 0.050061
#
#
# Mechanical properties :
#
#
# Convention : Reuss Voigt Hill
#
# Bulk Modulus (GPa) = 34.75486 45.80994 40.28240
# Shear Modulus (GPa) = 17.68021 20.75846 19.21933
#
# Velocity S-wave (km/s) = 3.24181 3.51270 3.37997
# Velocity P-wave (km/s) = 5.88822 6.60924 6.25912
#
# Compressibility (1/GPa) = 0.02877296
#
# Stress axis : x y z
#
# Youngs Moduli (GPa) = 29.80524 66.56448 31.02962
#
# Poissons Ratio (x) = 0.51463 0.28053
# Poissons Ratio (y) = 0.23043 0.28678
# Poissons Ratio (z) = 0.26946 0.61520
#
# Static dielectric constant tensor:
#      x y z
#    x 2.906700 0.000000 0.000000 
#    y 0.000000 3.301340 0.000000 
#    z 0.000000 0.000000 3.184290 
# 
# 
# High freq. dielectric constant tensor:
#      x y z
#    x 1.599040 0.000000 0.000000 
#    y 0.000000 1.656180 0.000000 
#    z 0.000000 0.000000 1.651430 
# 
# From -- ./inp_files/11595.got.cif
#   From: 2010.03.12/outbox.cif.g09.slc.cpg/sg47_6_cif.got.tgz:11595.got - 2010.04.14 03:12:58.
