data_PCOD8194534
_publ_section_title
;
Structure prediction by ZEFSAII (Michael W. Deem and Ramdas Pophale) SiO2 
 PCOD8194534
Probable space group: P M M M
;
_chemical_formula_sum "Si O2"
_cell_formula_units_Z 52
_cell_length_a 9.208802
_cell_length_b 16.015718
_cell_length_c 18.631720
_cell_angle_alpha 90.000000
_cell_angle_beta 90.000000
_cell_angle_gamma 90.000000
_cell_volume 2747.909955
_symmetry_space_group_name_H-M "P M M M"
_symmetry_group_IT_number 47
_symmetry_cell_setting 'orthorhombic'
loop_
_space_group_symop_operation_xyz
x,y,z
-x,-y,z
x,-y,-z
-x,y,-z
-x,-y,-z
x,y,-z
-x,y,z
x,-y,z
loop_
_atom_site_type_symbol
_atom_site_label
_atom_site_fract_x
_atom_site_fract_y
_atom_site_fract_z
Si Si1 0.829324 0.217280 0.918448
Si Si2 0.327754 0.349493 0.173474
Si Si3 0.339461 0.902765 0.163446
Si Si4 0.327450 0.500000 0.921211
Si Si5 0.672722 0.093575 0.675638
Si Si6 0.672626 0.594383 0.329760
Si Si7 0.326928 0.752251 0.418794
O O1 0.747716 0.267197 0.855669
O O2 0.773880 0.125025 0.898436
O O3 0.000000 0.225736 0.909646
O O4 0.782852 0.240981 0.000000
O O5 0.500000 0.338339 0.172437
O O6 0.270562 0.419566 0.119534
O O7 0.272732 0.374412 0.252237
O O8 0.500000 0.861881 0.152476
O O9 0.280262 0.882004 0.243590
O O10 0.355739 0.000000 0.154979
O O11 0.500000 0.500000 0.924044
O O12 0.257939 0.500000 0.000000
O O13 0.500000 0.091488 0.671257
O O14 0.734647 0.166350 0.623366
O O15 0.731018 0.000000 0.654559
O O16 0.500000 0.590262 0.330056
O O17 0.732218 0.500000 0.346377
O O18 0.729472 0.663683 0.386337
O O19 0.269736 0.757772 0.500000
O O20 0.500000 0.753164 0.415222
#
# Coordination Sequence:
#
# PCOD8194534 Si02
#       7
#     8   8   8   4   8   8   8
#     4  11  24  37  48  69 103 137 164 196 249 310
#     4  10  18  32  53  73  93 123 166 213 252 292
#     4   9  18  34  56  77  95 124 170 216 252 289
#     4   9  16  26  45  73  94 110 148 207 257 293
#     4   8  14  26  44  67  94 123 160 205 246 286
#     4   9  16  27  44  66  91 122 165 213 256 294
#     4   9  16  23  34  59  97 138 169 191 231 297
#
# _framework density 18.923473999999999
#
# number of rings (size 3 to 8) (size 9 to 14) (size 15 to 20)
#    0.000    2.692    0.769    2.769    0.000    5.538 
#    0.000    5.000    0.000    1.385    0.000    0.000 
#    0.000    9.846    0.000   19.077    0.000   19.692 
#
# Total GULP energy -644334.758286 kJ/mol
# GULP energy per Si atom -12391.053044 kJ/mol
# Density = 1.888040 g / cm^3
# Si number density = 18.923474 Si / 1000 Ang^3
#
#
#
# Elastic Constant Matrix: (Units=GPa)
#
#
# Indices 1 2 3 4 5 6 
#
# 1 23.4412 20.6055 24.3228 0.0000 0.0000 0.0000
# 2 20.6055 112.1162 66.7782 0.0000 0.0000 0.0000
# 3 24.3228 66.7782 104.5108 0.0000 0.0000 0.0000
# 4 0.0000 0.0000 0.0000 36.4884 0.0000 0.0000
# 5 0.0000 0.0000 0.0000 0.0000 8.3958 0.0000
# 6 0.0000 0.0000 0.0000 0.0000 0.0000 1.3760
#
#
#
# Elastic Compliance Matrix: (Units=1/GPa)
#
#
# Indices 1 2 3 4 5 6 
#
# 1 0.057434 -0.004188 -0.010691 0.000000 0.000000 0.000000
# 2 -0.004188 0.014705 -0.008421 0.000000 0.000000 0.000000
# 3 -0.010691 -0.008421 0.017437 0.000000 0.000000 0.000000
# 4 0.000000 0.000000 0.000000 0.027406 0.000000 0.000000
# 5 0.000000 0.000000 0.000000 0.000000 0.119107 0.000000
# 6 0.000000 0.000000 0.000000 0.000000 0.000000 0.726722
#
#
# Mechanical properties :
#
#
# Convention : Reuss Voigt Hill
#
# Bulk Modulus (GPa) = 23.26861 51.49790 37.38326
# Shear Modulus (GPa) = 4.88408 17.80951 11.34679
#
# Velocity S-wave (km/s) = 1.60828 3.07112 2.45136
# Velocity P-wave (km/s) = 3.97135 6.31257 5.27353
#
# Compressibility (1/GPa) = 0.04297635
#
# Stress axis : x y z
#
# Youngs Moduli (GPa) = 17.41131 68.00531 57.34904
#
# Poissons Ratio (x) = 0.28482 0.61309
# Poissons Ratio (y) = 0.07292 0.48294
# Poissons Ratio (z) = 0.18614 0.57267
#
# Static dielectric constant tensor:
#      x y z
#    x 2.828190 0.000000 0.000000 
#    y 0.000000 3.836890 0.000000 
#    z 0.000000 0.000000 3.689040 
# 
# 
# High freq. dielectric constant tensor:
#      x y z
#    x 1.656180 0.000000 0.000000 
#    y 0.000000 1.754540 0.000000 
#    z 0.000000 0.000000 1.738080 
# 
# From -- ./inp_files/26743.got.cif
#   From: 2010.03.12/outbox.cif.g09.slc.cpg/sg47_14_cif.got.tgz:26743.got - 2010.04.14 03:12:58.
