data_PCOD8194793
_publ_section_title
;
Structure prediction by ZEFSAII (Michael W. Deem and Ramdas Pophale) SiO2 
 PCOD8194793
Probable space group: P M M M
;
_chemical_formula_sum "Si O2"
_cell_formula_units_Z 52
_cell_length_a 13.943816
_cell_length_b 8.936376
_cell_length_c 26.689634
_cell_angle_alpha 90.000000
_cell_angle_beta 90.000000
_cell_angle_gamma 90.000000
_cell_volume 3325.720099
_symmetry_space_group_name_H-M "P M M M"
_symmetry_group_IT_number 47
_symmetry_cell_setting 'orthorhombic'
loop_
_space_group_symop_operation_xyz
x,y,z
-x,-y,z
x,-y,-z
-x,y,-z
-x,-y,-z
x,y,-z
-x,y,z
x,-y,z
loop_
_atom_site_type_symbol
_atom_site_label
_atom_site_fract_x
_atom_site_fract_y
_atom_site_fract_z
Si Si1 0.609999 0.323672 0.600620
Si Si2 0.105958 0.177378 0.749963
Si Si3 0.291052 0.823912 0.307043
Si Si4 0.788701 0.821365 0.847956
Si Si5 0.613818 0.168195 0.500000
Si Si6 0.394638 0.822548 0.793810
Si Si7 0.108123 0.821952 0.055108
O O1 0.500000 0.273749 0.610779
O O2 0.617719 0.500000 0.595574
O O3 0.677775 0.267784 0.644783
O O4 0.650626 0.252611 0.549462
O O5 0.181673 0.222679 0.706769
O O6 0.140831 0.237663 0.804135
O O7 0.000000 0.243045 0.737838
O O8 0.102061 0.000000 0.753073
O O9 0.359523 0.775461 0.261289
O O10 0.299751 0.000000 0.318101
O O11 0.680556 0.764565 0.835847
O O12 0.822854 0.755706 0.901555
O O13 0.790770 0.000000 0.848713
O O14 0.500000 0.169062 0.500000
O O15 0.654845 0.000000 0.500000
O O16 0.500000 0.752849 0.804043
O O17 0.399213 0.000000 0.796249
O O18 0.000000 0.764687 0.064667
O O19 0.109130 0.000000 0.057168
O O20 0.143604 0.767919 0.000000
#
# Coordination Sequence:
#
# PCOD8194793 Si02
#       7
#     8   8   8   8   4   8   8
#     4  10  19  29  41  59  85 112 134 159 192 228
#     4   8  13  21  34  53  74  93 118 157 200 235
#     4   9  16  25  39  58  77 100 130 161 193 230
#     4   8  12  17  26  40  59  84 113 149 193 232
#     4   9  17  29  45  63  82 107 138 167 193 224
#     4   8  13  20  30  45  64  86 115 151 186 220
#     4   8  12  16  22  33  50  75 109 148 189 233
#
# _framework density 15.635712
#
# number of rings (size 3 to 8) (size 9 to 14) (size 15 to 20)
#    0.000    3.462    0.000    3.923    0.000    4.308 
#    0.000    0.000    0.000    0.923    0.000    3.769 
#    0.000    4.308    0.000    0.000    0.000   12.308 
#
# Total GULP energy -644312.335163 kJ/mol
# GULP energy per Si atom -12390.621830 kJ/mol
# Density = 1.560012 g / cm^3
# Si number density = 15.635712 Si / 1000 Ang^3
#
#
#
# Elastic Constant Matrix: (Units=GPa)
#
#
# Indices 1 2 3 4 5 6 
#
# 1 127.4932 16.7540 74.0992 0.0000 0.0000 0.0000
# 2 16.7540 25.6818 26.8120 0.0000 0.0000 0.0000
# 3 74.0992 26.8120 142.4732 0.0000 0.0000 0.0000
# 4 0.0000 0.0000 0.0000 -0.8441 0.0000 0.0000
# 5 0.0000 0.0000 0.0000 0.0000 24.5243 0.0000
# 6 0.0000 0.0000 0.0000 0.0000 0.0000 6.4729
#
#
#
# Elastic Compliance Matrix: (Units=1/GPa)
#
#
# Indices 1 2 3 4 5 6 
#
# 1 0.011290 -0.001537 -0.005583 0.000000 0.000000 0.000000
# 2 -0.001537 0.048668 -0.008360 0.000000 0.000000 0.000000
# 3 -0.005583 -0.008360 0.011496 0.000000 0.000000 0.000000
# 4 0.000000 0.000000 0.000000 -1.184710 0.000000 0.000000
# 5 0.000000 0.000000 0.000000 0.000000 0.040776 0.000000
# 6 0.000000 0.000000 0.000000 0.000000 0.000000 0.154490
#
#
# Mechanical properties :
#
#
# Convention : Reuss Voigt Hill
#
# Bulk Modulus (GPa) = 24.69403 58.99762 41.84583
# Shear Modulus (GPa) = -5.72388 17.89614 6.08613
#
# Velocity S-wave (km/s) = -1.91539 3.38682 1.97507
# Velocity P-wave (km/s) = 3.30696 7.28756 5.65882
#
# Compressibility (1/GPa) = 0.04049562
#
# Stress axis : x y z
#
# Youngs Moduli (GPa) = 88.57234 20.54729 86.99008
#
# Poissons Ratio (x) = 0.03158 0.48564
# Poissons Ratio (y) = 0.13613 0.72719
# Poissons Ratio (z) = 0.49447 0.17177
#
# Static dielectric constant tensor:
#      x y z
#    x 3.335540 0.000000 0.000000 
#    y 0.000000 2.448520 0.000000 
#    z 0.000000 0.000000 3.128490 
# 
# 
# High freq. dielectric constant tensor:
#      x y z
#    x 1.585950 0.000000 0.000000 
#    y 0.000000 1.544870 0.000000 
#    z 0.000000 0.000000 1.598030 
# 
# From -- ./inp_files/13383.got.cif
#   From: 2010.03.12/outbox.cif.g09.slc.cpg/sg47_7_cif.got.tgz:13383.got - 2010.04.14 03:12:58.
