data_PCOD8194513
_publ_section_title
;
Structure prediction by ZEFSAII (Michael W. Deem and Ramdas Pophale) SiO2 
 PCOD8194513
Probable space group: P M M M
;
_chemical_formula_sum "Si O2"
_cell_formula_units_Z 52
_cell_length_a 9.416081
_cell_length_b 27.769239
_cell_length_c 11.877626
_cell_angle_alpha 90.000000
_cell_angle_beta 90.000000
_cell_angle_gamma 90.000000
_cell_volume 3105.730809
_symmetry_space_group_name_H-M "P M M M"
_symmetry_group_IT_number 47
_symmetry_cell_setting 'orthorhombic'
loop_
_space_group_symop_operation_xyz
x,y,z
-x,-y,z
x,-y,-z
-x,y,-z
-x,-y,-z
x,y,-z
-x,y,z
x,-y,z
loop_
_atom_site_type_symbol
_atom_site_label
_atom_site_fract_x
_atom_site_fract_y
_atom_site_fract_z
Si Si1 0.161252 0.910124 0.370140
Si Si2 0.660275 0.000000 0.633951
Si Si3 0.836603 0.194056 0.699546
Si Si4 0.331292 0.239030 0.500000
Si Si5 0.833152 0.728092 0.124922
Si Si6 0.160238 0.666232 0.500000
Si Si7 0.665225 0.555098 0.128232
Si Si8 0.163257 0.634080 0.745399
O O1 0.198064 0.896760 0.500000
O O2 0.261681 0.952094 0.321749
O O3 0.183708 0.863458 0.290984
O O4 0.000000 0.928757 0.362487
O O5 0.500000 0.000000 0.679726
O O6 0.666709 0.000000 0.500000
O O7 0.726881 0.212644 0.608821
O O8 0.797698 0.220713 0.816318
O O9 0.000000 0.205942 0.664137
O O10 0.500000 0.237251 0.500000
O O11 0.279112 0.293407 0.500000
O O12 0.774931 0.683535 0.199855
O O13 0.000000 0.722214 0.113761
O O14 0.763498 0.727435 0.000000
O O15 0.181932 0.634192 0.610879
O O16 0.000000 0.688640 0.500000
O O17 0.500000 0.563654 0.150177
O O18 0.706294 0.500000 0.153352
O O19 0.752206 0.588372 0.211510
O O20 0.704222 0.568345 0.000000
O O21 0.000000 0.627660 0.780085
#
# Coordination Sequence:
#
# PCOD8194513 Si02
#       8
#     8   4   8   4   8   4   8   8
#     4   9  16  26  43  63  86 123 165 193 225 287
#     4   9  17  27  39  59  92 123 148 194 251 284
#     4  10  18  32  50  68  98 135 164 195 242 293
#     4  12  22  30  46  72 100 128 168 209 234 276
#     4   9  17  29  49  76 100 124 159 201 243 287
#     4  10  20  36  53  71  99 136 166 194 241 298
#     4   9  19  36  55  74 100 134 167 201 246 296
#     4  10  19  32  54  77 100 128 164 207 244 286
#
# _framework density 16.743241999999999
#
# number of rings (size 3 to 8) (size 9 to 14) (size 15 to 20)
#    0.000    2.385    2.308    1.846    0.000    3.385 
#    0.000    1.154    0.000    2.769    0.000    0.538 
#    0.000    4.308    0.000    0.000    0.000    0.000 
#
# Total GULP energy -644666.322551 kJ/mol
# GULP energy per Si atom -12397.429280 kJ/mol
# Density = 1.670513 g / cm^3
# Si number density = 16.743242 Si / 1000 Ang^3
#
#
#
# Elastic Constant Matrix: (Units=GPa)
#
#
# Indices 1 2 3 4 5 6 
#
# 1 81.3564 55.1899 39.2574 0.0000 0.0000 0.0000
# 2 55.1899 123.5992 59.0311 0.0000 0.0000 0.0000
# 3 39.2574 59.0311 105.1721 0.0000 0.0000 0.0000
# 4 0.0000 0.0000 0.0000 21.8427 0.0000 0.0000
# 5 0.0000 0.0000 0.0000 0.0000 15.1200 0.0000
# 6 0.0000 0.0000 0.0000 0.0000 0.0000 18.8287
#
#
#
# Elastic Compliance Matrix: (Units=1/GPa)
#
#
# Indices 1 2 3 4 5 6 
#
# 1 0.018331 -0.006718 -0.003072 0.000000 0.000000 0.000000
# 2 -0.006718 0.013516 -0.005079 0.000000 0.000000 0.000000
# 3 -0.003072 -0.005079 0.013505 0.000000 0.000000 0.000000
# 4 0.000000 0.000000 0.000000 0.045782 0.000000 0.000000
# 5 0.000000 0.000000 0.000000 0.000000 0.066138 0.000000
# 6 0.000000 0.000000 0.000000 0.000000 0.000000 0.053111
#
#
# Mechanical properties :
#
#
# Convention : Reuss Voigt Hill
#
# Bulk Modulus (GPa) = 64.03855 68.56493 66.30174
# Shear Modulus (GPa) = 20.38111 21.60154 20.99132
#
# Velocity S-wave (km/s) = 3.49273 3.59578 3.54463
# Velocity P-wave (km/s) = 7.38891 7.63408 7.51250
#
# Compressibility (1/GPa) = 0.01561559
#
# Stress axis : x y z
#
# Youngs Moduli (GPa) = 54.55148 73.98578 74.04514
#
# Poissons Ratio (x) = 0.49706 0.22744
# Poissons Ratio (y) = 0.36650 0.37604
# Poissons Ratio (z) = 0.16756 0.37574
#
# Static dielectric constant tensor:
#      x y z
#    x 2.980310 0.000000 0.000000 
#    y 0.000000 3.151280 0.000000 
#    z 0.000000 0.000000 3.096120 
# 
# 
# High freq. dielectric constant tensor:
#      x y z
#    x 1.626990 0.000000 0.000000 
#    y 0.000000 1.647180 0.000000 
#    z 0.000000 0.000000 1.618850 
# 
# From -- ./inp_files/15542.got.cif
#   From: 2010.03.12/outbox.cif.g09.slc.cpg/sg47_8_cif.got.tgz:15542.got - 2010.04.14 03:12:58.
