data_PCOD8194303
_publ_section_title
;
Structure prediction by ZEFSAII (Michael W. Deem and Ramdas Pophale) SiO2 
 PCOD8194303
Probable space group: P M M M
;
_chemical_formula_sum "Si O2"
_cell_formula_units_Z 40
_cell_length_a 10.241344
_cell_length_b 23.662936
_cell_length_c 9.481087
_cell_angle_alpha 90.000000
_cell_angle_beta 90.000000
_cell_angle_gamma 90.000000
_cell_volume 2297.649161
_symmetry_space_group_name_H-M "P M M M"
_symmetry_group_IT_number 47
_symmetry_cell_setting 'orthorhombic'
loop_
_space_group_symop_operation_xyz
x,y,z
-x,-y,z
x,-y,-z
-x,y,-z
-x,-y,-z
x,y,-z
-x,y,z
x,-y,z
loop_
_atom_site_type_symbol
_atom_site_label
_atom_site_fract_x
_atom_site_fract_y
_atom_site_fract_z
Si Si1 0.750910 0.132006 0.667179
Si Si2 0.150189 0.768771 0.836997
Si Si3 0.648018 0.434388 0.663523
Si Si4 0.500000 0.936425 0.332620
Si Si5 0.148867 0.639033 0.835662
Si Si6 0.000000 0.062850 0.332675
O O1 0.750420 0.141570 0.500000
O O2 0.755403 0.192993 0.741308
O O3 0.625277 0.097902 0.720333
O O4 0.873179 0.095625 0.720595
O O5 0.184515 0.703954 0.804614
O O6 0.000000 0.780795 0.796959
O O7 0.175438 0.782920 0.000000
O O8 0.670283 0.420852 0.500000
O O9 0.500000 0.417879 0.707206
O O10 0.672254 0.500000 0.694629
O O11 0.751477 0.399475 0.751894
O O12 0.500000 0.940797 0.500000
O O13 0.500000 0.000000 0.269128
O O14 0.000000 0.626415 0.787642
O O15 0.163912 0.625584 0.000000
O O16 0.000000 0.058935 0.500000
O O17 0.000000 0.000000 0.267389
#
# Coordination Sequence:
#
# PCOD8194303 Si02
#       6
#     8   8   8   4   8   4
#     4  10  18  30  50  74  97 126 165 204 245 297
#     4   9  18  34  53  72 100 134 165 205 255 298
#     4   9  19  36  55  77 108 142 173 209 256 305
#     4   9  18  32  49  71 101 131 158 199 254 301
#     4   9  19  35  54  77 104 137 177 216 255 302
#     4   9  16  26  45  73  97 119 158 207 244 285
#
# _framework density 17.409098
#
# number of rings (size 3 to 8) (size 9 to 14) (size 15 to 20)
#    0.000    2.800    1.000    2.400    0.000    4.800 
#    1.800    5.500    0.000    3.600    0.000    0.000 
#    0.000    0.000    0.000    0.000    0.000    0.000 
#
# Total GULP energy -495954.011796 kJ/mol
# GULP energy per Si atom -12398.850295 kJ/mol
# Density = 1.736947 g / cm^3
# Si number density = 17.409098 Si / 1000 Ang^3
#
#
#
# Elastic Constant Matrix: (Units=GPa)
#
#
# Indices 1 2 3 4 5 6 
#
# 1 146.1379 86.1904 53.1363 0.0000 0.0000 0.0000
# 2 86.1904 121.6075 59.1069 0.0000 0.0000 0.0000
# 3 53.1363 59.1069 53.1967 0.0000 0.0000 0.0000
# 4 0.0000 0.0000 0.0000 -20.2771 0.0000 0.0000
# 5 0.0000 0.0000 0.0000 0.0000 25.0594 0.0000
# 6 0.0000 0.0000 0.0000 0.0000 0.0000 36.5427
#
#
#
# Elastic Compliance Matrix: (Units=1/GPa)
#
#
# Indices 1 2 3 4 5 6 
#
# 1 0.012518 -0.006076 -0.005753 0.000000 0.000000 0.000000
# 2 -0.006076 0.020828 -0.017072 0.000000 0.000000 0.000000
# 3 -0.005753 -0.017072 0.043513 0.000000 0.000000 0.000000
# 4 0.000000 0.000000 0.000000 -0.049317 0.000000 0.000000
# 5 0.000000 0.000000 0.000000 0.000000 0.039905 0.000000
# 6 0.000000 0.000000 0.000000 0.000000 0.000000 0.027365
#
#
# Mechanical properties :
#
#
# Convention : Reuss Voigt Hill
#
# Bulk Modulus (GPa) = 52.47472 79.75658 66.11565
# Shear Modulus (GPa) = 31.45290 16.43223 23.94256
#
# Velocity S-wave (km/s) = 4.25513 3.07561 3.71251
# Velocity P-wave (km/s) = 7.37218 7.65017 7.51246
#
# Compressibility (1/GPa) = 0.01905680
#
# Stress axis : x y z
#
# Youngs Moduli (GPa) = 79.88295 48.01268 22.98156
#
# Poissons Ratio (x) = 0.29175 0.13220
# Poissons Ratio (y) = 0.48541 0.39235
# Poissons Ratio (z) = 0.45953 0.81968
#
# Static dielectric constant tensor:
#      x y z
#    x 3.256150 0.000000 0.000000 
#    y 0.000000 3.274960 0.000000 
#    z 0.000000 0.000000 2.916160 
# 
# 
# High freq. dielectric constant tensor:
#      x y z
#    x 1.672870 0.000000 0.000000 
#    y 0.000000 1.680260 0.000000 
#    z 0.000000 0.000000 1.645280 
# 
# From -- ./inp_files/1722.got.cif
#   From: 2010.03.12/outbox.cif.g09.slc.cpg/sg47_1_cif.got.tgz:1722.got - 2010.04.14 03:12:58.
