data_PCOD8194150
_publ_section_title
;
Structure prediction by ZEFSAII (Michael W. Deem and Ramdas Pophale) SiO2 
 PCOD8194150
Probable space group: P M M M
;
_chemical_formula_sum "Si O2"
_cell_formula_units_Z 36
_cell_length_a 9.799774
_cell_length_b 10.777640
_cell_length_c 18.985871
_cell_angle_alpha 90.000000
_cell_angle_beta 90.000000
_cell_angle_gamma 90.000000
_cell_volume 2005.258006
_symmetry_space_group_name_H-M "P M M M"
_symmetry_group_IT_number 47
_symmetry_cell_setting 'orthorhombic'
loop_
_space_group_symop_operation_xyz
x,y,z
-x,-y,z
x,-y,-z
-x,y,-z
-x,-y,-z
x,y,-z
-x,y,z
x,-y,z
loop_
_atom_site_type_symbol
_atom_site_label
_atom_site_fract_x
_atom_site_fract_y
_atom_site_fract_z
Si Si1 0.160365 0.269325 0.168735
Si Si2 0.160015 0.000000 0.191809
Si Si3 0.344607 0.000000 0.671340
Si Si4 0.343688 0.241643 0.419143
Si Si5 0.163119 0.500000 0.920485
Si Si6 0.847959 0.641750 0.316174
O O1 0.195380 0.125834 0.146985
O O2 0.222225 0.374103 0.116526
O O3 0.214784 0.286143 0.248630
O O4 0.000000 0.292399 0.169515
O O5 0.242636 0.000000 0.263852
O O6 0.000000 0.000000 0.211508
O O7 0.315170 0.115542 0.621572
O O8 0.500000 0.000000 0.699665
O O9 0.301329 0.224295 0.500000
O O10 0.500000 0.284703 0.412675
O O11 0.248627 0.345390 0.383885
O O12 0.000000 0.500000 0.919747
O O13 0.218811 0.500000 0.000000
O O14 0.854992 0.500000 0.293055
O O15 0.000000 0.690894 0.334838
#
# Coordination Sequence:
#
# PCOD8194150 Si02
#       6
#     8   4   4   8   4   8
#     4   9  16  28  46  71 100 131 164 200 242 291
#     4  10  18  29  50  75 100 129 164 210 256 290
#     4  10  19  32  50  71  95 124 168 212 251 304
#     4  10  21  35  49  67  96 131 165 209 262 308
#     4   9  16  28  48  74 106 141 166 188 237 307
#     4  10  19  32  51  71  94 127 169 210 250 301
#
# _framework density 17.952801000000001
#
# number of rings (size 3 to 8) (size 9 to 14) (size 15 to 20)
#    0.000    2.333    3.333    0.333    0.000    2.667 
#    0.000    2.778    0.000    5.333    0.000    0.000 
#    0.000    8.000    0.000    0.000    0.000    0.000 
#
# Total GULP energy -446152.025770 kJ/mol
# GULP energy per Si atom -12393.111827 kJ/mol
# Density = 1.791194 g / cm^3
# Si number density = 17.952801 Si / 1000 Ang^3
#
#
#
# Elastic Constant Matrix: (Units=GPa)
#
#
# Indices 1 2 3 4 5 6 
#
# 1 37.5160 27.1750 31.8113 0.0000 0.0000 0.0000
# 2 27.1750 131.1654 56.4464 0.0000 0.0000 0.0000
# 3 31.8113 56.4464 104.1629 0.0000 0.0000 0.0000
# 4 0.0000 0.0000 0.0000 22.0540 0.0000 0.0000
# 5 0.0000 0.0000 0.0000 0.0000 11.2301 0.0000
# 6 0.0000 0.0000 0.0000 0.0000 0.0000 17.7992
#
#
#
# Elastic Compliance Matrix: (Units=1/GPa)
#
#
# Indices 1 2 3 4 5 6 
#
# 1 0.037287 -0.003684 -0.009391 0.000000 0.000000 0.000000
# 2 -0.003684 0.010307 -0.004460 0.000000 0.000000 0.000000
# 3 -0.009391 -0.004460 0.014885 0.000000 0.000000 0.000000
# 4 0.000000 0.000000 0.000000 0.045343 0.000000 0.000000
# 5 0.000000 0.000000 0.000000 0.000000 0.089046 0.000000
# 6 0.000000 0.000000 0.000000 0.000000 0.000000 0.056182
#
#
# Mechanical properties :
#
#
# Convention : Reuss Voigt Hill
#
# Bulk Modulus (GPa) = 36.48478 55.96773 46.22626
# Shear Modulus (GPa) = 16.82049 20.71078 18.76564
#
# Velocity S-wave (km/s) = 3.06425 3.40019 3.23658
# Velocity P-wave (km/s) = 5.73465 6.83064 6.30650
#
# Compressibility (1/GPa) = 0.02740869
#
# Stress axis : x y z
#
# Youngs Moduli (GPa) = 26.81917 97.02542 67.17994
#
# Poissons Ratio (x) = 0.35741 0.63090
# Poissons Ratio (y) = 0.09879 0.29964
# Poissons Ratio (z) = 0.25186 0.43275
#
# Static dielectric constant tensor:
#      x y z
#    x 2.998170 0.000000 0.000000 
#    y 0.000000 3.594130 0.000000 
#    z 0.000000 0.000000 3.260750 
# 
# 
# High freq. dielectric constant tensor:
#      x y z
#    x 1.651090 0.000000 0.000000 
#    y 0.000000 1.712890 0.000000 
#    z 0.000000 0.000000 1.674520 
# 
# From -- ./inp_files/29313.got.cif
#   From: 2010.03.12/outbox.cif.g09.slc.cpg/sg47_15_cif.got.tgz:29313.got - 2010.04.14 03:12:58.
