data_PCOD8194165
_publ_section_title
;
Structure prediction by ZEFSAII (Michael W. Deem and Ramdas Pophale) SiO2 
 PCOD8194165
Probable space group: P M M M
;
_chemical_formula_sum "Si O2"
_cell_formula_units_Z 44
_cell_length_a 11.864650
_cell_length_b 16.313903
_cell_length_c 15.532226
_cell_angle_alpha 90.000000
_cell_angle_beta 90.000000
_cell_angle_gamma 90.000000
_cell_volume 3006.398237
_symmetry_space_group_name_H-M "P M M M"
_symmetry_group_IT_number 47
_symmetry_cell_setting 'orthorhombic'
loop_
_space_group_symop_operation_xyz
x,y,z
-x,-y,z
x,-y,-z
-x,y,-z
-x,-y,-z
x,y,-z
-x,y,z
x,-y,z
loop_
_atom_site_type_symbol
_atom_site_label
_atom_site_fract_x
_atom_site_fract_y
_atom_site_fract_z
Si Si1 0.500000 0.402704 0.601934
Si Si2 0.500000 0.909781 0.398251
Si Si3 0.871722 0.597950 0.185977
Si Si4 0.873105 0.000000 0.602345
Si Si5 0.264523 0.157355 0.602215
Si Si6 0.123082 0.404854 0.500000
Si Si7 0.739235 0.662842 0.656270
Si Si8 0.132588 0.588904 0.000000
O O1 0.500000 0.500000 0.620682
O O2 0.500000 0.385109 0.500000
O O3 0.391976 0.359347 0.644646
O O4 0.500000 0.920152 0.500000
O O5 0.391282 0.860578 0.368172
O O6 0.500000 0.000000 0.356062
O O7 0.863455 0.500000 0.186171
O O8 0.781358 0.635269 0.250763
O O9 0.000000 0.624258 0.210264
O O10 0.836861 0.633359 0.090645
O O11 0.812816 0.082540 0.635837
O O12 0.867722 0.000000 0.500000
O O13 0.000000 0.000000 0.637446
O O14 0.253158 0.169212 0.500000
O O15 0.231973 0.241178 0.648574
O O16 0.102636 0.500000 0.500000
O O17 0.191465 0.384231 0.584556
O O18 0.000000 0.360820 0.500000
O O19 0.192501 0.500000 0.000000
O O20 0.000000 0.574811 0.000000
#
# Coordination Sequence:
#
# PCOD8194165 Si02
#       8
#     4   4   8   4   8   4   8   4
#     4  11  21  33  45  57  85 130 168 191 217 258
#     4   9  15  27  49  61  73  99 150 197 228 253
#     4   9  17  30  48  69  91 117 151 192 235 274
#     4   9  18  29  41  55  79 113 142 173 224 283
#     4  10  18  30  42  61  81 111 150 189 226 263
#     4  11  22  33  43  58  85 123 160 191 223 259
#     4  12  21  31  45  65  90 120 158 193 225 265
#     4   7  12  26  48  69  87 110 145 189 236 281
#
# _framework density 14.635453
#
# number of rings (size 3 to 8) (size 9 to 14) (size 15 to 20)
#    0.000    2.091    2.727    3.818    0.000    3.636 
#    0.000    0.000    0.000    0.545    0.000    2.545 
#    0.000    0.727    0.000    4.909    0.000    0.000 
#
# Total GULP energy -545295.906193 kJ/mol
# GULP energy per Si atom -12393.088777 kJ/mol
# Density = 1.460214 g / cm^3
# Si number density = 14.635453 Si / 1000 Ang^3
#
#
#
# Elastic Constant Matrix: (Units=GPa)
#
#
# Indices 1 2 3 4 5 6 
#
# 1 108.7199 34.8671 43.2567 0.0000 0.0000 0.0000
# 2 34.8671 82.8192 28.7071 0.0000 0.0000 0.0000
# 3 43.2567 28.7071 92.3128 0.0000 0.0000 0.0000
# 4 0.0000 0.0000 0.0000 9.6300 0.0000 0.0000
# 5 0.0000 0.0000 0.0000 0.0000 -7.7283 0.0000
# 6 0.0000 0.0000 0.0000 0.0000 0.0000 32.2678
#
#
#
# Elastic Compliance Matrix: (Units=1/GPa)
#
#
# Indices 1 2 3 4 5 6 
#
# 1 0.012159 -0.003524 -0.004602 0.000000 0.000000 0.000000
# 2 -0.003524 0.014555 -0.002875 0.000000 0.000000 0.000000
# 3 -0.004602 -0.002875 0.013883 0.000000 0.000000 0.000000
# 4 0.000000 0.000000 0.000000 0.103842 0.000000 0.000000
# 5 0.000000 0.000000 0.000000 0.000000 -0.129395 0.000000
# 6 0.000000 0.000000 0.000000 0.000000 0.000000 0.030991
#
#
# Mechanical properties :
#
#
# Convention : Reuss Voigt Hill
#
# Bulk Modulus (GPa) = 53.77603 55.27931 54.52767
# Shear Modulus (GPa) = 67.35481 18.63531 42.99506
#
# Velocity S-wave (km/s) = 6.79129 3.57220 5.42597
# Velocity P-wave (km/s) = 9.91559 7.40723 8.75174
#
# Compressibility (1/GPa) = 0.01859565
#
# Stress axis : x y z
#
# Youngs Moduli (GPa) = 82.24376 68.70696 72.03023
#
# Poissons Ratio (x) = 0.24212 0.33146
# Poissons Ratio (y) = 0.28982 0.20708
# Poissons Ratio (z) = 0.37846 0.19752
#
# Static dielectric constant tensor:
#      x y z
#    x 3.045070 0.000000 0.000000 
#    y 0.000000 2.822940 0.000000 
#    z 0.000000 0.000000 2.761670 
# 
# 
# High freq. dielectric constant tensor:
#      x y z
#    x 1.564110 0.000000 0.000000 
#    y 0.000000 1.551500 0.000000 
#    z 0.000000 0.000000 1.515550 
# 
# From -- ./inp_files/22674.got.cif
#   From: 2010.03.12/outbox.cif.g09.slc.cpg/sg47_12_cif.got.tgz:22674.got - 2010.04.14 03:12:58.
