data_PCOD8194761
_publ_section_title
;
Structure prediction by ZEFSAII (Michael W. Deem and Ramdas Pophale) SiO2 
 PCOD8194761
Probable space group: P M M M
;
_chemical_formula_sum "Si O2"
_cell_formula_units_Z 48
_cell_length_a 19.978768
_cell_length_b 21.842901
_cell_length_c 8.330992
_cell_angle_alpha 90.000000
_cell_angle_beta 90.000000
_cell_angle_gamma 90.000000
_cell_volume 3635.597018
_symmetry_space_group_name_H-M "P M M M"
_symmetry_group_IT_number 47
_symmetry_cell_setting 'orthorhombic'
loop_
_space_group_symop_operation_xyz
x,y,z
-x,-y,z
x,-y,-z
-x,y,-z
-x,-y,-z
x,y,-z
-x,y,z
x,-y,z
loop_
_atom_site_type_symbol
_atom_site_label
_atom_site_fract_x
_atom_site_fract_y
_atom_site_fract_z
Si Si1 0.920661 0.862326 0.320401
Si Si2 0.924737 0.500000 0.191816
Si Si3 0.079557 0.069989 0.000000
Si Si4 0.427793 0.572538 0.817053
Si Si5 0.157943 0.614313 0.814252
Si Si6 0.924482 0.722688 0.314975
Si Si7 0.290641 0.568271 0.313953
O O1 0.894403 0.883742 0.500000
O O2 0.892009 0.900276 0.166853
O O3 0.899842 0.792128 0.291633
O O4 0.000000 0.868337 0.324391
O O5 0.887043 0.559910 0.261396
O O6 0.000000 0.500000 0.260702
O O7 0.926528 0.500000 0.000000
O O8 0.000000 0.076603 0.000000
O O9 0.102975 0.000000 0.000000
O O10 0.500000 0.597090 0.749948
O O11 0.428107 0.500000 0.800620
O O12 0.363382 0.598405 0.722673
O O13 0.420296 0.593249 0.000000
O O14 0.125585 0.679979 0.782437
O O15 0.233232 0.613284 0.748268
O O16 0.162594 0.602205 0.000000
O O17 0.922339 0.703672 0.500000
O O18 0.000000 0.714818 0.247713
O O19 0.281955 0.561493 0.500000
O O20 0.284050 0.500000 0.234840
#
# Coordination Sequence:
#
# PCOD8194761 Si02
#       7
#     8   4   4   8   8   8   8
#     4   8  15  27  40  54  75  99 120 148 185 222
#     4   9  18  30  39  51  68  83 110 153 197 240
#     4   9  16  24  38  60  80  97 119 145 176 222
#     4   8  14  25  41  58  73  89 110 135 167 214
#     4  11  20  29  42  55  69  91 119 154 194 234
#     4   9  18  31  43  55  71  92 121 156 192 231
#     4  10  19  29  40  53  73  95 114 142 183 230
#
# _framework density 13.202783999999999
#
# number of rings (size 3 to 8) (size 9 to 14) (size 15 to 20)
#    0.000    2.833    0.833    3.000    1.167    2.333 
#    0.000    3.333    0.000    2.000    0.000    0.000 
#    0.000    0.000    0.000    0.000    0.000    0.000 
#
# Total GULP energy -594741.843515 kJ/mol
# GULP energy per Si atom -12390.455073 kJ/mol
# Density = 1.317273 g / cm^3
# Si number density = 13.202784 Si / 1000 Ang^3
#
#
#
# Elastic Constant Matrix: (Units=GPa)
#
#
# Indices 1 2 3 4 5 6 
#
# 1 81.9469 28.0677 27.1475 0.0000 0.0000 0.0000
# 2 28.0677 53.0511 30.7970 0.0000 0.0000 0.0000
# 3 27.1475 30.7970 62.9271 0.0000 0.0000 0.0000
# 4 0.0000 0.0000 0.0000 16.8087 0.0000 0.0000
# 5 0.0000 0.0000 0.0000 0.0000 14.4397 0.0000
# 6 0.0000 0.0000 0.0000 0.0000 0.0000 1.8530
#
#
#
# Elastic Compliance Matrix: (Units=1/GPa)
#
#
# Indices 1 2 3 4 5 6 
#
# 1 0.015508 -0.006036 -0.003736 0.000000 0.000000 0.000000
# 2 -0.006036 0.028680 -0.011432 0.000000 0.000000 0.000000
# 3 -0.003736 -0.011432 0.023098 0.000000 0.000000 0.000000
# 4 0.000000 0.000000 0.000000 0.059493 0.000000 0.000000
# 5 0.000000 0.000000 0.000000 0.000000 0.069253 0.000000
# 6 0.000000 0.000000 0.000000 0.000000 0.000000 0.539677
#
#
# Mechanical properties :
#
#
# Convention : Reuss Voigt Hill
#
# Bulk Modulus (GPa) = 40.19714 41.10549 40.65132
# Shear Modulus (GPa) = 6.35800 14.08114 10.21957
#
# Velocity S-wave (km/s) = 2.19684 3.26932 2.78519
# Velocity P-wave (km/s) = 6.07839 6.74187 6.41871
#
# Compressibility (1/GPa) = 0.02487739
#
# Stress axis : x y z
#
# Youngs Moduli (GPa) = 64.48219 34.86792 43.29319
#
# Poissons Ratio (x) = 0.21046 0.16176
# Poissons Ratio (y) = 0.38920 0.49493
# Poissons Ratio (z) = 0.24093 0.39861
#
# Static dielectric constant tensor:
#      x y z
#    x 2.401440 0.000000 0.000000 
#    y 0.000000 2.244870 0.000000 
#    z 0.000000 0.000000 2.766460 
# 
# 
# High freq. dielectric constant tensor:
#      x y z
#    x 1.472220 0.000000 0.000000 
#    y 0.000000 1.458720 0.000000 
#    z 0.000000 0.000000 1.510930 
# 
# From -- ./inp_files/11436.got.cif
#   From: 2010.03.12/outbox.cif.g09.slc.cpg/sg47_6_cif.got.tgz:11436.got - 2010.04.14 03:12:58.
