data_PCOD8194453
_publ_section_title
;
Structure prediction by ZEFSAII (Michael W. Deem and Ramdas Pophale) SiO2 
 PCOD8194453
Probable space group: P M M M
;
_chemical_formula_sum "Si O2"
_cell_formula_units_Z 48
_cell_length_a 20.570585
_cell_length_b 14.066348
_cell_length_c 8.981343
_cell_angle_alpha 90.000000
_cell_angle_beta 90.000000
_cell_angle_gamma 90.000000
_cell_volume 2598.778606
_symmetry_space_group_name_H-M "P M M M"
_symmetry_group_IT_number 47
_symmetry_cell_setting 'orthorhombic'
loop_
_space_group_symop_operation_xyz
x,y,z
-x,-y,z
x,-y,-z
-x,y,-z
-x,-y,-z
x,y,-z
-x,y,z
x,-y,z
loop_
_atom_site_type_symbol
_atom_site_label
_atom_site_fract_x
_atom_site_fract_y
_atom_site_fract_z
Si Si1 0.834761 0.891977 0.327374
Si Si2 0.500000 0.607923 0.677494
Si Si3 0.687121 0.896663 0.323096
Si Si4 0.750161 0.390417 0.170331
Si Si5 0.880896 0.714836 0.824765
Si Si6 0.000000 0.389290 0.325160
Si Si7 0.631191 0.702726 0.323195
O O1 0.839891 0.863233 0.500000
O O2 0.760843 0.880133 0.269014
O O3 0.881140 0.823795 0.231106
O O4 0.858412 0.000000 0.303025
O O5 0.500000 0.500000 0.738354
O O6 0.500000 0.607400 0.500000
O O7 0.436819 0.662916 0.739781
O O8 0.687065 0.898349 0.500000
O O9 0.641873 0.810863 0.263340
O O10 0.661891 0.000000 0.264150
O O11 0.767711 0.500000 0.193394
O O12 0.812362 0.330868 0.222474
O O13 0.688795 0.365032 0.270826
O O14 0.732393 0.367545 0.000000
O O15 0.936586 0.656885 0.744441
O O16 0.893139 0.710799 0.000000
O O17 0.000000 0.500000 0.285499
O O18 0.000000 0.370633 0.500000
O O19 0.630785 0.701286 0.500000
#
# Coordination Sequence:
#
# PCOD8194453 Si02
#       7
#     8   4   8   8   8   4   8
#     4   9  17  32  55  82 112 143 177 223 274 322
#     4   9  18  30  44  70 106 139 175 225 280 319
#     4   8  14  26  47  75 104 133 169 217 269 315
#     4  10  21  35  51  75 106 136 172 220 269 316
#     4  11  22  37  58  83 113 145 178 222 276 327
#     4  11  25  43  62  83 110 147 189 226 264 323
#     4  10  18  31  52  74 100 137 180 221 265 321
#
# _framework density 18.470216000000001
#
# number of rings (size 3 to 8) (size 9 to 14) (size 15 to 20)
#    0.000    2.333    1.667    2.750    0.000    3.333 
#    0.000    1.250    0.000    7.000    0.000    0.000 
#    0.000    1.333    0.000    0.000    0.000    0.000 
#
# Total GULP energy -595146.099264 kJ/mol
# GULP energy per Si atom -12398.877068 kJ/mol
# Density = 1.842818 g / cm^3
# Si number density = 18.470216 Si / 1000 Ang^3
#
#
#
# Elastic Constant Matrix: (Units=GPa)
#
#
# Indices 1 2 3 4 5 6 
#
# 1 115.0519 67.1646 40.8423 0.0000 0.0000 0.0000
# 2 67.1646 145.7997 44.6504 0.0000 0.0000 0.0000
# 3 40.8423 44.6504 40.4541 0.0000 0.0000 0.0000
# 4 0.0000 0.0000 0.0000 20.8664 0.0000 0.0000
# 5 0.0000 0.0000 0.0000 0.0000 18.7213 0.0000
# 6 0.0000 0.0000 0.0000 0.0000 0.0000 32.2654
#
#
#
# Elastic Compliance Matrix: (Units=1/GPa)
#
#
# Indices 1 2 3 4 5 6 
#
# 1 0.014543 -0.003328 -0.011009 0.000000 0.000000 0.000000
# 2 -0.003328 0.011122 -0.008916 0.000000 0.000000 0.000000
# 3 -0.011009 -0.008916 0.045675 0.000000 0.000000 0.000000
# 4 0.000000 0.000000 0.000000 0.047924 0.000000 0.000000
# 5 0.000000 0.000000 0.000000 0.000000 0.053415 0.000000
# 6 0.000000 0.000000 0.000000 0.000000 0.000000 0.030993
#
#
# Mechanical properties :
#
#
# Convention : Reuss Voigt Hill
#
# Bulk Modulus (GPa) = 40.26774 67.40224 53.83499
# Shear Modulus (GPa) = 19.34561 24.28052 21.81306
#
# Velocity S-wave (km/s) = 3.23986 3.62964 3.44028
# Velocity P-wave (km/s) = 5.98702 7.35781 6.70752
#
# Compressibility (1/GPa) = 0.02483377
#
# Stress axis : x y z
#
# Youngs Moduli (GPa) = 68.76388 89.90981 21.89359
#
# Poissons Ratio (x) = 0.29919 0.24103
# Poissons Ratio (y) = 0.22883 0.19521
# Poissons Ratio (z) = 0.75704 0.80167
#
# Static dielectric constant tensor:
#      x y z
#    x 3.415190 0.000000 0.000000 
#    y 0.000000 3.787030 0.000000 
#    z 0.000000 0.000000 3.095030 
# 
# 
# High freq. dielectric constant tensor:
#      x y z
#    x 1.700950 0.000000 0.000000 
#    y 0.000000 1.736480 0.000000 
#    z 0.000000 0.000000 1.686760 
# 
# From -- ./inp_files/9208.got.cif
#   From: 2010.03.12/outbox.cif.g09.slc.cpg/sg47_5_cif.got.tgz:9208.got - 2010.04.14 03:12:58.
