data_PCOD8194361
_publ_section_title
;
Structure prediction by ZEFSAII (Michael W. Deem and Ramdas Pophale) SiO2 
 PCOD8194361
Probable space group: P M M M
;
_chemical_formula_sum "Si O2"
_cell_formula_units_Z 56
_cell_length_a 23.051809
_cell_length_b 14.217669
_cell_length_c 8.922137
_cell_angle_alpha 90.000000
_cell_angle_beta 90.000000
_cell_angle_gamma 90.000000
_cell_volume 2924.167859
_symmetry_space_group_name_H-M "P M M M"
_symmetry_group_IT_number 47
_symmetry_cell_setting 'orthorhombic'
loop_
_space_group_symop_operation_xyz
x,y,z
-x,-y,z
x,-y,-z
-x,y,-z
-x,-y,-z
x,y,-z
-x,y,z
x,-y,z
loop_
_atom_site_type_symbol
_atom_site_label
_atom_site_fract_x
_atom_site_fract_y
_atom_site_fract_z
Si Si1 0.339839 0.892602 0.174968
Si Si2 0.000000 0.106192 0.821745
Si Si3 0.847637 0.607516 0.675723
Si Si4 0.283105 0.396652 0.676968
Si Si5 0.218302 0.890554 0.327943
Si Si6 0.389634 0.724549 0.678093
Si Si7 0.500000 0.606389 0.322056
Si Si8 0.886934 0.784846 0.177455
O O1 0.280129 0.866943 0.257089
O O2 0.390553 0.826847 0.243408
O O3 0.357993 0.000000 0.207099
O O4 0.331834 0.873826 0.000000
O O5 0.056617 0.160509 0.761978
O O6 0.000000 0.000000 0.757311
O O7 0.000000 0.103756 0.000000
O O8 0.858470 0.619715 0.500000
O O9 0.860183 0.500000 0.724121
O O10 0.781673 0.636706 0.718631
O O11 0.890149 0.677043 0.765503
O O12 0.289410 0.404240 0.500000
O O13 0.294584 0.500000 0.746323
O O14 0.331132 0.325372 0.738597
O O15 0.219856 0.857078 0.500000
O O16 0.169538 0.834402 0.241280
O O17 0.203629 0.000000 0.313161
O O18 0.391147 0.737503 0.500000
O O19 0.443679 0.662700 0.734735
O O20 0.500000 0.500000 0.256289
O O21 0.500000 0.600517 0.500000
O O22 0.884390 0.786351 0.000000
#
# Coordination Sequence:
#
# PCOD8194361 Si02
#       8
#     8   4   8   8   8   8   4   8
#     4  10  21  36  53  75 104 137 174 218 268 320
#     4   9  20  38  56  75 102 138 179 219 262 315
#     4   9  18  33  52  75 105 139 175 218 268 320
#     4   8  14  26  47  74 101 131 166 203 249 305
#     4  10  20  34  54  81 111 140 171 212 265 325
#     4  10  18  30  52  78 104 137 176 219 263 307
#     4   9  18  32  52  81 112 140 175 217 260 311
#     4  11  21  34  55  79 105 140 180 223 267 311
#
# _framework density 19.150746000000002
#
# number of rings (size 3 to 8) (size 9 to 14) (size 15 to 20)
#    0.000    2.429    0.000    3.857    0.000    5.429 
#    0.000    2.500    0.000    9.857    0.000    0.000 
#    0.000    0.000    0.000    0.000    0.000    0.000 
#
# Total GULP energy -694365.486980 kJ/mol
# GULP energy per Si atom -12399.383696 kJ/mol
# Density = 1.910716 g / cm^3
# Si number density = 19.150746 Si / 1000 Ang^3
#
#
#
# Elastic Constant Matrix: (Units=GPa)
#
#
# Indices 1 2 3 4 5 6 
#
# 1 90.0430 89.5313 33.0658 0.0000 0.0000 0.0000
# 2 89.5313 145.0646 47.7849 0.0000 0.0000 0.0000
# 3 33.0658 47.7849 58.1241 0.0000 0.0000 0.0000
# 4 0.0000 0.0000 0.0000 28.4137 0.0000 0.0000
# 5 0.0000 0.0000 0.0000 0.0000 19.2040 0.0000
# 6 0.0000 0.0000 0.0000 0.0000 0.0000 32.9361
#
#
#
# Elastic Compliance Matrix: (Units=1/GPa)
#
#
# Indices 1 2 3 4 5 6 
#
# 1 0.028999 -0.017092 -0.002445 0.000000 0.000000 0.000000
# 2 -0.017092 0.019528 -0.006331 0.000000 0.000000 0.000000
# 3 -0.002445 -0.006331 0.023800 0.000000 0.000000 0.000000
# 4 0.000000 0.000000 0.000000 0.035194 0.000000 0.000000
# 5 0.000000 0.000000 0.000000 0.000000 0.052073 0.000000
# 6 0.000000 0.000000 0.000000 0.000000 0.000000 0.030362
#
#
# Mechanical properties :
#
#
# Convention : Reuss Voigt Hill
#
# Bulk Modulus (GPa) = 48.56561 70.44399 59.50480
# Shear Modulus (GPa) = 20.11629 24.30072 22.20850
#
# Velocity S-wave (km/s) = 3.24453 3.56605 3.40908
# Velocity P-wave (km/s) = 6.28098 7.33617 6.82899
#
# Compressibility (1/GPa) = 0.02059070
#
# Stress axis : x y z
#
# Youngs Moduli (GPa) = 34.48442 51.20919 42.01635
#
# Poissons Ratio (x) = 0.87527 0.10274
# Poissons Ratio (y) = 0.58941 0.26600
# Poissons Ratio (z) = 0.08432 0.32419
#
# Static dielectric constant tensor:
#      x y z
#    x 3.481890 0.000000 0.000000 
#    y 0.000000 3.858820 0.000000 
#    z 0.000000 0.000000 3.164690 
# 
# 
# High freq. dielectric constant tensor:
#      x y z
#    x 1.727590 0.000000 0.000000 
#    y 0.000000 1.765440 0.000000 
#    z 0.000000 0.000000 1.713200 
# 
# From -- ./inp_files/11345.got.cif
#   From: 2010.03.12/outbox.cif.g09.slc.cpg/sg47_6_cif.got.tgz:11345.got - 2010.04.14 03:12:58.
