data_PCOD8194809
_publ_section_title
;
Structure prediction by ZEFSAII (Michael W. Deem and Ramdas Pophale) SiO2 
 PCOD8194809
Probable space group: P M M M
;
_chemical_formula_sum "Si O2"
_cell_formula_units_Z 64
_cell_length_a 9.151474
_cell_length_b 26.507402
_cell_length_c 18.093652
_cell_angle_alpha 90.000000
_cell_angle_beta 90.000000
_cell_angle_gamma 90.000000
_cell_volume 4389.190675
_symmetry_space_group_name_H-M "P M M M"
_symmetry_group_IT_number 47
_symmetry_cell_setting 'orthorhombic'
loop_
_space_group_symop_operation_xyz
x,y,z
-x,-y,z
x,-y,-z
-x,y,-z
-x,-y,-z
x,y,-z
-x,y,z
x,-y,z
loop_
_atom_site_type_symbol
_atom_site_label
_atom_site_fract_x
_atom_site_fract_y
_atom_site_fract_z
Si Si1 0.671048 0.247536 0.417175
Si Si2 0.673427 0.055989 0.582554
Si Si3 0.835638 0.799531 0.201251
Si Si4 0.331700 0.739783 0.086198
Si Si5 0.672340 0.149461 0.324551
Si Si6 0.826936 0.353074 0.155954
Si Si7 0.838691 0.300249 0.298792
Si Si8 0.332290 0.442090 0.914529
O O1 0.736160 0.249036 0.500000
O O2 0.500000 0.255337 0.419118
O O3 0.712990 0.194094 0.381277
O O4 0.734555 0.294102 0.369483
O O5 0.734730 0.066524 0.500000
O O6 0.500000 0.059848 0.579559
O O7 0.732708 0.097688 0.639561
O O8 0.721977 0.000000 0.608907
O O9 0.745921 0.786651 0.127231
O O10 0.754647 0.843791 0.246598
O O11 0.838927 0.750326 0.251310
O O12 0.000000 0.816777 0.180709
O O13 0.500000 0.736327 0.111983
O O14 0.253998 0.686870 0.103595
O O15 0.319134 0.750970 0.000000
O O16 0.500000 0.148089 0.309044
O O17 0.786321 0.344134 0.242522
O O18 0.774667 0.408890 0.135510
O O19 0.000000 0.346977 0.143774
O O20 0.000000 0.312059 0.329248
O O21 0.500000 0.426982 0.899403
O O22 0.305006 0.500000 0.892892
O O23 0.293943 0.433031 0.000000
#
# Coordination Sequence:
#
# PCOD8194809 Si02
#       8
#     8   8   8   8   8   8   8   8
#     4   9  16  24  36  56  78 100 130 165 197 231
#     4   8  13  21  35  57  82 106 136 174 208 235
#     4   9  17  28  40  55  77 103 132 165 197 233
#     4  10  19  29  42  60  81 105 133 163 196 236
#     4   9  15  24  39  56  77 106 136 166 201 237
#     4  10  19  29  42  60  82 108 138 168 197 233
#     4   8  16  28  38  52  75 102 130 159 192 230
#     4   9  18  31  44  59  81 108 138 171 203 234
#
# _framework density 14.581275
#
# number of rings (size 3 to 8) (size 9 to 14) (size 15 to 20)
#    0.000    3.000    0.000    3.375    0.000    8.250 
#    0.000    0.625    0.000    1.500    0.000    0.875 
#    0.000    1.000    0.000   11.250    0.000    5.625 
#
# Total GULP energy -793329.571189 kJ/mol
# GULP energy per Si atom -12395.774550 kJ/mol
# Density = 1.454809 g / cm^3
# Si number density = 14.581275 Si / 1000 Ang^3
#
#
#
# Elastic Constant Matrix: (Units=GPa)
#
#
# Indices 1 2 3 4 5 6 
#
# 1 66.5353 35.0561 45.0968 0.0000 0.0000 0.0000
# 2 35.0561 77.7249 48.2683 0.0000 0.0000 0.0000
# 3 45.0968 48.2683 83.8201 0.0000 0.0000 0.0000
# 4 0.0000 0.0000 0.0000 27.0469 0.0000 0.0000
# 5 0.0000 0.0000 0.0000 0.0000 17.2089 0.0000
# 6 0.0000 0.0000 0.0000 0.0000 0.0000 12.4338
#
#
#
# Elastic Compliance Matrix: (Units=1/GPa)
#
#
# Indices 1 2 3 4 5 6 
#
# 1 0.024619 -0.004481 -0.010666 0.000000 0.000000 0.000000
# 2 -0.004481 0.020844 -0.009592 0.000000 0.000000 0.000000
# 3 -0.010666 -0.009592 0.023192 0.000000 0.000000 0.000000
# 4 0.000000 0.000000 0.000000 0.036973 0.000000 0.000000
# 5 0.000000 0.000000 0.000000 0.000000 0.058110 0.000000
# 6 0.000000 0.000000 0.000000 0.000000 0.000000 0.080426
#
#
# Mechanical properties :
#
#
# Convention : Reuss Voigt Hill
#
# Bulk Modulus (GPa) = 52.14153 53.88030 53.01091
# Shear Modulus (GPa) = 16.66481 17.98185 17.32333
#
# Velocity S-wave (km/s) = 3.38433 3.51553 3.45055
# Velocity P-wave (km/s) = 7.14902 7.31509 7.23253
#
# Compressibility (1/GPa) = 0.01917857
#
# Stress axis : x y z
#
# Youngs Moduli (GPa) = 40.61858 47.97607 43.11758
#
# Poissons Ratio (x) = 0.21496 0.45987
# Poissons Ratio (y) = 0.18199 0.41360
# Poissons Ratio (z) = 0.43322 0.46020
#
# Static dielectric constant tensor:
#      x y z
#    x 2.845580 0.000000 0.000000 
#    y 0.000000 2.749880 0.000000 
#    z 0.000000 0.000000 2.896270 
# 
# 
# High freq. dielectric constant tensor:
#      x y z
#    x 1.554730 0.000000 0.000000 
#    y 0.000000 1.526120 0.000000 
#    z 0.000000 0.000000 1.544530 
# 
# From -- ./inp_files/13479.got.cif
#   From: 2010.03.12/outbox.cif.g09.slc.cpg/sg47_7_cif.got.tgz:13479.got - 2010.04.14 03:12:58.
