data_PCOD8194544
_publ_section_title
;
Structure prediction by ZEFSAII (Michael W. Deem and Ramdas Pophale) SiO2 
 PCOD8194544
Probable space group: P M M M
;
_chemical_formula_sum "Si O2"
_cell_formula_units_Z 48
_cell_length_a 17.945077
_cell_length_b 8.912961
_cell_length_c 15.626469
_cell_angle_alpha 90.000000
_cell_angle_beta 90.000000
_cell_angle_gamma 90.000000
_cell_volume 2499.356386
_symmetry_space_group_name_H-M "P M M M"
_symmetry_group_IT_number 47
_symmetry_cell_setting 'orthorhombic'
loop_
_space_group_symop_operation_xyz
x,y,z
-x,-y,z
x,-y,-z
-x,y,-z
-x,-y,-z
x,y,-z
-x,y,z
x,-y,z
loop_
_atom_site_type_symbol
_atom_site_label
_atom_site_fract_x
_atom_site_fract_y
_atom_site_fract_z
Si Si1 0.582554 0.178415 0.500000
Si Si2 0.849519 0.175637 0.406426
Si Si3 0.343866 0.322620 0.169528
Si Si4 0.500000 0.678408 0.903499
Si Si5 0.796555 0.173670 0.096736
Si Si6 0.083074 0.178971 0.232635
Si Si7 0.315700 0.175170 0.348233
O O1 0.500000 0.246231 0.500000
O O2 0.622922 0.234612 0.585406
O O3 0.583170 0.000000 0.500000
O O4 0.872001 0.244459 0.500000
O O5 0.896509 0.243878 0.327104
O O6 0.763237 0.208289 0.390742
O O7 0.864873 0.000000 0.409920
O O8 0.341778 0.500000 0.162616
O O9 0.425687 0.260977 0.143589
O O10 0.281574 0.258674 0.105753
O O11 0.324654 0.272232 0.264290
O O12 0.500000 0.500000 0.903317
O O13 0.500000 0.740531 0.000000
O O14 0.858902 0.240114 0.161635
O O15 0.782214 0.000000 0.118258
O O16 0.826060 0.195041 0.000000
O O17 0.000000 0.234262 0.208802
O O18 0.087054 0.000000 0.233798
O O19 0.324691 0.000000 0.325485
#
# Coordination Sequence:
#
# PCOD8194544 Si02
#       7
#     4   8   8   4   8   8   8
#     4   9  18  30  49  79 108 140 179 220 271 324
#     4   9  15  26  47  73 102 137 172 209 256 306
#     4  11  22  36  56  79 105 138 177 218 267 320
#     4   9  20  38  55  72  99 134 170 211 261 319
#     4  10  20  35  56  80 106 138 177 219 263 315
#     4   9  17  29  47  76 112 141 168 211 265 318
#     4  10  18  32  53  76 105 140 178 219 262 311
#
# _framework density 19.204944000000001
#
# number of rings (size 3 to 8) (size 9 to 14) (size 15 to 20)
#    0.000    2.333    2.500    1.000    1.167    1.667 
#    0.000    5.000    0.000    4.000    0.000    1.167 
#    0.000    1.333    0.000    0.000    0.000    0.000 
#
# Total GULP energy -595034.548434 kJ/mol
# GULP energy per Si atom -12396.553092 kJ/mol
# Density = 1.916123 g / cm^3
# Si number density = 19.204944 Si / 1000 Ang^3
#
#
#
# Elastic Constant Matrix: (Units=GPa)
#
#
# Indices 1 2 3 4 5 6 
#
# 1 129.3727 22.2636 53.0347 0.0000 0.0000 0.0000
# 2 22.2636 25.3021 19.2942 0.0000 0.0000 0.0000
# 3 53.0347 19.2942 139.5378 0.0000 0.0000 0.0000
# 4 0.0000 0.0000 0.0000 9.0271 0.0000 0.0000
# 5 0.0000 0.0000 0.0000 0.0000 31.8844 0.0000
# 6 0.0000 0.0000 0.0000 0.0000 0.0000 13.0707
#
#
#
# Elastic Compliance Matrix: (Units=1/GPa)
#
#
# Indices 1 2 3 4 5 6 
#
# 1 0.010064 -0.006638 -0.002907 0.000000 0.000000 0.000000
# 2 -0.006638 0.048560 -0.004191 0.000000 0.000000 0.000000
# 3 -0.002907 -0.004191 0.008851 0.000000 0.000000 0.000000
# 4 0.000000 0.000000 0.000000 0.110777 0.000000 0.000000
# 5 0.000000 0.000000 0.000000 0.000000 0.031363 0.000000
# 6 0.000000 0.000000 0.000000 0.000000 0.000000 0.076507
#
#
# Mechanical properties :
#
#
# Convention : Reuss Voigt Hill
#
# Bulk Modulus (GPa) = 24.99951 53.71086 39.35519
# Shear Modulus (GPa) = 15.29383 24.10446 19.69914
#
# Velocity S-wave (km/s) = 2.82503 3.54661 3.20618
# Velocity P-wave (km/s) = 4.86688 6.69322 5.85174
#
# Compressibility (1/GPa) = 0.04000078
#
# Stress axis : x y z
#
# Youngs Moduli (GPa) = 99.36693 20.59319 112.98212
#
# Poissons Ratio (x) = 0.13671 0.32844
# Poissons Ratio (y) = 0.65964 0.47355
# Poissons Ratio (z) = 0.28886 0.08631
#
# Static dielectric constant tensor:
#      x y z
#    x 3.766870 0.000000 0.000000 
#    y 0.000000 2.925060 0.000000 
#    z 0.000000 0.000000 3.771310 
# 
# 
# High freq. dielectric constant tensor:
#      x y z
#    x 1.754250 0.000000 0.000000 
#    y 0.000000 1.680340 0.000000 
#    z 0.000000 0.000000 1.766380 
# 
# From -- ./inp_files/24487.got.cif
#   From: 2010.03.12/outbox.cif.g09.slc.cpg/sg47_13_cif.got.tgz:24487.got - 2010.04.14 03:12:58.
