data_PCOD8194047
_publ_section_title
;
Structure prediction by ZEFSAII (Michael W. Deem and Ramdas Pophale) SiO2 
 PCOD8194047
Probable space group: P M M M
;
_chemical_formula_sum "Si O2"
_cell_formula_units_Z 52
_cell_length_a 22.038920
_cell_length_b 14.290715
_cell_length_c 9.680822
_cell_angle_alpha 90.000000
_cell_angle_beta 90.000000
_cell_angle_gamma 90.000000
_cell_volume 3048.993521
_symmetry_space_group_name_H-M "P M M M"
_symmetry_group_IT_number 47
_symmetry_cell_setting 'orthorhombic'
loop_
_space_group_symop_operation_xyz
x,y,z
-x,-y,z
x,-y,-z
-x,y,-z
-x,-y,-z
x,y,-z
-x,y,z
x,-y,z
loop_
_atom_site_type_symbol
_atom_site_label
_atom_site_fract_x
_atom_site_fract_y
_atom_site_fract_z
Si Si1 0.746659 0.777840 0.836618
Si Si2 0.428843 0.605484 0.655404
Si Si3 0.179142 0.395773 0.835510
Si Si4 0.500000 0.105106 0.835832
Si Si5 0.067176 0.723554 0.164262
Si Si6 0.388579 0.230711 0.836729
Si Si7 0.142975 0.896511 0.835540
O O1 0.768177 0.675101 0.781930
O O2 0.678247 0.804736 0.792373
O O3 0.791974 0.857958 0.781030
O O4 0.751526 0.773993 0.000000
O O5 0.413322 0.638998 0.500000
O O6 0.500000 0.611156 0.681333
O O7 0.405651 0.500000 0.678070
O O8 0.395969 0.669054 0.766986
O O9 0.189468 0.500000 0.773582
O O10 0.113647 0.356616 0.784670
O O11 0.179643 0.400268 0.000000
O O12 0.439516 0.158049 0.782662
O O13 0.500000 0.000000 0.774764
O O14 0.500000 0.101393 0.000000
O O15 0.090330 0.825820 0.214444
O O16 0.000000 0.705122 0.226073
O O17 0.064827 0.722884 0.000000
O O18 0.394432 0.244994 0.000000
O O19 0.131695 0.000000 0.773029
O O20 0.143927 0.901412 0.000000
#
# Coordination Sequence:
#
# PCOD8194047 Si02
#       7
#     8   8   8   4   8   8   8
#     4   8  15  24  34  51  72  93 123 163 202 240
#     4   9  18  32  48  65  87 114 138 164 208 262
#     4   8  13  21  30  40  60  89 117 150 195 240
#     4   9  18  30  42  61  88 110 131 169 218 257
#     4   8  13  19  26  39  58  82 120 165 198 229
#     4  10  18  29  46  66  86 110 142 179 215 250
#     4   8  13  21  31  43  63  92 124 159 201 245
#
# _framework density 17.054808000000001
#
# number of rings (size 3 to 8) (size 9 to 14) (size 15 to 20)
#    0.000    3.462    0.769    2.308    0.000    2.154 
#    0.000    8.462    0.000    0.923    0.000    0.000 
#    0.000    0.000    0.000    0.000    0.000   12.308 
#
# Total GULP energy -644266.423065 kJ/mol
# GULP energy per Si atom -12389.738905 kJ/mol
# Density = 1.701599 g / cm^3
# Si number density = 17.054808 Si / 1000 Ang^3
#
#
#
# Elastic Constant Matrix: (Units=GPa)
#
#
# Indices 1 2 3 4 5 6 
#
# 1 115.6642 35.6650 6.0777 0.0000 0.0000 0.0000
# 2 35.6650 98.9762 4.6223 0.0000 0.0000 0.0000
# 3 6.0777 4.6223 11.4809 0.0000 0.0000 0.0000
# 4 0.0000 0.0000 0.0000 5.9298 0.0000 0.0000
# 5 0.0000 0.0000 0.0000 0.0000 3.5295 0.0000
# 6 0.0000 0.0000 0.0000 0.0000 0.0000 16.3207
#
#
#
# Elastic Compliance Matrix: (Units=1/GPa)
#
#
# Indices 1 2 3 4 5 6 
#
# 1 0.009893 -0.003384 -0.003875 0.000000 0.000000 0.000000
# 2 -0.003384 0.011454 -0.002820 0.000000 0.000000 0.000000
# 3 -0.003875 -0.002820 0.090288 0.000000 0.000000 0.000000
# 4 0.000000 0.000000 0.000000 0.168641 0.000000 0.000000
# 5 0.000000 0.000000 0.000000 0.000000 0.283329 0.000000
# 6 0.000000 0.000000 0.000000 0.000000 0.000000 0.061272
#
#
# Mechanical properties :
#
#
# Convention : Reuss Voigt Hill
#
# Bulk Modulus (GPa) = 10.93162 35.42789 23.17976
# Shear Modulus (GPa) = 7.40163 17.13975 12.27069
#
# Velocity S-wave (km/s) = 2.08551 3.17358 2.68523
# Velocity P-wave (km/s) = 3.49610 5.85208 4.82025
#
# Compressibility (1/GPa) = 0.09147773
#
# Stress axis : x y z
#
# Youngs Moduli (GPa) = 101.08465 87.30225 11.07567
#
# Poissons Ratio (x) = 0.29541 0.04291
# Poissons Ratio (y) = 0.34205 0.03124
# Poissons Ratio (z) = 0.39166 0.24622
#
# Static dielectric constant tensor:
#      x y z
#    x 3.540090 0.000000 0.000000 
#    y 0.000000 3.560150 0.000000 
#    z 0.000000 0.000000 2.442080 
# 
# 
# High freq. dielectric constant tensor:
#      x y z
#    x 1.664150 0.000000 0.000000 
#    y 0.000000 1.663230 0.000000 
#    z 0.000000 0.000000 1.569460 
# 
# From -- ./inp_files/12544.got.cif
#   From: 2010.03.12/outbox.cif.g09.slc.cpg/sg47_7_cif.got.tgz:12544.got - 2010.04.14 03:12:58.
