data_PCOD8194457
_publ_section_title
;
Structure prediction by ZEFSAII (Michael W. Deem and Ramdas Pophale) SiO2 
 PCOD8194457
Probable space group: P M M M
;
_chemical_formula_sum "Si O2"
_cell_formula_units_Z 52
_cell_length_a 8.122831
_cell_length_b 10.948131
_cell_length_c 31.658859
_cell_angle_alpha 90.000000
_cell_angle_beta 90.000000
_cell_angle_gamma 90.000000
_cell_volume 2815.416565
_symmetry_space_group_name_H-M "P M M M"
_symmetry_group_IT_number 47
_symmetry_cell_setting 'orthorhombic'
loop_
_space_group_symop_operation_xyz
x,y,z
-x,-y,z
x,-y,-z
-x,y,-z
-x,-y,-z
x,y,-z
-x,y,z
x,-y,z
loop_
_atom_site_type_symbol
_atom_site_label
_atom_site_fract_x
_atom_site_fract_y
_atom_site_fract_z
Si Si1 0.318864 0.142772 0.096366
Si Si2 0.186483 0.636656 0.332352
Si Si3 0.000000 0.854471 0.048369
Si Si4 0.307374 0.000000 0.546708
Si Si5 0.680396 0.359252 0.500000
Si Si6 0.311808 0.360019 0.757422
Si Si7 0.306018 0.750712 0.584222
Si Si8 0.189407 0.861689 0.812814
O O1 0.500000 0.196843 0.083396
O O2 0.166516 0.200730 0.069904
O O3 0.296093 0.167625 0.145975
O O4 0.319794 0.000000 0.086869
O O5 0.222342 0.500000 0.348130
O O6 0.300515 0.668131 0.292456
O O7 0.219298 0.721492 0.372077
O O8 0.000000 0.653288 0.316781
O O9 0.000000 0.000000 0.053336
O O10 0.000000 0.812641 0.000000
O O11 0.253425 0.112226 0.575130
O O12 0.500000 0.000000 0.539309
O O13 0.223568 0.000000 0.500000
O O14 0.654534 0.500000 0.500000
O O15 0.500000 0.292159 0.500000
O O16 0.769105 0.322628 0.543772
O O17 0.500000 0.353689 0.771725
O O18 0.244012 0.500000 0.766625
O O19 0.216386 0.249499 0.780239
O O20 0.500000 0.725909 0.589204
O O21 0.000000 0.861966 0.826536
O O22 0.234081 0.000000 0.795326
#
# Coordination Sequence:
#
# PCOD8194457 Si02
#       8
#     8   8   4   4   4   8   8   8
#     4   9  16  27  44  67  99 141 186 232 283 335
#     4  10  21  37  54  72  98 131 163 199 251 308
#     4   9  16  26  40  64 101 143 189 237 285 340
#     4   9  16  30  51  75  99 125 157 195 239 283
#     4   9  16  25  44  74  97 115 150 197 236 280
#     4  10  21  37  57  81 107 136 175 223 271 321
#     4  10  18  31  52  74  97 125 159 196 237 289
#     4  10  19  33  54  79 109 144 182 224 272 329
#
# _framework density 18.469736000000001
#
# number of rings (size 3 to 8) (size 9 to 14) (size 15 to 20)
#    0.000    2.385    1.538    1.846    0.000    3.692 
#    1.385    2.308    0.000    1.846    0.000    0.000 
#    0.000    1.231    0.000    3.231    0.000    3.077 
#
# Total GULP energy -644243.658219 kJ/mol
# GULP energy per Si atom -12389.301120 kJ/mol
# Density = 1.842770 g / cm^3
# Si number density = 18.469736 Si / 1000 Ang^3
#
#
#
# Elastic Constant Matrix: (Units=GPa)
#
#
# Indices 1 2 3 4 5 6 
#
# 1 83.4599 23.3207 37.2334 0.0000 0.0000 0.0000
# 2 23.3207 91.5775 47.3803 0.0000 0.0000 0.0000
# 3 37.2334 47.3803 96.8380 0.0000 0.0000 0.0000
# 4 0.0000 0.0000 0.0000 13.9162 0.0000 0.0000
# 5 0.0000 0.0000 0.0000 0.0000 23.5590 0.0000
# 6 0.0000 0.0000 0.0000 0.0000 0.0000 15.5909
#
#
#
# Elastic Compliance Matrix: (Units=1/GPa)
#
#
# Indices 1 2 3 4 5 6 
#
# 1 0.014543 -0.001085 -0.005061 0.000000 0.000000 0.000000
# 2 -0.001085 0.014702 -0.006776 0.000000 0.000000 0.000000
# 3 -0.005061 -0.006776 0.015588 0.000000 0.000000 0.000000
# 4 0.000000 0.000000 0.000000 0.071859 0.000000 0.000000
# 5 0.000000 0.000000 0.000000 0.000000 0.042447 0.000000
# 6 0.000000 0.000000 0.000000 0.000000 0.000000 0.064140
#
#
# Mechanical properties :
#
#
# Convention : Reuss Voigt Hill
#
# Bulk Modulus (GPa) = 52.66307 54.19380 53.42844
# Shear Modulus (GPa) = 19.57329 21.54263 20.55796
#
# Velocity S-wave (km/s) = 3.25891 3.41893 3.33988
# Velocity P-wave (km/s) = 6.53726 6.70754 6.62295
#
# Compressibility (1/GPa) = 0.01898864
#
# Stress axis : x y z
#
# Youngs Moduli (GPa) = 68.76319 68.01891 64.15348
#
# Poissons Ratio (x) = 0.07381 0.32466
# Poissons Ratio (y) = 0.07461 0.43470
# Poissons Ratio (z) = 0.34798 0.46090
#
# Static dielectric constant tensor:
#      x y z
#    x 3.442730 0.000000 0.000000 
#    y 0.000000 3.187810 0.000000 
#    z 0.000000 0.000000 3.255070 
# 
# 
# High freq. dielectric constant tensor:
#      x y z
#    x 1.711650 0.000000 0.000000 
#    y 0.000000 1.685400 0.000000 
#    z 0.000000 0.000000 1.707780 
# 
# From -- ./inp_files/33338.got.cif
#   From: 2010.03.12/outbox.cif.g09.slc.cpg/sg47_17_cif.got.tgz:33338.got - 2010.04.14 03:12:58.
