data_PCOD8194133
_publ_section_title
;
Structure prediction by ZEFSAII (Michael W. Deem and Ramdas Pophale) SiO2 
 PCOD8194133
Probable space group: P M M M
;
_chemical_formula_sum "Si O2"
_cell_formula_units_Z 64
_cell_length_a 14.047886
_cell_length_b 9.216267
_cell_length_c 29.043572
_cell_angle_alpha 90.000000
_cell_angle_beta 90.000000
_cell_angle_gamma 90.000000
_cell_volume 3760.244203
_symmetry_space_group_name_H-M "P M M M"
_symmetry_group_IT_number 47
_symmetry_cell_setting 'orthorhombic'
loop_
_space_group_symop_operation_xyz
x,y,z
-x,-y,z
x,-y,-z
-x,y,-z
-x,-y,-z
x,y,-z
-x,y,z
x,-y,z
loop_
_atom_site_type_symbol
_atom_site_label
_atom_site_fract_x
_atom_site_fract_y
_atom_site_fract_z
Si Si1 0.216310 0.670425 0.552478
Si Si2 0.284101 0.331191 0.949801
Si Si3 0.891297 0.667509 0.890766
Si Si4 0.111659 0.840475 0.626318
Si Si5 0.603597 0.838061 0.445373
Si Si6 0.390218 0.672258 0.139826
Si Si7 0.221936 0.172749 0.185605
Si Si8 0.106191 0.827904 0.273171
O O1 0.198452 0.723306 0.500000
O O2 0.216256 0.500000 0.555274
O O3 0.134755 0.731742 0.585039
O O4 0.316748 0.727612 0.572486
O O5 0.303833 0.500000 0.954969
O O6 0.174636 0.302457 0.935210
O O7 0.356537 0.271817 0.910773
O O8 0.301969 0.256992 0.000000
O O9 0.879987 0.500000 0.874884
O O10 0.856826 0.772157 0.850265
O O11 0.000000 0.704143 0.903788
O O12 0.144659 0.778724 0.676295
O O13 0.000000 0.856940 0.628865
O O14 0.156766 0.000000 0.616559
O O15 0.600558 0.835458 0.500000
O O16 0.500000 0.789775 0.426180
O O17 0.627858 0.000000 0.427936
O O18 0.500000 0.715676 0.147545
O O19 0.374675 0.500000 0.144500
O O20 0.324734 0.752353 0.177646
O O21 0.183078 0.222821 0.235460
O O22 0.232836 0.000000 0.181353
O O23 0.000000 0.763447 0.262859
O O24 0.097779 0.000000 0.272874
#
# Coordination Sequence:
#
# PCOD8194133 Si02
#       8
#     8   8   8   8   8   8   8   8
#     4  10  20  31  44  66  97 129 156 186 227 272
#     4   8  14  25  42  65  90 117 155 199 236 269
#     4   9  17  28  42  64  95 125 152 185 226 274
#     4   9  18  33  51  68  88 118 157 196 228 262
#     4   8  14  26  45  67  88 112 147 189 226 260
#     4   9  18  32  48  67  93 122 152 191 237 279
#     4  10  18  29  49  73  94 116 146 186 230 278
#     4   8  15  29  49  72  94 115 143 183 229 271
#
# _framework density 17.020171000000001
#
# number of rings (size 3 to 8) (size 9 to 14) (size 15 to 20)
#    0.000    3.125    0.000    3.000    0.000    3.000 
#    0.000    6.250    0.000    8.250    0.000    8.750 
#    0.000    0.000    0.000    0.000    0.000    0.000 
#
# Total GULP energy -793057.178507 kJ/mol
# GULP energy per Si atom -12391.518414 kJ/mol
# Density = 1.698143 g / cm^3
# Si number density = 17.020171 Si / 1000 Ang^3
#
#
#
# Elastic Constant Matrix: (Units=GPa)
#
#
# Indices 1 2 3 4 5 6 
#
# 1 99.3846 27.9956 51.2879 0.0000 0.0000 0.0000
# 2 27.9956 45.5831 36.1034 0.0000 0.0000 0.0000
# 3 51.2879 36.1034 108.8556 0.0000 0.0000 0.0000
# 4 0.0000 0.0000 0.0000 18.1920 0.0000 0.0000
# 5 0.0000 0.0000 0.0000 0.0000 19.4483 0.0000
# 6 0.0000 0.0000 0.0000 0.0000 0.0000 22.3603
#
#
#
# Elastic Compliance Matrix: (Units=1/GPa)
#
#
# Indices 1 2 3 4 5 6 
#
# 1 0.013961 -0.004563 -0.005064 0.000000 0.000000 0.000000
# 2 -0.004563 0.031246 -0.008213 0.000000 0.000000 0.000000
# 3 -0.005064 -0.008213 0.014296 0.000000 0.000000 0.000000
# 4 0.000000 0.000000 0.000000 0.054969 0.000000 0.000000
# 5 0.000000 0.000000 0.000000 0.000000 0.051418 0.000000
# 6 0.000000 0.000000 0.000000 0.000000 0.000000 0.044722
#
#
# Mechanical properties :
#
#
# Convention : Reuss Voigt Hill
#
# Bulk Modulus (GPa) = 41.97822 53.84412 47.91117
# Shear Modulus (GPa) = 19.66694 21.22923 20.44809
#
# Velocity S-wave (km/s) = 3.40296 3.53554 3.46989
# Velocity P-wave (km/s) = 6.33700 6.95492 6.65314
#
# Compressibility (1/GPa) = 0.02382187
#
# Stress axis : x y z
#
# Youngs Moduli (GPa) = 71.62941 32.00459 69.94734
#
# Poissons Ratio (x) = 0.14604 0.35423
# Poissons Ratio (y) = 0.32686 0.57448
# Poissons Ratio (z) = 0.36275 0.26285
#
# Static dielectric constant tensor:
#      x y z
#    x 3.313220 0.000000 0.000000 
#    y 0.000000 2.943670 0.000000 
#    z 0.000000 0.000000 3.340520 
# 
# 
# High freq. dielectric constant tensor:
#      x y z
#    x 1.654300 0.000000 0.000000 
#    y 0.000000 1.630110 0.000000 
#    z 0.000000 0.000000 1.640060 
# 
# From -- ./inp_files/34695.got.cif
#   From: 2010.03.12/outbox.cif.g09.slc.cpg/sg47_18_cif.got.tgz:34695.got - 2010.04.14 03:12:58.
