data_PCOD8194996
_publ_section_title
;
Structure prediction by ZEFSAII (Michael W. Deem and Ramdas Pophale) SiO2 
 PCOD8194996
Probable space group: P M M M
;
_chemical_formula_sum "Si O2"
_cell_formula_units_Z 64
_cell_length_a 19.297090
_cell_length_b 9.080122
_cell_length_c 23.913394
_cell_angle_alpha 90.000000
_cell_angle_beta 90.000000
_cell_angle_gamma 90.000000
_cell_volume 4190.103257
_symmetry_space_group_name_H-M "P M M M"
_symmetry_group_IT_number 47
_symmetry_cell_setting 'orthorhombic'
loop_
_space_group_symop_operation_xyz
x,y,z
-x,-y,z
x,-y,-z
-x,y,-z
-x,-y,-z
x,y,-z
-x,y,z
x,-y,z
loop_
_atom_site_type_symbol
_atom_site_label
_atom_site_fract_x
_atom_site_fract_y
_atom_site_fract_z
Si Si1 0.650588 0.327409 0.330518
Si Si2 0.298020 0.825710 0.835180
Si Si3 0.221014 0.326770 0.264700
Si Si4 0.421437 0.324788 0.438739
Si Si5 0.078067 0.671691 0.112481
Si Si6 0.794417 0.829124 0.937282
Si Si7 0.925814 0.674080 0.238666
Si Si8 0.420688 0.674191 0.782425
O O1 0.638666 0.500000 0.335589
O O2 0.731552 0.289329 0.318758
O O3 0.626539 0.255707 0.389450
O O4 0.603966 0.270037 0.278854
O O5 0.247030 0.763937 0.788108
O O6 0.266117 0.778240 0.894920
O O7 0.374162 0.753510 0.829473
O O8 0.304877 0.000000 0.828704
O O9 0.227448 0.500000 0.250117
O O10 0.140727 0.280943 0.276622
O O11 0.396836 0.266809 0.500000
O O12 0.500000 0.273813 0.427337
O O13 0.417437 0.500000 0.438598
O O14 0.094633 0.500000 0.110510
O O15 0.132574 0.750493 0.072739
O O16 0.086327 0.732208 0.175789
O O17 0.000000 0.703848 0.091016
O O18 0.809196 0.000000 0.928710
O O19 0.768810 0.792870 0.000000
O O20 0.932024 0.500000 0.236189
O O21 0.000000 0.736725 0.262083
O O22 0.500000 0.720679 0.791620
O O23 0.410107 0.500000 0.787851
#
# Coordination Sequence:
#
# PCOD8194996 Si02
#       8
#     8   8   8   8   8   8   8   8
#     4   8  13  20  33  55  79 103 132 163 192 227
#     4  10  19  30  44  61  81 102 127 160 195 235
#     4   9  15  25  42  59  78 103 130 162 201 240
#     4   8  12  17  26  43  73 111 140 160 187 224
#     4   9  17  29  45  63  81 102 131 166 198 230
#     4  10  21  34  45  58  79 107 135 162 193 234
#     4   8  13  22  38  58  78 100 126 158 195 234
#     4   9  17  29  46  65  83 103 126 158 200 242
#
# _framework density 15.274088000000001
#
# number of rings (size 3 to 8) (size 9 to 14) (size 15 to 20)
#    0.000    3.125    1.250    2.625    0.000    3.000 
#    0.000    1.250    0.000    0.750    0.000    2.625 
#    0.000    8.500    0.000   34.500    0.000   25.000 
#
# Total GULP energy -792923.189320 kJ/mol
# GULP energy per Si atom -12389.424833 kJ/mol
# Density = 1.523932 g / cm^3
# Si number density = 15.274088 Si / 1000 Ang^3
#
#
#
# Elastic Constant Matrix: (Units=GPa)
#
#
# Indices 1 2 3 4 5 6 
#
# 1 145.1304 26.1445 70.2698 0.0000 0.0000 0.0000
# 2 26.1445 22.6344 21.4529 0.0000 0.0000 0.0000
# 3 70.2698 21.4529 103.7192 0.0000 0.0000 0.0000
# 4 0.0000 0.0000 0.0000 7.8265 0.0000 0.0000
# 5 0.0000 0.0000 0.0000 0.0000 24.8937 0.0000
# 6 0.0000 0.0000 0.0000 0.0000 0.0000 13.8440
#
#
#
# Elastic Compliance Matrix: (Units=1/GPa)
#
#
# Indices 1 2 3 4 5 6 
#
# 1 0.011097 -0.007080 -0.006054 0.000000 0.000000 0.000000
# 2 -0.007080 0.059471 -0.007504 0.000000 0.000000 0.000000
# 3 -0.006054 -0.007504 0.015295 0.000000 0.000000 0.000000
# 4 0.000000 0.000000 0.000000 0.127771 0.000000 0.000000
# 5 0.000000 0.000000 0.000000 0.000000 0.040171 0.000000
# 6 0.000000 0.000000 0.000000 0.000000 0.000000 0.072233
#
#
# Mechanical properties :
#
#
# Convention : Reuss Voigt Hill
#
# Bulk Modulus (GPa) = 22.42800 56.35761 39.39280
# Shear Modulus (GPa) = 13.08297 19.55396 16.31847
#
# Velocity S-wave (km/s) = 2.92986 3.58188 3.27215
# Velocity P-wave (km/s) = 5.11478 7.35419 6.33423
#
# Compressibility (1/GPa) = 0.04458713
#
# Stress axis : x y z
#
# Youngs Moduli (GPa) = 90.11513 16.81495 65.38103
#
# Poissons Ratio (x) = 0.11905 0.39580
# Poissons Ratio (y) = 0.63802 0.49062
# Poissons Ratio (z) = 0.54554 0.12618
#
# Static dielectric constant tensor:
#      x y z
#    x 3.255010 0.000000 0.000000 
#    y 0.000000 2.599610 0.000000 
#    z 0.000000 0.000000 3.001220 
# 
# 
# High freq. dielectric constant tensor:
#      x y z
#    x 1.590330 0.000000 0.000000 
#    y 0.000000 1.550590 0.000000 
#    z 0.000000 0.000000 1.555160 
# 
# From -- ./inp_files/11925.got.cif
#   From: 2010.03.12/outbox.cif.g09.slc.cpg/sg47_6_cif.got.tgz:11925.got - 2010.04.14 03:12:58.
