data_PCOD8194464
_publ_section_title
;
Structure prediction by ZEFSAII (Michael W. Deem and Ramdas Pophale) SiO2 
 PCOD8194464
Probable space group: P M M M
;
_chemical_formula_sum "Si O2"
_cell_formula_units_Z 44
_cell_length_a 10.180150
_cell_length_b 8.822418
_cell_length_c 27.024321
_cell_angle_alpha 90.000000
_cell_angle_beta 90.000000
_cell_angle_gamma 90.000000
_cell_volume 2427.149897
_symmetry_space_group_name_H-M "P M M M"
_symmetry_group_IT_number 47
_symmetry_cell_setting 'orthorhombic'
loop_
_space_group_symop_operation_xyz
x,y,z
-x,-y,z
x,-y,-z
-x,y,-z
-x,-y,-z
x,y,-z
-x,y,z
x,-y,z
loop_
_atom_site_type_symbol
_atom_site_label
_atom_site_fract_x
_atom_site_fract_y
_atom_site_fract_z
Si Si1 0.345565 0.335713 0.500000
Si Si2 0.000000 0.819904 0.944931
Si Si3 0.150899 0.677597 0.788204
Si Si4 0.751412 0.820050 0.884163
Si Si5 0.150430 0.821242 0.315512
Si Si6 0.500000 0.819959 0.944242
Si Si7 0.349914 0.681172 0.607036
O O1 0.275595 0.500000 0.500000
O O2 0.500000 0.362090 0.500000
O O3 0.309861 0.253714 0.447932
O O4 0.873453 0.760824 0.916067
O O5 0.000000 0.000000 0.947968
O O6 0.000000 0.750524 0.000000
O O7 0.173301 0.500000 0.782622
O O8 0.245321 0.742749 0.830593
O O9 0.192905 0.755778 0.737321
O O10 0.000000 0.717597 0.801210
O O11 0.625263 0.762216 0.913957
O O12 0.752553 0.000000 0.876929
O O13 0.248144 0.753427 0.355525
O O14 0.000000 0.774408 0.327984
O O15 0.166511 0.000000 0.314103
O O16 0.500000 0.000000 0.947847
O O17 0.500000 0.752358 0.000000
O O18 0.500000 0.728524 0.620416
O O19 0.337676 0.500000 0.607733
#
# Coordination Sequence:
#
# PCOD8194464 Si02
#       7
#     4   4   8   8   8   4   8
#     4   7  12  26  50  77 106 140 176 215 256 303
#     4   9  16  26  47  77 101 125 163 206 243 290
#     4  10  20  35  55  76  99 130 171 217 263 309
#     4  10  18  31  52  76 102 131 166 206 249 298
#     4  10  21  36  54  76 105 140 178 219 266 316
#     4   9  18  32  51  77 107 135 163 200 247 298
#     4   9  17  32  55  82 109 139 178 220 262 308
#
# _framework density 18.128259
#
# number of rings (size 3 to 8) (size 9 to 14) (size 15 to 20)
#    0.000    2.636    0.909    2.727    0.000    4.364 
#    1.636    1.364    0.000    7.636    0.000    0.000 
#    0.000    0.000    0.000    0.000    0.000    0.000 
#
# Total GULP energy -545387.036494 kJ/mol
# GULP energy per Si atom -12395.159920 kJ/mol
# Density = 1.808700 g / cm^3
# Si number density = 18.128259 Si / 1000 Ang^3
#
#
#
# Elastic Constant Matrix: (Units=GPa)
#
#
# Indices 1 2 3 4 5 6 
#
# 1 124.7283 34.3096 97.5342 0.0000 0.0000 0.0000
# 2 34.3096 42.4416 46.2451 0.0000 0.0000 0.0000
# 3 97.5342 46.2451 194.4558 0.0000 0.0000 0.0000
# 4 0.0000 0.0000 0.0000 23.4371 0.0000 0.0000
# 5 0.0000 0.0000 0.0000 0.0000 36.6907 0.0000
# 6 0.0000 0.0000 0.0000 0.0000 0.0000 18.6760
#
#
#
# Elastic Compliance Matrix: (Units=1/GPa)
#
#
# Indices 1 2 3 4 5 6 
#
# 1 0.013912 -0.004917 -0.005809 0.000000 0.000000 0.000000
# 2 -0.004917 0.033541 -0.005510 0.000000 0.000000 0.000000
# 3 -0.005809 -0.005510 0.009366 0.000000 0.000000 0.000000
# 4 0.000000 0.000000 0.000000 0.042667 0.000000 0.000000
# 5 0.000000 0.000000 0.000000 0.000000 0.027255 0.000000
# 6 0.000000 0.000000 0.000000 0.000000 0.000000 0.053545
#
#
# Mechanical properties :
#
#
# Convention : Reuss Voigt Hill
#
# Bulk Modulus (GPa) = 41.07242 79.75594 60.41418
# Shear Modulus (GPa) = 22.63727 27.99655 25.31691
#
# Velocity S-wave (km/s) = 3.53757 3.93410 3.74109
# Velocity P-wave (km/s) = 6.27627 8.04531 7.21521
#
# Compressibility (1/GPa) = 0.02434724
#
# Stress axis : x y z
#
# Youngs Moduli (GPa) = 71.87909 29.81423 106.76445
#
# Poissons Ratio (x) = 0.14661 0.62015
# Poissons Ratio (y) = 0.35346 0.58829
# Poissons Ratio (z) = 0.41752 0.16428
#
# Static dielectric constant tensor:
#      x y z
#    x 3.312510 0.000000 0.000000 
#    y 0.000000 3.006550 0.000000 
#    z 0.000000 0.000000 3.680630 
# 
# 
# High freq. dielectric constant tensor:
#      x y z
#    x 1.687750 0.000000 0.000000 
#    y 0.000000 1.671250 0.000000 
#    z 0.000000 0.000000 1.720550 
# 
# From -- ./inp_files/34003.got.cif
#   From: 2010.03.12/outbox.cif.g09.slc.cpg/sg47_18_cif.got.tgz:34003.got - 2010.04.14 03:12:58.
