data_PCOD8194190
_publ_section_title
;
Structure prediction by ZEFSAII (Michael W. Deem and Ramdas Pophale) SiO2 
 PCOD8194190
Probable space group: P M M M
;
_chemical_formula_sum "Si O2"
_cell_formula_units_Z 44
_cell_length_a 9.296928
_cell_length_b 14.382726
_cell_length_c 23.377006
_cell_angle_alpha 90.000000
_cell_angle_beta 90.000000
_cell_angle_gamma 90.000000
_cell_volume 3125.860286
_symmetry_space_group_name_H-M "P M M M"
_symmetry_group_IT_number 47
_symmetry_cell_setting 'orthorhombic'
loop_
_space_group_symop_operation_xyz
x,y,z
-x,-y,z
x,-y,-z
-x,y,-z
-x,-y,-z
x,y,-z
-x,y,z
x,-y,z
loop_
_atom_site_type_symbol
_atom_site_label
_atom_site_fract_x
_atom_site_fract_y
_atom_site_fract_z
Si Si1 0.170178 0.296246 0.103844
Si Si2 0.170227 0.899367 0.064187
Si Si3 0.833191 0.607368 0.220694
Si Si4 0.333440 0.609957 0.000000
Si Si5 0.838438 0.610564 0.436883
Si Si6 0.661603 0.389157 0.669434
O O1 0.218441 0.187645 0.103023
O O2 0.214611 0.334712 0.165507
O O3 0.000000 0.308686 0.092264
O O4 0.255802 0.352135 0.056171
O O5 0.000000 0.902655 0.061936
O O6 0.227217 0.000000 0.087664
O O7 0.229796 0.883174 0.000000
O O8 0.797076 0.500000 0.208458
O O9 0.745183 0.646519 0.274628
O O10 0.000000 0.621040 0.235036
O O11 0.318227 0.500000 0.000000
O O12 0.500000 0.640882 0.000000
O O13 0.784481 0.642489 0.500000
O O14 0.837955 0.500000 0.433687
O O15 0.735547 0.652093 0.387799
O O16 0.000000 0.647247 0.426193
O O17 0.500000 0.350778 0.671820
O O18 0.665195 0.500000 0.667726
#
# Coordination Sequence:
#
# PCOD8194190 Si02
#       6
#     8   8   8   4   8   8
#     4  10  18  30  47  62  74  96 130 160 187 228
#     4   8  13  23  42  66  84  94 111 148 195 235
#     4   9  17  27  38  52  70  94 126 161 189 215
#     4  11  23  33  40  55  80 104 123 153 198 235
#     4   8  13  21  33  48  66  89 118 154 192 222
#     4   9  16  24  34  48  67  93 123 154 188 224
#
# _framework density 14.076124999999999
#
# number of rings (size 3 to 8) (size 9 to 14) (size 15 to 20)
#    0.000    3.000    0.909    2.455    0.000    4.727 
#    0.000    3.636    0.000    1.091    0.000    0.000 
#    0.000    0.000    0.000    0.000    0.000    0.909 
#
# Total GULP energy -545283.029675 kJ/mol
# GULP energy per Si atom -12392.796129 kJ/mol
# Density = 1.404409 g / cm^3
# Si number density = 14.076125 Si / 1000 Ang^3
#
#
#
# Elastic Constant Matrix: (Units=GPa)
#
#
# Indices 1 2 3 4 5 6 
#
# 1 68.0841 24.3428 63.1705 0.0000 0.0000 0.0000
# 2 24.3428 57.9911 44.9004 0.0000 0.0000 0.0000
# 3 63.1705 44.9004 138.1286 0.0000 0.0000 0.0000
# 4 0.0000 0.0000 0.0000 1.2571 0.0000 0.0000
# 5 0.0000 0.0000 0.0000 0.0000 11.7777 0.0000
# 6 0.0000 0.0000 0.0000 0.0000 0.0000 6.1409
#
#
#
# Elastic Compliance Matrix: (Units=1/GPa)
#
#
# Indices 1 2 3 4 5 6 
#
# 1 0.025733 -0.002258 -0.011035 0.000000 0.000000 0.000000
# 2 -0.002258 0.023242 -0.006522 0.000000 0.000000 0.000000
# 3 -0.011035 -0.006522 0.014406 0.000000 0.000000 0.000000
# 4 0.000000 0.000000 0.000000 0.795458 0.000000 0.000000
# 5 0.000000 0.000000 0.000000 0.000000 0.084906 0.000000
# 6 0.000000 0.000000 0.000000 0.000000 0.000000 0.162843
#
#
# Mechanical properties :
#
#
# Convention : Reuss Voigt Hill
#
# Bulk Modulus (GPa) = 42.10317 58.78124 50.44221
# Shear Modulus (GPa) = 4.33224 12.62115 8.47670
#
# Velocity S-wave (km/s) = 1.75625 2.99764 2.45665
# Velocity P-wave (km/s) = 5.83854 7.33698 6.63023
#
# Compressibility (1/GPa) = 0.02375118
#
# Stress axis : x y z
#
# Youngs Moduli (GPa) = 38.86003 43.02558 69.41445
#
# Poissons Ratio (x) = 0.09717 0.76596
# Poissons Ratio (y) = 0.08776 0.45274
# Poissons Ratio (z) = 0.42880 0.28062
#
# Static dielectric constant tensor:
#      x y z
#    x 2.742090 0.000000 0.000000 
#    y 0.000000 2.660840 0.000000 
#    z 0.000000 0.000000 2.921020 
# 
# 
# High freq. dielectric constant tensor:
#      x y z
#    x 1.527300 0.000000 0.000000 
#    y 0.000000 1.485800 0.000000 
#    z 0.000000 0.000000 1.536950 
# 
# From -- ./inp_files/10888.got.cif
#   From: 2010.03.12/outbox.cif.g09.slc.cpg/sg47_6_cif.got.tgz:10888.got - 2010.04.14 03:12:58.
