data_PCOD8194060
_publ_section_title
;
Structure prediction by ZEFSAII (Michael W. Deem and Ramdas Pophale) SiO2 
 PCOD8194060
Probable space group: P M M M
;
_chemical_formula_sum "Si O2"
_cell_formula_units_Z 52
_cell_length_a 27.557143
_cell_length_b 11.996741
_cell_length_c 8.953430
_cell_angle_alpha 90.000000
_cell_angle_beta 90.000000
_cell_angle_gamma 90.000000
_cell_volume 2959.967314
_symmetry_space_group_name_H-M "P M M M"
_symmetry_group_IT_number 47
_symmetry_cell_setting 'orthorhombic'
loop_
_space_group_symop_operation_xyz
x,y,z
-x,-y,z
x,-y,-z
-x,y,-z
-x,-y,-z
x,y,-z
-x,y,z
x,-y,z
loop_
_atom_site_type_symbol
_atom_site_label
_atom_site_fract_x
_atom_site_fract_y
_atom_site_fract_z
Si Si1 0.327591 0.629185 0.324623
Si Si2 0.850013 0.227087 0.670819
Si Si3 0.442762 0.000000 0.672580
Si Si4 0.378197 0.177785 0.822237
Si Si5 0.205652 0.000000 0.335941
Si Si6 0.053526 0.124917 0.677353
Si Si7 0.303152 0.000000 0.826016
Si Si8 0.228086 0.630270 0.829709
O O1 0.328664 0.651006 0.500000
O O2 0.336763 0.500000 0.284944
O O3 0.370902 0.698764 0.246153
O O4 0.275008 0.668213 0.264248
O O5 0.848780 0.269706 0.500000
O O6 0.827349 0.106049 0.687118
O O7 0.905302 0.212460 0.732279
O O8 0.820947 0.313517 0.771494
O O9 0.424056 0.887206 0.753100
O O10 0.500000 0.000000 0.688067
O O11 0.426192 0.000000 0.500000
O O12 0.330445 0.110272 0.768634
O O13 0.384959 0.185600 0.000000
O O14 0.247638 0.000000 0.215771
O O15 0.229753 0.000000 0.500000
O O16 0.057660 0.116967 0.500000
O O17 0.000000 0.168614 0.725461
O O18 0.061671 0.000000 0.742599
O O19 0.308002 0.000000 0.000000
O O20 0.219368 0.500000 0.814007
O O21 0.237537 0.666398 0.000000
#
# Coordination Sequence:
#
# PCOD8194060 Si02
#       8
#     8   8   4   8   4   8   4   8
#     4  10  20  34  53  77 104 135 173 215 257 302
#     4  10  18  29  46  69  95 120 154 196 241 297
#     4  10  21  37  58  83 111 144 181 220 262 305
#     4  10  20  34  53  77 106 140 177 215 257 305
#     4  10  19  27  39  66  98 124 148 184 236 289
#     4   8  13  24  44  68  93 119 148 188 241 299
#     4   9  19  31  42  63  96 131 164 196 234 287
#     4  10  21  35  49  67  95 132 171 207 245 292
#
# _framework density 17.567761000000001
#
# number of rings (size 3 to 8) (size 9 to 14) (size 15 to 20)
#    0.000    2.385    0.769    3.462    0.000    7.385 
#    0.000    0.000    0.000    1.385    0.000    7.538 
#    0.000    0.000    0.000    0.000    0.000    0.000 
#
# Total GULP energy -644613.253846 kJ/mol
# GULP energy per Si atom -12396.408728 kJ/mol
# Density = 1.752778 g / cm^3
# Si number density = 17.567761 Si / 1000 Ang^3
#
#
#
# Elastic Constant Matrix: (Units=GPa)
#
#
# Indices 1 2 3 4 5 6 
#
# 1 99.5892 44.6743 41.9070 0.0000 0.0000 0.0000
# 2 44.6743 71.9999 45.6328 0.0000 0.0000 0.0000
# 3 41.9070 45.6328 81.2254 0.0000 0.0000 0.0000
# 4 0.0000 0.0000 0.0000 27.4904 0.0000 0.0000
# 5 0.0000 0.0000 0.0000 0.0000 10.8011 0.0000
# 6 0.0000 0.0000 0.0000 0.0000 0.0000 20.3375
#
#
#
# Elastic Compliance Matrix: (Units=1/GPa)
#
#
# Indices 1 2 3 4 5 6 
#
# 1 0.014633 -0.006669 -0.003803 0.000000 0.000000 0.000000
# 2 -0.006669 0.024609 -0.010384 0.000000 0.000000 0.000000
# 3 -0.003803 -0.010384 0.020107 0.000000 0.000000 0.000000
# 4 0.000000 0.000000 0.000000 0.036376 0.000000 0.000000
# 5 0.000000 0.000000 0.000000 0.000000 0.092583 0.000000
# 6 0.000000 0.000000 0.000000 0.000000 0.000000 0.049170
#
#
# Mechanical properties :
#
#
# Convention : Reuss Voigt Hill
#
# Bulk Modulus (GPa) = 56.70174 57.47143 57.08659
# Shear Modulus (GPa) = 17.53948 19.76582 18.65265
#
# Velocity S-wave (km/s) = 3.16316 3.35792 3.26199
# Velocity P-wave (km/s) = 6.75921 6.91515 6.83762
#
# Compressibility (1/GPa) = 0.01763614
#
# Stress axis : x y z
#
# Youngs Moduli (GPa) = 68.33722 40.63628 49.73288
#
# Poissons Ratio (x) = 0.27102 0.18913
# Poissons Ratio (y) = 0.45577 0.51644
# Poissons Ratio (z) = 0.25988 0.42198
#
# Static dielectric constant tensor:
#      x y z
#    x 3.284090 0.000000 0.000000 
#    y 0.000000 7.080970 0.000000 
#    z 0.000000 0.000000 3.183190 
# 
# 
# High freq. dielectric constant tensor:
#      x y z
#    x 1.668950 0.000000 0.000000 
#    y 0.000000 1.668260 0.000000 
#    z 0.000000 0.000000 1.669450 
# 
# From -- ./inp_files/13313.got.cif
#   From: 2010.03.12/outbox.cif.g09.slc.cpg/sg47_7_cif.got.tgz:13313.got - 2010.04.14 03:12:58.
