data_PCOD8194114
_publ_section_title
;
Structure prediction by ZEFSAII (Michael W. Deem and Ramdas Pophale) SiO2 
 PCOD8194114
Probable space group: P M M M
;
_chemical_formula_sum "Si O2"
_cell_formula_units_Z 64
_cell_length_a 31.258255
_cell_length_b 9.067409
_cell_length_c 14.124741
_cell_angle_alpha 90.000000
_cell_angle_beta 90.000000
_cell_angle_gamma 90.000000
_cell_volume 4003.394872
_symmetry_space_group_name_H-M "P M M M"
_symmetry_group_IT_number 47
_symmetry_cell_setting 'orthorhombic'
loop_
_space_group_symop_operation_xyz
x,y,z
-x,-y,z
x,-y,-z
-x,y,-z
-x,-y,-z
x,y,-z
-x,y,z
x,-y,z
loop_
_atom_site_type_symbol
_atom_site_label
_atom_site_fract_x
_atom_site_fract_y
_atom_site_fract_z
Si Si1 0.244847 0.672336 0.607362
Si Si2 0.213006 0.174981 0.217942
Si Si3 0.373858 0.327419 0.226349
Si Si4 0.046638 0.333110 0.112466
Si Si5 0.129450 0.826419 0.892522
Si Si6 0.547403 0.325100 0.894392
Si Si7 0.711087 0.670303 0.889962
Si Si8 0.665755 0.170428 0.607569
O O1 0.229582 0.701768 0.500000
O O2 0.246985 0.500000 0.630821
O O3 0.212097 0.752641 0.677819
O O4 0.291440 0.737953 0.625978
O O5 0.169806 0.229213 0.167286
O O6 0.253290 0.228304 0.157542
O O7 0.215003 0.000000 0.227271
O O8 0.377409 0.500000 0.250411
O O9 0.416601 0.264516 0.176565
O O10 0.334315 0.294641 0.157215
O O11 0.370169 0.236450 0.323699
O O12 0.053423 0.500000 0.146611
O O13 0.085760 0.237155 0.153395
O O14 0.000000 0.275630 0.148928
O O15 0.047000 0.323229 0.000000
O O16 0.125572 0.000000 0.889723
O O17 0.135835 0.769785 0.000000
O O18 0.500000 0.278127 0.858665
O O19 0.551201 0.500000 0.899014
O O20 0.555302 0.261651 0.000000
O O21 0.723828 0.500000 0.875142
O O22 0.707611 0.710963 0.000000
O O23 0.649707 0.189799 0.500000
O O24 0.674969 0.000000 0.631128
#
# Coordination Sequence:
#
# PCOD8194114 Si02
#       8
#     8   8   8   8   8   8   8   8
#     4  10  20  34  51  69  89 115 151 194 236 277
#     4  11  21  32  46  65  93 126 158 191 227 271
#     4  10  18  29  48  72  95 119 152 192 229 270
#     4   8  14  25  41  61  84 112 151 197 237 270
#     4   9  18  30  42  60  89 125 160 190 223 265
#     4   8  14  26  46  72  99 124 150 184 227 271
#     4  10  20  31  43  63  92 125 158 190 224 265
#     4  10  20  33  49  69  92 118 149 186 231 280
#
# _framework density 15.986433
#
# number of rings (size 3 to 8) (size 9 to 14) (size 15 to 20)
#    0.000    2.500    1.250    2.625    0.000    5.000 
#    0.000    2.500    0.000    1.875    0.000    3.500 
#    0.000    0.500    0.000    5.500    0.000    4.250 
#
# Total GULP energy -793456.912176 kJ/mol
# GULP energy per Si atom -12397.764253 kJ/mol
# Density = 1.595005 g / cm^3
# Si number density = 15.986433 Si / 1000 Ang^3
#
#
#
# Elastic Constant Matrix: (Units=GPa)
#
#
# Indices 1 2 3 4 5 6 
#
# 1 129.7269 44.5044 59.7829 0.0000 0.0000 0.0000
# 2 44.5044 56.8782 40.1914 0.0000 0.0000 0.0000
# 3 59.7829 40.1914 97.9890 0.0000 0.0000 0.0000
# 4 0.0000 0.0000 0.0000 22.9129 0.0000 0.0000
# 5 0.0000 0.0000 0.0000 0.0000 11.0269 0.0000
# 6 0.0000 0.0000 0.0000 0.0000 0.0000 10.4572
#
#
#
# Elastic Compliance Matrix: (Units=1/GPa)
#
#
# Indices 1 2 3 4 5 6 
#
# 1 0.011995 -0.005934 -0.004884 0.000000 0.000000 0.000000
# 2 -0.005934 0.027693 -0.007738 0.000000 0.000000 0.000000
# 3 -0.004884 -0.007738 0.016359 0.000000 0.000000 0.000000
# 4 0.000000 0.000000 0.000000 0.043643 0.000000 0.000000
# 5 0.000000 0.000000 0.000000 0.000000 0.090688 0.000000
# 6 0.000000 0.000000 0.000000 0.000000 0.000000 0.095627
#
#
# Mechanical properties :
#
#
# Convention : Reuss Voigt Hill
#
# Bulk Modulus (GPa) = 52.81590 63.72794 58.27192
# Shear Modulus (GPa) = 15.17777 18.22044 16.69910
#
# Velocity S-wave (km/s) = 3.08460 3.37967 3.23550
# Velocity P-wave (km/s) = 6.76728 7.42832 7.10549
#
# Compressibility (1/GPa) = 0.01893369
#
# Stress axis : x y z
#
# Youngs Moduli (GPa) = 83.36696 36.11078 61.12904
#
# Poissons Ratio (x) = 0.21429 0.29856
# Poissons Ratio (y) = 0.49473 0.47301
# Poissons Ratio (z) = 0.40718 0.27942
#
# Static dielectric constant tensor:
#      x y z
#    x 3.217720 0.000000 0.000000 
#    y 0.000000 2.948910 0.000000 
#    z 0.000000 0.000000 3.075020 
# 
# 
# High freq. dielectric constant tensor:
#      x y z
#    x 1.604590 0.000000 0.000000 
#    y 0.000000 1.606820 0.000000 
#    z 0.000000 0.000000 1.597100 
# 
# From -- ./inp_files/8245.got.cif
#   From: 2010.03.12/outbox.cif.g09.slc.cpg/sg47_5_cif.got.tgz:8245.got - 2010.04.14 03:12:58.
