data_PCOD8194924
_publ_section_title
;
Structure prediction by ZEFSAII (Michael W. Deem and Ramdas Pophale) SiO2 
 PCOD8194924
Probable space group: P M M M
;
_chemical_formula_sum "Si O2"
_cell_formula_units_Z 60
_cell_length_a 20.138726
_cell_length_b 12.299037
_cell_length_c 14.616894
_cell_angle_alpha 90.000000
_cell_angle_beta 90.000000
_cell_angle_gamma 90.000000
_cell_volume 3620.413692
_symmetry_space_group_name_H-M "P M M M"
_symmetry_group_IT_number 47
_symmetry_cell_setting 'orthorhombic'
loop_
_space_group_symop_operation_xyz
x,y,z
-x,-y,z
x,-y,-z
-x,y,-z
-x,-y,-z
x,y,-z
-x,y,z
x,-y,z
loop_
_atom_site_type_symbol
_atom_site_label
_atom_site_fract_x
_atom_site_fract_y
_atom_site_fract_z
Si Si1 0.427403 0.214307 0.396214
Si Si2 0.827457 0.693918 0.107825
Si Si3 0.923645 0.500000 0.108513
Si Si4 0.318665 0.373761 0.900251
Si Si5 0.289567 0.876004 0.601182
Si Si6 0.818300 0.870305 0.742164
Si Si7 0.574402 0.374587 0.237731
Si Si8 0.073307 0.128851 0.600336
O O1 0.424223 0.255075 0.500000
O O2 0.500000 0.159751 0.376080
O O3 0.367936 0.130587 0.375286
O O4 0.417138 0.320799 0.336023
O O5 0.884645 0.609248 0.140875
O O6 0.756823 0.640433 0.131993
O O7 0.829070 0.807963 0.162286
O O8 0.835059 0.719559 0.000000
O O9 0.000000 0.500000 0.145762
O O10 0.923615 0.500000 0.000000
O O11 0.335092 0.500000 0.907451
O O12 0.372198 0.320508 0.831439
O O13 0.328420 0.318871 0.000000
O O14 0.275201 0.822445 0.500000
O O15 0.246798 0.828346 0.685810
O O16 0.267874 0.000000 0.593487
O O17 0.878705 0.830386 0.679247
O O18 0.816936 0.000000 0.762217
O O19 0.500000 0.356962 0.198200
O O20 0.590461 0.500000 0.253505
O O21 0.097745 0.169183 0.500000
O O22 0.000000 0.175485 0.620510
O O23 0.071618 0.000000 0.600232
#
# Coordination Sequence:
#
# PCOD8194924 Si02
#       8
#     8   8   4   8   8   8   8   8
#     4   9  17  28  41  58  83 116 152 188 225 267
#     4  10  19  32  49  68  92 122 155 190 227 266
#     4   9  18  34  54  72  88 112 154 199 226 248
#     4   9  16  28  46  64  83 109 145 189 232 269
#     4   9  17  29  45  65  89 117 152 194 233 267
#     4  10  19  29  45  70  98 125 149 180 228 280
#     4   9  17  27  40  61  87 114 143 178 225 278
#     4   8  14  26  44  65  89 116 146 178 211 254
#
# _framework density 16.572692
#
# number of rings (size 3 to 8) (size 9 to 14) (size 15 to 20)
#    0.000    2.867    0.667    1.600    0.000    3.200 
#    0.000    4.000    0.000    0.000    0.000    5.133 
#    0.000    3.200    0.000   24.800    0.000    0.533 
#
# Total GULP energy -743293.728340 kJ/mol
# GULP energy per Si atom -12388.228806 kJ/mol
# Density = 1.653497 g / cm^3
# Si number density = 16.572692 Si / 1000 Ang^3
#
#
#
# Elastic Constant Matrix: (Units=GPa)
#
#
# Indices 1 2 3 4 5 6 
#
# 1 114.9489 27.6502 52.8687 0.0000 0.0000 0.0000
# 2 27.6502 44.7671 33.3119 0.0000 0.0000 0.0000
# 3 52.8687 33.3119 81.2697 0.0000 0.0000 0.0000
# 4 0.0000 0.0000 0.0000 19.4818 0.0000 0.0000
# 5 0.0000 0.0000 0.0000 0.0000 19.7245 0.0000
# 6 0.0000 0.0000 0.0000 0.0000 0.0000 17.0341
#
#
#
# Elastic Compliance Matrix: (Units=1/GPa)
#
#
# Indices 1 2 3 4 5 6 
#
# 1 0.012593 -0.002420 -0.007200 0.000000 0.000000 0.000000
# 2 -0.002420 0.032606 -0.011791 0.000000 0.000000 0.000000
# 3 -0.007200 -0.011791 0.021822 0.000000 0.000000 0.000000
# 4 0.000000 0.000000 0.000000 0.051330 0.000000 0.000000
# 5 0.000000 0.000000 0.000000 0.000000 0.050698 0.000000
# 6 0.000000 0.000000 0.000000 0.000000 0.000000 0.058706
#
#
# Mechanical properties :
#
#
# Convention : Reuss Voigt Hill
#
# Bulk Modulus (GPa) = 41.32440 52.07193 46.69816
# Shear Modulus (GPa) = 17.94403 19.72507 18.83455
#
# Velocity S-wave (km/s) = 3.29408 3.45369 3.37483
# Velocity P-wave (km/s) = 6.28151 6.88422 6.58976
#
# Compressibility (1/GPa) = 0.02419878
#
# Stress axis : x y z
#
# Youngs Moduli (GPa) = 79.40683 30.66892 45.82611
#
# Poissons Ratio (x) = 0.07423 0.32996
# Poissons Ratio (y) = 0.19219 0.54032
# Poissons Ratio (z) = 0.57175 0.36160
#
# Static dielectric constant tensor:
#      x y z
#    x 3.531040 0.000000 0.000000 
#    y 0.000000 2.696990 0.000000 
#    z 0.000000 0.000000 3.212340 
# 
# 
# High freq. dielectric constant tensor:
#      x y z
#    x 1.656200 0.000000 0.000000 
#    y 0.000000 1.588740 0.000000 
#    z 0.000000 0.000000 1.631590 
# 
# From -- ./inp_files/25338.got.cif
#   From: 2010.03.12/outbox.cif.g09.slc.cpg/sg47_13_cif.got.tgz:25338.got - 2010.04.14 03:12:58.
