data_PCOD8195794
_publ_section_title
;
Structure prediction by ZEFSAII (Michael W. Deem and Ramdas Pophale) SiO2 
 PCOD8195794
Probable space group: P M M M
;
_chemical_formula_sum "Si O2"
_cell_formula_units_Z 64
_cell_length_a 23.158186
_cell_length_b 17.631028
_cell_length_c 8.903935
_cell_angle_alpha 90.000000
_cell_angle_beta 90.000000
_cell_angle_gamma 90.000000
_cell_volume 3635.500040
_symmetry_space_group_name_H-M "P M M M"
_symmetry_group_IT_number 47
_symmetry_cell_setting 'orthorhombic'
loop_
_space_group_symop_operation_xyz
x,y,z
-x,-y,z
x,-y,-z
-x,y,-z
-x,-y,-z
x,y,-z
-x,y,z
x,-y,z
loop_
_atom_site_type_symbol
_atom_site_label
_atom_site_fract_x
_atom_site_fract_y
_atom_site_fract_z
Si Si1 0.150265 0.679645 0.666106
Si Si2 0.067694 0.786590 0.174166
Si Si3 0.239568 0.815328 0.663375
Si Si4 0.671211 0.701433 0.679726
Si Si5 0.431708 0.082822 0.667754
Si Si6 0.858830 0.086304 0.679946
Si Si7 0.433625 0.232964 0.175387
Si Si8 0.756626 0.411173 0.173343
O O1 0.131774 0.650718 0.500000
O O2 0.094492 0.710117 0.755193
O O3 0.194250 0.747900 0.647597
O O4 0.181809 0.612095 0.755644
O O5 0.090129 0.863609 0.251504
O O6 0.000000 0.782589 0.201294
O O7 0.084372 0.789594 0.000000
O O8 0.259524 0.844347 0.500000
O O9 0.295750 0.778056 0.742673
O O10 0.204258 0.884151 0.742619
O O11 0.673551 0.697527 0.500000
O O12 0.605431 0.705372 0.737881
O O13 0.702148 0.627322 0.744515
O O14 0.409216 0.102572 0.500000
O O15 0.500000 0.077852 0.666187
O O16 0.411957 0.148390 0.781334
O O17 0.407083 0.000000 0.718171
O O18 0.860334 0.094884 0.500000
O O19 0.867613 0.000000 0.731835
O O20 0.500000 0.245964 0.224782
O O21 0.425643 0.244633 0.000000
O O22 0.748328 0.500000 0.194031
O O23 0.756504 0.386546 0.000000
#
# Coordination Sequence:
#
# PCOD8195794 Si02
#       8
#     8   8   8   8   8   8   8   8
#     4   9  17  31  52  75  99 128 164 205 244 286
#     4  10  20  32  47  69  99 136 175 214 258 305
#     4   7  13  27  45  66  89 116 154 199 247 290
#     4  10  19  32  52  75 100 130 165 206 246 290
#     4   8  14  26  44  64  86 115 155 202 246 286
#     4   9  17  30  48  68  93 128 170 216 262 306
#     4  10  20  32  47  69  99 135 171 208 254 306
#     4  10  20  34  55  83 111 134 156 190 241 297
#
# _framework density 17.604179999999999
#
# number of rings (size 3 to 8) (size 9 to 14) (size 15 to 20)
#    0.000    2.875    0.000    3.750    0.000    3.500 
#    0.000    3.750    0.000    3.000    0.000    5.250 
#    0.000    0.000    0.000    0.000    0.000    0.000 
#
# Total GULP energy -792954.234181 kJ/mol
# GULP energy per Si atom -12389.909909 kJ/mol
# Density = 1.756411 g / cm^3
# Si number density = 17.604180 Si / 1000 Ang^3
#
#
#
# Elastic Constant Matrix: (Units=GPa)
#
#
# Indices 1 2 3 4 5 6 
#
# 1 88.0583 48.4212 46.6167 0.0000 0.0000 0.0000
# 2 48.4212 81.4756 46.9251 0.0000 0.0000 0.0000
# 3 46.6167 46.9251 92.6984 0.0000 0.0000 0.0000
# 4 0.0000 0.0000 0.0000 25.8811 0.0000 0.0000
# 5 0.0000 0.0000 0.0000 0.0000 25.0250 0.0000
# 6 0.0000 0.0000 0.0000 0.0000 0.0000 20.8754
#
#
#
# Elastic Compliance Matrix: (Units=1/GPa)
#
#
# Indices 1 2 3 4 5 6 
#
# 1 0.018539 -0.007973 -0.005287 0.000000 0.000000 0.000000
# 2 -0.007973 0.020753 -0.006496 0.000000 0.000000 0.000000
# 3 -0.005287 -0.006496 0.016735 0.000000 0.000000 0.000000
# 4 0.000000 0.000000 0.000000 0.038638 0.000000 0.000000
# 5 0.000000 0.000000 0.000000 0.000000 0.039960 0.000000
# 6 0.000000 0.000000 0.000000 0.000000 0.000000 0.047903
#
#
# Mechanical properties :
#
#
# Convention : Reuss Voigt Hill
#
# Bulk Modulus (GPa) = 60.55046 60.68426 60.61736
# Shear Modulus (GPa) = 21.97359 22.37426 22.17392
#
# Velocity S-wave (km/s) = 3.53682 3.56892 3.55291
# Velocity P-wave (km/s) = 7.15185 7.17839 7.16513
#
# Compressibility (1/GPa) = 0.01651515
#
# Stress axis : x y z
#
# Youngs Moduli (GPa) = 53.94011 48.18525 59.75531
#
# Poissons Ratio (x) = 0.38417 0.31593
# Poissons Ratio (y) = 0.43005 0.38818
# Poissons Ratio (z) = 0.28519 0.31302
#
# Static dielectric constant tensor:
#      x y z
#    x 3.295410 0.000000 0.000000 
#    y 0.000000 3.207510 0.000000 
#    z 0.000000 0.000000 3.279130 
# 
# 
# High freq. dielectric constant tensor:
#      x y z
#    x 1.667860 0.000000 0.000000 
#    y 0.000000 1.658870 0.000000 
#    z 0.000000 0.000000 1.675350 
# 
# From -- ./inp_files/12906.got.cif
#   From: 2010.03.12/outbox.cif.g09.slc.cpg/sg47_7_cif.got.tgz:12906.got - 2010.04.14 03:12:58.
