data_PCOD8195153
_publ_section_title
;
Structure prediction by ZEFSAII (Michael W. Deem and Ramdas Pophale) SiO2 
 PCOD8195153
Probable space group: P M M M
;
_chemical_formula_sum "Si O2"
_cell_formula_units_Z 60
_cell_length_a 20.977958
_cell_length_b 18.859443
_cell_length_c 8.983366
_cell_angle_alpha 90.000000
_cell_angle_beta 90.000000
_cell_angle_gamma 90.000000
_cell_volume 3554.112476
_symmetry_space_group_name_H-M "P M M M"
_symmetry_group_IT_number 47
_symmetry_cell_setting 'orthorhombic'
loop_
_space_group_symop_operation_xyz
x,y,z
-x,-y,z
x,-y,-z
-x,y,-z
-x,-y,-z
x,y,-z
-x,y,z
x,-y,z
loop_
_atom_site_type_symbol
_atom_site_label
_atom_site_fract_x
_atom_site_fract_y
_atom_site_fract_z
Si Si1 0.354766 0.419528 0.829354
Si Si2 0.221209 0.420618 0.324744
Si Si3 0.877073 0.855043 0.174496
Si Si4 0.000000 0.918409 0.676423
Si Si5 0.571474 0.697732 0.671966
Si Si6 0.239981 0.078914 0.670221
Si Si7 0.307932 0.217060 0.670494
Si Si8 0.808325 0.286571 0.826262
O O1 0.378544 0.500000 0.812173
O O2 0.292296 0.405587 0.731753
O O3 0.411465 0.370261 0.770893
O O4 0.338388 0.401545 0.000000
O O5 0.220341 0.411815 0.500000
O O6 0.198969 0.500000 0.277673
O O7 0.174364 0.361392 0.253286
O O8 0.939083 0.877245 0.263491
O O9 0.819013 0.905124 0.222373
O O10 0.860610 0.773191 0.214420
O O11 0.889093 0.864976 0.000000
O O12 0.000000 0.915069 0.500000
O O13 0.000000 0.000000 0.731859
O O14 0.576700 0.675322 0.500000
O O15 0.500000 0.722723 0.712141
O O16 0.619198 0.762930 0.708261
O O17 0.215739 0.085640 0.500000
O O18 0.298050 0.133210 0.700702
O O19 0.265510 0.000000 0.703890
O O20 0.290919 0.235991 0.500000
O O21 0.261427 0.261921 0.774636
O O22 0.806217 0.300452 0.000000
#
# Coordination Sequence:
#
# PCOD8195153 Si02
#       8
#     8   8   8   4   8   8   8   8
#     4  10  20  32  46  65  90 120 155 197 243 290
#     4  10  19  30  47  71  98 128 160 196 242 292
#     4  10  21  34  50  75 105 136 167 200 238 281
#     4  11  23  37  53  75 106 143 178 205 233 276
#     4  10  20  32  46  64  87 120 162 202 242 294
#     4   9  17  30  49  72  96 123 159 200 241 287
#     4   9  17  30  47  65  89 122 156 196 245 291
#     4  10  19  31  49  73  99 126 161 203 243 285
#
# _framework density 16.881853
#
# number of rings (size 3 to 8) (size 9 to 14) (size 15 to 20)
#    0.000    2.200    1.333    2.200    0.000    6.133 
#    0.000    1.333    0.000    0.400    0.000    3.267 
#    0.000    3.733    0.000    7.867    0.000    8.267 
#
# Total GULP energy -743923.156587 kJ/mol
# GULP energy per Si atom -12398.719276 kJ/mol
# Density = 1.684343 g / cm^3
# Si number density = 16.881853 Si / 1000 Ang^3
#
#
#
# Elastic Constant Matrix: (Units=GPa)
#
#
# Indices 1 2 3 4 5 6 
#
# 1 87.8886 61.0235 36.0554 0.0000 0.0000 0.0000
# 2 61.0235 147.0421 54.4538 0.0000 0.0000 0.0000
# 3 36.0554 54.4538 68.9517 0.0000 0.0000 0.0000
# 4 0.0000 0.0000 0.0000 25.6762 0.0000 0.0000
# 5 0.0000 0.0000 0.0000 0.0000 12.1766 0.0000
# 6 0.0000 0.0000 0.0000 0.0000 0.0000 22.8544
#
#
#
# Elastic Compliance Matrix: (Units=1/GPa)
#
#
# Indices 1 2 3 4 5 6 
#
# 1 0.016992 -0.005316 -0.004687 0.000000 0.000000 0.000000
# 2 -0.005316 0.011275 -0.006125 0.000000 0.000000 0.000000
# 3 -0.004687 -0.006125 0.021791 0.000000 0.000000 0.000000
# 4 0.000000 0.000000 0.000000 0.038947 0.000000 0.000000
# 5 0.000000 0.000000 0.000000 0.000000 0.082125 0.000000
# 6 0.000000 0.000000 0.000000 0.000000 0.000000 0.043755
#
#
# Mechanical properties :
#
#
# Convention : Reuss Voigt Hill
#
# Bulk Modulus (GPa) = 56.17202 67.43865 61.80533
# Shear Modulus (GPa) = 19.75713 22.29807 21.02760
#
# Velocity S-wave (km/s) = 3.42470 3.63827 3.53310
# Velocity P-wave (km/s) = 6.99885 7.59496 7.30299
#
# Compressibility (1/GPa) = 0.01780246
#
# Stress axis : x y z
#
# Youngs Moduli (GPa) = 58.85162 88.69119 45.89155
#
# Poissons Ratio (x) = 0.47149 0.21509
# Poissons Ratio (y) = 0.31286 0.28107
# Poissons Ratio (z) = 0.27583 0.54319
#
# Static dielectric constant tensor:
#      x y z
#    x 2.940980 0.000000 0.000000 
#    y 0.000000 3.487320 0.000000 
#    z 0.000000 0.000000 3.246250 
# 
# 
# High freq. dielectric constant tensor:
#      x y z
#    x 1.610430 0.000000 0.000000 
#    y 0.000000 1.659890 0.000000 
#    z 0.000000 0.000000 1.660570 
# 
# From -- ./inp_files/11578.got.cif
#   From: 2010.03.12/outbox.cif.g09.slc.cpg/sg47_6_cif.got.tgz:11578.got - 2010.04.14 03:12:58.
