data_PCOD8195761
_publ_section_title
;
Structure prediction by ZEFSAII (Michael W. Deem and Ramdas Pophale) SiO2 
 PCOD8195761
Probable space group: P M M M
;
_chemical_formula_sum "Si O2"
_cell_formula_units_Z 36
_cell_length_a 8.843859
_cell_length_b 9.629409
_cell_length_c 22.020896
_cell_angle_alpha 90.000000
_cell_angle_beta 90.000000
_cell_angle_gamma 90.000000
_cell_volume 1875.324507
_symmetry_space_group_name_H-M "P M M M"
_symmetry_group_IT_number 47
_symmetry_cell_setting 'orthorhombic'
loop_
_space_group_symop_operation_xyz
x,y,z
-x,-y,z
x,-y,-z
-x,y,-z
-x,-y,-z
x,y,-z
-x,y,z
x,-y,z
loop_
_atom_site_type_symbol
_atom_site_label
_atom_site_fract_x
_atom_site_fract_y
_atom_site_fract_z
Si Si1 0.820631 0.500000 0.066780
Si Si2 0.179472 0.000000 0.931371
Si Si3 0.320011 0.660443 0.500000
Si Si4 0.320250 0.159937 0.614133
Si Si5 0.679332 0.340487 0.271949
Si Si6 0.179043 0.253216 0.851716
O O1 0.761920 0.372636 0.104976
O O2 0.000000 0.500000 0.060362
O O3 0.746725 0.500000 0.000000
O O4 0.237200 0.875203 0.890416
O O5 0.000000 0.000000 0.937972
O O6 0.248440 0.000000 0.000000
O O7 0.258251 0.500000 0.500000
O O8 0.500000 0.653454 0.500000
O O9 0.260549 0.748373 0.442358
O O10 0.500000 0.153212 0.612803
O O11 0.262373 0.244004 0.673018
O O12 0.257477 0.000000 0.612857
O O13 0.500000 0.343308 0.270206
O O14 0.740112 0.500000 0.277841
O O15 0.740629 0.264340 0.212615
O O16 0.000000 0.254000 0.840529
#
# Coordination Sequence:
#
# PCOD8195761 Si02
#       6
#     4   4   4   8   8   8
#     4   9  16  28  49  73  93 118 157 202 244 287
#     4   9  18  32  51  75  99 122 155 204 254 295
#     4   9  15  25  43  67  96 127 162 205 246 282
#     4   9  17  28  44  67  95 129 166 202 241 288
#     4  10  20  33  48  69 100 134 165 199 244 293
#     4  10  19  32  51  74  98 125 161 203 246 293
#
# _framework density 19.196676
#
# number of rings (size 3 to 8) (size 9 to 14) (size 15 to 20)
#    0.000    2.556    1.111    1.667    1.556    6.667 
#    0.000    0.000    0.000    4.000    0.000    0.778 
#    0.000    4.444    0.000    0.000    0.000    0.000 
#
# Total GULP energy -446056.652313 kJ/mol
# GULP energy per Si atom -12390.462564 kJ/mol
# Density = 1.915298 g / cm^3
# Si number density = 19.196676 Si / 1000 Ang^3
#
#
#
# Elastic Constant Matrix: (Units=GPa)
#
#
# Indices 1 2 3 4 5 6 
#
# 1 4.6498 9.7644 12.5485 0.0000 0.0000 0.0000
# 2 9.7644 201.2041 110.4663 0.0000 0.0000 0.0000
# 3 12.5485 110.4663 214.0974 0.0000 0.0000 0.0000
# 4 0.0000 0.0000 0.0000 54.2383 0.0000 0.0000
# 5 0.0000 0.0000 0.0000 0.0000 53.4075 0.0000
# 6 0.0000 0.0000 0.0000 0.0000 0.0000 14.9725
#
#
#
# Elastic Compliance Matrix: (Units=1/GPa)
#
#
# Indices 1 2 3 4 5 6 
#
# 1 0.260465 -0.005942 -0.012200 0.000000 0.000000 0.000000
# 2 -0.005942 0.007070 -0.003300 0.000000 0.000000 0.000000
# 3 -0.012200 -0.003300 0.007088 0.000000 0.000000 0.000000
# 4 0.000000 0.000000 0.000000 0.018437 0.000000 0.000000
# 5 0.000000 0.000000 0.000000 0.000000 0.018724 0.000000
# 6 0.000000 0.000000 0.000000 0.000000 0.000000 0.066789
#
#
# Mechanical properties :
#
#
# Convention : Reuss Voigt Hill
#
# Bulk Modulus (GPa) = 4.31520 76.16775 40.24147
# Shear Modulus (GPa) = 10.02600 43.66847 26.84724
#
# Velocity S-wave (km/s) = 2.28782 4.77465 3.74376
# Velocity P-wave (km/s) = 3.03835 8.37616 6.30047
#
# Compressibility (1/GPa) = 0.23173923
#
# Stress axis : x y z
#
# Youngs Moduli (GPa) = 3.83929 141.44265 141.07730
#
# Poissons Ratio (x) = 0.84045 1.72119
# Poissons Ratio (y) = 0.02281 0.46550
# Poissons Ratio (z) = 0.04684 0.46670
#
# Static dielectric constant tensor:
#      x y z
#    x 2.789120 0.000000 0.000000 
#    y 0.000000 3.916000 0.000000 
#    z 0.000000 0.000000 3.764760 
# 
# 
# High freq. dielectric constant tensor:
#      x y z
#    x 1.670180 0.000000 0.000000 
#    y 0.000000 1.768890 0.000000 
#    z 0.000000 0.000000 1.767530 
# 
# From -- ./inp_files/30280.got.cif
#   From: 2010.03.12/outbox.cif.g09.slc.cpg/sg47_16_cif.got.tgz:30280.got - 2010.04.14 03:12:58.
