data_PCOD8195777
_publ_section_title
;
Structure prediction by ZEFSAII (Michael W. Deem and Ramdas Pophale) SiO2 
 PCOD8195777
Probable space group: P M M M
;
_chemical_formula_sum "Si O2"
_cell_formula_units_Z 36
_cell_length_a 12.006064
_cell_length_b 19.077431
_cell_length_c 7.500640
_cell_angle_alpha 90.000000
_cell_angle_beta 90.000000
_cell_angle_gamma 90.000000
_cell_volume 1717.983020
_symmetry_space_group_name_H-M "P M M M"
_symmetry_group_IT_number 47
_symmetry_cell_setting 'orthorhombic'
loop_
_space_group_symop_operation_xyz
x,y,z
-x,-y,z
x,-y,-z
-x,y,-z
-x,-y,-z
x,y,-z
-x,y,z
x,-y,z
loop_
_atom_site_type_symbol
_atom_site_label
_atom_site_fract_x
_atom_site_fract_y
_atom_site_fract_z
Si Si1 0.776309 0.851134 0.796412
Si Si2 0.500000 0.582606 0.306863
Si Si3 0.738793 0.421956 0.286801
Si Si4 0.000000 0.921967 0.211671
Si Si5 0.631690 0.081525 0.500000
Si Si6 0.874604 0.708961 0.288520
O O1 0.890317 0.883414 0.717026
O O2 0.675874 0.879545 0.676638
O O3 0.790749 0.767410 0.787607
O O4 0.752909 0.874456 0.000000
O O5 0.500000 0.500000 0.335921
O O6 0.500000 0.620457 0.500000
O O7 0.383285 0.601504 0.207986
O O8 0.730342 0.422579 0.500000
O O9 0.771996 0.500000 0.218556
O O10 0.830555 0.366496 0.220489
O O11 0.000000 0.000000 0.289415
O O12 0.000000 0.921205 0.000000
O O13 0.500000 0.089199 0.500000
O O14 0.667978 0.000000 0.500000
O O15 0.874059 0.712406 0.500000
O O16 0.000000 0.719695 0.213935
#
# Coordination Sequence:
#
# PCOD8195777 Si02
#       6
#     8   4   8   4   4   8
#     4  11  22  40  64  92 128 165 201 248 305 366
#     4   7  10  20  38  62  95 133 183 247 305 352
#     4   8  14  25  43  71 106 150 205 261 313 365
#     4   9  18  33  59  93 119 149 196 245 298 358
#     4  11  26  47  69  95 126 162 206 252 298 358
#     4  10  19  32  51  80 120 162 204 255 315 372
#
# _framework density 20.954805
#
# number of rings (size 3 to 8) (size 9 to 14) (size 15 to 20)
#    0.000    2.556    2.222    2.000    0.000    2.667 
#    2.000    4.444    0.000    0.667    0.000    1.556 
#    0.000    2.667    0.000    0.000    0.000    0.000 
#
# Total GULP energy -446142.198776 kJ/mol
# GULP energy per Si atom -12392.838855 kJ/mol
# Density = 2.090711 g / cm^3
# Si number density = 20.954805 Si / 1000 Ang^3
#
#
#
# Elastic Constant Matrix: (Units=GPa)
#
#
# Indices 1 2 3 4 5 6 
#
# 1 113.3807 58.4717 33.3605 0.0000 0.0000 0.0000
# 2 58.4717 141.2559 21.3857 0.0000 0.0000 0.0000
# 3 33.3605 21.3857 67.9928 0.0000 0.0000 0.0000
# 4 0.0000 0.0000 0.0000 6.7045 0.0000 0.0000
# 5 0.0000 0.0000 0.0000 0.0000 6.4211 0.0000
# 6 0.0000 0.0000 0.0000 0.0000 0.0000 36.5162
#
#
#
# Elastic Compliance Matrix: (Units=1/GPa)
#
#
# Indices 1 2 3 4 5 6 
#
# 1 0.012515 -0.004464 -0.004737 0.000000 0.000000 0.000000
# 2 -0.004464 0.009025 -0.000649 0.000000 0.000000 0.000000
# 3 -0.004737 -0.000649 0.017236 0.000000 0.000000 0.000000
# 4 0.000000 0.000000 0.000000 0.149153 0.000000 0.000000
# 5 0.000000 0.000000 0.000000 0.000000 0.155736 0.000000
# 6 0.000000 0.000000 0.000000 0.000000 0.000000 0.027385
#
#
# Mechanical properties :
#
#
# Convention : Reuss Voigt Hill
#
# Bulk Modulus (GPa) = 52.41565 61.00725 56.71145
# Shear Modulus (GPa) = 12.59103 23.88913 18.24008
#
# Velocity S-wave (km/s) = 2.45392 3.38010 2.95354
# Velocity P-wave (km/s) = 5.75299 6.66411 6.22524
#
# Compressibility (1/GPa) = 0.01907827
#
# Stress axis : x y z
#
# Youngs Moduli (GPa) = 79.90120 110.80086 58.01963
#
# Poissons Ratio (x) = 0.49456 0.27483
# Poissons Ratio (y) = 0.35664 0.03764
# Poissons Ratio (z) = 0.37847 0.07187
#
# Static dielectric constant tensor:
#      x y z
#    x 4.018560 0.000000 0.000000 
#    y 0.000000 3.867190 0.000000 
#    z 0.000000 0.000000 3.359640 
# 
# 
# High freq. dielectric constant tensor:
#      x y z
#    x 1.813150 0.000000 0.000000 
#    y 0.000000 1.815230 0.000000 
#    z 0.000000 0.000000 1.793820 
# 
# From -- ./inp_files/3976.got.cif
#   From: 2010.03.12/outbox.cif.g09.slc.cpg/sg47_2_cif.got.tgz:3976.got - 2010.04.14 03:12:58.
