data_PCOD8195033
_publ_section_title
;
Structure prediction by ZEFSAII (Michael W. Deem and Ramdas Pophale) SiO2 
 PCOD8195033
Probable space group: P M M M
;
_chemical_formula_sum "Si O2"
_cell_formula_units_Z 52
_cell_length_a 23.389124
_cell_length_b 14.310221
_cell_length_c 9.005144
_cell_angle_alpha 90.000000
_cell_angle_beta 90.000000
_cell_angle_gamma 90.000000
_cell_volume 3014.053516
_symmetry_space_group_name_H-M "P M M M"
_symmetry_group_IT_number 47
_symmetry_cell_setting 'orthorhombic'
loop_
_space_group_symop_operation_xyz
x,y,z
-x,-y,z
x,-y,-z
-x,y,-z
-x,-y,-z
x,y,-z
-x,y,z
x,-y,z
loop_
_atom_site_type_symbol
_atom_site_label
_atom_site_fract_x
_atom_site_fract_y
_atom_site_fract_z
Si Si1 0.211845 0.605845 0.827982
Si Si2 0.658048 0.398286 0.176560
Si Si3 0.936853 0.104664 0.676435
Si Si4 0.500000 0.893749 0.822515
Si Si5 0.830088 0.780045 0.676052
Si Si6 0.728933 0.108849 0.173381
Si Si7 0.387007 0.794250 0.176345
O O1 0.191001 0.500000 0.801319
O O2 0.276896 0.618390 0.771606
O O3 0.171526 0.673874 0.733582
O O4 0.207294 0.633397 0.000000
O O5 0.636154 0.500000 0.236043
O O6 0.619039 0.312866 0.236101
O O7 0.657427 0.400164 0.000000
O O8 0.935190 0.103866 0.500000
O O9 0.888607 0.174366 0.738563
O O10 0.000000 0.137107 0.730912
O O11 0.924100 0.000000 0.735612
O O12 0.555622 0.840519 0.758127
O O13 0.500000 0.000000 0.763789
O O14 0.500000 0.893171 0.000000
O O15 0.828361 0.780978 0.500000
O O16 0.776848 0.838245 0.735376
O O17 0.667181 0.144990 0.227604
O O18 0.732987 0.000000 0.209024
O O19 0.737674 0.130537 0.000000
O O20 0.390776 0.793785 0.000000
#
# Coordination Sequence:
#
# PCOD8195033 Si02
#       7
#     8   8   8   4   8   8   8
#     4   9  17  31  50  69  93 127 160 188 228 287
#     4   8  13  23  41  61  81 110 147 184 225 276
#     4   8  15  29  47  66  92 128 163 190 225 278
#     4   9  16  24  35  55  84 118 154 193 236 277
#     4  11  20  29  47  75 101 120 149 198 246 280
#     4  10  19  30  45  65  92 127 161 192 232 286
#     4   9  15  25  40  59  85 116 153 194 233 278
#
# _framework density 17.252514999999999
#
# number of rings (size 3 to 8) (size 9 to 14) (size 15 to 20)
#    0.000    2.846    1.538    2.769    0.000    3.077 
#    0.000    0.385    0.000    4.615    0.000    9.154 
#    0.000    1.846    0.000    3.385    0.000    3.385 
#
# Total GULP energy -644505.390428 kJ/mol
# GULP energy per Si atom -12394.334431 kJ/mol
# Density = 1.721325 g / cm^3
# Si number density = 17.252515 Si / 1000 Ang^3
#
#
#
# Elastic Constant Matrix: (Units=GPa)
#
#
# Indices 1 2 3 4 5 6 
#
# 1 132.1641 79.5107 24.3096 0.0000 0.0000 0.0000
# 2 79.5107 151.3563 26.2857 0.0000 0.0000 0.0000
# 3 24.3096 26.2857 24.5878 0.0000 0.0000 0.0000
# 4 0.0000 0.0000 0.0000 19.1822 0.0000 0.0000
# 5 0.0000 0.0000 0.0000 0.0000 56.8951 0.0000
# 6 0.0000 0.0000 0.0000 0.0000 0.0000 31.2839
#
#
#
# Elastic Compliance Matrix: (Units=1/GPa)
#
#
# Indices 1 2 3 4 5 6 
#
# 1 0.011780 -0.005115 -0.006178 0.000000 0.000000 0.000000
# 2 -0.005115 0.010335 -0.005991 0.000000 0.000000 0.000000
# 3 -0.006178 -0.005991 0.053183 0.000000 0.000000 0.000000
# 4 0.000000 0.000000 0.000000 0.052132 0.000000 0.000000
# 5 0.000000 0.000000 0.000000 0.000000 0.017576 0.000000
# 6 0.000000 0.000000 0.000000 0.000000 0.000000 0.031965
#
#
# Mechanical properties :
#
#
# Convention : Reuss Voigt Hill
#
# Bulk Modulus (GPa) = 24.55228 63.14666 43.84947
# Shear Modulus (GPa) = 22.21072 33.33905 27.77489
#
# Velocity S-wave (km/s) = 3.59191 4.40070 4.01671
# Velocity P-wave (km/s) = 5.60932 7.90584 6.85445
#
# Compressibility (1/GPa) = 0.04072942
#
# Stress axis : x y z
#
# Youngs Moduli (GPa) = 84.88804 96.76276 18.80290
#
# Poissons Ratio (x) = 0.49498 0.11617
# Poissons Ratio (y) = 0.43424 0.11264
# Poissons Ratio (z) = 0.52446 0.57967
#
# Static dielectric constant tensor:
#      x y z
#    x 3.361820 0.000000 0.000000 
#    y 0.000000 3.620040 0.000000 
#    z 0.000000 0.000000 2.694880 
# 
# 
# High freq. dielectric constant tensor:
#      x y z
#    x 1.653390 0.000000 0.000000 
#    y 0.000000 1.682280 0.000000 
#    z 0.000000 0.000000 1.608110 
# 
# From -- ./inp_files/10944.got.cif
#   From: 2010.03.12/outbox.cif.g09.slc.cpg/sg47_6_cif.got.tgz:10944.got - 2010.04.14 03:12:58.
