data_PCOD8195131
_publ_section_title
;
Structure prediction by ZEFSAII (Michael W. Deem and Ramdas Pophale) SiO2 
 PCOD8195131
Probable space group: P M M M
;
_chemical_formula_sum "Si O2"
_cell_formula_units_Z 52
_cell_length_a 26.375655
_cell_length_b 9.070228
_cell_length_c 13.671329
_cell_angle_alpha 90.000000
_cell_angle_beta 90.000000
_cell_angle_gamma 90.000000
_cell_volume 3270.635846
_symmetry_space_group_name_H-M "P M M M"
_symmetry_group_IT_number 47
_symmetry_cell_setting 'orthorhombic'
loop_
_space_group_symop_operation_xyz
x,y,z
-x,-y,z
x,-y,-z
-x,y,-z
-x,-y,-z
x,y,-z
-x,y,z
x,-y,z
loop_
_atom_site_type_symbol
_atom_site_label
_atom_site_fract_x
_atom_site_fract_y
_atom_site_fract_z
Si Si1 0.400657 0.327903 0.612705
Si Si2 0.295325 0.674398 0.298295
Si Si3 0.757627 0.673625 0.893107
Si Si4 0.058524 0.830223 0.111931
Si Si5 0.798492 0.170247 0.387162
Si Si6 0.855622 0.325825 0.776829
Si Si7 0.500000 0.833489 0.616340
O O1 0.390960 0.285404 0.500000
O O2 0.411061 0.500000 0.624234
O O3 0.351971 0.276407 0.674417
O O4 0.449527 0.245163 0.656693
O O5 0.287553 0.500000 0.313462
O O6 0.285053 0.721812 0.185526
O O7 0.255955 0.755197 0.368974
O O8 0.756699 0.500000 0.904480
O O9 0.812728 0.722957 0.854663
O O10 0.747344 0.746461 0.000000
O O11 0.090423 0.727909 0.184204
O O12 0.000000 0.805230 0.138384
O O13 0.073735 0.000000 0.127725
O O14 0.068843 0.783534 0.000000
O O15 0.813020 0.188065 0.500000
O O16 0.842902 0.249786 0.326348
O O17 0.795145 0.000000 0.355987
O O18 0.856669 0.500000 0.760725
O O19 0.500000 0.822119 0.500000
O O20 0.500000 0.000000 0.654215
#
# Coordination Sequence:
#
# PCOD8195131 Si02
#       7
#     8   8   8   8   8   8   4
#     4   9  16  26  40  58  83 113 142 174 214 260
#     4   9  17  28  44  66  89 116 148 180 217 261
#     4   8  14  25  41  63  90 115 140 173 213 254
#     4   9  18  32  49  70  97 126 152 181 222 270
#     4  10  20  32  46  65  90 120 152 185 223 268
#     4  10  19  30  47  69  92 120 153 188 224 263
#     4   9  17  27  39  57  80 107 140 176 215 259
#
# _framework density 15.899049
#
# number of rings (size 3 to 8) (size 9 to 14) (size 15 to 20)
#    0.000    2.846    0.000    3.462    0.000    4.615 
#    0.000    2.308    0.000    4.615    0.000    3.769 
#    0.000    4.308    0.000    0.000    0.000    0.000 
#
# Total GULP energy -644695.168852 kJ/mol
# GULP energy per Si atom -12397.984016 kJ/mol
# Density = 1.586286 g / cm^3
# Si number density = 15.899049 Si / 1000 Ang^3
#
#
#
# Elastic Constant Matrix: (Units=GPa)
#
#
# Indices 1 2 3 4 5 6 
#
# 1 116.1257 48.7047 54.1135 0.0000 0.0000 0.0000
# 2 48.7047 68.3474 39.0239 0.0000 0.0000 0.0000
# 3 54.1135 39.0239 91.9209 0.0000 0.0000 0.0000
# 4 0.0000 0.0000 0.0000 17.8554 0.0000 0.0000
# 5 0.0000 0.0000 0.0000 0.0000 24.0798 0.0000
# 6 0.0000 0.0000 0.0000 0.0000 0.0000 23.1390
#
#
#
# Elastic Compliance Matrix: (Units=1/GPa)
#
#
# Indices 1 2 3 4 5 6 
#
# 1 0.013989 -0.006952 -0.005284 0.000000 0.000000 0.000000
# 2 -0.006952 0.022767 -0.005573 0.000000 0.000000 0.000000
# 3 -0.005284 -0.005573 0.016356 0.000000 0.000000 0.000000
# 4 0.000000 0.000000 0.000000 0.056005 0.000000 0.000000
# 5 0.000000 0.000000 0.000000 0.000000 0.041529 0.000000
# 6 0.000000 0.000000 0.000000 0.000000 0.000000 0.043217
#
#
# Mechanical properties :
#
#
# Convention : Reuss Voigt Hill
#
# Bulk Modulus (GPa) = 57.16214 62.23093 59.69653
# Shear Modulus (GPa) = 21.24833 21.98496 21.61664
#
# Velocity S-wave (km/s) = 3.65972 3.72262 3.69130
# Velocity P-wave (km/s) = 7.34093 7.59628 7.46970
#
# Compressibility (1/GPa) = 0.01749410
#
# Stress axis : x y z
#
# Youngs Moduli (GPa) = 71.48238 43.92317 61.14103
#
# Poissons Ratio (x) = 0.30535 0.32308
# Poissons Ratio (y) = 0.49694 0.34073
# Poissons Ratio (z) = 0.37773 0.24478
#
# Static dielectric constant tensor:
#      x y z
#    x 3.004230 0.000000 0.000000 
#    y 0.000000 2.936170 0.000000 
#    z 0.000000 0.000000 3.062190 
# 
# 
# High freq. dielectric constant tensor:
#      x y z
#    x 1.603690 0.000000 0.000000 
#    y 0.000000 1.604580 0.000000 
#    z 0.000000 0.000000 1.591670 
# 
# From -- ./inp_files/25689.got.cif
#   From: 2010.03.12/outbox.cif.g09.slc.cpg/sg47_13_cif.got.tgz:25689.got - 2010.04.14 03:12:58.
