data_PCOD8195206
_publ_section_title
;
Structure prediction by ZEFSAII (Michael W. Deem and Ramdas Pophale) SiO2 
 PCOD8195206
Probable space group: P M M M
;
_chemical_formula_sum "Si O2"
_cell_formula_units_Z 52
_cell_length_a 22.478899
_cell_length_b 13.445421
_cell_length_c 9.340711
_cell_angle_alpha 90.000000
_cell_angle_beta 90.000000
_cell_angle_gamma 90.000000
_cell_volume 2823.120246
_symmetry_space_group_name_H-M "P M M M"
_symmetry_group_IT_number 47
_symmetry_cell_setting 'orthorhombic'
loop_
_space_group_symop_operation_xyz
x,y,z
-x,-y,z
x,-y,-z
-x,y,-z
-x,-y,-z
x,y,-z
-x,y,z
x,-y,z
loop_
_atom_site_type_symbol
_atom_site_label
_atom_site_fract_x
_atom_site_fract_y
_atom_site_fract_z
Si Si1 0.933243 0.000000 0.330006
Si Si2 0.863626 0.195511 0.670384
Si Si3 0.431756 0.285913 0.665572
Si Si4 0.665948 0.388932 0.163821
Si Si5 0.932818 0.610627 0.330007
Si Si6 0.378396 0.112399 0.835432
Si Si7 0.255361 0.208249 0.163800
O O1 0.901254 0.899505 0.275240
O O2 0.934396 0.000000 0.500000
O O3 0.000000 0.000000 0.267978
O O4 0.859760 0.197167 0.500000
O O5 0.892085 0.299140 0.729499
O O6 0.798070 0.181817 0.732003
O O7 0.414544 0.279028 0.500000
O O8 0.500000 0.316555 0.687213
O O9 0.391574 0.369912 0.738988
O O10 0.419830 0.179201 0.736191
O O11 0.688880 0.500000 0.189281
O O12 0.720671 0.317890 0.204172
O O13 0.646580 0.369268 0.000000
O O14 0.932913 0.615369 0.500000
O O15 0.910107 0.500000 0.280697
O O16 0.000000 0.626981 0.273449
O O17 0.308501 0.130739 0.807573
O O18 0.393783 0.000000 0.796314
O O19 0.393262 0.137340 0.000000
O O20 0.233227 0.203225 0.000000
#
# Coordination Sequence:
#
# PCOD8195206 Si02
#       7
#     4   8   8   8   8   8   8
#     4   9  18  32  49  71 101 135 170 211 254 299
#     4  10  19  30  48  74  99 127 167 208 250 304
#     4  10  21  35  51  77 111 139 165 205 261 318
#     4   9  19  37  58  76  98 135 180 217 250 297
#     4   8  14  26  45  68  93 122 159 204 249 292
#     4   9  19  36  56  74  95 132 179 219 254 299
#     4   9  19  34  51  73 101 130 162 205 256 303
#
# _framework density 18.419336999999999
#
# number of rings (size 3 to 8) (size 9 to 14) (size 15 to 20)
#    0.000    2.846    0.000    2.308    1.077    7.385 
#    0.000    3.077    0.000    2.308    0.000    1.077 
#    0.000    0.000    0.000    0.000    0.000    0.000 
#
# Total GULP energy -644663.004225 kJ/mol
# GULP energy per Si atom -12397.365466 kJ/mol
# Density = 1.837741 g / cm^3
# Si number density = 18.419337 Si / 1000 Ang^3
#
#
#
# Elastic Constant Matrix: (Units=GPa)
#
#
# Indices 1 2 3 4 5 6 
#
# 1 83.2167 25.9706 35.2330 0.0000 0.0000 0.0000
# 2 25.9706 103.8610 23.1316 0.0000 0.0000 0.0000
# 3 35.2330 23.1316 48.7034 0.0000 0.0000 0.0000
# 4 0.0000 0.0000 0.0000 5.7478 0.0000 0.0000
# 5 0.0000 0.0000 0.0000 0.0000 2.6824 0.0000
# 6 0.0000 0.0000 0.0000 0.0000 0.0000 13.3132
#
#
#
# Elastic Compliance Matrix: (Units=1/GPa)
#
#
# Indices 1 2 3 4 5 6 
#
# 1 0.017603 -0.001751 -0.011903 0.000000 0.000000 0.000000
# 2 -0.001751 0.010941 -0.003930 0.000000 0.000000 0.000000
# 3 -0.011903 -0.003930 0.031010 0.000000 0.000000 0.000000
# 4 0.000000 0.000000 0.000000 0.173978 0.000000 0.000000
# 5 0.000000 0.000000 0.000000 0.000000 0.372801 0.000000
# 6 0.000000 0.000000 0.000000 0.000000 0.000000 0.075114
#
#
# Mechanical properties :
#
#
# Convention : Reuss Voigt Hill
#
# Bulk Modulus (GPa) = 41.00575 44.93907 42.97241
# Shear Modulus (GPa) = 6.89901 14.44507 10.67204
#
# Velocity S-wave (km/s) = 1.93744 2.80346 2.40967
# Velocity P-wave (km/s) = 5.22643 5.91015 5.57877
#
# Compressibility (1/GPa) = 0.02438682
#
# Stress axis : x y z
#
# Youngs Moduli (GPa) = 56.80986 91.39672 32.24805
#
# Poissons Ratio (x) = 0.16000 0.38384
# Poissons Ratio (y) = 0.09945 0.12674
# Poissons Ratio (z) = 0.67618 0.35920
#
# Static dielectric constant tensor:
#      x y z
#    x 3.248890 0.000000 0.000000 
#    y 0.000000 3.730470 0.000000 
#    z 0.000000 0.000000 3.097100 
# 
# 
# High freq. dielectric constant tensor:
#      x y z
#    x 1.706530 0.000000 0.000000 
#    y 0.000000 1.727820 0.000000 
#    z 0.000000 0.000000 1.682860 
# 
# From -- ./inp_files/11031.got.cif
#   From: 2010.03.12/outbox.cif.g09.slc.cpg/sg47_6_cif.got.tgz:11031.got - 2010.04.14 03:12:58.
