data_PCOD8195948
_publ_section_title
;
Structure prediction by ZEFSAII (Michael W. Deem and Ramdas Pophale) SiO2 
 PCOD8195948
Probable space group: P M M M
;
_chemical_formula_sum "Si O2"
_cell_formula_units_Z 64
_cell_length_a 24.693375
_cell_length_b 8.938472
_cell_length_c 14.897935
_cell_angle_alpha 90.000000
_cell_angle_beta 90.000000
_cell_angle_gamma 90.000000
_cell_volume 3288.287722
_symmetry_space_group_name_H-M "P M M M"
_symmetry_group_IT_number 47
_symmetry_cell_setting 'orthorhombic'
loop_
_space_group_symop_operation_xyz
x,y,z
-x,-y,z
x,-y,-z
-x,y,-z
-x,-y,-z
x,y,-z
-x,y,z
x,-y,z
loop_
_atom_site_type_symbol
_atom_site_label
_atom_site_fract_x
_atom_site_fract_y
_atom_site_fract_z
Si Si1 0.373688 0.325955 0.257486
Si Si2 0.837970 0.821870 0.398132
Si Si3 0.262712 0.822147 0.278032
Si Si4 0.940853 0.822327 0.711987
Si Si5 0.213668 0.822913 0.903261
Si Si6 0.561668 0.824605 0.103373
Si Si7 0.908050 0.178033 0.902986
Si Si8 0.563745 0.833937 0.599071
O O1 0.364171 0.500000 0.244552
O O2 0.319999 0.251132 0.299196
O O3 0.393809 0.259831 0.162779
O O4 0.418593 0.293646 0.332203
O O5 0.836844 0.760544 0.500000
O O6 0.783758 0.767040 0.347120
O O7 0.891874 0.757002 0.348572
O O8 0.840142 0.000000 0.397436
O O9 0.248771 0.760277 0.178508
O O10 0.267998 0.000000 0.282145
O O11 0.938940 0.760932 0.814959
O O12 0.000000 0.775910 0.672525
O O13 0.934911 0.000000 0.713514
O O14 0.152991 0.760769 0.895685
O O15 0.211272 0.000000 0.894809
O O16 0.238998 0.775533 0.000000
O O17 0.500000 0.777831 0.129268
O O18 0.569120 0.000000 0.119505
O O19 0.572930 0.783318 0.000000
O O20 0.908749 0.000000 0.901744
O O21 0.932802 0.231791 0.000000
O O22 0.587805 0.801018 0.500000
O O23 0.500000 0.829973 0.594120
O O24 0.582770 0.000000 0.631184
#
# Coordination Sequence:
#
# PCOD8195948 Si02
#       8
#     8   8   8   8   8   8   8   8
#     4  12  25  36  51  81 118 149 177 218 276 335
#     4   9  17  29  44  62  85 118 165 216 262 313
#     4  10  19  33  51  68  91 130 179 223 258 303
#     4   9  15  22  34  56  89 125 157 196 253 320
#     4   8  13  23  42  64  83 110 156 210 252 286
#     4   9  19  38  63  87 112 148 194 235 266 305
#     4   8  12  19  32  52  81 116 152 190 236 294
#     4   9  19  38  63  86 107 136 177 222 265 314
#
# _framework density 19.463018000000002
#
# number of rings (size 3 to 8) (size 9 to 14) (size 15 to 20)
#    0.000    2.750    1.250    3.000    0.000    4.000 
#    0.000    6.250    0.000    0.000    0.000    0.000 
#    0.000    0.500    0.000    1.125    0.000    5.250 
#
# Total GULP energy -792980.443905 kJ/mol
# GULP energy per Si atom -12390.319436 kJ/mol
# Density = 1.941872 g / cm^3
# Si number density = 19.463018 Si / 1000 Ang^3
#
#
#
# Elastic Constant Matrix: (Units=GPa)
#
#
# Indices 1 2 3 4 5 6 
#
# 1 101.8226 27.8629 57.8102 0.0000 0.0000 0.0000
# 2 27.8629 36.4768 26.8192 0.0000 0.0000 0.0000
# 3 57.8102 26.8192 141.0836 0.0000 0.0000 0.0000
# 4 0.0000 0.0000 0.0000 4.3010 0.0000 0.0000
# 5 0.0000 0.0000 0.0000 0.0000 15.3399 0.0000
# 6 0.0000 0.0000 0.0000 0.0000 0.0000 1.1595
#
#
#
# Elastic Compliance Matrix: (Units=1/GPa)
#
#
# Indices 1 2 3 4 5 6 
#
# 1 0.014480 -0.007786 -0.004453 0.000000 0.000000 0.000000
# 2 -0.007786 0.036056 -0.003663 0.000000 0.000000 0.000000
# 3 -0.004453 -0.003663 0.009609 0.000000 0.000000 0.000000
# 4 0.000000 0.000000 0.000000 0.232505 0.000000 0.000000
# 5 0.000000 0.000000 0.000000 0.000000 0.065189 0.000000
# 6 0.000000 0.000000 0.000000 0.000000 0.000000 0.862474
#
#
# Mechanical properties :
#
#
# Convention : Reuss Voigt Hill
#
# Bulk Modulus (GPa) = 35.28721 56.04085 45.66403
# Shear Modulus (GPa) = 3.96333 15.28612 9.62472
#
# Velocity S-wave (km/s) = 1.42855 2.80553 2.22618
# Velocity P-wave (km/s) = 4.57064 6.27301 5.48823
#
# Compressibility (1/GPa) = 0.02833888
#
# Stress axis : x y z
#
# Youngs Moduli (GPa) = 69.06088 27.73473 104.06791
#
# Poissons Ratio (x) = 0.21595 0.46343
# Poissons Ratio (y) = 0.53774 0.38125
# Poissons Ratio (z) = 0.30754 0.10161
#
# Static dielectric constant tensor:
#      x y z
#    x 3.576480 0.000000 0.000000 
#    y 0.000000 2.853390 0.000000 
#    z 0.000000 0.000000 3.949280 
# 
# 
# High freq. dielectric constant tensor:
#      x y z
#    x 1.756910 0.000000 0.000000 
#    y 0.000000 1.677480 0.000000 
#    z 0.000000 0.000000 1.772610 
# 
# From -- ./inp_files/25532.got.cif
#   From: 2010.03.12/outbox.cif.g09.slc.cpg/sg47_13_cif.got.tgz:25532.got - 2010.04.14 03:12:58.
