data_PCOD8195405
_publ_section_title
;
Structure prediction by ZEFSAII (Michael W. Deem and Ramdas Pophale) SiO2 
 PCOD8195405
Probable space group: P M M M
;
_chemical_formula_sum "Si O2"
_cell_formula_units_Z 52
_cell_length_a 9.721293
_cell_length_b 14.227800
_cell_length_c 23.245125
_cell_angle_alpha 90.000000
_cell_angle_beta 90.000000
_cell_angle_gamma 90.000000
_cell_volume 3215.093968
_symmetry_space_group_name_H-M "P M M M"
_symmetry_group_IT_number 47
_symmetry_cell_setting 'orthorhombic'
loop_
_space_group_symop_operation_xyz
x,y,z
-x,-y,z
x,-y,-z
-x,y,-z
-x,-y,-z
x,y,-z
-x,y,z
x,-y,z
loop_
_atom_site_type_symbol
_atom_site_label
_atom_site_fract_x
_atom_site_fract_y
_atom_site_fract_z
Si Si1 0.658465 0.390348 0.339805
Si Si2 0.842887 0.895765 0.378383
Si Si3 0.837548 0.602471 0.000000
Si Si4 0.658283 0.703872 0.779297
Si Si5 0.840927 0.294272 0.565208
Si Si6 0.842125 0.611768 0.875675
Si Si7 0.343228 0.895872 0.269735
O O1 0.500000 0.367291 0.353858
O O2 0.682744 0.500000 0.329933
O O3 0.706002 0.337972 0.281870
O O4 0.749150 0.356763 0.393075
O O5 0.813361 0.817210 0.426391
O O6 0.750531 0.872559 0.323788
O O7 0.000000 0.890927 0.357315
O O8 0.809258 0.000000 0.403409
O O9 0.797594 0.652029 0.060680
O O10 0.767167 0.500000 0.000000
O O11 0.000000 0.588391 0.000000
O O12 0.500000 0.677334 0.791084
O O13 0.747931 0.661662 0.829623
O O14 0.681750 0.816762 0.778788
O O15 0.800878 0.319681 0.500000
O O16 0.000000 0.318188 0.577541
O O17 0.820648 0.500000 0.873425
O O18 0.000000 0.637386 0.862241
O O19 0.500000 0.889752 0.291699
O O20 0.310855 0.000000 0.244366
#
# Coordination Sequence:
#
# PCOD8195405 Si02
#       7
#     8   8   4   8   8   8   8
#     4  10  21  36  51  67  90 121 155 192 235 279
#     4   9  17  30  49  71  93 116 143 181 231 283
#     4   7  12  26  45  65  94 129 162 194 225 261
#     4  10  19  31  48  71  98 123 150 191 236 275
#     4  10  21  35  50  69  92 118 151 191 233 279
#     4   9  17  29  47  71  98 130 164 193 224 267
#     4   9  17  30  49  70  92 120 151 184 228 279
#
# _framework density 16.173711000000001
#
# number of rings (size 3 to 8) (size 9 to 14) (size 15 to 20)
#    0.000    2.692    1.538    1.385    0.000    3.385 
#    0.000    3.462    0.000    1.385    0.000    3.769 
#    0.000    4.308    0.000    0.000    0.000    0.000 
#
# Total GULP energy -644456.529159 kJ/mol
# GULP energy per Si atom -12393.394792 kJ/mol
# Density = 1.613690 g / cm^3
# Si number density = 16.173711 Si / 1000 Ang^3
#
#
#
# Elastic Constant Matrix: (Units=GPa)
#
#
# Indices 1 2 3 4 5 6 
#
# 1 61.4799 37.4992 60.6292 0.0000 0.0000 0.0000
# 2 37.4992 79.8039 52.6894 0.0000 0.0000 0.0000
# 3 60.6292 52.6894 126.4263 0.0000 0.0000 0.0000
# 4 0.0000 0.0000 0.0000 15.2655 0.0000 0.0000
# 5 0.0000 0.0000 0.0000 0.0000 3503.6505 0.0000
# 6 0.0000 0.0000 0.0000 0.0000 0.0000 23.9309
#
#
#
# Elastic Compliance Matrix: (Units=1/GPa)
#
#
# Indices 1 2 3 4 5 6 
#
# 1 0.033537 -0.007091 -0.013128 0.000000 0.000000 0.000000
# 2 -0.007091 0.018787 -0.004429 0.000000 0.000000 0.000000
# 3 -0.013128 -0.004429 0.016051 0.000000 0.000000 0.000000
# 4 0.000000 0.000000 0.000000 0.065507 0.000000 0.000000
# 5 0.000000 0.000000 0.000000 0.000000 0.000285 0.000000
# 6 0.000000 0.000000 0.000000 0.000000 0.000000 0.041787
#
#
# Mechanical properties :
#
#
# Convention : Reuss Voigt Hill
#
# Bulk Modulus (GPa) = 52.41336 63.26062 57.83699
# Shear Modulus (GPa) = 21.58803 716.36219 368.97511
#
# Velocity S-wave (km/s) = 3.65740 21.06844 15.12045
# Velocity P-wave (km/s) = 7.09312 25.12045 18.45737
#
# Compressibility (1/GPa) = 0.01907911
#
# Stress axis : x y z
#
# Youngs Moduli (GPa) = 29.81809 53.22828 62.30137
#
# Poissons Ratio (x) = 0.37746 0.81786
# Poissons Ratio (y) = 0.21145 0.27593
# Poissons Ratio (z) = 0.39144 0.23574
#
# Static dielectric constant tensor:
#      x y z
#    x 3.030690 0.000000 0.000000 
#    y 0.000000 3.183560 0.000000 
#    z 0.000000 0.000000 3.030680 
# 
# 
# High freq. dielectric constant tensor:
#      x y z
#    x 1.617790 0.000000 0.000000 
#    y 0.000000 1.619150 0.000000 
#    z 0.000000 0.000000 1.603320 
# 
# From -- ./inp_files/6969.got.cif
#   From: 2010.03.12/outbox.cif.g09.slc.cpg/sg47_4_cif.got.tgz:6969.got - 2010.04.14 03:12:58.
