data_PCOD8195682
_publ_section_title
;
Structure prediction by ZEFSAII (Michael W. Deem and Ramdas Pophale) SiO2 
 PCOD8195682
Probable space group: P M M M
;
_chemical_formula_sum "Si O2"
_cell_formula_units_Z 40
_cell_length_a 13.184927
_cell_length_b 7.832771
_cell_length_c 19.325932
_cell_angle_alpha 90.000000
_cell_angle_beta 90.000000
_cell_angle_gamma 90.000000
_cell_volume 1995.876232
_symmetry_space_group_name_H-M "P M M M"
_symmetry_group_IT_number 47
_symmetry_cell_setting 'orthorhombic'
loop_
_space_group_symop_operation_xyz
x,y,z
-x,-y,z
x,-y,-z
-x,y,-z
-x,-y,-z
x,y,-z
-x,y,z
x,-y,z
loop_
_atom_site_type_symbol
_atom_site_label
_atom_site_fract_x
_atom_site_fract_y
_atom_site_fract_z
Si Si1 0.500000 0.703628 0.078162
Si Si2 0.248671 0.190553 0.578918
Si Si3 0.304911 0.703026 0.159496
Si Si4 0.111617 0.500000 0.581909
Si Si5 0.887636 0.296982 0.078124
Si Si6 0.615818 0.299799 0.304878
O O1 0.500000 0.500000 0.080848
O O2 0.399548 0.775639 0.115671
O O3 0.500000 0.771576 0.000000
O O4 0.280611 0.232902 0.500000
O O5 0.167813 0.328413 0.607102
O O6 0.347930 0.201225 0.626686
O O7 0.201729 0.000000 0.583448
O O8 0.305725 0.500000 0.154452
O O9 0.199152 0.777529 0.129050
O O10 0.317133 0.760086 0.239213
O O11 0.102921 0.500000 0.500000
O O12 0.000000 0.500000 0.615723
O O13 0.884814 0.500000 0.079764
O O14 0.000000 0.233397 0.101594
O O15 0.865385 0.233738 0.000000
O O16 0.500000 0.250393 0.289836
O O17 0.627418 0.500000 0.318266
#
# Coordination Sequence:
#
# PCOD8195682 Si02
#       6
#     4   8   8   4   8   8
#     4   9  14  20  34  58  86 121 170 227 276 326
#     4  10  21  37  58  85 114 146 189 235 279 337
#     4   9  15  24  37  58  90 131 176 223 277 338
#     4   9  18  36  61  87 115 145 180 227 284 335
#     4   8  13  21  34  54  85 127 170 215 272 332
#     4  10  19  32  50  71 104 148 187 233 289 344
#
# _framework density 20.041322000000001
#
# number of rings (size 3 to 8) (size 9 to 14) (size 15 to 20)
#    0.000    2.800    2.000    1.200    0.000    3.600 
#    0.000    5.000    0.000    0.000    0.000    0.000 
#    0.000    4.000    0.000    2.200    0.000    2.000 
#
# Total GULP energy -495815.862386 kJ/mol
# GULP energy per Si atom -12395.396560 kJ/mol
# Density = 1.999571 g / cm^3
# Si number density = 20.041322 Si / 1000 Ang^3
#
#
#
# Elastic Constant Matrix: (Units=GPa)
#
#
# Indices 1 2 3 4 5 6 
#
# 1 162.2452 29.4762 80.6307 0.0000 0.0000 0.0000
# 2 29.4762 60.4479 23.9350 0.0000 0.0000 0.0000
# 3 80.6307 23.9350 122.4897 0.0000 0.0000 0.0000
# 4 0.0000 0.0000 0.0000 1.1311 0.0000 0.0000
# 5 0.0000 0.0000 0.0000 0.0000 32.7772 0.0000
# 6 0.0000 0.0000 0.0000 0.0000 0.0000 2.7731
#
#
#
# Elastic Compliance Matrix: (Units=1/GPa)
#
#
# Indices 1 2 3 4 5 6 
#
# 1 0.009452 -0.002325 -0.005768 0.000000 0.000000 0.000000
# 2 -0.002325 0.018503 -0.002085 0.000000 0.000000 0.000000
# 3 -0.005768 -0.002085 0.012368 0.000000 0.000000 0.000000
# 4 0.000000 0.000000 0.000000 0.884058 0.000000 0.000000
# 5 0.000000 0.000000 0.000000 0.000000 0.030509 0.000000
# 6 0.000000 0.000000 0.000000 0.000000 0.000000 0.360606
#
#
# Mechanical properties :
#
#
# Convention : Reuss Voigt Hill
#
# Bulk Modulus (GPa) = 50.08232 68.14075 59.11153
# Shear Modulus (GPa) = 3.72438 21.41234 12.56836
#
# Velocity S-wave (km/s) = 1.36469 3.27220 2.50696
# Velocity P-wave (km/s) = 5.24661 6.95344 6.15943
#
# Compressibility (1/GPa) = 0.01996713
#
# Stress axis : x y z
#
# Youngs Moduli (GPa) = 105.79330 54.04643 80.85356
#
# Poissons Ratio (x) = 0.12568 0.46635
# Poissons Ratio (y) = 0.24602 0.16856
# Poissons Ratio (z) = 0.61019 0.11267
#
# Static dielectric constant tensor:
#      x y z
#    x 3.908540 0.000000 0.000000 
#    y 0.000000 3.205610 0.000000 
#    z 0.000000 0.000000 3.603020 
# 
# 
# High freq. dielectric constant tensor:
#      x y z
#    x 1.777910 0.000000 0.000000 
#    y 0.000000 1.744040 0.000000 
#    z 0.000000 0.000000 1.772800 
# 
# From -- ./inp_files/30353.got.cif
#   From: 2010.03.12/outbox.cif.g09.slc.cpg/sg47_16_cif.got.tgz:30353.got - 2010.04.14 03:12:58.
