data_PCOD8195692
_publ_section_title
;
Structure prediction by ZEFSAII (Michael W. Deem and Ramdas Pophale) SiO2 
 PCOD8195692
Probable space group: P M M M
;
_chemical_formula_sum "Si O2"
_cell_formula_units_Z 56
_cell_length_a 15.137364
_cell_length_b 19.972207
_cell_length_c 9.164178
_cell_angle_alpha 90.000000
_cell_angle_beta 90.000000
_cell_angle_gamma 90.000000
_cell_volume 2770.574476
_symmetry_space_group_name_H-M "P M M M"
_symmetry_group_IT_number 47
_symmetry_cell_setting 'orthorhombic'
loop_
_space_group_symop_operation_xyz
x,y,z
-x,-y,z
x,-y,-z
-x,y,-z
-x,-y,-z
x,y,-z
-x,y,z
x,-y,z
loop_
_atom_site_type_symbol
_atom_site_label
_atom_site_fract_x
_atom_site_fract_y
_atom_site_fract_z
Si Si1 0.098990 0.342150 0.169842
Si Si2 0.401089 0.876266 0.841148
Si Si3 0.159639 0.804202 0.169208
Si Si4 0.393974 0.000000 0.663126
Si Si5 0.897892 0.927067 0.340226
Si Si6 0.273515 0.620224 0.671651
Si Si7 0.329337 0.766495 0.329628
Si Si8 0.601872 0.500000 0.673361
O O1 0.103114 0.262699 0.202103
O O2 0.176381 0.382717 0.254144
O O3 0.000000 0.366028 0.218055
O O4 0.113611 0.357069 0.000000
O O5 0.500000 0.899994 0.867951
O O6 0.406157 0.804505 0.758056
O O7 0.355075 0.934075 0.744168
O O8 0.353711 0.869983 0.000000
O O9 0.110984 0.871891 0.213205
O O10 0.243438 0.804848 0.274103
O O11 0.186249 0.805968 0.000000
O O12 0.500000 0.000000 0.657723
O O13 0.355489 0.000000 0.500000
O O14 0.859855 0.904138 0.500000
O O15 0.000000 0.938550 0.359506
O O16 0.855883 0.000000 0.296239
O O17 0.256192 0.613549 0.500000
O O18 0.323646 0.688630 0.712414
O O19 0.341210 0.563592 0.728624
O O20 0.344410 0.776080 0.500000
O O21 0.500000 0.500000 0.735021
O O22 0.595837 0.500000 0.500000
#
# Coordination Sequence:
#
# PCOD8195692 Si02
#       8
#     8   8   8   4   8   8   8   4
#     4   9  18  33  54  80 111 148 185 224 278 338
#     4  10  20  34  52  74 101 134 173 219 273 331
#     4  10  19  32  50  72 100 133 175 224 272 325
#     4   9  17  31  51  73  97 127 166 215 270 329
#     4   9  18  32  48  67  95 131 170 215 267 320
#     4   9  19  35  57  85 114 145 185 233 278 327
#     4  10  20  34  52  76 105 136 174 220 270 323
#     4   9  18  36  62  89 118 152 187 225 276 333
#
# _framework density 20.212413000000002
#
# number of rings (size 3 to 8) (size 9 to 14) (size 15 to 20)
#    0.000    2.571    0.000    2.357    0.000    4.857 
#    1.286    2.857    0.000    3.000    0.000    0.000 
#    0.000    0.000    0.000    0.000    0.000    0.000 
#
# Total GULP energy -693782.439589 kJ/mol
# GULP energy per Si atom -12388.972136 kJ/mol
# Density = 2.016641 g / cm^3
# Si number density = 20.212413 Si / 1000 Ang^3
#
#
#
# Elastic Constant Matrix: (Units=GPa)
#
#
# Indices 1 2 3 4 5 6 
#
# 1 87.1898 52.7999 31.1632 0.0000 0.0000 0.0000
# 2 52.7999 124.8622 54.8752 0.0000 0.0000 0.0000
# 3 31.1632 54.8752 93.9908 0.0000 0.0000 0.0000
# 4 0.0000 0.0000 0.0000 21.6967 0.0000 0.0000
# 5 0.0000 0.0000 0.0000 0.0000 23.4761 0.0000
# 6 0.0000 0.0000 0.0000 0.0000 0.0000 26.8533
#
#
#
# Elastic Compliance Matrix: (Units=1/GPa)
#
#
# Indices 1 2 3 4 5 6 
#
# 1 0.015636 -0.005829 -0.001781 0.000000 0.000000 0.000000
# 2 -0.005829 0.012946 -0.005626 0.000000 0.000000 0.000000
# 3 -0.001781 -0.005626 0.014514 0.000000 0.000000 0.000000
# 4 0.000000 0.000000 0.000000 0.046090 0.000000 0.000000
# 5 0.000000 0.000000 0.000000 0.000000 0.042597 0.000000
# 6 0.000000 0.000000 0.000000 0.000000 0.000000 0.037239
#
#
# Mechanical properties :
#
#
# Convention : Reuss Voigt Hill
#
# Bulk Modulus (GPa) = 60.15144 64.85773 62.50459
# Shear Modulus (GPa) = 24.87125 25.55217 25.21171
#
# Velocity S-wave (km/s) = 3.51164 3.55939 3.53560
# Velocity P-wave (km/s) = 6.80195 7.00358 6.90350
#
# Compressibility (1/GPa) = 0.01662470
#
# Stress axis : x y z
#
# Youngs Moduli (GPa) = 63.95614 77.24262 68.89745
#
# Poissons Ratio (x) = 0.45026 0.12270
# Poissons Ratio (y) = 0.37281 0.38760
# Poissons Ratio (z) = 0.11390 0.43455
#
# Static dielectric constant tensor:
#      x y z
#    x 3.689040 0.000000 0.000000 
#    y 0.000000 3.742850 0.000000 
#    z 0.000000 0.000000 3.700530 
# 
# 
# High freq. dielectric constant tensor:
#      x y z
#    x 1.776550 0.000000 0.000000 
#    y 0.000000 1.781160 0.000000 
#    z 0.000000 0.000000 1.781990 
# 
# From -- ./inp_files/7458.got.cif
#   From: 2010.03.12/outbox.cif.g09.slc.cpg/sg47_4_cif.got.tgz:7458.got - 2010.04.14 03:12:58.
