data_PCOD8195734
_publ_section_title
;
Structure prediction by ZEFSAII (Michael W. Deem and Ramdas Pophale) SiO2 
 PCOD8195734
Probable space group: P M M M
;
_chemical_formula_sum "Si O2"
_cell_formula_units_Z 56
_cell_length_a 19.436338
_cell_length_b 16.028961
_cell_length_c 9.065036
_cell_angle_alpha 90.000000
_cell_angle_beta 90.000000
_cell_angle_gamma 90.000000
_cell_volume 2824.160329
_symmetry_space_group_name_H-M "P M M M"
_symmetry_group_IT_number 47
_symmetry_cell_setting 'orthorhombic'
loop_
_space_group_symop_operation_xyz
x,y,z
-x,-y,z
x,-y,-z
-x,y,-z
-x,-y,-z
x,y,-z
-x,y,z
x,-y,z
loop_
_atom_site_type_symbol
_atom_site_label
_atom_site_fract_x
_atom_site_fract_y
_atom_site_fract_z
Si Si1 0.334329 0.657155 0.325961
Si Si2 0.077755 0.345537 0.672644
Si Si3 0.195436 0.904962 0.334032
Si Si4 0.794715 0.594127 0.166926
Si Si5 0.338673 0.842403 0.326083
Si Si6 0.422486 0.500000 0.324491
Si Si7 0.922689 0.827470 0.169574
Si Si8 0.577655 0.000000 0.323655
O O1 0.323474 0.648211 0.500000
O O2 0.259707 0.651256 0.251864
O O3 0.365147 0.748835 0.285008
O O4 0.384734 0.584082 0.267013
O O5 0.093178 0.347815 0.500000
O O6 0.130975 0.405241 0.755235
O O7 0.089509 0.252827 0.730582
O O8 0.000000 0.375976 0.706850
O O9 0.174935 0.876952 0.500000
O O10 0.259785 0.851736 0.271784
O O11 0.130364 0.896587 0.226113
O O12 0.220127 0.000000 0.334051
O O13 0.766993 0.500000 0.170862
O O14 0.802135 0.626797 0.000000
O O15 0.338845 0.854812 0.500000
O O16 0.386632 0.915631 0.259046
O O17 0.500000 0.500000 0.261106
O O18 0.423826 0.500000 0.500000
O O19 0.000000 0.862431 0.189349
O O20 0.908176 0.804668 0.000000
O O21 0.500000 0.000000 0.264711
O O22 0.579641 0.000000 0.500000
#
# Coordination Sequence:
#
# PCOD8195734 Si02
#       8
#     8   8   8   8   8   4   8   4
#     4  10  19  33  56  81 110 151 194 234 281 337
#     4  10  21  37  57  80 107 142 186 232 279 337
#     4  10  19  32  51  73 103 141 184 236 285 333
#     4  11  23  37  55  80 112 147 186 235 285 333
#     4   9  17  30  49  76 108 144 184 226 275 326
#     4   9  18  32  51  81 118 147 180 235 291 338
#     4  10  21  36  53  75 106 141 180 231 285 336
#     4   9  16  28  48  78 116 147 174 218 275 333
#
# _framework density 19.828901999999999
#
# number of rings (size 3 to 8) (size 9 to 14) (size 15 to 20)
#    0.000    2.143    1.429    2.143    0.000    5.143 
#    0.000    5.714    0.000    0.857    0.000    0.000 
#    0.000    4.000    0.000    0.000    0.000    0.000 
#
# Total GULP energy -694294.909787 kJ/mol
# GULP energy per Si atom -12398.123389 kJ/mol
# Density = 1.978377 g / cm^3
# Si number density = 19.828902 Si / 1000 Ang^3
#
#
#
# Elastic Constant Matrix: (Units=GPa)
#
#
# Indices 1 2 3 4 5 6 
#
# 1 132.1087 64.9084 39.5399 0.0000 0.0000 0.0000
# 2 64.9084 125.4247 28.0519 0.0000 0.0000 0.0000
# 3 39.5399 28.0519 60.8710 0.0000 0.0000 0.0000
# 4 0.0000 0.0000 0.0000 16.8206 0.0000 0.0000
# 5 0.0000 0.0000 0.0000 0.0000 10.5536 0.0000
# 6 0.0000 0.0000 0.0000 0.0000 0.0000 29.9476
#
#
#
# Elastic Compliance Matrix: (Units=1/GPa)
#
#
# Indices 1 2 3 4 5 6 
#
# 1 0.011488 -0.004767 -0.005265 0.000000 0.000000 0.000000
# 2 -0.004767 0.010868 -0.001911 0.000000 0.000000 0.000000
# 3 -0.005265 -0.001911 0.020729 0.000000 0.000000 0.000000
# 4 0.000000 0.000000 0.000000 0.059451 0.000000 0.000000
# 5 0.000000 0.000000 0.000000 0.000000 0.094755 0.000000
# 6 0.000000 0.000000 0.000000 0.000000 0.000000 0.033392
#
#
# Mechanical properties :
#
#
# Convention : Reuss Voigt Hill
#
# Bulk Modulus (GPa) = 52.09280 64.82276 58.45778
# Shear Modulus (GPa) = 19.15941 23.85796 21.50868
#
# Velocity S-wave (km/s) = 3.11181 3.47247 3.29707
# Velocity P-wave (km/s) = 6.26413 6.98852 6.63621
#
# Compressibility (1/GPa) = 0.01919651
#
# Stress axis : x y z
#
# Youngs Moduli (GPa) = 87.04964 92.01659 48.24147
#
# Poissons Ratio (x) = 0.43868 0.25399
# Poissons Ratio (y) = 0.41500 0.09221
# Poissons Ratio (z) = 0.45832 0.17589
#
# Static dielectric constant tensor:
#      x y z
#    x 3.646920 0.000000 0.000000 
#    y 0.000000 3.621110 0.000000 
#    z 0.000000 0.000000 3.276880 
# 
# 
# High freq. dielectric constant tensor:
#      x y z
#    x 1.772040 0.000000 0.000000 
#    y 0.000000 1.776530 0.000000 
#    z 0.000000 0.000000 1.736130 
# 
# From -- ./inp_files/11287.got.cif
#   From: 2010.03.12/outbox.cif.g09.slc.cpg/sg47_6_cif.got.tgz:11287.got - 2010.04.14 03:12:58.
