data_PCOD8195289
_publ_section_title
;
Structure prediction by ZEFSAII (Michael W. Deem and Ramdas Pophale) SiO2 
 PCOD8195289
Probable space group: P M M M
;
_chemical_formula_sum "Si O2"
_cell_formula_units_Z 48
_cell_length_a 16.676396
_cell_length_b 9.083897
_cell_length_c 23.402491
_cell_angle_alpha 90.000000
_cell_angle_beta 90.000000
_cell_angle_gamma 90.000000
_cell_volume 3545.165281
_symmetry_space_group_name_H-M "P M M M"
_symmetry_group_IT_number 47
_symmetry_cell_setting 'orthorhombic'
loop_
_space_group_symop_operation_xyz
x,y,z
-x,-y,z
x,-y,-z
-x,y,-z
-x,-y,-z
x,y,-z
-x,y,z
x,-y,z
loop_
_atom_site_type_symbol
_atom_site_label
_atom_site_fract_x
_atom_site_fract_y
_atom_site_fract_z
Si Si1 0.159942 0.828563 0.067439
Si Si2 0.682206 0.674144 0.898030
Si Si3 0.595587 0.164890 0.671335
Si Si4 0.408997 0.671288 0.783060
Si Si5 0.000000 0.666311 0.067765
Si Si6 0.595343 0.665537 0.562643
Si Si7 0.594899 0.168358 0.000000
O O1 0.230077 0.744417 0.100340
O O2 0.077720 0.754971 0.088995
O O3 0.158956 0.000000 0.083870
O O4 0.173040 0.806829 0.000000
O O5 0.686727 0.500000 0.909604
O O6 0.645822 0.711987 0.836588
O O7 0.625296 0.748137 0.944422
O O8 0.500000 0.171752 0.669569
O O9 0.626906 0.248244 0.727540
O O10 0.631840 0.236356 0.613594
O O11 0.628141 0.000000 0.674280
O O12 0.500000 0.722914 0.796212
O O13 0.407096 0.500000 0.769313
O O14 0.000000 0.500000 0.092692
O O15 0.000000 0.660540 0.000000
O O16 0.622269 0.725902 0.500000
O O17 0.500000 0.666770 0.566152
O O18 0.627252 0.500000 0.570755
O O19 0.500000 0.171681 0.000000
O O20 0.627337 0.000000 0.000000
#
# Coordination Sequence:
#
# PCOD8195289 Si02
#       7
#     8   8   8   8   4   8   4
#     4  10  19  31  46  64  86 105 122 147 188 235
#     4  11  21  32  47  62  77  98 129 164 196 233
#     4   9  16  24  35  51  69  90 117 152 192 230
#     4   9  18  31  43  54  70  96 130 165 199 233
#     4   9  17  29  47  67  85 103 125 147 175 220
#     4   8  13  21  33  48  66  89 115 144 182 226
#     4  11  23  35  45  58  77 100 125 159 205 247
#
# _framework density 13.539566000000001
#
# number of rings (size 3 to 8) (size 9 to 14) (size 15 to 20)
#    0.000    2.500    0.833    3.000    0.000    6.667 
#    0.000    3.333    0.000    0.000    0.000    0.000 
#    0.000    0.000    0.000    0.000    0.000    0.000 
#
# Total GULP energy -595105.340400 kJ/mol
# GULP energy per Si atom -12398.027925 kJ/mol
# Density = 1.350875 g / cm^3
# Si number density = 13.539566 Si / 1000 Ang^3
#
#
#
# Elastic Constant Matrix: (Units=GPa)
#
#
# Indices 1 2 3 4 5 6 
#
# 1 62.9874 38.4156 35.6245 0.0000 0.0000 0.0000
# 2 38.4156 98.8688 63.6632 0.0000 0.0000 0.0000
# 3 35.6245 63.6632 109.6486 0.0000 0.0000 0.0000
# 4 0.0000 0.0000 0.0000 10.9108 0.0000 0.0000
# 5 0.0000 0.0000 0.0000 0.0000 -0.5399 0.0000
# 6 0.0000 0.0000 0.0000 0.0000 0.0000 18.7435
#
#
#
# Elastic Compliance Matrix: (Units=1/GPa)
#
#
# Indices 1 2 3 4 5 6 
#
# 1 0.021582 -0.006182 -0.003423 0.000000 0.000000 0.000000
# 2 -0.006182 0.017924 -0.008399 0.000000 0.000000 0.000000
# 3 -0.003423 -0.008399 0.015108 0.000000 0.000000 0.000000
# 4 0.000000 0.000000 0.000000 0.091652 0.000000 0.000000
# 5 0.000000 0.000000 0.000000 0.000000 -1.852089 0.000000
# 6 0.000000 0.000000 0.000000 0.000000 0.000000 0.053352
#
#
# Mechanical properties :
#
#
# Convention : Reuss Voigt Hill
#
# Bulk Modulus (GPa) = 53.73855 60.76794 57.25325
# Shear Modulus (GPa) = -3.10509 14.74298 5.81894
#
# Velocity S-wave (km/s) = -1.51602 3.30340 2.07535
# Velocity P-wave (km/s) = 6.05902 7.71551 6.93689
#
# Compressibility (1/GPa) = 0.01860862
#
# Stress axis : x y z
#
# Youngs Moduli (GPa) = 46.33418 55.78985 66.18811
#
# Poissons Ratio (x) = 0.34488 0.22655
# Poissons Ratio (y) = 0.28643 0.55589
# Poissons Ratio (z) = 0.15859 0.46856
#
# Static dielectric constant tensor:
#      x y z
#    x 2.414800 0.000000 0.000000 
#    y 0.000000 2.888710 0.000000 
#    z 0.000000 0.000000 2.726890 
# 
# 
# High freq. dielectric constant tensor:
#      x y z
#    x 1.466900 0.000000 0.000000 
#    y 0.000000 1.532660 0.000000 
#    z 0.000000 0.000000 1.502460 
# 
# From -- ./inp_files/31229.got.cif
#   From: 2010.03.12/outbox.cif.g09.slc.cpg/sg47_16_cif.got.tgz:31229.got - 2010.04.14 03:12:58.
