data_PCOD8195048
_publ_section_title
;
Structure prediction by ZEFSAII (Michael W. Deem and Ramdas Pophale) SiO2 
 PCOD8195048
Probable space group: P M M M
;
_chemical_formula_sum "Si O2"
_cell_formula_units_Z 64
_cell_length_a 9.153748
_cell_length_b 23.293917
_cell_length_c 18.869521
_cell_angle_alpha 90.000000
_cell_angle_beta 90.000000
_cell_angle_gamma 90.000000
_cell_volume 4023.484677
_symmetry_space_group_name_H-M "P M M M"
_symmetry_group_IT_number 47
_symmetry_cell_setting 'orthorhombic'
loop_
_space_group_symop_operation_xyz
x,y,z
-x,-y,z
x,-y,-z
-x,y,-z
-x,-y,-z
x,y,-z
-x,y,z
x,-y,z
loop_
_atom_site_type_symbol
_atom_site_label
_atom_site_fract_x
_atom_site_fract_y
_atom_site_fract_z
Si Si1 0.169394 0.166213 0.649749
Si Si2 0.168931 0.566390 0.789938
Si Si3 0.667449 0.731802 0.579590
Si Si4 0.668535 0.749538 0.920699
Si Si5 0.332379 0.615012 0.079788
Si Si6 0.829962 0.234830 0.213057
Si Si7 0.670510 0.934389 0.580816
Si Si8 0.670879 0.338053 0.713263
O O1 0.234229 0.213671 0.597227
O O2 0.198123 0.183387 0.731481
O O3 0.242263 0.104946 0.635688
O O4 0.000000 0.161456 0.632534
O O5 0.192549 0.500000 0.772567
O O6 0.228901 0.579976 0.867986
O O7 0.255091 0.601077 0.729158
O O8 0.000000 0.583824 0.787508
O O9 0.700971 0.710860 0.500000
O O10 0.500000 0.751626 0.588468
O O11 0.701604 0.678504 0.631505
O O12 0.500000 0.762889 0.904401
O O13 0.701196 0.682199 0.914225
O O14 0.769268 0.783638 0.864155
O O15 0.708698 0.770665 0.000000
O O16 0.500000 0.602785 0.100346
O O17 0.300635 0.593687 0.000000
O O18 0.740427 0.290798 0.235619
O O19 0.000000 0.250585 0.208948
O O20 0.713508 0.919006 0.500000
O O21 0.500000 0.923953 0.592381
O O22 0.712140 0.000000 0.597393
O O23 0.500000 0.341650 0.730629
#
# Coordination Sequence:
#
# PCOD8195048 Si02
#       8
#     8   8   8   8   8   8   8   8
#     4  10  20  30  43  69 101 128 157 192 226 266
#     4  11  23  35  47  65  89 115 145 183 223 268
#     4   9  18  32  50  71  93 117 146 184 229 273
#     4   9  17  29  46  68  92 118 150 186 224 269
#     4   9  18  32  49  68  89 114 146 183 220 262
#     4  10  19  30  45  67  95 123 151 185 226 270
#     4   9  18  32  48  66  92 129 170 205 233 264
#     4  10  19  32  50  68  87 113 146 182 223 272
#
# _framework density 15.906609
#
# number of rings (size 3 to 8) (size 9 to 14) (size 15 to 20)
#    0.000    2.375    1.250    3.000    0.000    6.000 
#    0.000    3.125    0.000    0.375    0.000    2.625 
#    0.000    0.500    0.000    5.500    0.000    4.000 
#
# Total GULP energy -793599.363981 kJ/mol
# GULP energy per Si atom -12399.990062 kJ/mol
# Density = 1.587041 g / cm^3
# Si number density = 15.906609 Si / 1000 Ang^3
#
#
#
# Elastic Constant Matrix: (Units=GPa)
#
#
# Indices 1 2 3 4 5 6 
#
# 1 95.7326 53.5213 60.9837 0.0000 0.0000 0.0000
# 2 53.5213 78.1705 51.7060 0.0000 0.0000 0.0000
# 3 60.9837 51.7060 120.1272 0.0000 0.0000 0.0000
# 4 0.0000 0.0000 0.0000 22.4529 0.0000 0.0000
# 5 0.0000 0.0000 0.0000 0.0000 23.3641 0.0000
# 6 0.0000 0.0000 0.0000 0.0000 0.0000 25.4726
#
#
#
# Elastic Compliance Matrix: (Units=1/GPa)
#
#
# Indices 1 2 3 4 5 6 
#
# 1 0.019428 -0.009476 -0.005784 0.000000 0.000000 0.000000
# 2 -0.009476 0.022506 -0.004877 0.000000 0.000000 0.000000
# 3 -0.005784 -0.004877 0.013360 0.000000 0.000000 0.000000
# 4 0.000000 0.000000 0.000000 0.044538 0.000000 0.000000
# 5 0.000000 0.000000 0.000000 0.000000 0.042801 0.000000
# 6 0.000000 0.000000 0.000000 0.000000 0.000000 0.039258
#
#
# Mechanical properties :
#
#
# Convention : Reuss Voigt Hill
#
# Bulk Modulus (GPa) = 66.57525 69.60581 68.09053
# Shear Modulus (GPa) = 22.00984 22.77921 22.39452
#
# Velocity S-wave (km/s) = 3.72384 3.78836 3.75624
# Velocity P-wave (km/s) = 7.77393 7.93660 7.85569
#
# Compressibility (1/GPa) = 0.01502060
#
# Stress axis : x y z
#
# Youngs Moduli (GPa) = 51.47168 44.43212 74.85054
#
# Poissons Ratio (x) = 0.42104 0.43295
# Poissons Ratio (y) = 0.48775 0.36502
# Poissons Ratio (z) = 0.29772 0.21668
#
# Static dielectric constant tensor:
#      x y z
#    x 3.076940 0.000000 0.000000 
#    y 0.000000 2.758730 0.000000 
#    z 0.000000 0.000000 3.193540 
# 
# 
# High freq. dielectric constant tensor:
#      x y z
#    x 1.620380 0.000000 0.000000 
#    y 0.000000 1.574130 0.000000 
#    z 0.000000 0.000000 1.611980 
# 
# From -- ./inp_files/12884.got.cif
#   From: 2010.03.12/outbox.cif.g09.slc.cpg/sg47_7_cif.got.tgz:12884.got - 2010.04.14 03:12:58.
